MODEL 1
REMARK VINA RESULT:      -8.4      0.000      0.000
REMARK SMILES CCC[NH2+][C@@]1(C(=O)OCCOCCOCCOCCOC(=O)c2ccc(-c3c4nc(c(-c5ccc(S(=O)(=O)[O-])cc5)c5ccc([nH]5)c(-c5ccc(S(=O)(=O)[O-])cc5)c5nc(c(-c6ccc(S(=O)(=O)[O-])cc6)c6ccc3[nH]6)C=C5)C=C4)cc2)CCC[C@@H]1CCOC
REMARK SMILES IDX 14 1 13 2 12 3 11 4 10 5 9 6 8 7 6 8 7 9 5 10 83 11 86 12
REMARK SMILES IDX 84 13 85 14 4 15 3 18 2 19 1 20 87 21 88 22 89 23 90 24
REMARK SMILES IDX 15 25 16 26 17 27 18 28 19 29 20 30 21 31 22 32 23 33 24 34
REMARK SMILES IDX 82 35 25 36 81 37 26 38 27 39 28 40 75 41 29 42 80 43 74 44
REMARK SMILES IDX 76 45 30 46 79 47 73 48 72 49 31 51 61 52 42 53 60 54 43 55
REMARK SMILES IDX 46 56 59 57 77 58 44 59 45 60 58 62 78 63 47 64 32 65 33 66
REMARK SMILES IDX 41 67 34 68 40 69 35 70 36 71 37 72 38 73 39 74 62 75 63 76
REMARK SMILES IDX 71 77 64 78 70 79 65 80 66 81 67 82 68 83 69 84 48 85 49 86
REMARK SMILES IDX 57 87 50 88 56 89 51 90 52 91 53 92 54 93 55 94
REMARK H PARENT 4 16 4 17 76 50 46 61
REMARK Flexibility Score: inf
ROOT
ATOM      1  O   UNL A   1      34.432  21.055  26.318  1.00  0.00    -0.377 OA
ENDROOT
BRANCH   1   2
ATOM      2  C   UNL A   1      33.109  21.546  26.425  1.00  0.00     0.188 C 
BRANCH   2   3
ATOM      3  C   UNL A   1      32.234  21.438  25.179  1.00  0.00     0.188 C 
BRANCH   3   4
ATOM      4  O   UNL A   1      31.966  22.614  24.442  1.00  0.00    -0.376 OA
BRANCH   4   5
ATOM      5  C   UNL A   1      32.896  22.982  23.424  1.00  0.00     0.202 C 
BRANCH   5   6
ATOM      6  C   UNL A   1      33.044  24.464  23.018  1.00  0.00     0.261 C 
BRANCH   6   7
ATOM      7  O   UNL A   1      32.244  25.427  23.766  1.00  0.00    -0.459 OA
BRANCH   7   8
ATOM      8  C   UNL A   1      32.205  26.676  23.255  1.00  0.00     0.368 C 
ATOM      9  O   UNL A   1      32.853  26.982  22.248  1.00  0.00    -0.245 OA
BRANCH   8  10
ATOM     10  C   UNL A   1      31.361  27.769  24.039  1.00  0.00     0.197 C 
ATOM     11  C   UNL A   1      30.726  26.876  25.157  1.00  0.00     0.081 C 
ATOM     12  C   UNL A   1      30.018  28.446  23.571  1.00  0.00     0.065 C 
ATOM     13  C   UNL A   1      29.518  26.236  24.461  1.00  0.00     0.008 C 
ATOM     14  C   UNL A   1      29.014  27.286  23.480  1.00  0.00     0.011 C 
BRANCH  10  15
ATOM     15  N   UNL A   1      32.223  28.854  24.614  1.00  0.00    -0.332 N 
ATOM     16  H   UNL A   1      32.848  29.168  23.872  1.00  0.00     0.347 HD
ATOM     17  H   UNL A   1      31.560  29.546  24.961  1.00  0.00     0.347 HD
BRANCH  15  18
ATOM     18  C   UNL A   1      33.056  28.534  25.778  1.00  0.00     0.261 C 
BRANCH  18  19
ATOM     19  C   UNL A   1      32.863  29.517  26.944  1.00  0.00     0.058 C 
ATOM     20  C   UNL A   1      32.124  30.794  26.594  1.00  0.00     0.010 C 
ENDBRANCH  18  19
ENDBRANCH  15  18
ENDBRANCH  10  15
BRANCH  12  21
ATOM     21  C   UNL A   1      29.777  29.440  22.414  1.00  0.00     0.039 C 
BRANCH  21  22
ATOM     22  C   UNL A   1      28.774  30.589  22.610  1.00  0.00     0.160 C 
BRANCH  22  23
ATOM     23  O   UNL A   1      29.242  31.860  22.169  1.00  0.00    -0.385 OA
ATOM     24  C   UNL A   1      28.534  32.944  22.742  1.00  0.00     0.194 C 
ENDBRANCH  22  23
ENDBRANCH  21  22
ENDBRANCH  12  21
ENDBRANCH   8  10
ENDBRANCH   7   8
ENDBRANCH   6   7
ENDBRANCH   5   6
ENDBRANCH   4   5
ENDBRANCH   3   4
ENDBRANCH   2   3
ENDBRANCH   1   2
BRANCH   1  25
ATOM     25  C   UNL A   1      34.918  20.561  25.082  1.00  0.00     0.188 C 
BRANCH  25  26
ATOM     26  C   UNL A   1      36.426  20.360  24.954  1.00  0.00     0.188 C 
BRANCH  26  27
ATOM     27  O   UNL A   1      37.260  21.522  24.904  1.00  0.00    -0.376 OA
BRANCH  27  28
ATOM     28  C   UNL A   1      38.432  21.580  25.718  1.00  0.00     0.202 C 
BRANCH  28  29
ATOM     29  C   UNL A   1      39.253  20.294  25.746  1.00  0.00     0.261 C 
BRANCH  29  30
ATOM     30  O   UNL A   1      40.285  20.370  26.742  1.00  0.00    -0.460 OA
BRANCH  30  31
ATOM     31  C   UNL A   1      41.511  20.003  26.314  1.00  0.00     0.338 C 
ATOM     32  O   UNL A   1      41.808  18.985  25.704  1.00  0.00    -0.246 OA
BRANCH  31  33
ATOM     33  C   UNL A   1      42.458  21.109  26.532  1.00  0.00     0.060 A 
ATOM     34  C   UNL A   1      42.702  21.498  27.855  1.00  0.00     0.016 A 
ATOM     35  C   UNL A   1      43.031  21.804  25.464  1.00  0.00     0.016 A 
ATOM     36  C   UNL A   1      43.443  22.641  28.115  1.00  0.00     0.010 A 
ATOM     37  C   UNL A   1      43.767  22.961  25.724  1.00  0.00     0.010 A 
ATOM     38  C   UNL A   1      43.911  23.414  27.046  1.00  0.00    -0.014 A 
BRANCH  38  39
ATOM     39  C   UNL A   1      44.296  24.813  27.326  1.00  0.00     0.031 A 
ATOM     40  C   UNL A   1      45.732  25.206  27.102  1.00  0.00     0.074 A 
ATOM     41  C   UNL A   1      43.371  25.725  27.668  1.00  0.00     0.049 A 
ATOM     42  N   UNL A   1      46.300  26.377  27.225  1.00  0.00    -0.248 NA
ATOM     43  C   UNL A   1      46.652  24.135  26.679  1.00  0.00     0.031 C 
ATOM     44  C   UNL A   1      41.944  25.455  27.846  1.00  0.00     0.029 A 
ATOM     45  N   UNL A   1      43.496  27.066  27.910  1.00  0.00    -0.354 N 
ATOM     46  C   UNL A   1      47.639  26.180  26.902  1.00  0.00     0.074 A 
ATOM     47  C   UNL A   1      47.809  24.774  26.617  1.00  0.00     0.031 C 
ATOM     48  C   UNL A   1      41.324  26.603  28.167  1.00  0.00     0.029 A 
ATOM     49  C   UNL A   1      42.313  27.676  28.245  1.00  0.00     0.049 A 
ATOM     50  H   UNL A   1      44.354  27.547  27.849  1.00  0.00     0.167 HD
ATOM     51  C   UNL A   1      48.635  27.093  26.840  1.00  0.00     0.031 A 
ATOM     52  C   UNL A   1      42.066  28.955  28.588  1.00  0.00     0.031 A 
ATOM     53  C   UNL A   1      48.452  28.488  27.138  1.00  0.00     0.049 A 
ATOM     54  C   UNL A   1      43.207  29.938  28.583  1.00  0.00     0.074 A 
ATOM     55  C   UNL A   1      49.387  29.507  27.104  1.00  0.00     0.029 A 
ATOM     56  N   UNL A   1      47.250  29.060  27.531  1.00  0.00    -0.354 N 
ATOM     57  N   UNL A   1      44.465  29.744  28.263  1.00  0.00    -0.248 NA
ATOM     58  C   UNL A   1      42.889  31.317  28.972  1.00  0.00     0.031 C 
ATOM     59  C   UNL A   1      48.765  30.680  27.543  1.00  0.00     0.029 A 
ATOM     60  C   UNL A   1      47.425  30.410  27.774  1.00  0.00     0.049 A 
ATOM     61  H   UNL A   1      46.397  28.575  27.622  1.00  0.00     0.167 HD
ATOM     62  C   UNL A   1      45.084  30.983  28.386  1.00  0.00     0.074 A 
ATOM     63  C   UNL A   1      44.055  31.922  28.785  1.00  0.00     0.031 C 
ATOM     64  C   UNL A   1      46.385  31.320  28.186  1.00  0.00     0.031 A 
BRANCH  51  65
ATOM     65  C   UNL A   1      50.013  26.599  26.482  1.00  0.00    -0.014 A 
ATOM     66  C   UNL A   1      50.400  26.400  25.144  1.00  0.00     0.010 A 
ATOM     67  C   UNL A   1      50.947  26.352  27.506  1.00  0.00     0.010 A 
ATOM     68  C   UNL A   1      51.681  25.928  24.839  1.00  0.00     0.020 A 
ATOM     69  C   UNL A   1      52.237  25.910  27.203  1.00  0.00     0.020 A 
ATOM     70  C   UNL A   1      52.592  25.686  25.871  1.00  0.00     0.054 A 
BRANCH  70  71
ATOM     71  S   UNL A   1      54.256  25.101  25.446  1.00  0.00     0.124 S 
ATOM     72  O   UNL A   1      53.979  23.778  24.894  1.00  0.00    -0.237 OA
ATOM     73  O   UNL A   1      54.708  26.103  24.483  1.00  0.00    -0.237 OA
ATOM     74  O   UNL A   1      54.963  25.106  26.725  1.00  0.00    -0.744 OA
ENDBRANCH  70  71
ENDBRANCH  51  65
BRANCH  52  75
ATOM     75  C   UNL A   1      40.690  29.368  28.978  1.00  0.00    -0.014 A 
ATOM     76  C   UNL A   1      39.658  29.436  28.027  1.00  0.00     0.010 A 
ATOM     77  C   UNL A   1      40.407  29.695  30.318  1.00  0.00     0.010 A 
ATOM     78  C   UNL A   1      38.374  29.843  28.404  1.00  0.00     0.020 A 
ATOM     79  C   UNL A   1      39.119  30.070  30.704  1.00  0.00     0.020 A 
ATOM     80  C   UNL A   1      38.112  30.153  29.742  1.00  0.00     0.054 A 
BRANCH  80  81
ATOM     81  S   UNL A   1      36.427  30.630  30.216  1.00  0.00     0.124 S 
ATOM     82  O   UNL A   1      35.958  29.436  30.913  1.00  0.00    -0.237 OA
ATOM     83  O   UNL A   1      36.656  31.805  31.053  1.00  0.00    -0.237 OA
ATOM     84  O   UNL A   1      35.776  30.904  28.936  1.00  0.00    -0.744 OA
ENDBRANCH  80  81
ENDBRANCH  52  75
BRANCH  64  85
ATOM     85  C   UNL A   1      46.754  32.769  28.372  1.00  0.00    -0.014 A 
ATOM     86  C   UNL A   1      46.562  33.712  27.346  1.00  0.00     0.010 A 
ATOM     87  C   UNL A   1      47.280  33.197  29.606  1.00  0.00     0.010 A 
ATOM     88  C   UNL A   1      46.942  35.043  27.531  1.00  0.00     0.020 A 
ATOM     89  C   UNL A   1      47.625  34.534  29.808  1.00  0.00     0.020 A 
ATOM     90  C   UNL A   1      47.475  35.445  28.759  1.00  0.00     0.054 A 
BRANCH  90  91
ATOM     91  S   UNL A   1      47.954  37.179  28.976  1.00  0.00     0.124 S 
ATOM     92  O   UNL A   1      47.390  37.801  27.781  1.00  0.00    -0.237 OA
ATOM     93  O   UNL A   1      47.304  37.536  30.236  1.00  0.00    -0.237 OA
ATOM     94  O   UNL A   1      49.413  37.135  29.025  1.00  0.00    -0.744 OA
ENDBRANCH  90  91
ENDBRANCH  64  85
ENDBRANCH  38  39
ENDBRANCH  31  33
ENDBRANCH  30  31
ENDBRANCH  29  30
ENDBRANCH  28  29
ENDBRANCH  27  28
ENDBRANCH  26  27
ENDBRANCH  25  26
ENDBRANCH   1  25
TORSDOF 29
ENDMDL
MODEL 2
REMARK VINA RESULT:      -8.3      2.794      8.962
REMARK SMILES CCC[NH2+][C@@]1(C(=O)OCCOCCOCCOCCOC(=O)c2ccc(-c3c4nc(c(-c5ccc(S(=O)(=O)[O-])cc5)c5ccc([nH]5)c(-c5ccc(S(=O)(=O)[O-])cc5)c5nc(c(-c6ccc(S(=O)(=O)[O-])cc6)c6ccc3[nH]6)C=C5)C=C4)cc2)CCC[C@@H]1CCOC
REMARK SMILES IDX 14 1 13 2 12 3 11 4 10 5 9 6 8 7 6 8 7 9 5 10 83 11 86 12
REMARK SMILES IDX 84 13 85 14 4 15 3 18 2 19 1 20 87 21 88 22 89 23 90 24
REMARK SMILES IDX 15 25 16 26 17 27 18 28 19 29 20 30 21 31 22 32 23 33 24 34
REMARK SMILES IDX 82 35 25 36 81 37 26 38 27 39 28 40 75 41 29 42 80 43 74 44
REMARK SMILES IDX 76 45 30 46 79 47 73 48 72 49 31 51 61 52 42 53 60 54 43 55
REMARK SMILES IDX 46 56 59 57 77 58 44 59 45 60 58 62 78 63 47 64 32 65 33 66
REMARK SMILES IDX 41 67 34 68 40 69 35 70 36 71 37 72 38 73 39 74 62 75 63 76
REMARK SMILES IDX 71 77 64 78 70 79 65 80 66 81 67 82 68 83 69 84 48 85 49 86
REMARK SMILES IDX 57 87 50 88 56 89 51 90 52 91 53 92 54 93 55 94
REMARK H PARENT 4 16 4 17 76 50 46 61
REMARK Flexibility Score: inf
ROOT
ATOM      1  O   UNL A   1      34.624  21.401  26.123  1.00  0.00    -0.377 OA
ENDROOT
BRANCH   1   2
ATOM      2  C   UNL A   1      34.225  22.483  26.945  1.00  0.00     0.188 C 
BRANCH   2   3
ATOM      3  C   UNL A   1      32.794  22.449  27.476  1.00  0.00     0.188 C 
BRANCH   3   4
ATOM      4  O   UNL A   1      32.079  23.666  27.560  1.00  0.00    -0.376 OA
BRANCH   4   5
ATOM      5  C   UNL A   1      31.362  24.091  26.401  1.00  0.00     0.202 C 
BRANCH   5   6
ATOM      6  C   UNL A   1      31.272  25.595  26.063  1.00  0.00     0.261 C 
BRANCH   6   7
ATOM      7  O   UNL A   1      32.484  26.381  26.262  1.00  0.00    -0.459 OA
BRANCH   7   8
ATOM      8  C   UNL A   1      32.292  27.684  26.560  1.00  0.00     0.368 C 
ATOM      9  O   UNL A   1      31.661  28.031  27.564  1.00  0.00    -0.245 OA
BRANCH   8  10
ATOM     10  C   UNL A   1      32.834  28.764  25.530  1.00  0.00     0.197 C 
ATOM     11  C   UNL A   1      31.593  29.714  25.445  1.00  0.00     0.081 C 
ATOM     12  C   UNL A   1      33.022  28.582  23.976  1.00  0.00     0.065 C 
ATOM     13  C   UNL A   1      30.671  29.009  24.441  1.00  0.00     0.008 C 
ATOM     14  C   UNL A   1      31.602  28.333  23.444  1.00  0.00     0.011 C 
BRANCH  10  15
ATOM     15  N   UNL A   1      34.050  29.480  26.038  1.00  0.00    -0.332 N 
ATOM     16  H   UNL A   1      34.678  28.773  26.422  1.00  0.00     0.347 HD
ATOM     17  H   UNL A   1      34.399  29.992  25.228  1.00  0.00     0.347 HD
BRANCH  15  18
ATOM     18  C   UNL A   1      33.870  30.507  27.069  1.00  0.00     0.261 C 
BRANCH  18  19
ATOM     19  C   UNL A   1      35.102  30.677  27.971  1.00  0.00     0.058 C 
ATOM     20  C   UNL A   1      36.084  29.521  27.946  1.00  0.00     0.010 C 
ENDBRANCH  18  19
ENDBRANCH  15  18
ENDBRANCH  10  15
BRANCH  12  21
ATOM     21  C   UNL A   1      34.030  27.697  23.211  1.00  0.00     0.039 C 
BRANCH  21  22
ATOM     22  C   UNL A   1      33.569  26.963  21.941  1.00  0.00     0.160 C 
BRANCH  22  23
ATOM     23  O   UNL A   1      33.544  25.543  22.060  1.00  0.00    -0.385 OA
ATOM     24  C   UNL A   1      34.018  25.080  23.311  1.00  0.00     0.194 C 
ENDBRANCH  22  23
ENDBRANCH  21  22
ENDBRANCH  12  21
ENDBRANCH   8  10
ENDBRANCH   7   8
ENDBRANCH   6   7
ENDBRANCH   5   6
ENDBRANCH   4   5
ENDBRANCH   3   4
ENDBRANCH   2   3
ENDBRANCH   1   2
BRANCH   1  25
ATOM     25  C   UNL A   1      34.819  21.587  24.732  1.00  0.00     0.188 C 
BRANCH  25  26
ATOM     26  C   UNL A   1      36.188  22.091  24.280  1.00  0.00     0.188 C 
BRANCH  26  27
ATOM     27  O   UNL A   1      37.314  21.224  24.447  1.00  0.00    -0.376 OA
BRANCH  27  28
ATOM     28  C   UNL A   1      37.922  21.105  25.734  1.00  0.00     0.202 C 
BRANCH  28  29
ATOM     29  C   UNL A   1      39.301  21.749  25.851  1.00  0.00     0.261 C 
BRANCH  29  30
ATOM     30  O   UNL A   1      39.353  22.638  26.977  1.00  0.00    -0.460 OA
BRANCH  30  31
ATOM     31  C   UNL A   1      38.935  23.896  26.723  1.00  0.00     0.338 C 
ATOM     32  O   UNL A   1      37.796  24.260  26.469  1.00  0.00    -0.246 OA
BRANCH  31  33
ATOM     33  C   UNL A   1      40.039  24.838  26.968  1.00  0.00     0.060 A 
ATOM     34  C   UNL A   1      40.638  24.816  28.233  1.00  0.00     0.016 A 
ATOM     35  C   UNL A   1      40.424  25.780  26.010  1.00  0.00     0.016 A 
ATOM     36  C   UNL A   1      41.558  25.794  28.581  1.00  0.00     0.010 A 
ATOM     37  C   UNL A   1      41.340  26.772  26.363  1.00  0.00     0.010 A 
ATOM     38  C   UNL A   1      41.852  26.816  27.670  1.00  0.00    -0.014 A 
BRANCH  38  39
ATOM     39  C   UNL A   1      42.465  28.052  28.198  1.00  0.00     0.031 A 
ATOM     40  C   UNL A   1      41.549  29.108  28.760  1.00  0.00     0.074 A 
ATOM     41  C   UNL A   1      43.799  28.182  28.269  1.00  0.00     0.049 A 
ATOM     42  N   UNL A   1      41.845  30.247  29.325  1.00  0.00    -0.248 NA
ATOM     43  C   UNL A   1      40.102  28.839  28.676  1.00  0.00     0.031 C 
ATOM     44  C   UNL A   1      44.770  27.188  27.810  1.00  0.00     0.029 A 
ATOM     45  N   UNL A   1      44.565  29.200  28.769  1.00  0.00    -0.354 N 
ATOM     46  C   UNL A   1      40.627  30.831  29.656  1.00  0.00     0.074 A 
ATOM     47  C   UNL A   1      39.586  29.942  29.194  1.00  0.00     0.031 C 
ATOM     48  C   UNL A   1      46.009  27.649  28.056  1.00  0.00     0.029 A 
ATOM     49  C   UNL A   1      45.915  28.977  28.659  1.00  0.00     0.049 A 
ATOM     50  H   UNL A   1      44.184  30.016  29.169  1.00  0.00     0.167 HD
ATOM     51  C   UNL A   1      40.397  32.001  30.295  1.00  0.00     0.031 A 
ATOM     52  C   UNL A   1      46.953  29.765  28.997  1.00  0.00     0.031 A 
ATOM     53  C   UNL A   1      41.444  32.881  30.739  1.00  0.00     0.049 A 
ATOM     54  C   UNL A   1      46.670  31.097  29.643  1.00  0.00     0.074 A 
ATOM     55  C   UNL A   1      41.331  34.089  31.403  1.00  0.00     0.029 A 
ATOM     56  N   UNL A   1      42.800  32.648  30.559  1.00  0.00    -0.354 N 
ATOM     57  N   UNL A   1      45.514  31.631  29.962  1.00  0.00    -0.248 NA
ATOM     58  C   UNL A   1      47.833  31.923  29.986  1.00  0.00     0.031 C 
ATOM     59  C   UNL A   1      42.615  34.619  31.562  1.00  0.00     0.029 A 
ATOM     60  C   UNL A   1      43.533  33.704  31.069  1.00  0.00     0.049 A 
ATOM     61  H   UNL A   1      43.183  31.848  30.132  1.00  0.00     0.167 HD
ATOM     62  C   UNL A   1      45.813  32.847  30.569  1.00  0.00     0.074 A 
ATOM     63  C   UNL A   1      47.258  32.953  30.593  1.00  0.00     0.031 C 
ATOM     64  C   UNL A   1      44.973  33.791  31.065  1.00  0.00     0.031 A 
BRANCH  51  65
ATOM     65  C   UNL A   1      38.962  32.410  30.508  1.00  0.00    -0.014 A 
ATOM     66  C   UNL A   1      38.240  33.106  29.521  1.00  0.00     0.010 A 
ATOM     67  C   UNL A   1      38.317  32.070  31.711  1.00  0.00     0.010 A 
ATOM     68  C   UNL A   1      36.913  33.485  29.748  1.00  0.00     0.020 A 
ATOM     69  C   UNL A   1      36.982  32.421  31.930  1.00  0.00     0.020 A 
ATOM     70  C   UNL A   1      36.292  33.140  30.952  1.00  0.00     0.054 A 
BRANCH  70  71
ATOM     71  S   UNL A   1      34.562  33.620  31.210  1.00  0.00     0.124 S 
ATOM     72  O   UNL A   1      34.040  33.609  29.846  1.00  0.00    -0.237 OA
ATOM     73  O   UNL A   1      34.064  32.559  32.082  1.00  0.00    -0.237 OA
ATOM     74  O   UNL A   1      34.655  34.940  31.829  1.00  0.00    -0.744 OA
ENDBRANCH  70  71
ENDBRANCH  51  65
BRANCH  52  75
ATOM     75  C   UNL A   1      48.346  29.322  28.717  1.00  0.00    -0.014 A 
ATOM     76  C   UNL A   1      48.974  29.631  27.499  1.00  0.00     0.010 A 
ATOM     77  C   UNL A   1      49.057  28.585  29.683  1.00  0.00     0.010 A 
ATOM     78  C   UNL A   1      50.277  29.193  27.242  1.00  0.00     0.020 A 
ATOM     79  C   UNL A   1      50.370  28.174  29.444  1.00  0.00     0.020 A 
ATOM     80  C   UNL A   1      50.969  28.471  28.220  1.00  0.00     0.054 A 
BRANCH  80  81
ATOM     81  S   UNL A   1      52.676  27.957  27.884  1.00  0.00     0.124 S 
ATOM     82  O   UNL A   1      52.831  26.816  28.780  1.00  0.00    -0.237 OA
ATOM     83  O   UNL A   1      52.635  27.644  26.458  1.00  0.00    -0.237 OA
ATOM     84  O   UNL A   1      53.463  29.138  28.233  1.00  0.00    -0.744 OA
ENDBRANCH  80  81
ENDBRANCH  52  75
BRANCH  64  85
ATOM     85  C   UNL A   1      45.603  35.006  31.698  1.00  0.00    -0.014 A 
ATOM     86  C   UNL A   1      45.948  35.027  33.060  1.00  0.00     0.010 A 
ATOM     87  C   UNL A   1      45.877  36.135  30.904  1.00  0.00     0.010 A 
ATOM     88  C   UNL A   1      46.502  36.175  33.631  1.00  0.00     0.020 A 
ATOM     89  C   UNL A   1      46.465  37.272  31.462  1.00  0.00     0.020 A 
ATOM     90  C   UNL A   1      46.753  37.292  32.828  1.00  0.00     0.054 A 
BRANCH  90  91
ATOM     91  S   UNL A   1      47.478  38.768  33.591  1.00  0.00     0.124 S 
ATOM     92  O   UNL A   1      48.699  38.944  32.809  1.00  0.00    -0.237 OA
ATOM     93  O   UNL A   1      46.445  39.779  33.379  1.00  0.00    -0.237 OA
ATOM     94  O   UNL A   1      47.682  38.376  34.983  1.00  0.00    -0.744 OA
ENDBRANCH  90  91
ENDBRANCH  64  85
ENDBRANCH  38  39
ENDBRANCH  31  33
ENDBRANCH  30  31
ENDBRANCH  29  30
ENDBRANCH  28  29
ENDBRANCH  27  28
ENDBRANCH  26  27
ENDBRANCH  25  26
ENDBRANCH   1  25
TORSDOF 29
ENDMDL
MODEL 3
REMARK VINA RESULT:      -8.3      2.802      4.199
REMARK SMILES CCC[NH2+][C@@]1(C(=O)OCCOCCOCCOCCOC(=O)c2ccc(-c3c4nc(c(-c5ccc(S(=O)(=O)[O-])cc5)c5ccc([nH]5)c(-c5ccc(S(=O)(=O)[O-])cc5)c5nc(c(-c6ccc(S(=O)(=O)[O-])cc6)c6ccc3[nH]6)C=C5)C=C4)cc2)CCC[C@@H]1CCOC
REMARK SMILES IDX 14 1 13 2 12 3 11 4 10 5 9 6 8 7 6 8 7 9 5 10 83 11 86 12
REMARK SMILES IDX 84 13 85 14 4 15 3 18 2 19 1 20 87 21 88 22 89 23 90 24
REMARK SMILES IDX 15 25 16 26 17 27 18 28 19 29 20 30 21 31 22 32 23 33 24 34
REMARK SMILES IDX 82 35 25 36 81 37 26 38 27 39 28 40 75 41 29 42 80 43 74 44
REMARK SMILES IDX 76 45 30 46 79 47 73 48 72 49 31 51 61 52 42 53 60 54 43 55
REMARK SMILES IDX 46 56 59 57 77 58 44 59 45 60 58 62 78 63 47 64 32 65 33 66
REMARK SMILES IDX 41 67 34 68 40 69 35 70 36 71 37 72 38 73 39 74 62 75 63 76
REMARK SMILES IDX 71 77 64 78 70 79 65 80 66 81 67 82 68 83 69 84 48 85 49 86
REMARK SMILES IDX 57 87 50 88 56 89 51 90 52 91 53 92 54 93 55 94
REMARK H PARENT 4 16 4 17 76 50 46 61
REMARK Flexibility Score: inf
ROOT
ATOM      1  O   UNL A   1      34.633  21.334  26.067  1.00  0.00    -0.377 OA
ENDROOT
BRANCH   1   2
ATOM      2  C   UNL A   1      34.252  22.429  26.879  1.00  0.00     0.188 C 
BRANCH   2   3
ATOM      3  C   UNL A   1      32.851  22.379  27.483  1.00  0.00     0.188 C 
BRANCH   3   4
ATOM      4  O   UNL A   1      32.116  23.584  27.576  1.00  0.00    -0.376 OA
BRANCH   4   5
ATOM      5  C   UNL A   1      31.336  23.970  26.445  1.00  0.00     0.202 C 
BRANCH   5   6
ATOM      6  C   UNL A   1      31.199  25.464  26.081  1.00  0.00     0.261 C 
BRANCH   6   7
ATOM      7  O   UNL A   1      32.395  26.284  26.232  1.00  0.00    -0.459 OA
BRANCH   7   8
ATOM      8  C   UNL A   1      32.178  27.585  26.522  1.00  0.00     0.368 C 
ATOM      9  O   UNL A   1      31.551  27.927  27.529  1.00  0.00    -0.245 OA
BRANCH   8  10
ATOM     10  C   UNL A   1      32.688  28.668  25.477  1.00  0.00     0.197 C 
ATOM     11  C   UNL A   1      31.414  29.571  25.372  1.00  0.00     0.081 C 
ATOM     12  C   UNL A   1      32.890  28.468  23.928  1.00  0.00     0.065 C 
ATOM     13  C   UNL A   1      30.523  28.818  24.375  1.00  0.00     0.008 C 
ATOM     14  C   UNL A   1      31.483  28.160  23.393  1.00  0.00     0.011 C 
BRANCH  10  15
ATOM     15  N   UNL A   1      33.875  29.434  25.981  1.00  0.00    -0.332 N 
ATOM     16  H   UNL A   1      34.520  28.758  26.388  1.00  0.00     0.347 HD
ATOM     17  H   UNL A   1      34.216  29.938  25.162  1.00  0.00     0.347 HD
BRANCH  15  18
ATOM     18  C   UNL A   1      33.650  30.480  26.984  1.00  0.00     0.261 C 
BRANCH  18  19
ATOM     19  C   UNL A   1      34.843  30.668  27.935  1.00  0.00     0.058 C 
ATOM     20  C   UNL A   1      35.809  29.500  27.994  1.00  0.00     0.010 C 
ENDBRANCH  18  19
ENDBRANCH  15  18
ENDBRANCH  10  15
BRANCH  12  21
ATOM     21  C   UNL A   1      33.934  27.609  23.182  1.00  0.00     0.039 C 
BRANCH  21  22
ATOM     22  C   UNL A   1      33.514  26.862  21.904  1.00  0.00     0.160 C 
BRANCH  22  23
ATOM     23  O   UNL A   1      33.496  25.444  22.032  1.00  0.00    -0.385 OA
ATOM     24  C   UNL A   1      33.955  24.991  23.293  1.00  0.00     0.194 C 
ENDBRANCH  22  23
ENDBRANCH  21  22
ENDBRANCH  12  21
ENDBRANCH   8  10
ENDBRANCH   7   8
ENDBRANCH   6   7
ENDBRANCH   5   6
ENDBRANCH   4   5
ENDBRANCH   3   4
ENDBRANCH   2   3
ENDBRANCH   1   2
BRANCH   1  25
ATOM     25  C   UNL A   1      34.764  21.489  24.664  1.00  0.00     0.188 C 
BRANCH  25  26
ATOM     26  C   UNL A   1      36.118  21.960  24.137  1.00  0.00     0.188 C 
BRANCH  26  27
ATOM     27  O   UNL A   1      37.241  21.084  24.285  1.00  0.00    -0.376 OA
BRANCH  27  28
ATOM     28  C   UNL A   1      37.873  20.964  25.560  1.00  0.00     0.202 C 
BRANCH  28  29
ATOM     29  C   UNL A   1      39.244  21.628  25.658  1.00  0.00     0.261 C 
BRANCH  29  30
ATOM     30  O   UNL A   1      39.282  22.558  26.751  1.00  0.00    -0.460 OA
BRANCH  30  31
ATOM     31  C   UNL A   1      38.864  23.805  26.447  1.00  0.00     0.338 C 
ATOM     32  O   UNL A   1      37.764  24.135  26.026  1.00  0.00    -0.246 OA
BRANCH  31  33
ATOM     33  C   UNL A   1      39.885  24.780  26.865  1.00  0.00     0.060 A 
ATOM     34  C   UNL A   1      40.218  24.823  28.224  1.00  0.00     0.016 A 
ATOM     35  C   UNL A   1      40.442  25.689  25.962  1.00  0.00     0.016 A 
ATOM     36  C   UNL A   1      41.038  25.833  28.704  1.00  0.00     0.010 A 
ATOM     37  C   UNL A   1      41.257  26.713  26.446  1.00  0.00     0.010 A 
ATOM     38  C   UNL A   1      41.496  26.822  27.825  1.00  0.00    -0.014 A 
BRANCH  38  39
ATOM     39  C   UNL A   1      41.975  28.092  28.410  1.00  0.00     0.031 A 
ATOM     40  C   UNL A   1      43.455  28.369  28.372  1.00  0.00     0.074 A 
ATOM     41  C   UNL A   1      41.108  29.011  28.864  1.00  0.00     0.049 A 
ATOM     42  N   UNL A   1      44.111  29.427  28.769  1.00  0.00    -0.248 NA
ATOM     43  C   UNL A   1      44.311  27.310  27.806  1.00  0.00     0.031 C 
ATOM     44  C   UNL A   1      39.652  28.862  28.883  1.00  0.00     0.029 A 
ATOM     45  N   UNL A   1      41.329  30.259  29.381  1.00  0.00    -0.354 N 
ATOM     46  C   UNL A   1      45.451  29.158  28.508  1.00  0.00     0.074 A 
ATOM     47  C   UNL A   1      45.521  27.825  27.956  1.00  0.00     0.031 C 
ATOM     48  C   UNL A   1      39.110  29.985  29.386  1.00  0.00     0.029 A 
ATOM     49  C   UNL A   1      40.179  30.912  29.749  1.00  0.00     0.049 A 
ATOM     50  H   UNL A   1      42.228  30.650  29.480  1.00  0.00     0.167 HD
ATOM     51  C   UNL A   1      46.525  29.956  28.704  1.00  0.00     0.031 A 
ATOM     52  C   UNL A   1      40.017  32.118  30.327  1.00  0.00     0.031 A 
ATOM     53  C   UNL A   1      46.440  31.278  29.265  1.00  0.00     0.049 A 
ATOM     54  C   UNL A   1      41.236  32.959  30.601  1.00  0.00     0.074 A 
ATOM     55  C   UNL A   1      47.461  32.180  29.504  1.00  0.00     0.029 A 
ATOM     56  N   UNL A   1      45.263  31.884  29.679  1.00  0.00    -0.354 N 
ATOM     57  N   UNL A   1      42.496  32.700  30.338  1.00  0.00    -0.248 NA
ATOM     58  C   UNL A   1      41.008  34.261  31.238  1.00  0.00     0.031 C 
ATOM     59  C   UNL A   1      46.909  33.304  30.127  1.00  0.00     0.029 A 
ATOM     60  C   UNL A   1      45.535  33.135  30.204  1.00  0.00     0.049 A 
ATOM     61  H   UNL A   1      44.366  31.483  29.611  1.00  0.00     0.167 HD
ATOM     62  C   UNL A   1      43.209  33.819  30.753  1.00  0.00     0.074 A 
ATOM     63  C   UNL A   1      42.235  34.765  31.261  1.00  0.00     0.031 C 
ATOM     64  C   UNL A   1      44.547  34.051  30.717  1.00  0.00     0.031 A 
BRANCH  51  65
ATOM     65  C   UNL A   1      47.881  29.400  28.350  1.00  0.00    -0.014 A 
ATOM     66  C   UNL A   1      48.521  28.445  29.161  1.00  0.00     0.010 A 
ATOM     67  C   UNL A   1      48.516  29.827  27.169  1.00  0.00     0.010 A 
ATOM     68  C   UNL A   1      49.784  27.955  28.818  1.00  0.00     0.020 A 
ATOM     69  C   UNL A   1      49.766  29.317  26.806  1.00  0.00     0.020 A 
ATOM     70  C   UNL A   1      50.399  28.395  27.641  1.00  0.00     0.054 A 
BRANCH  70  71
ATOM     71  S   UNL A   1      52.026  27.721  27.204  1.00  0.00     0.124 S 
ATOM     72  O   UNL A   1      51.861  26.305  27.521  1.00  0.00    -0.237 OA
ATOM     73  O   UNL A   1      52.130  28.040  25.782  1.00  0.00    -0.237 OA
ATOM     74  O   UNL A   1      52.949  28.449  28.073  1.00  0.00    -0.744 OA
ENDBRANCH  70  71
ENDBRANCH  51  65
BRANCH  52  75
ATOM     75  C   UNL A   1      38.653  32.589  30.694  1.00  0.00    -0.014 A 
ATOM     76  C   UNL A   1      38.125  32.351  31.975  1.00  0.00     0.010 A 
ATOM     77  C   UNL A   1      37.873  33.287  29.754  1.00  0.00     0.010 A 
ATOM     78  C   UNL A   1      36.836  32.784  32.301  1.00  0.00     0.020 A 
ATOM     79  C   UNL A   1      36.598  33.750  30.086  1.00  0.00     0.020 A 
ATOM     80  C   UNL A   1      36.082  33.485  31.354  1.00  0.00     0.054 A 
BRANCH  80  81
ATOM     81  S   UNL A   1      34.432  34.080  31.817  1.00  0.00     0.124 S 
ATOM     82  O   UNL A   1      33.776  34.196  30.519  1.00  0.00    -0.237 OA
ATOM     83  O   UNL A   1      33.944  33.010  32.683  1.00  0.00    -0.237 OA
ATOM     84  O   UNL A   1      34.703  35.346  32.496  1.00  0.00    -0.744 OA
ENDBRANCH  80  81
ENDBRANCH  52  75
BRANCH  64  85
ATOM     85  C   UNL A   1      45.024  35.390  31.219  1.00  0.00    -0.014 A 
ATOM     86  C   UNL A   1      45.105  36.505  30.367  1.00  0.00     0.010 A 
ATOM     87  C   UNL A   1      45.374  35.536  32.574  1.00  0.00     0.010 A 
ATOM     88  C   UNL A   1      45.581  37.727  30.848  1.00  0.00     0.020 A 
ATOM     89  C   UNL A   1      45.815  36.766  33.067  1.00  0.00     0.020 A 
ATOM     90  C   UNL A   1      45.937  37.848  32.194  1.00  0.00     0.054 A 
BRANCH  90  91
ATOM     91  S   UNL A   1      46.546  39.446  32.794  1.00  0.00     0.124 S 
ATOM     92  O   UNL A   1      45.594  39.753  33.858  1.00  0.00    -0.237 OA
ATOM     93  O   UNL A   1      47.901  39.127  33.236  1.00  0.00    -0.237 OA
ATOM     94  O   UNL A   1      46.467  40.312  31.620  1.00  0.00    -0.744 OA
ENDBRANCH  90  91
ENDBRANCH  64  85
ENDBRANCH  38  39
ENDBRANCH  31  33
ENDBRANCH  30  31
ENDBRANCH  29  30
ENDBRANCH  28  29
ENDBRANCH  27  28
ENDBRANCH  26  27
ENDBRANCH  25  26
ENDBRANCH   1  25
TORSDOF 29
ENDMDL
