MODEL 1
REMARK VINA RESULT:      -8.8      0.000      0.000
REMARK SMILES CN(c1ccccc1C(=O)OCCOCCOCCOCCOC(=O)c1ccc(-c2c3nc(c(-c4ccc(S(=O)(=O)[O-])cc4)c4ccc([nH]4)c(-c4ccc(S(=O)(=O)[O-])cc4)c4nc(c(-c5ccc(S(=O)(=O)[O-])cc5)c5ccc2[nH]5)C=C4)C=C3)cc1)S(=O)(=O)c1ccc(I)cc1
REMARK SMILES IDX 17 1 16 2 15 3 14 4 13 5 12 6 11 7 9 8 10 9 8 10 3 11 4 12
REMARK SMILES IDX 5 13 7 14 6 15 2 16 1 17 86 18 87 19 88 20 89 21 90 22 95 23
REMARK SMILES IDX 91 24 94 25 92 26 93 27 18 28 19 29 20 30 21 31 22 32 23 33
REMARK SMILES IDX 24 34 25 35 26 36 27 37 85 38 28 39 84 40 29 41 30 42 31 43
REMARK SMILES IDX 78 44 32 45 83 46 77 47 79 48 33 49 82 50 76 51 75 52 34 54
REMARK SMILES IDX 64 55 45 56 63 57 46 58 49 59 62 60 80 61 47 62 48 63 61 65
REMARK SMILES IDX 81 66 50 67 35 68 36 69 44 70 37 71 43 72 38 73 39 74 40 75
REMARK SMILES IDX 41 76 42 77 65 78 66 79 74 80 67 81 73 82 68 83 69 84 70 85
REMARK SMILES IDX 71 86 72 87 51 88 52 89 60 90 53 91 59 92 54 93 55 94 56 95
REMARK SMILES IDX 57 96 58 97
REMARK H PARENT 79 53 49 64
REMARK Flexibility Score: inf
ROOT
ATOM      1  O   UNL A   1      44.436  23.797  31.695  1.00  0.00    -0.377 OA
ENDROOT
BRANCH   1   2
ATOM      2  C   UNL A   1      44.098  22.987  32.795  1.00  0.00     0.188 C 
BRANCH   2   3
ATOM      3  C   UNL A   1      45.207  22.815  33.850  1.00  0.00     0.188 C 
BRANCH   3   4
ATOM      4  O   UNL A   1      45.280  21.621  34.603  1.00  0.00    -0.376 OA
BRANCH   4   5
ATOM      5  C   UNL A   1      45.655  21.602  35.973  1.00  0.00     0.202 C 
BRANCH   5   6
ATOM      6  C   UNL A   1      46.281  20.413  36.724  1.00  0.00     0.261 C 
BRANCH   6   7
ATOM      7  O   UNL A   1      46.011  20.322  38.121  1.00  0.00    -0.460 OA
BRANCH   7   8
ATOM      8  C   UNL A   1      45.968  19.081  38.636  1.00  0.00     0.340 C 
ATOM      9  O   UNL A   1      45.434  18.106  38.129  1.00  0.00    -0.246 OA
BRANCH   8  10
ATOM     10  C   UNL A   1      46.859  18.959  39.809  1.00  0.00     0.084 A 
ATOM     11  C   UNL A   1      46.503  19.007  41.170  1.00  0.00     0.066 A 
ATOM     12  C   UNL A   1      47.488  18.578  42.080  1.00  0.00     0.028 A 
ATOM     13  C   UNL A   1      48.810  18.310  41.707  1.00  0.00     0.002 A 
ATOM     14  C   UNL A   1      48.197  18.671  39.433  1.00  0.00     0.018 A 
ATOM     15  C   UNL A   1      49.177  18.392  40.378  1.00  0.00     0.001 A 
BRANCH  11  16
ATOM     16  N   UNL A   1      45.226  19.362  41.772  1.00  0.00    -0.269 N 
ATOM     17  C   UNL A   1      44.832  20.786  41.899  1.00  0.00     0.164 C 
BRANCH  16  18
ATOM     18  S   UNL A   1      44.574  18.443  43.094  1.00  0.00     0.264 S 
ATOM     19  O   UNL A   1      45.659  17.962  43.923  1.00  0.00    -0.201 OA
ATOM     20  O   UNL A   1      43.535  19.268  43.684  1.00  0.00    -0.201 OA
BRANCH  18  21
ATOM     21  C   UNL A   1      43.753  16.992  42.457  1.00  0.00     0.088 A 
ATOM     22  C   UNL A   1      43.424  16.908  41.098  1.00  0.00     0.023 A 
ATOM     23  C   UNL A   1      43.361  15.980  43.343  1.00  0.00     0.023 A 
ATOM     24  C   UNL A   1      42.761  15.776  40.615  1.00  0.00     0.016 A 
ATOM     25  C   UNL A   1      42.711  14.845  42.855  1.00  0.00     0.016 A 
ATOM     26  C   UNL A   1      42.421  14.744  41.492  1.00  0.00     0.013 A 
ATOM     27  I   UNL A   1      41.465  13.045  40.766  1.00  0.00    -0.044 I 
ENDBRANCH  18  21
ENDBRANCH  16  18
ENDBRANCH  11  16
ENDBRANCH   8  10
ENDBRANCH   7   8
ENDBRANCH   6   7
ENDBRANCH   5   6
ENDBRANCH   4   5
ENDBRANCH   3   4
ENDBRANCH   2   3
ENDBRANCH   1   2
BRANCH   1  28
ATOM     28  C   UNL A   1      44.215  23.332  30.371  1.00  0.00     0.188 C 
BRANCH  28  29
ATOM     29  C   UNL A   1      42.786  23.139  29.821  1.00  0.00     0.188 C 
BRANCH  29  30
ATOM     30  O   UNL A   1      42.701  23.019  28.409  1.00  0.00    -0.376 OA
BRANCH  30  31
ATOM     31  C   UNL A   1      42.477  21.736  27.853  1.00  0.00     0.202 C 
BRANCH  31  32
ATOM     32  C   UNL A   1      41.106  21.471  27.212  1.00  0.00     0.261 C 
BRANCH  32  33
ATOM     33  O   UNL A   1      40.742  22.322  26.117  1.00  0.00    -0.460 OA
BRANCH  33  34
ATOM     34  C   UNL A   1      39.512  22.884  26.152  1.00  0.00     0.338 C 
ATOM     35  O   UNL A   1      38.461  22.361  25.854  1.00  0.00    -0.246 OA
BRANCH  34  36
ATOM     36  C   UNL A   1      39.648  24.207  26.800  1.00  0.00     0.060 A 
ATOM     37  C   UNL A   1      40.358  25.218  26.140  1.00  0.00     0.016 A 
ATOM     38  C   UNL A   1      39.077  24.442  28.053  1.00  0.00     0.016 A 
ATOM     39  C   UNL A   1      40.537  26.457  26.754  1.00  0.00     0.010 A 
ATOM     40  C   UNL A   1      39.272  25.677  28.674  1.00  0.00     0.010 A 
ATOM     41  C   UNL A   1      40.034  26.678  28.043  1.00  0.00    -0.014 A 
BRANCH  41  42
ATOM     42  C   UNL A   1      40.467  27.871  28.810  1.00  0.00     0.031 A 
ATOM     43  C   UNL A   1      41.842  27.867  29.422  1.00  0.00     0.074 A 
ATOM     44  C   UNL A   1      39.668  28.945  28.945  1.00  0.00     0.049 A 
ATOM     45  N   UNL A   1      42.426  28.774  30.162  1.00  0.00    -0.248 NA
ATOM     46  C   UNL A   1      42.669  26.676  29.167  1.00  0.00     0.031 C 
ATOM     47  C   UNL A   1      38.335  29.088  28.364  1.00  0.00     0.029 A 
ATOM     48  N   UNL A   1      39.868  30.121  29.626  1.00  0.00    -0.354 N 
ATOM     49  C   UNL A   1      43.681  28.260  30.469  1.00  0.00     0.074 A 
ATOM     50  C   UNL A   1      43.762  26.949  29.863  1.00  0.00     0.031 C 
ATOM     51  C   UNL A   1      37.833  30.285  28.716  1.00  0.00     0.029 A 
ATOM     52  C   UNL A   1      38.792  30.974  29.580  1.00  0.00     0.049 A 
ATOM     53  H   UNL A   1      40.704  30.332  30.101  1.00  0.00     0.167 HD
ATOM     54  C   UNL A   1      44.678  28.829  31.187  1.00  0.00     0.031 A 
ATOM     55  C   UNL A   1      38.595  32.164  30.184  1.00  0.00     0.031 A 
ATOM     56  C   UNL A   1      44.583  30.124  31.806  1.00  0.00     0.049 A 
ATOM     57  C   UNL A   1      39.687  32.742  31.047  1.00  0.00     0.074 A 
ATOM     58  C   UNL A   1      45.540  30.796  32.545  1.00  0.00     0.029 A 
ATOM     59  N   UNL A   1      43.461  30.939  31.770  1.00  0.00    -0.354 N 
ATOM     60  N   UNL A   1      40.879  32.257  31.308  1.00  0.00    -0.248 NA
ATOM     61  C   UNL A   1      39.411  34.034  31.692  1.00  0.00     0.031 C 
ATOM     62  C   UNL A   1      44.975  31.986  33.013  1.00  0.00     0.029 A 
ATOM     63  C   UNL A   1      43.691  32.094  32.500  1.00  0.00     0.049 A 
ATOM     64  H   UNL A   1      42.625  30.728  31.295  1.00  0.00     0.167 HD
ATOM     65  C   UNL A   1      41.504  33.200  32.120  1.00  0.00     0.074 A 
ATOM     66  C   UNL A   1      40.565  34.289  32.292  1.00  0.00     0.031 C 
ATOM     67  C   UNL A   1      42.745  33.170  32.668  1.00  0.00     0.031 A 
BRANCH  54  68
ATOM     68  C   UNL A   1      45.941  28.029  31.378  1.00  0.00    -0.014 A 
ATOM     69  C   UNL A   1      46.021  26.998  32.332  1.00  0.00     0.010 A 
ATOM     70  C   UNL A   1      47.060  28.296  30.568  1.00  0.00     0.010 A 
ATOM     71  C   UNL A   1      47.208  26.280  32.501  1.00  0.00     0.020 A 
ATOM     72  C   UNL A   1      48.238  27.559  30.710  1.00  0.00     0.020 A 
ATOM     73  C   UNL A   1      48.310  26.566  31.690  1.00  0.00     0.054 A 
BRANCH  73  74
ATOM     74  S   UNL A   1      49.832  25.605  31.918  1.00  0.00     0.124 S 
ATOM     75  O   UNL A   1      50.799  26.647  32.251  1.00  0.00    -0.237 OA
ATOM     76  O   UNL A   1      49.478  24.704  33.011  1.00  0.00    -0.237 OA
ATOM     77  O   UNL A   1      50.034  24.960  30.623  1.00  0.00    -0.744 OA
ENDBRANCH  73  74
ENDBRANCH  54  68
BRANCH  55  78
ATOM     78  C   UNL A   1      37.303  32.885  30.005  1.00  0.00    -0.014 A 
ATOM     79  C   UNL A   1      36.954  33.438  28.760  1.00  0.00     0.010 A 
ATOM     80  C   UNL A   1      36.410  33.022  31.084  1.00  0.00     0.010 A 
ATOM     81  C   UNL A   1      35.746  34.124  28.601  1.00  0.00     0.020 A 
ATOM     82  C   UNL A   1      35.186  33.679  30.921  1.00  0.00     0.020 A 
ATOM     83  C   UNL A   1      34.867  34.235  29.682  1.00  0.00     0.054 A 
BRANCH  83  84
ATOM     84  S   UNL A   1      33.278  35.075  29.432  1.00  0.00     0.124 S 
ATOM     85  O   UNL A   1      32.664  34.262  28.386  1.00  0.00    -0.237 OA
ATOM     86  O   UNL A   1      32.661  34.978  30.752  1.00  0.00    -0.237 OA
ATOM     87  O   UNL A   1      33.663  36.426  29.031  1.00  0.00    -0.744 OA
ENDBRANCH  83  84
ENDBRANCH  55  78
BRANCH  67  88
ATOM     88  C   UNL A   1      43.182  34.367  33.474  1.00  0.00    -0.014 A 
ATOM     89  C   UNL A   1      43.450  35.607  32.866  1.00  0.00     0.010 A 
ATOM     90  C   UNL A   1      43.274  34.261  34.875  1.00  0.00     0.010 A 
ATOM     91  C   UNL A   1      43.842  36.705  33.640  1.00  0.00     0.020 A 
ATOM     92  C   UNL A   1      43.630  35.364  35.655  1.00  0.00     0.020 A 
ATOM     93  C   UNL A   1      43.928  36.576  35.030  1.00  0.00     0.054 A 
BRANCH  93  94
ATOM     94  S   UNL A   1      44.403  38.024  36.012  1.00  0.00     0.124 S 
ATOM     95  O   UNL A   1      45.804  37.740  36.316  1.00  0.00    -0.237 OA
ATOM     96  O   UNL A   1      44.173  39.129  35.086  1.00  0.00    -0.237 OA
ATOM     97  O   UNL A   1      43.498  37.979  37.159  1.00  0.00    -0.744 OA
ENDBRANCH  93  94
ENDBRANCH  67  88
ENDBRANCH  41  42
ENDBRANCH  34  36
ENDBRANCH  33  34
ENDBRANCH  32  33
ENDBRANCH  31  32
ENDBRANCH  30  31
ENDBRANCH  29  30
ENDBRANCH  28  29
ENDBRANCH   1  28
TORSDOF 26
ENDMDL
MODEL 2
REMARK VINA RESULT:      -8.8      3.038      3.803
REMARK SMILES CN(c1ccccc1C(=O)OCCOCCOCCOCCOC(=O)c1ccc(-c2c3nc(c(-c4ccc(S(=O)(=O)[O-])cc4)c4ccc([nH]4)c(-c4ccc(S(=O)(=O)[O-])cc4)c4nc(c(-c5ccc(S(=O)(=O)[O-])cc5)c5ccc2[nH]5)C=C4)C=C3)cc1)S(=O)(=O)c1ccc(I)cc1
REMARK SMILES IDX 17 1 16 2 15 3 14 4 13 5 12 6 11 7 9 8 10 9 8 10 3 11 4 12
REMARK SMILES IDX 5 13 7 14 6 15 2 16 1 17 86 18 87 19 88 20 89 21 90 22 95 23
REMARK SMILES IDX 91 24 94 25 92 26 93 27 18 28 19 29 20 30 21 31 22 32 23 33
REMARK SMILES IDX 24 34 25 35 26 36 27 37 85 38 28 39 84 40 29 41 30 42 31 43
REMARK SMILES IDX 78 44 32 45 83 46 77 47 79 48 33 49 82 50 76 51 75 52 34 54
REMARK SMILES IDX 64 55 45 56 63 57 46 58 49 59 62 60 80 61 47 62 48 63 61 65
REMARK SMILES IDX 81 66 50 67 35 68 36 69 44 70 37 71 43 72 38 73 39 74 40 75
REMARK SMILES IDX 41 76 42 77 65 78 66 79 74 80 67 81 73 82 68 83 69 84 70 85
REMARK SMILES IDX 71 86 72 87 51 88 52 89 60 90 53 91 59 92 54 93 55 94 56 95
REMARK SMILES IDX 57 96 58 97
REMARK H PARENT 79 53 49 64
REMARK Flexibility Score: inf
ROOT
ATOM      1  O   UNL A   1      44.522  24.985  32.200  1.00  0.00    -0.377 OA
ENDROOT
BRANCH   1   2
ATOM      2  C   UNL A   1      44.581  23.635  32.592  1.00  0.00     0.188 C 
BRANCH   2   3
ATOM      3  C   UNL A   1      45.177  23.383  33.990  1.00  0.00     0.188 C 
BRANCH   3   4
ATOM      4  O   UNL A   1      45.142  22.082  34.543  1.00  0.00    -0.376 OA
BRANCH   4   5
ATOM      5  C   UNL A   1      45.631  21.791  35.845  1.00  0.00     0.202 C 
BRANCH   5   6
ATOM      6  C   UNL A   1      45.789  20.389  36.460  1.00  0.00     0.261 C 
BRANCH   6   7
ATOM      7  O   UNL A   1      46.319  20.323  37.783  1.00  0.00    -0.460 OA
BRANCH   7   8
ATOM      8  C   UNL A   1      46.105  19.177  38.450  1.00  0.00     0.340 C 
ATOM      9  O   UNL A   1      45.415  18.240  38.076  1.00  0.00    -0.246 OA
BRANCH   8  10
ATOM     10  C   UNL A   1      47.003  19.064  39.619  1.00  0.00     0.084 A 
ATOM     11  C   UNL A   1      46.648  19.088  40.982  1.00  0.00     0.066 A 
ATOM     12  C   UNL A   1      47.648  18.675  41.884  1.00  0.00     0.028 A 
ATOM     13  C   UNL A   1      48.975  18.446  41.505  1.00  0.00     0.002 A 
ATOM     14  C   UNL A   1      48.347  18.817  39.237  1.00  0.00     0.018 A 
ATOM     15  C   UNL A   1      49.336  18.554  40.176  1.00  0.00     0.001 A 
BRANCH  11  16
ATOM     16  N   UNL A   1      45.365  19.401  41.591  1.00  0.00    -0.269 N 
ATOM     17  C   UNL A   1      44.904  20.808  41.678  1.00  0.00     0.164 C 
BRANCH  16  18
ATOM     18  S   UNL A   1      44.775  18.495  42.952  1.00  0.00     0.264 S 
ATOM     19  O   UNL A   1      45.898  17.978  43.704  1.00  0.00    -0.201 OA
ATOM     20  O   UNL A   1      43.805  19.349  43.612  1.00  0.00    -0.201 OA
BRANCH  18  21
ATOM     21  C   UNL A   1      43.869  17.073  42.367  1.00  0.00     0.088 A 
ATOM     22  C   UNL A   1      43.381  16.126  43.277  1.00  0.00     0.023 A 
ATOM     23  C   UNL A   1      43.730  16.867  40.989  1.00  0.00     0.023 A 
ATOM     24  C   UNL A   1      42.692  15.005  42.805  1.00  0.00     0.016 A 
ATOM     25  C   UNL A   1      43.030  15.752  40.523  1.00  0.00     0.016 A 
ATOM     26  C   UNL A   1      42.507  14.830  41.432  1.00  0.00     0.013 A 
ATOM     27  I   UNL A   1      41.453  13.178  40.734  1.00  0.00    -0.044 I 
ENDBRANCH  18  21
ENDBRANCH  16  18
ENDBRANCH  11  16
ENDBRANCH   8  10
ENDBRANCH   7   8
ENDBRANCH   6   7
ENDBRANCH   5   6
ENDBRANCH   4   5
ENDBRANCH   3   4
ENDBRANCH   2   3
ENDBRANCH   1   2
BRANCH   1  28
ATOM     28  C   UNL A   1      44.777  25.348  30.851  1.00  0.00     0.188 C 
BRANCH  28  29
ATOM     29  C   UNL A   1      43.635  25.420  29.814  1.00  0.00     0.188 C 
BRANCH  29  30
ATOM     30  O   UNL A   1      43.983  24.979  28.511  1.00  0.00    -0.376 OA
BRANCH  30  31
ATOM     31  C   UNL A   1      43.361  23.811  28.004  1.00  0.00     0.202 C 
BRANCH  31  32
ATOM     32  C   UNL A   1      41.940  23.954  27.438  1.00  0.00     0.261 C 
BRANCH  32  33
ATOM     33  O   UNL A   1      41.572  25.258  26.969  1.00  0.00    -0.460 OA
BRANCH  33  34
ATOM     34  C   UNL A   1      40.258  25.577  26.996  1.00  0.00     0.338 C 
ATOM     35  O   UNL A   1      39.364  25.047  26.374  1.00  0.00    -0.246 OA
BRANCH  34  36
ATOM     36  C   UNL A   1      40.067  26.578  28.069  1.00  0.00     0.060 A 
ATOM     37  C   UNL A   1      40.773  27.786  28.006  1.00  0.00     0.016 A 
ATOM     38  C   UNL A   1      39.197  26.318  29.131  1.00  0.00     0.016 A 
ATOM     39  C   UNL A   1      40.642  28.722  29.031  1.00  0.00     0.010 A 
ATOM     40  C   UNL A   1      39.081  27.249  30.165  1.00  0.00     0.010 A 
ATOM     41  C   UNL A   1      39.831  28.439  30.138  1.00  0.00    -0.014 A 
BRANCH  41  42
ATOM     42  C   UNL A   1      39.916  29.287  31.352  1.00  0.00     0.031 A 
ATOM     43  C   UNL A   1      41.058  29.056  32.306  1.00  0.00     0.074 A 
ATOM     44  C   UNL A   1      39.015  30.255  31.595  1.00  0.00     0.049 A 
ATOM     45  N   UNL A   1      41.321  29.643  33.445  1.00  0.00    -0.248 NA
ATOM     46  C   UNL A   1      42.031  28.019  31.925  1.00  0.00     0.031 C 
ATOM     47  C   UNL A   1      37.893  30.605  30.727  1.00  0.00     0.029 A 
ATOM     48  N   UNL A   1      38.904  31.119  32.657  1.00  0.00    -0.354 N 
ATOM     49  C   UNL A   1      42.481  29.041  33.920  1.00  0.00     0.074 A 
ATOM     50  C   UNL A   1      42.852  28.021  32.963  1.00  0.00     0.031 C 
ATOM     51  C   UNL A   1      37.201  31.610  31.294  1.00  0.00     0.029 A 
ATOM     52  C   UNL A   1      37.809  31.946  32.582  1.00  0.00     0.049 A 
ATOM     53  H   UNL A   1      39.548  31.143  33.401  1.00  0.00     0.167 HD
ATOM     54  C   UNL A   1      43.177  29.314  35.049  1.00  0.00     0.031 A 
ATOM     55  C   UNL A   1      37.339  32.854  33.461  1.00  0.00     0.031 A 
ATOM     56  C   UNL A   1      42.791  30.314  36.008  1.00  0.00     0.049 A 
ATOM     57  C   UNL A   1      38.085  33.085  34.752  1.00  0.00     0.074 A 
ATOM     58  C   UNL A   1      43.433  30.678  37.178  1.00  0.00     0.029 A 
ATOM     59  N   UNL A   1      41.653  31.103  35.915  1.00  0.00    -0.354 N 
ATOM     60  N   UNL A   1      39.195  32.527  35.176  1.00  0.00    -0.248 NA
ATOM     61  C   UNL A   1      37.518  34.075  35.679  1.00  0.00     0.031 C 
ATOM     62  C   UNL A   1      42.650  31.636  37.826  1.00  0.00     0.029 A 
ATOM     63  C   UNL A   1      41.559  31.930  37.023  1.00  0.00     0.049 A 
ATOM     64  H   UNL A   1      41.009  31.079  35.171  1.00  0.00     0.167 HD
ATOM     65  C   UNL A   1      39.474  33.122  36.403  1.00  0.00     0.074 A 
ATOM     66  C   UNL A   1      38.426  34.093  36.643  1.00  0.00     0.031 C 
ATOM     67  C   UNL A   1      40.507  32.890  37.252  1.00  0.00     0.031 A 
BRANCH  54  68
ATOM     68  C   UNL A   1      44.404  28.485  35.326  1.00  0.00    -0.014 A 
ATOM     69  C   UNL A   1      44.307  27.160  35.791  1.00  0.00     0.010 A 
ATOM     70  C   UNL A   1      45.679  29.032  35.092  1.00  0.00     0.010 A 
ATOM     71  C   UNL A   1      45.459  26.415  36.056  1.00  0.00     0.020 A 
ATOM     72  C   UNL A   1      46.834  28.280  35.324  1.00  0.00     0.020 A 
ATOM     73  C   UNL A   1      46.716  26.981  35.822  1.00  0.00     0.054 A 
BRANCH  73  74
ATOM     74  S   UNL A   1      48.194  25.984  36.156  1.00  0.00     0.124 S 
ATOM     75  O   UNL A   1      47.611  24.718  36.595  1.00  0.00    -0.237 OA
ATOM     76  O   UNL A   1      48.857  25.952  34.856  1.00  0.00    -0.237 OA
ATOM     77  O   UNL A   1      48.895  26.737  37.193  1.00  0.00    -0.744 OA
ENDBRANCH  73  74
ENDBRANCH  54  68
BRANCH  55  78
ATOM     78  C   UNL A   1      36.088  33.606  33.159  1.00  0.00    -0.014 A 
ATOM     79  C   UNL A   1      34.828  33.038  33.414  1.00  0.00     0.010 A 
ATOM     80  C   UNL A   1      36.153  34.901  32.611  1.00  0.00     0.010 A 
ATOM     81  C   UNL A   1      33.657  33.743  33.116  1.00  0.00     0.020 A 
ATOM     82  C   UNL A   1      34.985  35.622  32.342  1.00  0.00     0.020 A 
ATOM     83  C   UNL A   1      33.744  35.034  32.588  1.00  0.00     0.054 A 
BRANCH  83  84
ATOM     84  S   UNL A   1      32.212  35.953  32.270  1.00  0.00     0.124 S 
ATOM     85  O   UNL A   1      32.364  37.112  33.144  1.00  0.00    -0.237 OA
ATOM     86  O   UNL A   1      32.300  36.224  30.838  1.00  0.00    -0.237 OA
ATOM     87  O   UNL A   1      31.162  35.012  32.654  1.00  0.00    -0.744 OA
ENDBRANCH  83  84
ENDBRANCH  55  78
BRANCH  67  88
ATOM     88  C   UNL A   1      40.585  33.728  38.504  1.00  0.00    -0.014 A 
ATOM     89  C   UNL A   1      39.842  33.404  39.655  1.00  0.00     0.010 A 
ATOM     90  C   UNL A   1      41.459  34.830  38.545  1.00  0.00     0.010 A 
ATOM     91  C   UNL A   1      39.943  34.192  40.806  1.00  0.00     0.020 A 
ATOM     92  C   UNL A   1      41.590  35.598  39.705  1.00  0.00     0.020 A 
ATOM     93  C   UNL A   1      40.816  35.284  40.824  1.00  0.00     0.054 A 
BRANCH  93  94
ATOM     94  S   UNL A   1      40.954  36.267  42.341  1.00  0.00     0.124 S 
ATOM     95  O   UNL A   1      42.225  36.959  42.142  1.00  0.00    -0.237 OA
ATOM     96  O   UNL A   1      39.763  37.111  42.285  1.00  0.00    -0.237 OA
ATOM     97  O   UNL A   1      40.953  35.266  43.406  1.00  0.00    -0.744 OA
ENDBRANCH  93  94
ENDBRANCH  67  88
ENDBRANCH  41  42
ENDBRANCH  34  36
ENDBRANCH  33  34
ENDBRANCH  32  33
ENDBRANCH  31  32
ENDBRANCH  30  31
ENDBRANCH  29  30
ENDBRANCH  28  29
ENDBRANCH   1  28
TORSDOF 26
ENDMDL
MODEL 3
REMARK VINA RESULT:      -7.9     11.451     22.102
REMARK SMILES CN(c1ccccc1C(=O)OCCOCCOCCOCCOC(=O)c1ccc(-c2c3nc(c(-c4ccc(S(=O)(=O)[O-])cc4)c4ccc([nH]4)c(-c4ccc(S(=O)(=O)[O-])cc4)c4nc(c(-c5ccc(S(=O)(=O)[O-])cc5)c5ccc2[nH]5)C=C4)C=C3)cc1)S(=O)(=O)c1ccc(I)cc1
REMARK SMILES IDX 17 1 16 2 15 3 14 4 13 5 12 6 11 7 9 8 10 9 8 10 3 11 4 12
REMARK SMILES IDX 5 13 7 14 6 15 2 16 1 17 86 18 87 19 88 20 89 21 90 22 95 23
REMARK SMILES IDX 91 24 94 25 92 26 93 27 18 28 19 29 20 30 21 31 22 32 23 33
REMARK SMILES IDX 24 34 25 35 26 36 27 37 85 38 28 39 84 40 29 41 30 42 31 43
REMARK SMILES IDX 78 44 32 45 83 46 77 47 79 48 33 49 82 50 76 51 75 52 34 54
REMARK SMILES IDX 64 55 45 56 63 57 46 58 49 59 62 60 80 61 47 62 48 63 61 65
REMARK SMILES IDX 81 66 50 67 35 68 36 69 44 70 37 71 43 72 38 73 39 74 40 75
REMARK SMILES IDX 41 76 42 77 65 78 66 79 74 80 67 81 73 82 68 83 69 84 70 85
REMARK SMILES IDX 71 86 72 87 51 88 52 89 60 90 53 91 59 92 54 93 55 94 56 95
REMARK SMILES IDX 57 96 58 97
REMARK H PARENT 79 53 49 64
REMARK Flexibility Score: inf
ROOT
ATOM      1  O   UNL A   1      41.363  43.800  20.572  1.00  0.00    -0.377 OA
ENDROOT
BRANCH   1   2
ATOM      2  C   UNL A   1      41.732  43.293  19.312  1.00  0.00     0.188 C 
BRANCH   2   3
ATOM      3  C   UNL A   1      42.246  44.340  18.307  1.00  0.00     0.188 C 
BRANCH   3   4
ATOM      4  O   UNL A   1      41.527  45.543  18.118  1.00  0.00    -0.376 OA
BRANCH   4   5
ATOM      5  C   UNL A   1      41.863  46.485  17.110  1.00  0.00     0.202 C 
BRANCH   5   6
ATOM      6  C   UNL A   1      41.868  48.017  17.266  1.00  0.00     0.261 C 
BRANCH   6   7
ATOM      7  O   UNL A   1      43.057  48.700  16.873  1.00  0.00    -0.460 OA
BRANCH   7   8
ATOM      8  C   UNL A   1      43.540  49.599  17.747  1.00  0.00     0.340 C 
ATOM      9  O   UNL A   1      42.943  50.071  18.704  1.00  0.00    -0.246 OA
BRANCH   8  10
ATOM     10  C   UNL A   1      44.993  49.795  17.562  1.00  0.00     0.084 A 
ATOM     11  C   UNL A   1      46.042  49.078  18.168  1.00  0.00     0.066 A 
ATOM     12  C   UNL A   1      47.321  49.267  17.608  1.00  0.00     0.028 A 
ATOM     13  C   UNL A   1      47.599  50.247  16.648  1.00  0.00     0.002 A 
ATOM     14  C   UNL A   1      45.278  50.777  16.578  1.00  0.00     0.018 A 
ATOM     15  C   UNL A   1      46.576  51.033  16.155  1.00  0.00     0.001 A 
BRANCH  11  16
ATOM     16  N   UNL A   1      45.984  48.100  19.245  1.00  0.00    -0.269 N 
ATOM     17  C   UNL A   1      46.842  48.260  20.443  1.00  0.00     0.164 C 
BRANCH  16  18
ATOM     18  S   UNL A   1      45.734  46.414  18.910  1.00  0.00     0.264 S 
ATOM     19  O   UNL A   1      44.859  45.852  19.916  1.00  0.00    -0.201 OA
ATOM     20  O   UNL A   1      45.358  46.334  17.510  1.00  0.00    -0.201 OA
BRANCH  18  21
ATOM     21  C   UNL A   1      47.286  45.545  19.058  1.00  0.00     0.088 A 
ATOM     22  C   UNL A   1      47.570  44.799  20.210  1.00  0.00     0.023 A 
ATOM     23  C   UNL A   1      48.252  45.691  18.055  1.00  0.00     0.023 A 
ATOM     24  C   UNL A   1      48.798  44.142  20.323  1.00  0.00     0.016 A 
ATOM     25  C   UNL A   1      49.473  45.022  18.166  1.00  0.00     0.016 A 
ATOM     26  C   UNL A   1      49.738  44.244  19.296  1.00  0.00     0.013 A 
ATOM     27  I   UNL A   1      51.552  43.238  19.452  1.00  0.00    -0.044 I 
ENDBRANCH  18  21
ENDBRANCH  16  18
ENDBRANCH  11  16
ENDBRANCH   8  10
ENDBRANCH   7   8
ENDBRANCH   6   7
ENDBRANCH   5   6
ENDBRANCH   4   5
ENDBRANCH   3   4
ENDBRANCH   2   3
ENDBRANCH   1   2
BRANCH   1  28
ATOM     28  C   UNL A   1      42.125  43.472  21.724  1.00  0.00     0.188 C 
BRANCH  28  29
ATOM     29  C   UNL A   1      43.585  42.983  21.603  1.00  0.00     0.188 C 
BRANCH  29  30
ATOM     30  O   UNL A   1      44.062  42.245  22.718  1.00  0.00    -0.376 OA
BRANCH  30  31
ATOM     31  C   UNL A   1      43.589  42.589  24.008  1.00  0.00     0.202 C 
BRANCH  31  32
ATOM     32  C   UNL A   1      42.580  41.638  24.670  1.00  0.00     0.261 C 
BRANCH  32  33
ATOM     33  O   UNL A   1      43.124  40.657  25.562  1.00  0.00    -0.460 OA
BRANCH  33  34
ATOM     34  C   UNL A   1      42.395  40.346  26.658  1.00  0.00     0.338 C 
ATOM     35  O   UNL A   1      41.459  40.966  27.114  1.00  0.00    -0.246 OA
BRANCH  34  36
ATOM     36  C   UNL A   1      42.822  39.003  27.109  1.00  0.00     0.060 A 
ATOM     37  C   UNL A   1      42.331  37.874  26.441  1.00  0.00     0.016 A 
ATOM     38  C   UNL A   1      43.699  38.865  28.187  1.00  0.00     0.016 A 
ATOM     39  C   UNL A   1      42.685  36.598  26.880  1.00  0.00     0.010 A 
ATOM     40  C   UNL A   1      44.038  37.587  28.636  1.00  0.00     0.010 A 
ATOM     41  C   UNL A   1      43.503  36.448  28.008  1.00  0.00    -0.014 A 
BRANCH  41  42
ATOM     42  C   UNL A   1      43.641  35.117  28.648  1.00  0.00     0.031 A 
ATOM     43  C   UNL A   1      42.460  34.558  29.394  1.00  0.00     0.074 A 
ATOM     44  C   UNL A   1      44.781  34.409  28.553  1.00  0.00     0.049 A 
ATOM     45  N   UNL A   1      42.353  33.438  30.062  1.00  0.00    -0.248 NA
ATOM     46  C   UNL A   1      41.235  35.375  29.389  1.00  0.00     0.031 C 
ATOM     47  C   UNL A   1      45.977  34.822  27.822  1.00  0.00     0.029 A 
ATOM     48  N   UNL A   1      45.115  33.188  29.086  1.00  0.00    -0.354 N 
ATOM     49  C   UNL A   1      41.056  33.421  30.564  1.00  0.00     0.074 A 
ATOM     50  C   UNL A   1      40.426  34.656  30.152  1.00  0.00     0.031 C 
ATOM     51  C   UNL A   1      46.919  33.871  27.956  1.00  0.00     0.029 A 
ATOM     52  C   UNL A   1      46.405  32.803  28.814  1.00  0.00     0.049 A 
ATOM     53  H   UNL A   1      44.489  32.641  29.613  1.00  0.00     0.167 HD
ATOM     54  C   UNL A   1      40.444  32.463  31.299  1.00  0.00     0.031 A 
ATOM     55  C   UNL A   1      47.100  31.724  29.228  1.00  0.00     0.031 A 
ATOM     56  C   UNL A   1      41.084  31.246  31.724  1.00  0.00     0.049 A 
ATOM     57  C   UNL A   1      46.424  30.708  30.115  1.00  0.00     0.074 A 
ATOM     58  C   UNL A   1      40.548  30.205  32.462  1.00  0.00     0.029 A 
ATOM     59  N   UNL A   1      42.404  30.912  31.462  1.00  0.00    -0.354 N 
ATOM     60  N   UNL A   1      45.189  30.692  30.561  1.00  0.00    -0.248 NA
ATOM     61  C   UNL A   1      47.234  29.560  30.547  1.00  0.00     0.031 C 
ATOM     62  C   UNL A   1      41.562  29.275  32.703  1.00  0.00     0.029 A 
ATOM     63  C   UNL A   1      42.710  29.695  32.050  1.00  0.00     0.049 A 
ATOM     64  H   UNL A   1      43.031  31.458  30.935  1.00  0.00     0.167 HD
ATOM     65  C   UNL A   1      45.067  29.518  31.299  1.00  0.00     0.074 A 
ATOM     66  C   UNL A   1      46.347  28.844  31.224  1.00  0.00     0.031 C 
ATOM     67  C   UNL A   1      43.991  29.037  31.972  1.00  0.00     0.031 A 
BRANCH  54  68
ATOM     68  C   UNL A   1      39.021  32.717  31.725  1.00  0.00    -0.014 A 
ATOM     69  C   UNL A   1      38.714  33.200  33.011  1.00  0.00     0.010 A 
ATOM     70  C   UNL A   1      37.973  32.494  30.814  1.00  0.00     0.010 A 
ATOM     71  C   UNL A   1      37.386  33.414  33.389  1.00  0.00     0.020 A 
ATOM     72  C   UNL A   1      36.646  32.737  31.176  1.00  0.00     0.020 A 
ATOM     73  C   UNL A   1      36.360  33.180  32.470  1.00  0.00     0.054 A 
BRANCH  73  74
ATOM     74  S   UNL A   1      34.646  33.485  32.982  1.00  0.00     0.124 S 
ATOM     75  O   UNL A   1      34.714  33.241  34.421  1.00  0.00    -0.237 OA
ATOM     76  O   UNL A   1      34.440  34.876  32.589  1.00  0.00    -0.237 OA
ATOM     77  O   UNL A   1      33.876  32.504  32.222  1.00  0.00    -0.744 OA
ENDBRANCH  73  74
ENDBRANCH  54  68
BRANCH  55  78
ATOM     78  C   UNL A   1      48.523  31.552  28.820  1.00  0.00    -0.014 A 
ATOM     79  C   UNL A   1      48.855  30.853  27.646  1.00  0.00     0.010 A 
ATOM     80  C   UNL A   1      49.558  32.089  29.608  1.00  0.00     0.010 A 
ATOM     81  C   UNL A   1      50.193  30.685  27.274  1.00  0.00     0.020 A 
ATOM     82  C   UNL A   1      50.895  31.951  29.223  1.00  0.00     0.020 A 
ATOM     83  C   UNL A   1      51.204  31.241  28.063  1.00  0.00     0.054 A 
BRANCH  83  84
ATOM     84  S   UNL A   1      52.928  31.062  27.525  1.00  0.00     0.124 S 
ATOM     85  O   UNL A   1      53.006  32.020  26.427  1.00  0.00    -0.237 OA
ATOM     86  O   UNL A   1      53.671  31.419  28.731  1.00  0.00    -0.237 OA
ATOM     87  O   UNL A   1      53.023  29.656  27.138  1.00  0.00    -0.744 OA
ENDBRANCH  83  84
ENDBRANCH  55  78
BRANCH  67  88
ATOM     88  C   UNL A   1      44.133  27.698  32.651  1.00  0.00    -0.014 A 
ATOM     89  C   UNL A   1      44.016  26.492  31.935  1.00  0.00     0.010 A 
ATOM     90  C   UNL A   1      44.442  27.648  34.023  1.00  0.00     0.010 A 
ATOM     91  C   UNL A   1      44.164  25.264  32.588  1.00  0.00     0.020 A 
ATOM     92  C   UNL A   1      44.627  26.424  34.672  1.00  0.00     0.020 A 
ATOM     93  C   UNL A   1      44.469  25.238  33.952  1.00  0.00     0.054 A 
BRANCH  93  94
ATOM     94  S   UNL A   1      44.692  23.633  34.766  1.00  0.00     0.124 S 
ATOM     95  O   UNL A   1      45.742  23.023  33.954  1.00  0.00    -0.237 OA
ATOM     96  O   UNL A   1      45.085  24.012  36.120  1.00  0.00    -0.237 OA
ATOM     97  O   UNL A   1      43.378  23.003  34.657  1.00  0.00    -0.744 OA
ENDBRANCH  93  94
ENDBRANCH  67  88
ENDBRANCH  41  42
ENDBRANCH  34  36
ENDBRANCH  33  34
ENDBRANCH  32  33
ENDBRANCH  31  32
ENDBRANCH  30  31
ENDBRANCH  29  30
ENDBRANCH  28  29
ENDBRANCH   1  28
TORSDOF 26
ENDMDL
