MODEL 1
REMARK VINA RESULT:      -8.6      0.000      0.000
REMARK SMILES Cc1ccccc1OCC(=O)N[C@@H](Cc1c[nH]c2ccccc12)C(=O)OCCOCCOCCOCCOC(=O)c1ccc(-c2c3nc(c(-c4ccc(S(=O)(=O)[O-])cc4)c4ccc([nH]4)c(-c4ccc(S(=O)(=O)[O-])cc4)c4nc(c(-c5ccc(S(=O)(=O)[O-])cc5)c5ccc2[nH]5)C=C4)C=C3)cc1
REMARK SMILES IDX 31 1 30 2 29 3 28 4 27 5 26 6 24 7 25 8 13 9 12 10 10 11
REMARK SMILES IDX 11 12 9 14 8 15 7 16 1 17 2 18 3 19 4 20 6 21 5 22 14 23
REMARK SMILES IDX 15 24 16 25 23 26 17 27 18 28 22 29 19 31 21 32 20 33 32 34
REMARK SMILES IDX 33 35 34 36 35 37 36 38 37 39 38 40 39 41 40 42 41 43 42 44
REMARK SMILES IDX 100 45 43 46 99 47 44 48 45 49 46 50 93 51 47 52 98 53 92 54
REMARK SMILES IDX 94 55 48 56 97 57 91 58 90 59 49 61 79 62 60 63 78 64 61 65
REMARK SMILES IDX 64 66 77 67 95 68 62 69 63 70 76 72 96 73 65 74 50 75 51 76
REMARK SMILES IDX 59 77 52 78 58 79 53 80 54 81 55 82 56 83 57 84 80 85 81 86
REMARK SMILES IDX 89 87 82 88 88 89 83 90 84 91 85 92 86 93 87 94 66 95 67 96
REMARK SMILES IDX 75 97 68 98 74 99 69 100 70 101 71 102 72 103 73 104
REMARK H PARENT 12 13 17 30 94 60 64 71
REMARK Flexibility Score: inf
ROOT
ATOM      1  C   UNL A   1      44.546  35.513  29.369  1.00  0.00     0.188 C 
ENDROOT
BRANCH   1   2
ATOM      2  C   UNL A   1      44.534  37.022  29.485  1.00  0.00     0.188 C 
BRANCH   2   3
ATOM      3  O   UNL A   1      43.933  37.845  28.506  1.00  0.00    -0.376 OA
BRANCH   3   4
ATOM      4  C   UNL A   1      44.788  38.007  27.385  1.00  0.00     0.202 C 
BRANCH   4   5
ATOM      5  C   UNL A   1      44.509  39.220  26.473  1.00  0.00     0.261 C 
BRANCH   5   6
ATOM      6  O   UNL A   1      43.872  40.361  27.083  1.00  0.00    -0.462 OA
BRANCH   6   7
ATOM      7  C   UNL A   1      43.295  41.258  26.261  1.00  0.00     0.329 C 
ATOM      8  O   UNL A   1      42.098  41.292  25.988  1.00  0.00    -0.250 OA
BRANCH   7   9
ATOM      9  C   UNL A   1      44.297  42.262  25.665  1.00  0.00     0.196 C 
BRANCH   9  10
ATOM     10  N   UNL A   1      43.784  43.523  25.124  1.00  0.00    -0.339 N 
ATOM     11  C   UNL A   1      43.386  43.792  23.846  1.00  0.00     0.258 C 
ATOM     12  O   UNL A   1      43.220  44.965  23.510  1.00  0.00    -0.271 OA
ATOM     13  H   UNL A   1      43.717  44.271  25.762  1.00  0.00     0.164 HD
BRANCH  11  14
ATOM     14  C   UNL A   1      43.043  42.617  22.882  1.00  0.00     0.329 C 
BRANCH  14  15
ATOM     15  O   UNL A   1      43.687  42.249  21.687  1.00  0.00    -0.484 OA
BRANCH  15  16
ATOM     16  C   UNL A   1      43.341  43.050  20.649  1.00  0.00     0.122 A 
ATOM     17  C   UNL A   1      45.697  44.010  20.536  1.00  0.00     0.048 C 
ATOM     18  C   UNL A   1      44.265  43.932  20.085  1.00  0.00    -0.009 A 
ATOM     19  C   UNL A   1      43.823  44.760  19.051  1.00  0.00     0.007 A 
ATOM     20  C   UNL A   1      42.494  44.713  18.615  1.00  0.00     0.001 A 
ATOM     21  C   UNL A   1      42.009  43.009  20.236  1.00  0.00     0.047 A 
ATOM     22  C   UNL A   1      41.586  43.836  19.205  1.00  0.00     0.004 A 
ENDBRANCH  15  16
ENDBRANCH  14  15
ENDBRANCH  11  14
ENDBRANCH   9  10
BRANCH   9  23
ATOM     23  C   UNL A   1      45.494  42.478  26.603  1.00  0.00     0.074 C 
BRANCH  23  24
ATOM     24  C   UNL A   1      45.338  43.498  27.699  1.00  0.00    -0.020 A 
ATOM     25  C   UNL A   1      45.705  44.822  27.635  1.00  0.00     0.087 A 
ATOM     26  C   UNL A   1      44.752  43.315  28.999  1.00  0.00     0.003 A 
ATOM     27  N   UNL A   1      45.281  45.465  28.764  1.00  0.00    -0.361 N 
ATOM     28  C   UNL A   1      44.680  44.569  29.612  1.00  0.00     0.046 A 
ATOM     29  C   UNL A   1      44.266  42.198  29.710  1.00  0.00     0.010 A 
ATOM     30  H   UNL A   1      45.390  46.427  28.942  1.00  0.00     0.166 HD
ATOM     31  C   UNL A   1      44.093  44.773  30.867  1.00  0.00     0.026 A 
ATOM     32  C   UNL A   1      43.707  42.380  30.981  1.00  0.00     0.001 A 
ATOM     33  C   UNL A   1      43.607  43.652  31.541  1.00  0.00     0.002 A 
ENDBRANCH  23  24
ENDBRANCH   9  23
ENDBRANCH   7   9
ENDBRANCH   6   7
ENDBRANCH   5   6
ENDBRANCH   4   5
ENDBRANCH   3   4
ENDBRANCH   2   3
ENDBRANCH   1   2
BRANCH   1  34
ATOM     34  O   UNL A   1      45.677  34.915  28.778  1.00  0.00    -0.377 OA
BRANCH  34  35
ATOM     35  C   UNL A   1      45.649  33.506  28.767  1.00  0.00     0.188 C 
BRANCH  35  36
ATOM     36  C   UNL A   1      45.126  32.881  30.054  1.00  0.00     0.188 C 
BRANCH  36  37
ATOM     37  O   UNL A   1      44.107  31.912  29.898  1.00  0.00    -0.376 OA
BRANCH  37  38
ATOM     38  C   UNL A   1      43.934  31.113  31.063  1.00  0.00     0.202 C 
BRANCH  38  39
ATOM     39  C   UNL A   1      44.702  31.460  32.366  1.00  0.00     0.261 C 
BRANCH  39  40
ATOM     40  O   UNL A   1      44.044  31.715  33.672  1.00  0.00    -0.460 OA
BRANCH  40  41
ATOM     41  C   UNL A   1      43.229  32.024  34.692  1.00  0.00     0.338 C 
ATOM     42  O   UNL A   1      43.762  32.035  35.788  1.00  0.00    -0.246 OA
BRANCH  41  43
ATOM     43  C   UNL A   1      41.695  32.286  34.692  1.00  0.00     0.060 A 
ATOM     44  C   UNL A   1      41.018  31.273  35.386  1.00  0.00     0.016 A 
ATOM     45  C   UNL A   1      41.053  32.584  33.505  1.00  0.00     0.016 A 
ATOM     46  C   UNL A   1      40.398  30.220  34.692  1.00  0.00     0.010 A 
ATOM     47  C   UNL A   1      40.489  31.545  32.755  1.00  0.00     0.010 A 
ATOM     48  C   UNL A   1      40.411  30.270  33.308  1.00  0.00    -0.014 A 
BRANCH  48  49
ATOM     49  C   UNL A   1      40.865  29.111  32.478  1.00  0.00     0.031 A 
ATOM     50  C   UNL A   1      42.143  28.370  32.775  1.00  0.00     0.074 A 
ATOM     51  C   UNL A   1      39.935  28.617  31.607  1.00  0.00     0.049 A 
ATOM     52  N   UNL A   1      42.683  27.438  32.051  1.00  0.00    -0.248 NA
ATOM     53  C   UNL A   1      42.955  28.654  33.961  1.00  0.00     0.031 C 
ATOM     54  C   UNL A   1      39.858  27.319  30.946  1.00  0.00     0.029 A 
ATOM     55  N   UNL A   1      38.843  29.277  31.049  1.00  0.00    -0.354 N 
ATOM     56  C   UNL A   1      43.745  26.867  32.757  1.00  0.00     0.074 A 
ATOM     57  C   UNL A   1      43.881  27.688  33.929  1.00  0.00     0.031 C 
ATOM     58  C   UNL A   1      38.878  27.298  30.030  1.00  0.00     0.029 A 
ATOM     59  C   UNL A   1      38.471  28.664  29.848  1.00  0.00     0.049 A 
ATOM     60  H   UNL A   1      38.397  30.062  31.442  1.00  0.00     0.167 HD
ATOM     61  C   UNL A   1      44.346  25.710  32.324  1.00  0.00     0.031 A 
ATOM     62  C   UNL A   1      38.730  29.346  28.696  1.00  0.00     0.031 A 
ATOM     63  C   UNL A   1      43.992  25.397  30.924  1.00  0.00     0.049 A 
ATOM     64  C   UNL A   1      40.007  28.818  27.980  1.00  0.00     0.074 A 
ATOM     65  C   UNL A   1      43.612  24.257  30.234  1.00  0.00     0.029 A 
ATOM     66  N   UNL A   1      43.841  26.446  30.012  1.00  0.00    -0.354 N 
ATOM     67  N   UNL A   1      40.941  28.031  28.495  1.00  0.00    -0.248 NA
ATOM     68  C   UNL A   1      40.249  29.044  26.556  1.00  0.00     0.031 C 
ATOM     69  C   UNL A   1      43.072  24.666  28.983  1.00  0.00     0.029 A 
ATOM     70  C   UNL A   1      43.153  26.051  28.885  1.00  0.00     0.049 A 
ATOM     71  H   UNL A   1      44.184  27.357  30.156  1.00  0.00     0.167 HD
ATOM     72  C   UNL A   1      41.895  27.710  27.550  1.00  0.00     0.074 A 
ATOM     73  C   UNL A   1      41.376  28.338  26.345  1.00  0.00     0.031 C 
ATOM     74  C   UNL A   1      43.038  26.963  27.747  1.00  0.00     0.031 A 
BRANCH  61  75
ATOM     75  C   UNL A   1      45.117  24.715  33.228  1.00  0.00    -0.014 A 
ATOM     76  C   UNL A   1      44.459  23.573  33.754  1.00  0.00     0.010 A 
ATOM     77  C   UNL A   1      46.433  24.897  33.709  1.00  0.00     0.010 A 
ATOM     78  C   UNL A   1      45.036  22.717  34.717  1.00  0.00     0.020 A 
ATOM     79  C   UNL A   1      47.046  24.018  34.637  1.00  0.00     0.020 A 
ATOM     80  C   UNL A   1      46.335  22.941  35.153  1.00  0.00     0.054 A 
BRANCH  80  81
ATOM     81  S   UNL A   1      47.076  21.803  36.364  1.00  0.00     0.124 S 
ATOM     82  O   UNL A   1      48.306  21.388  35.695  1.00  0.00    -0.237 OA
ATOM     83  O   UNL A   1      47.257  22.657  37.534  1.00  0.00    -0.237 OA
ATOM     84  O   UNL A   1      46.069  20.755  36.516  1.00  0.00    -0.744 OA
ENDBRANCH  80  81
ENDBRANCH  61  75
BRANCH  62  85
ATOM     85  C   UNL A   1      38.039  30.701  28.766  1.00  0.00    -0.014 A 
ATOM     86  C   UNL A   1      36.622  30.663  28.620  1.00  0.00     0.010 A 
ATOM     87  C   UNL A   1      38.561  31.798  29.479  1.00  0.00     0.010 A 
ATOM     88  C   UNL A   1      35.766  31.539  29.321  1.00  0.00     0.020 A 
ATOM     89  C   UNL A   1      37.697  32.709  30.158  1.00  0.00     0.020 A 
ATOM     90  C   UNL A   1      36.306  32.540  30.123  1.00  0.00     0.054 A 
BRANCH  90  91
ATOM     91  S   UNL A   1      35.186  33.455  31.268  1.00  0.00     0.124 S 
ATOM     92  O   UNL A   1      34.246  32.418  31.681  1.00  0.00    -0.237 OA
ATOM     93  O   UNL A   1      36.078  33.941  32.317  1.00  0.00    -0.237 OA
ATOM     94  O   UNL A   1      34.605  34.508  30.435  1.00  0.00    -0.744 OA
ENDBRANCH  90  91
ENDBRANCH  62  85
BRANCH  74  95
ATOM     95  C   UNL A   1      44.280  26.995  26.849  1.00  0.00    -0.014 A 
ATOM     96  C   UNL A   1      44.648  25.970  25.971  1.00  0.00     0.010 A 
ATOM     97  C   UNL A   1      45.024  28.207  26.732  1.00  0.00     0.010 A 
ATOM     98  C   UNL A   1      45.720  26.116  25.080  1.00  0.00     0.020 A 
ATOM     99  C   UNL A   1      46.061  28.384  25.815  1.00  0.00     0.020 A 
ATOM    100  C   UNL A   1      46.417  27.322  25.004  1.00  0.00     0.054 A 
BRANCH 100 101
ATOM    101  S   UNL A   1      47.734  27.509  23.782  1.00  0.00     0.124 S 
ATOM    102  O   UNL A   1      48.742  28.240  24.543  1.00  0.00    -0.237 OA
ATOM    103  O   UNL A   1      48.069  26.122  23.463  1.00  0.00    -0.237 OA
ATOM    104  O   UNL A   1      47.100  28.256  22.699  1.00  0.00    -0.744 OA
ENDBRANCH 100 101
ENDBRANCH  74  95
ENDBRANCH  48  49
ENDBRANCH  41  43
ENDBRANCH  40  41
ENDBRANCH  39  40
ENDBRANCH  38  39
ENDBRANCH  37  38
ENDBRANCH  36  37
ENDBRANCH  35  36
ENDBRANCH  34  35
ENDBRANCH   1  34
TORSDOF 29
ENDMDL
MODEL 2
REMARK VINA RESULT:      -8.6      6.049     17.141
REMARK SMILES Cc1ccccc1OCC(=O)N[C@@H](Cc1c[nH]c2ccccc12)C(=O)OCCOCCOCCOCCOC(=O)c1ccc(-c2c3nc(c(-c4ccc(S(=O)(=O)[O-])cc4)c4ccc([nH]4)c(-c4ccc(S(=O)(=O)[O-])cc4)c4nc(c(-c5ccc(S(=O)(=O)[O-])cc5)c5ccc2[nH]5)C=C4)C=C3)cc1
REMARK SMILES IDX 31 1 30 2 29 3 28 4 27 5 26 6 24 7 25 8 13 9 12 10 10 11
REMARK SMILES IDX 11 12 9 14 8 15 7 16 1 17 2 18 3 19 4 20 6 21 5 22 14 23
REMARK SMILES IDX 15 24 16 25 23 26 17 27 18 28 22 29 19 31 21 32 20 33 32 34
REMARK SMILES IDX 33 35 34 36 35 37 36 38 37 39 38 40 39 41 40 42 41 43 42 44
REMARK SMILES IDX 100 45 43 46 99 47 44 48 45 49 46 50 93 51 47 52 98 53 92 54
REMARK SMILES IDX 94 55 48 56 97 57 91 58 90 59 49 61 79 62 60 63 78 64 61 65
REMARK SMILES IDX 64 66 77 67 95 68 62 69 63 70 76 72 96 73 65 74 50 75 51 76
REMARK SMILES IDX 59 77 52 78 58 79 53 80 54 81 55 82 56 83 57 84 80 85 81 86
REMARK SMILES IDX 89 87 82 88 88 89 83 90 84 91 85 92 86 93 87 94 66 95 67 96
REMARK SMILES IDX 75 97 68 98 74 99 69 100 70 101 71 102 72 103 73 104
REMARK H PARENT 12 13 17 30 94 60 64 71
REMARK Flexibility Score: inf
ROOT
ATOM      1  C   UNL A   1      45.283  25.936  31.369  1.00  0.00     0.188 C 
ENDROOT
BRANCH   1   2
ATOM      2  C   UNL A   1      44.464  25.272  32.454  1.00  0.00     0.188 C 
BRANCH   2   3
ATOM      3  O   UNL A   1      45.043  24.822  33.662  1.00  0.00    -0.376 OA
BRANCH   3   4
ATOM      4  C   UNL A   1      44.064  24.233  34.504  1.00  0.00     0.202 C 
BRANCH   4   5
ATOM      5  C   UNL A   1      44.318  22.776  34.946  1.00  0.00     0.261 C 
BRANCH   5   6
ATOM      6  O   UNL A   1      45.540  22.160  34.485  1.00  0.00    -0.462 OA
BRANCH   6   7
ATOM      7  C   UNL A   1      46.452  21.828  35.418  1.00  0.00     0.329 C 
ATOM      8  O   UNL A   1      47.131  22.631  36.052  1.00  0.00    -0.250 OA
BRANCH   7   9
ATOM      9  C   UNL A   1      46.580  20.308  35.622  1.00  0.00     0.196 C 
BRANCH   9  10
ATOM     10  N   UNL A   1      47.058  19.492  34.503  1.00  0.00    -0.339 N 
ATOM     11  C   UNL A   1      48.081  19.761  33.640  1.00  0.00     0.258 C 
ATOM     12  O   UNL A   1      48.183  19.091  32.612  1.00  0.00    -0.271 OA
ATOM     13  H   UNL A   1      46.582  18.642  34.354  1.00  0.00     0.164 HD
BRANCH  11  14
ATOM     14  C   UNL A   1      49.154  20.825  34.024  1.00  0.00     0.329 C 
BRANCH  14  15
ATOM     15  O   UNL A   1      50.040  20.819  35.116  1.00  0.00    -0.484 OA
BRANCH  15  16
ATOM     16  C   UNL A   1      51.250  20.301  34.794  1.00  0.00     0.122 A 
ATOM     17  C   UNL A   1      51.483  19.268  37.110  1.00  0.00     0.048 C 
ATOM     18  C   UNL A   1      51.991  19.575  35.728  1.00  0.00    -0.009 A 
ATOM     19  C   UNL A   1      53.250  19.113  35.340  1.00  0.00     0.007 A 
ATOM     20  C   UNL A   1      53.751  19.390  34.063  1.00  0.00     0.001 A 
ATOM     21  C   UNL A   1      51.748  20.600  33.525  1.00  0.00     0.047 A 
ATOM     22  C   UNL A   1      52.999  20.131  33.153  1.00  0.00     0.004 A 
ENDBRANCH  15  16
ENDBRANCH  14  15
ENDBRANCH  11  14
ENDBRANCH   9  10
BRANCH   9  23
ATOM     23  C   UNL A   1      47.313  19.982  36.932  1.00  0.00     0.074 C 
BRANCH  23  24
ATOM     24  C   UNL A   1      46.655  19.002  37.866  1.00  0.00    -0.020 A 
ATOM     25  C   UNL A   1      45.436  18.394  37.679  1.00  0.00     0.087 A 
ATOM     26  C   UNL A   1      47.170  18.479  39.102  1.00  0.00     0.003 A 
ATOM     27  N   UNL A   1      45.237  17.465  38.662  1.00  0.00    -0.361 N 
ATOM     28  C   UNL A   1      46.291  17.484  39.541  1.00  0.00     0.046 A 
ATOM     29  C   UNL A   1      48.310  18.752  39.887  1.00  0.00     0.010 A 
ATOM     30  H   UNL A   1      44.455  16.871  38.730  1.00  0.00     0.166 HD
ATOM     31  C   UNL A   1      46.523  16.710  40.685  1.00  0.00     0.026 A 
ATOM     32  C   UNL A   1      48.539  18.010  41.052  1.00  0.00     0.001 A 
ATOM     33  C   UNL A   1      47.667  16.992  41.433  1.00  0.00     0.002 A 
ENDBRANCH  23  24
ENDBRANCH   9  23
ENDBRANCH   7   9
ENDBRANCH   6   7
ENDBRANCH   5   6
ENDBRANCH   4   5
ENDBRANCH   3   4
ENDBRANCH   2   3
ENDBRANCH   1   2
BRANCH   1  34
ATOM     34  O   UNL A   1      46.070  27.046  31.735  1.00  0.00    -0.377 OA
BRANCH  34  35
ATOM     35  C   UNL A   1      46.781  27.630  30.668  1.00  0.00     0.188 C 
BRANCH  35  36
ATOM     36  C   UNL A   1      47.804  26.708  30.018  1.00  0.00     0.188 C 
BRANCH  36  37
ATOM     37  O   UNL A   1      48.830  26.230  30.868  1.00  0.00    -0.376 OA
BRANCH  37  38
ATOM     38  C   UNL A   1      49.654  27.278  31.365  1.00  0.00     0.202 C 
BRANCH  38  39
ATOM     39  C   UNL A   1      50.808  27.841  30.494  1.00  0.00     0.261 C 
BRANCH  39  40
ATOM     40  O   UNL A   1      51.311  27.185  29.261  1.00  0.00    -0.460 OA
BRANCH  40  41
ATOM     41  C   UNL A   1      51.747  26.854  28.037  1.00  0.00     0.338 C 
ATOM     42  O   UNL A   1      52.491  27.670  27.520  1.00  0.00    -0.246 OA
BRANCH  41  43
ATOM     43  C   UNL A   1      51.380  25.629  27.150  1.00  0.00     0.060 A 
ATOM     44  C   UNL A   1      51.206  26.018  25.814  1.00  0.00     0.016 A 
ATOM     45  C   UNL A   1      50.370  24.775  27.550  1.00  0.00     0.016 A 
ATOM     46  C   UNL A   1      49.919  26.231  25.292  1.00  0.00     0.010 A 
ATOM     47  C   UNL A   1      49.063  25.007  27.104  1.00  0.00     0.010 A 
ATOM     48  C   UNL A   1      48.840  25.963  26.118  1.00  0.00    -0.014 A 
BRANCH  48  49
ATOM     49  C   UNL A   1      47.740  26.955  26.331  1.00  0.00     0.031 A 
ATOM     50  C   UNL A   1      48.010  28.346  26.845  1.00  0.00     0.074 A 
ATOM     51  C   UNL A   1      46.530  26.609  25.799  1.00  0.00     0.049 A 
ATOM     52  N   UNL A   1      47.124  29.234  27.177  1.00  0.00    -0.248 NA
ATOM     53  C   UNL A   1      49.369  28.855  27.048  1.00  0.00     0.031 C 
ATOM     54  C   UNL A   1      45.376  27.436  25.466  1.00  0.00     0.029 A 
ATOM     55  N   UNL A   1      46.049  25.334  25.513  1.00  0.00    -0.354 N 
ATOM     56  C   UNL A   1      47.763  30.454  27.411  1.00  0.00     0.074 A 
ATOM     57  C   UNL A   1      49.166  30.145  27.342  1.00  0.00     0.031 C 
ATOM     58  C   UNL A   1      44.320  26.681  25.127  1.00  0.00     0.029 A 
ATOM     59  C   UNL A   1      44.650  25.335  25.508  1.00  0.00     0.049 A 
ATOM     60  H   UNL A   1      46.611  24.544  25.340  1.00  0.00     0.167 HD
ATOM     61  C   UNL A   1      47.045  31.616  27.556  1.00  0.00     0.031 A 
ATOM     62  C   UNL A   1      44.025  24.705  26.542  1.00  0.00     0.031 A 
ATOM     63  C   UNL A   1      45.610  31.351  27.790  1.00  0.00     0.049 A 
ATOM     64  C   UNL A   1      43.515  25.710  27.616  1.00  0.00     0.074 A 
ATOM     65  C   UNL A   1      44.420  31.871  27.308  1.00  0.00     0.029 A 
ATOM     66  N   UNL A   1      45.243  30.245  28.563  1.00  0.00    -0.354 N 
ATOM     67  N   UNL A   1      43.862  26.982  27.744  1.00  0.00    -0.248 NA
ATOM     68  C   UNL A   1      42.452  25.366  28.559  1.00  0.00     0.031 C 
ATOM     69  C   UNL A   1      43.379  30.965  27.653  1.00  0.00     0.029 A 
ATOM     70  C   UNL A   1      43.919  29.908  28.378  1.00  0.00     0.049 A 
ATOM     71  H   UNL A   1      45.855  29.764  29.166  1.00  0.00     0.167 HD
ATOM     72  C   UNL A   1      43.161  27.587  28.768  1.00  0.00     0.074 A 
ATOM     73  C   UNL A   1      42.260  26.531  29.206  1.00  0.00     0.031 C 
ATOM     74  C   UNL A   1      43.307  28.881  29.222  1.00  0.00     0.031 A 
BRANCH  61  75
ATOM     75  C   UNL A   1      47.593  33.040  27.287  1.00  0.00    -0.014 A 
ATOM     76  C   UNL A   1      47.106  34.145  28.032  1.00  0.00     0.010 A 
ATOM     77  C   UNL A   1      48.479  33.393  26.243  1.00  0.00     0.010 A 
ATOM     78  C   UNL A   1      47.424  35.487  27.734  1.00  0.00     0.020 A 
ATOM     79  C   UNL A   1      48.850  34.732  25.963  1.00  0.00     0.020 A 
ATOM     80  C   UNL A   1      48.303  35.777  26.698  1.00  0.00     0.054 A 
BRANCH  80  81
ATOM     81  S   UNL A   1      48.733  37.511  26.355  1.00  0.00     0.124 S 
ATOM     82  O   UNL A   1      49.893  37.381  25.476  1.00  0.00    -0.237 OA
ATOM     83  O   UNL A   1      47.521  38.021  25.722  1.00  0.00    -0.237 OA
ATOM     84  O   UNL A   1      49.018  38.065  27.677  1.00  0.00    -0.744 OA
ENDBRANCH  80  81
ENDBRANCH  61  75
BRANCH  62  85
ATOM     85  C   UNL A   1      44.492  23.256  26.584  1.00  0.00    -0.014 A 
ATOM     86  C   UNL A   1      43.450  22.288  26.676  1.00  0.00     0.010 A 
ATOM     87  C   UNL A   1      45.698  22.817  26.002  1.00  0.00     0.010 A 
ATOM     88  C   UNL A   1      43.525  21.033  26.037  1.00  0.00     0.020 A 
ATOM     89  C   UNL A   1      45.790  21.532  25.389  1.00  0.00     0.020 A 
ATOM     90  C   UNL A   1      44.684  20.670  25.358  1.00  0.00     0.054 A 
BRANCH  90  91
ATOM     91  S   UNL A   1      44.643  19.180  24.272  1.00  0.00     0.124 S 
ATOM     92  O   UNL A   1      45.965  18.600  24.486  1.00  0.00    -0.237 OA
ATOM     93  O   UNL A   1      43.526  18.397  24.793  1.00  0.00    -0.237 OA
ATOM     94  O   UNL A   1      44.424  19.721  22.930  1.00  0.00    -0.744 OA
ENDBRANCH  90  91
ENDBRANCH  62  85
BRANCH  74  95
ATOM     95  C   UNL A   1      42.875  29.388  30.602  1.00  0.00    -0.014 A 
ATOM     96  C   UNL A   1      43.748  29.919  31.559  1.00  0.00     0.010 A 
ATOM     97  C   UNL A   1      41.485  29.521  30.891  1.00  0.00     0.010 A 
ATOM     98  C   UNL A   1      43.273  30.487  32.749  1.00  0.00     0.020 A 
ATOM     99  C   UNL A   1      40.997  30.130  32.048  1.00  0.00     0.020 A 
ATOM    100  C   UNL A   1      41.903  30.594  32.985  1.00  0.00     0.054 A 
BRANCH 100 101
ATOM    101  S   UNL A   1      41.324  31.414  34.486  1.00  0.00     0.124 S 
ATOM    102  O   UNL A   1      42.318  32.470  34.649  1.00  0.00    -0.237 OA
ATOM    103  O   UNL A   1      39.986  31.863  34.107  1.00  0.00    -0.237 OA
ATOM    104  O   UNL A   1      41.358  30.359  35.495  1.00  0.00    -0.744 OA
ENDBRANCH 100 101
ENDBRANCH  74  95
ENDBRANCH  48  49
ENDBRANCH  41  43
ENDBRANCH  40  41
ENDBRANCH  39  40
ENDBRANCH  38  39
ENDBRANCH  37  38
ENDBRANCH  36  37
ENDBRANCH  35  36
ENDBRANCH  34  35
ENDBRANCH   1  34
TORSDOF 29
ENDMDL
MODEL 3
REMARK VINA RESULT:      -8.5      7.532     13.753
REMARK SMILES Cc1ccccc1OCC(=O)N[C@@H](Cc1c[nH]c2ccccc12)C(=O)OCCOCCOCCOCCOC(=O)c1ccc(-c2c3nc(c(-c4ccc(S(=O)(=O)[O-])cc4)c4ccc([nH]4)c(-c4ccc(S(=O)(=O)[O-])cc4)c4nc(c(-c5ccc(S(=O)(=O)[O-])cc5)c5ccc2[nH]5)C=C4)C=C3)cc1
REMARK SMILES IDX 31 1 30 2 29 3 28 4 27 5 26 6 24 7 25 8 13 9 12 10 10 11
REMARK SMILES IDX 11 12 9 14 8 15 7 16 1 17 2 18 3 19 4 20 6 21 5 22 14 23
REMARK SMILES IDX 15 24 16 25 23 26 17 27 18 28 22 29 19 31 21 32 20 33 32 34
REMARK SMILES IDX 33 35 34 36 35 37 36 38 37 39 38 40 39 41 40 42 41 43 42 44
REMARK SMILES IDX 100 45 43 46 99 47 44 48 45 49 46 50 93 51 47 52 98 53 92 54
REMARK SMILES IDX 94 55 48 56 97 57 91 58 90 59 49 61 79 62 60 63 78 64 61 65
REMARK SMILES IDX 64 66 77 67 95 68 62 69 63 70 76 72 96 73 65 74 50 75 51 76
REMARK SMILES IDX 59 77 52 78 58 79 53 80 54 81 55 82 56 83 57 84 80 85 81 86
REMARK SMILES IDX 89 87 82 88 88 89 83 90 84 91 85 92 86 93 87 94 66 95 67 96
REMARK SMILES IDX 75 97 68 98 74 99 69 100 70 101 71 102 72 103 73 104
REMARK H PARENT 12 13 17 30 94 60 64 71
REMARK Flexibility Score: inf
ROOT
ATOM      1  C   UNL A   1      37.962  29.150  28.046  1.00  0.00     0.188 C 
ENDROOT
BRANCH   1   2
ATOM      2  C   UNL A   1      36.772  29.788  28.727  1.00  0.00     0.188 C 
BRANCH   2   3
ATOM      3  O   UNL A   1      35.446  29.376  28.464  1.00  0.00    -0.376 OA
BRANCH   3   4
ATOM      4  C   UNL A   1      35.073  29.691  27.131  1.00  0.00     0.202 C 
BRANCH   4   5
ATOM      5  C   UNL A   1      33.673  29.227  26.677  1.00  0.00     0.261 C 
BRANCH   5   6
ATOM      6  O   UNL A   1      33.370  27.824  26.831  1.00  0.00    -0.462 OA
BRANCH   6   7
ATOM      7  C   UNL A   1      32.089  27.494  27.078  1.00  0.00     0.329 C 
ATOM      8  O   UNL A   1      31.377  28.029  27.923  1.00  0.00    -0.250 OA
BRANCH   7   9
ATOM      9  C   UNL A   1      31.580  26.346  26.190  1.00  0.00     0.196 C 
BRANCH   9  10
ATOM     10  N   UNL A   1      30.472  25.521  26.682  1.00  0.00    -0.339 N 
ATOM     11  C   UNL A   1      30.474  24.182  26.952  1.00  0.00     0.258 C 
ATOM     12  O   UNL A   1      29.397  23.609  27.117  1.00  0.00    -0.271 OA
ATOM     13  H   UNL A   1      29.621  25.990  26.838  1.00  0.00     0.164 HD
BRANCH  11  14
ATOM     14  C   UNL A   1      31.828  23.439  27.155  1.00  0.00     0.329 C 
BRANCH  14  15
ATOM     15  O   UNL A   1      33.112  23.826  26.730  1.00  0.00    -0.484 OA
BRANCH  15  16
ATOM     16  C   UNL A   1      33.768  22.823  26.096  1.00  0.00     0.122 A 
ATOM     17  C   UNL A   1      35.432  24.472  25.099  1.00  0.00     0.048 C 
ATOM     18  C   UNL A   1      34.868  23.090  25.280  1.00  0.00    -0.009 A 
ATOM     19  C   UNL A   1      35.464  22.013  24.621  1.00  0.00     0.007 A 
ATOM     20  C   UNL A   1      34.956  20.717  24.766  1.00  0.00     0.001 A 
ATOM     21  C   UNL A   1      33.240  21.538  26.232  1.00  0.00     0.047 A 
ATOM     22  C   UNL A   1      33.846  20.478  25.573  1.00  0.00     0.004 A 
ENDBRANCH  15  16
ENDBRANCH  14  15
ENDBRANCH  11  14
ENDBRANCH   9  10
BRANCH   9  23
ATOM     23  C   UNL A   1      31.354  26.816  24.746  1.00  0.00     0.074 C 
BRANCH  23  24
ATOM     24  C   UNL A   1      32.135  26.122  23.662  1.00  0.00    -0.020 A 
ATOM     25  C   UNL A   1      33.084  26.697  22.849  1.00  0.00     0.087 A 
ATOM     26  C   UNL A   1      32.081  24.736  23.284  1.00  0.00     0.003 A 
ATOM     27  N   UNL A   1      33.676  25.728  22.088  1.00  0.00    -0.361 N 
ATOM     28  C   UNL A   1      33.091  24.513  22.344  1.00  0.00     0.046 A 
ATOM     29  C   UNL A   1      31.271  23.645  23.661  1.00  0.00     0.010 A 
ATOM     30  H   UNL A   1      34.412  25.879  21.452  1.00  0.00     0.166 HD
ATOM     31  C   UNL A   1      33.373  23.249  21.810  1.00  0.00     0.026 A 
ATOM     32  C   UNL A   1      31.517  22.381  23.110  1.00  0.00     0.001 A 
ATOM     33  C   UNL A   1      32.565  22.185  22.213  1.00  0.00     0.002 A 
ENDBRANCH  23  24
ENDBRANCH   9  23
ENDBRANCH   7   9
ENDBRANCH   6   7
ENDBRANCH   5   6
ENDBRANCH   4   5
ENDBRANCH   3   4
ENDBRANCH   2   3
ENDBRANCH   1   2
BRANCH   1  34
ATOM     34  O   UNL A   1      38.690  28.188  28.774  1.00  0.00    -0.377 OA
BRANCH  34  35
ATOM     35  C   UNL A   1      39.093  27.070  28.017  1.00  0.00     0.188 C 
BRANCH  35  36
ATOM     36  C   UNL A   1      40.425  26.468  28.449  1.00  0.00     0.188 C 
BRANCH  36  37
ATOM     37  O   UNL A   1      40.907  25.404  27.652  1.00  0.00    -0.376 OA
BRANCH  37  38
ATOM     38  C   UNL A   1      42.269  25.096  27.924  1.00  0.00     0.202 C 
BRANCH  38  39
ATOM     39  C   UNL A   1      43.378  25.515  26.923  1.00  0.00     0.261 C 
BRANCH  39  40
ATOM     40  O   UNL A   1      43.791  26.921  26.685  1.00  0.00    -0.460 OA
BRANCH  40  41
ATOM     41  C   UNL A   1      43.929  28.201  26.311  1.00  0.00     0.338 C 
ATOM     42  O   UNL A   1      44.937  28.441  25.668  1.00  0.00    -0.246 OA
BRANCH  41  43
ATOM     43  C   UNL A   1      43.041  29.436  26.645  1.00  0.00     0.060 A 
ATOM     44  C   UNL A   1      43.836  30.554  26.936  1.00  0.00     0.016 A 
ATOM     45  C   UNL A   1      42.014  29.309  27.561  1.00  0.00     0.016 A 
ATOM     46  C   UNL A   1      44.092  30.924  28.267  1.00  0.00     0.010 A 
ATOM     47  C   UNL A   1      42.262  29.601  28.908  1.00  0.00     0.010 A 
ATOM     48  C   UNL A   1      43.467  30.197  29.266  1.00  0.00    -0.014 A 
BRANCH  48  49
ATOM     49  C   UNL A   1      44.226  29.620  30.418  1.00  0.00     0.031 A 
ATOM     50  C   UNL A   1      45.497  28.833  30.222  1.00  0.00     0.074 A 
ATOM     51  C   UNL A   1      43.839  30.062  31.652  1.00  0.00     0.049 A 
ATOM     52  N   UNL A   1      46.159  28.193  31.136  1.00  0.00    -0.248 NA
ATOM     53  C   UNL A   1      46.133  28.689  28.910  1.00  0.00     0.031 C 
ATOM     54  C   UNL A   1      44.551  30.043  32.926  1.00  0.00     0.029 A 
ATOM     55  N   UNL A   1      42.602  30.576  32.034  1.00  0.00    -0.354 N 
ATOM     56  C   UNL A   1      47.376  27.762  30.603  1.00  0.00     0.074 A 
ATOM     57  C   UNL A   1      47.288  28.078  29.203  1.00  0.00     0.031 C 
ATOM     58  C   UNL A   1      43.747  30.414  33.935  1.00  0.00     0.029 A 
ATOM     59  C   UNL A   1      42.410  30.404  33.408  1.00  0.00     0.049 A 
ATOM     60  H   UNL A   1      41.955  30.999  31.424  1.00  0.00     0.167 HD
ATOM     61  C   UNL A   1      48.368  27.259  31.409  1.00  0.00     0.031 A 
ATOM     62  C   UNL A   1      41.490  29.476  33.796  1.00  0.00     0.031 A 
ATOM     63  C   UNL A   1      47.862  26.914  32.754  1.00  0.00     0.049 A 
ATOM     64  C   UNL A   1      42.157  28.140  34.237  1.00  0.00     0.074 A 
ATOM     65  C   UNL A   1      48.303  27.107  34.053  1.00  0.00     0.029 A 
ATOM     66  N   UNL A   1      46.574  26.383  32.878  1.00  0.00    -0.354 N 
ATOM     67  N   UNL A   1      43.407  27.763  34.013  1.00  0.00    -0.248 NA
ATOM     68  C   UNL A   1      41.473  27.178  35.099  1.00  0.00     0.031 C 
ATOM     69  C   UNL A   1      47.208  26.856  34.925  1.00  0.00     0.029 A 
ATOM     70  C   UNL A   1      46.104  26.473  34.170  1.00  0.00     0.049 A 
ATOM     71  H   UNL A   1      46.064  25.991  32.132  1.00  0.00     0.167 HD
ATOM     72  C   UNL A   1      43.672  26.545  34.607  1.00  0.00     0.074 A 
ATOM     73  C   UNL A   1      42.431  26.257  35.312  1.00  0.00     0.031 C 
ATOM     74  C   UNL A   1      44.844  25.823  34.532  1.00  0.00     0.031 A 
BRANCH  61  75
ATOM     75  C   UNL A   1      49.879  27.254  31.064  1.00  0.00    -0.014 A 
ATOM     76  C   UNL A   1      50.633  28.452  31.147  1.00  0.00     0.010 A 
ATOM     77  C   UNL A   1      50.593  26.157  30.531  1.00  0.00     0.010 A 
ATOM     78  C   UNL A   1      51.963  28.569  30.688  1.00  0.00     0.020 A 
ATOM     79  C   UNL A   1      51.944  26.243  30.113  1.00  0.00     0.020 A 
ATOM     80  C   UNL A   1      52.618  27.457  30.175  1.00  0.00     0.054 A 
BRANCH  80  81
ATOM     81  S   UNL A   1      54.346  27.616  29.627  1.00  0.00     0.124 S 
ATOM     82  O   UNL A   1      54.686  26.247  29.251  1.00  0.00    -0.237 OA
ATOM     83  O   UNL A   1      54.243  28.563  28.520  1.00  0.00    -0.237 OA
ATOM     84  O   UNL A   1      55.039  28.125  30.809  1.00  0.00    -0.744 OA
ENDBRANCH  80  81
ENDBRANCH  61  75
BRANCH  62  85
ATOM     85  C   UNL A   1      40.146  29.834  33.175  1.00  0.00    -0.014 A 
ATOM     86  C   UNL A   1      39.041  29.810  34.075  1.00  0.00     0.010 A 
ATOM     87  C   UNL A   1      40.014  30.673  32.052  1.00  0.00     0.010 A 
ATOM     88  C   UNL A   1      37.968  30.721  33.980  1.00  0.00     0.020 A 
ATOM     89  C   UNL A   1      38.910  31.569  31.932  1.00  0.00     0.020 A 
ATOM     90  C   UNL A   1      37.923  31.629  32.927  1.00  0.00     0.054 A 
BRANCH  90  91
ATOM     91  S   UNL A   1      36.699  33.007  33.000  1.00  0.00     0.124 S 
ATOM     92  O   UNL A   1      35.718  32.608  31.995  1.00  0.00    -0.237 OA
ATOM     93  O   UNL A   1      36.223  32.981  34.380  1.00  0.00    -0.237 OA
ATOM     94  O   UNL A   1      37.477  34.197  32.653  1.00  0.00    -0.744 OA
ENDBRANCH  90  91
ENDBRANCH  62  85
BRANCH  74  95
ATOM     95  C   UNL A   1      44.975  24.319  34.796  1.00  0.00    -0.014 A 
ATOM     96  C   UNL A   1      45.270  23.365  33.816  1.00  0.00     0.010 A 
ATOM     97  C   UNL A   1      44.994  23.848  36.143  1.00  0.00     0.010 A 
ATOM     98  C   UNL A   1      45.506  22.023  34.145  1.00  0.00     0.020 A 
ATOM     99  C   UNL A   1      45.278  22.527  36.489  1.00  0.00     0.020 A 
ATOM    100  C   UNL A   1      45.514  21.613  35.478  1.00  0.00     0.054 A 
BRANCH 100 101
ATOM    101  S   UNL A   1      45.913  19.897  35.874  1.00  0.00     0.124 S 
ATOM    102  O   UNL A   1      45.802  19.894  37.329  1.00  0.00    -0.237 OA
ATOM    103  O   UNL A   1      44.873  19.157  35.162  1.00  0.00    -0.237 OA
ATOM    104  O   UNL A   1      47.265  19.723  35.347  1.00  0.00    -0.744 OA
ENDBRANCH 100 101
ENDBRANCH  74  95
ENDBRANCH  48  49
ENDBRANCH  41  43
ENDBRANCH  40  41
ENDBRANCH  39  40
ENDBRANCH  38  39
ENDBRANCH  37  38
ENDBRANCH  36  37
ENDBRANCH  35  36
ENDBRANCH  34  35
ENDBRANCH   1  34
TORSDOF 29
ENDMDL
