MODEL 1
REMARK VINA RESULT:      -8.7      0.000      0.000
REMARK SMILES [NH3+][C@H](CCc1c[nH]nc1C(F)(F)F)C(=O)OCCOCCOCCOCCOC(=O)c1ccc(-c2c3nc(c(-c4ccc(S(=O)(=O)[O-])cc4)c4ccc([nH]4)c(-c4ccc(S(=O)(=O)[O-])cc4)c4nc(c(-c5ccc(S(=O)(=O)[O-])cc5)c5ccc2[nH]5)C=C4)C=C3)cc1
REMARK SMILES IDX 21 1 20 2 19 3 18 4 17 5 16 6 14 7 15 8 2 9 1 10 3 14 4 15
REMARK SMILES IDX 5 16 6 17 9 18 7 19 8 20 10 22 11 23 12 24 13 25 22 26 23 27
REMARK SMILES IDX 24 28 25 29 26 30 27 31 28 32 29 33 30 34 31 35 32 36 90 37
REMARK SMILES IDX 33 38 89 39 34 40 35 41 36 42 83 43 37 44 88 45 82 46 84 47
REMARK SMILES IDX 38 48 87 49 81 50 80 51 39 53 69 54 50 55 68 56 51 57 54 58
REMARK SMILES IDX 67 59 85 60 52 61 53 62 66 64 86 65 55 66 40 67 41 68 49 69
REMARK SMILES IDX 42 70 48 71 43 72 44 73 45 74 46 75 47 76 70 77 71 78 79 79
REMARK SMILES IDX 72 80 78 81 73 82 74 83 75 84 76 85 77 86 56 87 57 88 65 89
REMARK SMILES IDX 58 90 64 91 59 92 60 93 61 94 62 95 63 96
REMARK H PARENT 1 11 1 12 1 13 7 21 84 52 54 63
REMARK Flexibility Score: inf
ROOT
ATOM      1  C   UNL A   1      31.474  30.031  25.010  1.00  0.00     0.188 C 
ENDROOT
BRANCH   1   2
ATOM      2  C   UNL A   1      32.156  28.968  24.132  1.00  0.00     0.188 C 
BRANCH   2   3
ATOM      3  O   UNL A   1      31.342  28.534  23.060  1.00  0.00    -0.376 OA
BRANCH   3   4
ATOM      4  C   UNL A   1      30.030  28.079  23.343  1.00  0.00     0.202 C 
BRANCH   4   5
ATOM      5  C   UNL A   1      29.812  26.779  24.137  1.00  0.00     0.261 C 
BRANCH   5   6
ATOM      6  O   UNL A   1      30.767  26.535  25.178  1.00  0.00    -0.459 OA
BRANCH   6   7
ATOM      7  C   UNL A   1      30.525  25.514  26.032  1.00  0.00     0.364 C 
ATOM      8  O   UNL A   1      29.444  25.341  26.586  1.00  0.00    -0.245 OA
BRANCH   7   9
ATOM      9  C   UNL A   1      31.723  24.528  26.127  1.00  0.00     0.292 C 
BRANCH   9  10
ATOM     10  N   UNL A   1      31.433  23.498  27.157  1.00  0.00    -0.346 N 
ATOM     11  H   UNL A   1      32.043  22.694  27.014  1.00  0.00     0.345 HD
ATOM     12  H   UNL A   1      30.460  23.205  27.079  1.00  0.00     0.345 HD
ATOM     13  H   UNL A   1      31.597  23.889  28.085  1.00  0.00     0.345 HD
ENDBRANCH   9  10
BRANCH   9  14
ATOM     14  C   UNL A   1      33.174  25.034  26.290  1.00  0.00     0.082 C 
BRANCH  14  15
ATOM     15  C   UNL A   1      34.187  24.964  25.146  1.00  0.00     0.046 C 
BRANCH  15  16
ATOM     16  C   UNL A   1      33.688  24.396  23.862  1.00  0.00     0.003 A 
ATOM     17  C   UNL A   1      33.075  25.067  22.822  1.00  0.00     0.109 A 
ATOM     18  C   UNL A   1      33.637  23.013  23.469  1.00  0.00     0.169 A 
ATOM     19  N   UNL A   1      32.747  24.131  21.887  1.00  0.00    -0.285 N 
ATOM     20  N   UNL A   1      33.123  22.895  22.230  1.00  0.00    -0.171 NA
ATOM     21  H   UNL A   1      32.282  24.342  21.046  1.00  0.00     0.189 HD
BRANCH  18  22
ATOM     22  C   UNL A   1      34.063  21.781  24.240  1.00  0.00     0.435 C 
ATOM     23  F   UNL A   1      35.412  21.606  24.251  1.00  0.00    -0.164 F 
ATOM     24  F   UNL A   1      33.657  21.825  25.540  1.00  0.00    -0.164 F 
ATOM     25  F   UNL A   1      33.547  20.627  23.730  1.00  0.00    -0.164 F 
ENDBRANCH  18  22
ENDBRANCH  15  16
ENDBRANCH  14  15
ENDBRANCH   9  14
ENDBRANCH   7   9
ENDBRANCH   6   7
ENDBRANCH   5   6
ENDBRANCH   4   5
ENDBRANCH   3   4
ENDBRANCH   2   3
ENDBRANCH   1   2
BRANCH   1  26
ATOM     26  O   UNL A   1      31.866  30.168  26.369  1.00  0.00    -0.377 OA
BRANCH  26  27
ATOM     27  C   UNL A   1      32.827  29.271  26.929  1.00  0.00     0.188 C 
BRANCH  27  28
ATOM     28  C   UNL A   1      34.241  29.767  27.305  1.00  0.00     0.188 C 
BRANCH  28  29
ATOM     29  O   UNL A   1      34.420  31.173  27.229  1.00  0.00    -0.376 OA
BRANCH  29  30
ATOM     30  C   UNL A   1      34.130  31.910  28.409  1.00  0.00     0.202 C 
BRANCH  30  31
ATOM     31  C   UNL A   1      35.338  32.276  29.281  1.00  0.00     0.261 C 
BRANCH  31  32
ATOM     32  O   UNL A   1      36.554  31.566  28.986  1.00  0.00    -0.460 OA
BRANCH  32  33
ATOM     33  C   UNL A   1      36.980  30.634  29.867  1.00  0.00     0.338 C 
ATOM     34  O   UNL A   1      36.365  30.165  30.810  1.00  0.00    -0.246 OA
BRANCH  33  35
ATOM     35  C   UNL A   1      38.282  30.144  29.386  1.00  0.00     0.060 A 
ATOM     36  C   UNL A   1      39.342  29.994  30.290  1.00  0.00     0.016 A 
ATOM     37  C   UNL A   1      38.442  29.818  28.039  1.00  0.00     0.016 A 
ATOM     38  C   UNL A   1      40.577  29.521  29.841  1.00  0.00     0.010 A 
ATOM     39  C   UNL A   1      39.683  29.366  27.589  1.00  0.00     0.010 A 
ATOM     40  C   UNL A   1      40.759  29.231  28.483  1.00  0.00    -0.014 A 
BRANCH  40  41
ATOM     41  C   UNL A   1      42.105  28.913  27.949  1.00  0.00     0.031 A 
ATOM     42  C   UNL A   1      42.403  27.492  27.557  1.00  0.00     0.074 A 
ATOM     43  C   UNL A   1      43.058  29.859  27.869  1.00  0.00     0.049 A 
ATOM     44  N   UNL A   1      43.540  26.956  27.200  1.00  0.00    -0.248 NA
ATOM     45  C   UNL A   1      41.270  26.550  27.578  1.00  0.00     0.031 C 
ATOM     46  C   UNL A   1      42.875  31.275  28.189  1.00  0.00     0.029 A 
ATOM     47  N   UNL A   1      44.383  29.761  27.521  1.00  0.00    -0.354 N 
ATOM     48  C   UNL A   1      43.268  25.611  26.982  1.00  0.00     0.074 A 
ATOM     49  C   UNL A   1      41.860  25.411  27.243  1.00  0.00     0.031 C 
ATOM     50  C   UNL A   1      44.055  31.907  28.055  1.00  0.00     0.029 A 
ATOM     51  C   UNL A   1      45.082  30.934  27.685  1.00  0.00     0.049 A 
ATOM     52  H   UNL A   1      44.792  28.930  27.187  1.00  0.00     0.167 HD
ATOM     53  C   UNL A   1      44.121  24.631  26.606  1.00  0.00     0.031 A 
ATOM     54  C   UNL A   1      46.405  31.182  27.593  1.00  0.00     0.031 A 
ATOM     55  C   UNL A   1      45.521  24.836  26.352  1.00  0.00     0.049 A 
ATOM     56  C   UNL A   1      47.344  30.054  27.241  1.00  0.00     0.074 A 
ATOM     57  C   UNL A   1      46.456  23.915  25.914  1.00  0.00     0.029 A 
ATOM     58  N   UNL A   1      46.192  26.035  26.532  1.00  0.00    -0.354 N 
ATOM     59  N   UNL A   1      47.062  28.801  26.964  1.00  0.00    -0.248 NA
ATOM     60  C   UNL A   1      48.779  30.369  27.192  1.00  0.00     0.031 C 
ATOM     61  C   UNL A   1      47.706  24.537  25.900  1.00  0.00     0.029 A 
ATOM     62  C   UNL A   1      47.539  25.864  26.262  1.00  0.00     0.049 A 
ATOM     63  H   UNL A   1      45.774  26.881  26.810  1.00  0.00     0.167 HD
ATOM     64  C   UNL A   1      48.282  28.188  26.692  1.00  0.00     0.074 A 
ATOM     65  C   UNL A   1      49.301  29.210  26.812  1.00  0.00     0.031 C 
ATOM     66  C   UNL A   1      48.540  26.894  26.377  1.00  0.00     0.031 A 
BRANCH  53  67
ATOM     67  C   UNL A   1      43.585  23.232  26.486  1.00  0.00    -0.014 A 
ATOM     68  C   UNL A   1      43.580  22.552  25.256  1.00  0.00     0.010 A 
ATOM     69  C   UNL A   1      43.165  22.555  27.647  1.00  0.00     0.010 A 
ATOM     70  C   UNL A   1      43.156  21.222  25.188  1.00  0.00     0.020 A 
ATOM     71  C   UNL A   1      42.764  21.220  27.587  1.00  0.00     0.020 A 
ATOM     72  C   UNL A   1      42.757  20.562  26.356  1.00  0.00     0.054 A 
BRANCH  72  73
ATOM     73  S   UNL A   1      42.283  18.815  26.248  1.00  0.00     0.124 S 
ATOM     74  O   UNL A   1      42.450  18.370  27.629  1.00  0.00    -0.237 OA
ATOM     75  O   UNL A   1      40.902  18.888  25.775  1.00  0.00    -0.237 OA
ATOM     76  O   UNL A   1      43.236  18.254  25.293  1.00  0.00    -0.744 OA
ENDBRANCH  72  73
ENDBRANCH  53  67
BRANCH  54  77
ATOM     77  C   UNL A   1      46.941  32.540  27.898  1.00  0.00    -0.014 A 
ATOM     78  C   UNL A   1      47.266  33.437  26.865  1.00  0.00     0.010 A 
ATOM     79  C   UNL A   1      47.169  32.929  29.232  1.00  0.00     0.010 A 
ATOM     80  C   UNL A   1      47.837  34.680  27.157  1.00  0.00     0.020 A 
ATOM     81  C   UNL A   1      47.708  34.184  29.531  1.00  0.00     0.020 A 
ATOM     82  C   UNL A   1      48.056  35.045  28.490  1.00  0.00     0.054 A 
BRANCH  82  83
ATOM     83  S   UNL A   1      48.770  36.676  28.843  1.00  0.00     0.124 S 
ATOM     84  O   UNL A   1      47.745  37.281  29.687  1.00  0.00    -0.237 OA
ATOM     85  O   UNL A   1      50.021  36.331  29.515  1.00  0.00    -0.237 OA
ATOM     86  O   UNL A   1      48.933  37.275  27.521  1.00  0.00    -0.744 OA
ENDBRANCH  82  83
ENDBRANCH  54  77
BRANCH  66  87
ATOM     87  C   UNL A   1      49.970  26.504  26.115  1.00  0.00    -0.014 A 
ATOM     88  C   UNL A   1      50.594  26.809  24.891  1.00  0.00     0.010 A 
ATOM     89  C   UNL A   1      50.728  25.907  27.139  1.00  0.00     0.010 A 
ATOM     90  C   UNL A   1      51.943  26.506  24.692  1.00  0.00     0.020 A 
ATOM     91  C   UNL A   1      52.084  25.630  26.955  1.00  0.00     0.020 A 
ATOM     92  C   UNL A   1      52.682  25.923  25.727  1.00  0.00     0.054 A 
BRANCH  92  93
ATOM     93  S   UNL A   1      54.448  25.603  25.465  1.00  0.00     0.124 S 
ATOM     94  O   UNL A   1      55.069  26.516  26.420  1.00  0.00    -0.237 OA
ATOM     95  O   UNL A   1      54.566  24.182  25.783  1.00  0.00    -0.237 OA
ATOM     96  O   UNL A   1      54.657  25.939  24.057  1.00  0.00    -0.744 OA
ENDBRANCH  92  93
ENDBRANCH  66  87
ENDBRANCH  40  41
ENDBRANCH  33  35
ENDBRANCH  32  33
ENDBRANCH  31  32
ENDBRANCH  30  31
ENDBRANCH  29  30
ENDBRANCH  28  29
ENDBRANCH  27  28
ENDBRANCH  26  27
ENDBRANCH   1  26
TORSDOF 28
ENDMDL
MODEL 2
REMARK VINA RESULT:      -8.6      7.842     14.263
REMARK SMILES [NH3+][C@H](CCc1c[nH]nc1C(F)(F)F)C(=O)OCCOCCOCCOCCOC(=O)c1ccc(-c2c3nc(c(-c4ccc(S(=O)(=O)[O-])cc4)c4ccc([nH]4)c(-c4ccc(S(=O)(=O)[O-])cc4)c4nc(c(-c5ccc(S(=O)(=O)[O-])cc5)c5ccc2[nH]5)C=C4)C=C3)cc1
REMARK SMILES IDX 21 1 20 2 19 3 18 4 17 5 16 6 14 7 15 8 2 9 1 10 3 14 4 15
REMARK SMILES IDX 5 16 6 17 9 18 7 19 8 20 10 22 11 23 12 24 13 25 22 26 23 27
REMARK SMILES IDX 24 28 25 29 26 30 27 31 28 32 29 33 30 34 31 35 32 36 90 37
REMARK SMILES IDX 33 38 89 39 34 40 35 41 36 42 83 43 37 44 88 45 82 46 84 47
REMARK SMILES IDX 38 48 87 49 81 50 80 51 39 53 69 54 50 55 68 56 51 57 54 58
REMARK SMILES IDX 67 59 85 60 52 61 53 62 66 64 86 65 55 66 40 67 41 68 49 69
REMARK SMILES IDX 42 70 48 71 43 72 44 73 45 74 46 75 47 76 70 77 71 78 79 79
REMARK SMILES IDX 72 80 78 81 73 82 74 83 75 84 76 85 77 86 56 87 57 88 65 89
REMARK SMILES IDX 58 90 64 91 59 92 60 93 61 94 62 95 63 96
REMARK H PARENT 1 11 1 12 1 13 7 21 84 52 54 63
REMARK Flexibility Score: inf
ROOT
ATOM      1  C   UNL A   1      43.214  39.547  26.548  1.00  0.00     0.188 C 
ENDROOT
BRANCH   1   2
ATOM      2  C   UNL A   1      43.107  40.923  27.226  1.00  0.00     0.188 C 
BRANCH   2   3
ATOM      3  O   UNL A   1      43.664  41.965  26.449  1.00  0.00    -0.376 OA
BRANCH   3   4
ATOM      4  C   UNL A   1      43.808  41.769  25.053  1.00  0.00     0.202 C 
BRANCH   4   5
ATOM      5  C   UNL A   1      42.728  42.274  24.080  1.00  0.00     0.261 C 
BRANCH   5   6
ATOM      6  O   UNL A   1      42.933  41.921  22.707  1.00  0.00    -0.459 OA
BRANCH   6   7
ATOM      7  C   UNL A   1      42.297  42.652  21.763  1.00  0.00     0.364 C 
ATOM      8  O   UNL A   1      41.171  43.114  21.915  1.00  0.00    -0.245 OA
BRANCH   7   9
ATOM      9  C   UNL A   1      43.201  42.941  20.533  1.00  0.00     0.292 C 
BRANCH   9  10
ATOM     10  N   UNL A   1      44.518  42.281  20.721  1.00  0.00    -0.346 N 
ATOM     11  H   UNL A   1      44.527  41.392  20.223  1.00  0.00     0.345 HD
ATOM     12  H   UNL A   1      44.675  42.115  21.715  1.00  0.00     0.345 HD
ATOM     13  H   UNL A   1      45.256  42.884  20.356  1.00  0.00     0.345 HD
ENDBRANCH   9  10
BRANCH   9  14
ATOM     14  C   UNL A   1      43.411  44.379  20.004  1.00  0.00     0.082 C 
BRANCH  14  15
ATOM     15  C   UNL A   1      44.265  44.668  18.769  1.00  0.00     0.046 C 
BRANCH  15  16
ATOM     16  C   UNL A   1      44.025  45.975  18.095  1.00  0.00     0.003 A 
ATOM     17  C   UNL A   1      44.599  47.197  18.390  1.00  0.00     0.109 A 
ATOM     18  C   UNL A   1      43.066  46.275  17.066  1.00  0.00     0.169 A 
ATOM     19  N   UNL A   1      44.037  48.110  17.549  1.00  0.00    -0.285 N 
ATOM     20  N   UNL A   1      43.151  47.570  16.707  1.00  0.00    -0.171 NA
ATOM     21  H   UNL A   1      44.260  49.068  17.560  1.00  0.00     0.189 HD
BRANCH  18  22
ATOM     22  C   UNL A   1      42.056  45.362  16.401  1.00  0.00     0.435 C 
ATOM     23  F   UNL A   1      42.638  44.373  15.673  1.00  0.00    -0.164 F 
ATOM     24  F   UNL A   1      41.237  44.760  17.308  1.00  0.00    -0.164 F 
ATOM     25  F   UNL A   1      41.231  46.018  15.536  1.00  0.00    -0.164 F 
ENDBRANCH  18  22
ENDBRANCH  15  16
ENDBRANCH  14  15
ENDBRANCH   9  14
ENDBRANCH   7   9
ENDBRANCH   6   7
ENDBRANCH   5   6
ENDBRANCH   4   5
ENDBRANCH   3   4
ENDBRANCH   2   3
ENDBRANCH   1   2
BRANCH   1  26
ATOM     26  O   UNL A   1      44.469  38.881  26.518  1.00  0.00    -0.377 OA
BRANCH  26  27
ATOM     27  C   UNL A   1      45.420  39.103  27.562  1.00  0.00     0.188 C 
BRANCH  27  28
ATOM     28  C   UNL A   1      46.644  40.016  27.328  1.00  0.00     0.188 C 
BRANCH  28  29
ATOM     29  O   UNL A   1      47.307  39.820  26.089  1.00  0.00    -0.376 OA
BRANCH  29  30
ATOM     30  C   UNL A   1      47.691  38.486  25.783  1.00  0.00     0.202 C 
BRANCH  30  31
ATOM     31  C   UNL A   1      49.100  38.078  26.232  1.00  0.00     0.261 C 
BRANCH  31  32
ATOM     32  O   UNL A   1      49.190  36.824  26.931  1.00  0.00    -0.460 OA
BRANCH  32  33
ATOM     33  C   UNL A   1      48.636  36.735  28.160  1.00  0.00     0.338 C 
ATOM     34  O   UNL A   1      48.548  37.613  29.001  1.00  0.00    -0.246 OA
BRANCH  33  35
ATOM     35  C   UNL A   1      47.991  35.415  28.253  1.00  0.00     0.060 A 
ATOM     36  C   UNL A   1      48.105  34.671  29.435  1.00  0.00     0.016 A 
ATOM     37  C   UNL A   1      47.261  34.926  27.170  1.00  0.00     0.016 A 
ATOM     38  C   UNL A   1      47.487  33.422  29.532  1.00  0.00     0.010 A 
ATOM     39  C   UNL A   1      46.663  33.669  27.261  1.00  0.00     0.010 A 
ATOM     40  C   UNL A   1      46.787  32.905  28.435  1.00  0.00    -0.014 A 
BRANCH  40  41
ATOM     41  C   UNL A   1      46.288  31.509  28.442  1.00  0.00     0.031 A 
ATOM     42  C   UNL A   1      47.184  30.425  27.910  1.00  0.00     0.074 A 
ATOM     43  C   UNL A   1      45.042  31.222  28.860  1.00  0.00     0.049 A 
ATOM     44  N   UNL A   1      46.915  29.166  27.690  1.00  0.00    -0.248 NA
ATOM     45  C   UNL A   1      48.565  30.815  27.576  1.00  0.00     0.031 C 
ATOM     46  C   UNL A   1      44.096  32.185  29.425  1.00  0.00     0.029 A 
ATOM     47  N   UNL A   1      44.347  30.038  28.842  1.00  0.00    -0.354 N 
ATOM     48  C   UNL A   1      48.080  28.619  27.166  1.00  0.00     0.074 A 
ATOM     49  C   UNL A   1      49.059  29.681  27.102  1.00  0.00     0.031 C 
ATOM     50  C   UNL A   1      42.931  31.557  29.669  1.00  0.00     0.029 A 
ATOM     51  C   UNL A   1      43.036  30.164  29.236  1.00  0.00     0.049 A 
ATOM     52  H   UNL A   1      44.750  29.181  28.573  1.00  0.00     0.167 HD
ATOM     53  C   UNL A   1      48.306  27.347  26.766  1.00  0.00     0.031 A 
ATOM     54  C   UNL A   1      42.024  29.271  29.206  1.00  0.00     0.031 A 
ATOM     55  C   UNL A   1      47.325  26.298  26.828  1.00  0.00     0.049 A 
ATOM     56  C   UNL A   1      42.288  27.878  28.687  1.00  0.00     0.074 A 
ATOM     57  C   UNL A   1      47.477  24.963  26.495  1.00  0.00     0.029 A 
ATOM     58  N   UNL A   1      46.009  26.465  27.228  1.00  0.00    -0.354 N 
ATOM     59  N   UNL A   1      43.414  27.354  28.263  1.00  0.00    -0.248 NA
ATOM     60  C   UNL A   1      41.143  26.956  28.639  1.00  0.00     0.031 C 
ATOM     61  C   UNL A   1      46.234  24.339  26.624  1.00  0.00     0.029 A 
ATOM     62  C   UNL A   1      45.325  25.268  27.103  1.00  0.00     0.049 A 
ATOM     63  H   UNL A   1      45.619  27.308  27.552  1.00  0.00     0.167 HD
ATOM     64  C   UNL A   1      43.115  26.039  27.917  1.00  0.00     0.074 A 
ATOM     65  C   UNL A   1      41.710  25.838  28.203  1.00  0.00     0.031 C 
ATOM     66  C   UNL A   1      43.927  25.083  27.401  1.00  0.00     0.031 A 
BRANCH  53  67
ATOM     67  C   UNL A   1      49.650  27.016  26.179  1.00  0.00    -0.014 A 
ATOM     68  C   UNL A   1      50.655  26.407  26.950  1.00  0.00     0.010 A 
ATOM     69  C   UNL A   1      49.874  27.236  24.807  1.00  0.00     0.010 A 
ATOM     70  C   UNL A   1      51.865  26.032  26.359  1.00  0.00     0.020 A 
ATOM     71  C   UNL A   1      51.071  26.841  24.209  1.00  0.00     0.020 A 
ATOM     72  C   UNL A   1      52.062  26.245  24.990  1.00  0.00     0.054 A 
BRANCH  72  73
ATOM     73  S   UNL A   1      53.613  25.680  24.238  1.00  0.00     0.124 S 
ATOM     74  O   UNL A   1      53.619  24.261  24.584  1.00  0.00    -0.237 OA
ATOM     75  O   UNL A   1      53.408  25.980  22.822  1.00  0.00    -0.237 OA
ATOM     76  O   UNL A   1      54.635  26.487  24.900  1.00  0.00    -0.744 OA
ENDBRANCH  72  73
ENDBRANCH  53  67
BRANCH  54  77
ATOM     77  C   UNL A   1      40.649  29.674  29.619  1.00  0.00    -0.014 A 
ATOM     78  C   UNL A   1      39.681  30.024  28.661  1.00  0.00     0.010 A 
ATOM     79  C   UNL A   1      40.311  29.747  30.984  1.00  0.00     0.010 A 
ATOM     80  C   UNL A   1      38.417  30.470  29.059  1.00  0.00     0.020 A 
ATOM     81  C   UNL A   1      39.038  30.159  31.386  1.00  0.00     0.020 A 
ATOM     82  C   UNL A   1      38.103  30.536  30.421  1.00  0.00     0.054 A 
BRANCH  82  83
ATOM     83  S   UNL A   1      36.446  31.090  30.911  1.00  0.00     0.124 S 
ATOM     84  O   UNL A   1      35.713  31.011  29.652  1.00  0.00    -0.237 OA
ATOM     85  O   UNL A   1      36.073  30.104  31.924  1.00  0.00    -0.237 OA
ATOM     86  O   UNL A   1      36.671  32.437  31.426  1.00  0.00    -0.744 OA
ENDBRANCH  82  83
ENDBRANCH  54  77
BRANCH  66  87
ATOM     87  C   UNL A   1      43.335  23.725  27.132  1.00  0.00    -0.014 A 
ATOM     88  C   UNL A   1      43.033  23.309  25.823  1.00  0.00     0.010 A 
ATOM     89  C   UNL A   1      43.163  22.819  28.195  1.00  0.00     0.010 A 
ATOM     90  C   UNL A   1      42.553  22.019  25.585  1.00  0.00     0.020 A 
ATOM     91  C   UNL A   1      42.711  21.518  27.958  1.00  0.00     0.020 A 
ATOM     92  C   UNL A   1      42.400  21.129  26.653  1.00  0.00     0.054 A 
BRANCH  92  93
ATOM     93  S   UNL A   1      41.840  19.439  26.307  1.00  0.00     0.124 S 
ATOM     94  O   UNL A   1      40.392  19.606  26.232  1.00  0.00    -0.237 OA
ATOM     95  O   UNL A   1      42.505  19.134  25.042  1.00  0.00    -0.237 OA
ATOM     96  O   UNL A   1      42.319  18.671  27.456  1.00  0.00    -0.744 OA
ENDBRANCH  92  93
ENDBRANCH  66  87
ENDBRANCH  40  41
ENDBRANCH  33  35
ENDBRANCH  32  33
ENDBRANCH  31  32
ENDBRANCH  30  31
ENDBRANCH  29  30
ENDBRANCH  28  29
ENDBRANCH  27  28
ENDBRANCH  26  27
ENDBRANCH   1  26
TORSDOF 28
ENDMDL
MODEL 3
REMARK VINA RESULT:      -8.1      7.744     10.320
REMARK SMILES [NH3+][C@H](CCc1c[nH]nc1C(F)(F)F)C(=O)OCCOCCOCCOCCOC(=O)c1ccc(-c2c3nc(c(-c4ccc(S(=O)(=O)[O-])cc4)c4ccc([nH]4)c(-c4ccc(S(=O)(=O)[O-])cc4)c4nc(c(-c5ccc(S(=O)(=O)[O-])cc5)c5ccc2[nH]5)C=C4)C=C3)cc1
REMARK SMILES IDX 21 1 20 2 19 3 18 4 17 5 16 6 14 7 15 8 2 9 1 10 3 14 4 15
REMARK SMILES IDX 5 16 6 17 9 18 7 19 8 20 10 22 11 23 12 24 13 25 22 26 23 27
REMARK SMILES IDX 24 28 25 29 26 30 27 31 28 32 29 33 30 34 31 35 32 36 90 37
REMARK SMILES IDX 33 38 89 39 34 40 35 41 36 42 83 43 37 44 88 45 82 46 84 47
REMARK SMILES IDX 38 48 87 49 81 50 80 51 39 53 69 54 50 55 68 56 51 57 54 58
REMARK SMILES IDX 67 59 85 60 52 61 53 62 66 64 86 65 55 66 40 67 41 68 49 69
REMARK SMILES IDX 42 70 48 71 43 72 44 73 45 74 46 75 47 76 70 77 71 78 79 79
REMARK SMILES IDX 72 80 78 81 73 82 74 83 75 84 76 85 77 86 56 87 57 88 65 89
REMARK SMILES IDX 58 90 64 91 59 92 60 93 61 94 62 95 63 96
REMARK H PARENT 1 11 1 12 1 13 7 21 84 52 54 63
REMARK Flexibility Score: inf
ROOT
ATOM      1  C   UNL A   1      32.913  36.104  32.694  1.00  0.00     0.188 C 
ENDROOT
BRANCH   1   2
ATOM      2  C   UNL A   1      34.109  35.138  32.642  1.00  0.00     0.188 C 
BRANCH   2   3
ATOM      3  O   UNL A   1      35.316  35.732  33.080  1.00  0.00    -0.376 OA
BRANCH   3   4
ATOM      4  C   UNL A   1      36.340  34.896  33.590  1.00  0.00     0.202 C 
BRANCH   4   5
ATOM      5  C   UNL A   1      36.047  33.922  34.744  1.00  0.00     0.261 C 
BRANCH   5   6
ATOM      6  O   UNL A   1      37.203  33.426  35.430  1.00  0.00    -0.459 OA
BRANCH   6   7
ATOM      7  C   UNL A   1      37.540  32.129  35.247  1.00  0.00     0.364 C 
ATOM      8  O   UNL A   1      37.446  31.554  34.167  1.00  0.00    -0.245 OA
BRANCH   7   9
ATOM      9  C   UNL A   1      38.170  31.497  36.520  1.00  0.00     0.292 C 
BRANCH   9  10
ATOM     10  N   UNL A   1      38.818  30.210  36.163  1.00  0.00    -0.346 N 
ATOM     11  H   UNL A   1      38.476  29.475  36.781  1.00  0.00     0.345 HD
ATOM     12  H   UNL A   1      39.829  30.299  36.267  1.00  0.00     0.345 HD
ATOM     13  H   UNL A   1      38.596  29.974  35.196  1.00  0.00     0.345 HD
ENDBRANCH   9  10
BRANCH   9  14
ATOM     14  C   UNL A   1      37.358  31.328  37.824  1.00  0.00     0.082 C 
BRANCH  14  15
ATOM     15  C   UNL A   1      37.310  32.421  38.893  1.00  0.00     0.046 C 
BRANCH  15  16
ATOM     16  C   UNL A   1      36.189  32.335  39.871  1.00  0.00     0.003 A 
ATOM     17  C   UNL A   1      34.942  32.922  39.781  1.00  0.00     0.109 A 
ATOM     18  C   UNL A   1      36.195  31.716  41.169  1.00  0.00     0.169 A 
ATOM     19  N   UNL A   1      34.276  32.611  40.929  1.00  0.00    -0.285 N 
ATOM     20  N   UNL A   1      34.990  31.842  41.756  1.00  0.00    -0.171 NA
ATOM     21  H   UNL A   1      33.363  32.922  41.128  1.00  0.00     0.189 HD
BRANCH  18  22
ATOM     22  C   UNL A   1      37.322  30.999  41.884  1.00  0.00     0.435 C 
ATOM     23  F   UNL A   1      36.990  30.620  43.147  1.00  0.00    -0.164 F 
ATOM     24  F   UNL A   1      37.715  29.876  41.221  1.00  0.00    -0.164 F 
ATOM     25  F   UNL A   1      38.444  31.764  42.013  1.00  0.00    -0.164 F 
ENDBRANCH  18  22
ENDBRANCH  15  16
ENDBRANCH  14  15
ENDBRANCH   9  14
ENDBRANCH   7   9
ENDBRANCH   6   7
ENDBRANCH   5   6
ENDBRANCH   4   5
ENDBRANCH   3   4
ENDBRANCH   2   3
ENDBRANCH   1   2
BRANCH   1  26
ATOM     26  O   UNL A   1      32.520  36.790  31.514  1.00  0.00    -0.377 OA
BRANCH  26  27
ATOM     27  C   UNL A   1      33.206  36.545  30.284  1.00  0.00     0.188 C 
BRANCH  27  28
ATOM     28  C   UNL A   1      33.430  35.101  29.783  1.00  0.00     0.188 C 
BRANCH  28  29
ATOM     29  O   UNL A   1      32.781  34.786  28.561  1.00  0.00    -0.376 OA
BRANCH  29  30
ATOM     30  C   UNL A   1      33.239  33.621  27.886  1.00  0.00     0.202 C 
BRANCH  30  31
ATOM     31  C   UNL A   1      33.983  32.597  28.754  1.00  0.00     0.261 C 
BRANCH  31  32
ATOM     32  O   UNL A   1      35.194  32.067  28.188  1.00  0.00    -0.460 OA
BRANCH  32  33
ATOM     33  C   UNL A   1      35.397  30.733  28.245  1.00  0.00     0.338 C 
ATOM     34  O   UNL A   1      34.751  29.858  27.696  1.00  0.00    -0.246 OA
BRANCH  33  35
ATOM     35  C   UNL A   1      36.664  30.516  28.964  1.00  0.00     0.060 A 
ATOM     36  C   UNL A   1      37.730  31.404  28.769  1.00  0.00     0.016 A 
ATOM     37  C   UNL A   1      36.783  29.440  29.844  1.00  0.00     0.016 A 
ATOM     38  C   UNL A   1      38.931  31.209  29.455  1.00  0.00     0.010 A 
ATOM     39  C   UNL A   1      37.991  29.236  30.512  1.00  0.00     0.010 A 
ATOM     40  C   UNL A   1      39.075  30.108  30.308  1.00  0.00    -0.014 A 
BRANCH  40  41
ATOM     41  C   UNL A   1      40.392  29.770  30.897  1.00  0.00     0.031 A 
ATOM     42  C   UNL A   1      41.161  28.616  30.316  1.00  0.00     0.074 A 
ATOM     43  C   UNL A   1      40.865  30.440  31.963  1.00  0.00     0.049 A 
ATOM     44  N   UNL A   1      42.258  28.054  30.749  1.00  0.00    -0.248 NA
ATOM     45  C   UNL A   1      40.617  28.012  29.087  1.00  0.00     0.031 C 
ATOM     46  C   UNL A   1      40.224  31.595  32.591  1.00  0.00     0.029 A 
ATOM     47  N   UNL A   1      41.986  30.222  32.726  1.00  0.00    -0.354 N 
ATOM     48  C   UNL A   1      42.522  27.014  29.866  1.00  0.00     0.074 A 
ATOM     49  C   UNL A   1      41.472  27.022  28.871  1.00  0.00     0.031 C 
ATOM     50  C   UNL A   1      40.945  31.962  33.665  1.00  0.00     0.029 A 
ATOM     51  C   UNL A   1      42.071  31.043  33.826  1.00  0.00     0.049 A 
ATOM     52  H   UNL A   1      42.664  29.542  32.506  1.00  0.00     0.167 HD
ATOM     53  C   UNL A   1      43.542  26.127  29.891  1.00  0.00     0.031 A 
ATOM     54  C   UNL A   1      42.929  31.025  34.866  1.00  0.00     0.031 A 
ATOM     55  C   UNL A   1      44.579  26.122  30.887  1.00  0.00     0.049 A 
ATOM     56  C   UNL A   1      44.017  29.978  34.905  1.00  0.00     0.074 A 
ATOM     57  C   UNL A   1      45.687  25.295  30.965  1.00  0.00     0.029 A 
ATOM     58  N   UNL A   1      44.629  26.965  31.985  1.00  0.00    -0.354 N 
ATOM     59  N   UNL A   1      44.298  29.047  34.023  1.00  0.00    -0.248 NA
ATOM     60  C   UNL A   1      44.902  29.977  36.079  1.00  0.00     0.031 C 
ATOM     61  C   UNL A   1      46.365  25.590  32.150  1.00  0.00     0.029 A 
ATOM     62  C   UNL A   1      45.720  26.646  32.774  1.00  0.00     0.049 A 
ATOM     63  H   UNL A   1      43.984  27.684  32.176  1.00  0.00     0.167 HD
ATOM     64  C   UNL A   1      45.401  28.364  34.530  1.00  0.00     0.074 A 
ATOM     65  C   UNL A   1      45.752  29.003  35.781  1.00  0.00     0.031 C 
ATOM     66  C   UNL A   1      46.061  27.298  34.012  1.00  0.00     0.031 A 
BRANCH  53  67
ATOM     67  C   UNL A   1      43.575  25.053  28.840  1.00  0.00    -0.014 A 
ATOM     68  C   UNL A   1      42.855  23.856  28.994  1.00  0.00     0.010 A 
ATOM     69  C   UNL A   1      44.266  25.290  27.637  1.00  0.00     0.010 A 
ATOM     70  C   UNL A   1      42.832  22.910  27.965  1.00  0.00     0.020 A 
ATOM     71  C   UNL A   1      44.227  24.358  26.598  1.00  0.00     0.020 A 
ATOM     72  C   UNL A   1      43.513  23.171  26.770  1.00  0.00     0.054 A 
BRANCH  72  73
ATOM     73  S   UNL A   1      43.406  21.958  25.426  1.00  0.00     0.124 S 
ATOM     74  O   UNL A   1      42.162  21.262  25.746  1.00  0.00    -0.237 OA
ATOM     75  O   UNL A   1      43.363  22.804  24.236  1.00  0.00    -0.237 OA
ATOM     76  O   UNL A   1      44.621  21.162  25.577  1.00  0.00    -0.744 OA
ENDBRANCH  72  73
ENDBRANCH  53  67
BRANCH  54  77
ATOM     77  C   UNL A   1      42.768  31.984  35.996  1.00  0.00    -0.014 A 
ATOM     78  C   UNL A   1      42.003  31.646  37.127  1.00  0.00     0.010 A 
ATOM     79  C   UNL A   1      43.349  33.265  35.928  1.00  0.00     0.010 A 
ATOM     80  C   UNL A   1      41.796  32.578  38.149  1.00  0.00     0.020 A 
ATOM     81  C   UNL A   1      43.174  34.188  36.963  1.00  0.00     0.020 A 
ATOM     82  C   UNL A   1      42.382  33.845  38.060  1.00  0.00     0.054 A 
BRANCH  82  83
ATOM     83  S   UNL A   1      42.124  35.026  39.413  1.00  0.00     0.124 S 
ATOM     84  O   UNL A   1      42.916  36.170  38.976  1.00  0.00    -0.237 OA
ATOM     85  O   UNL A   1      40.674  35.214  39.393  1.00  0.00    -0.237 OA
ATOM     86  O   UNL A   1      42.629  34.320  40.588  1.00  0.00    -0.744 OA
ENDBRANCH  82  83
ENDBRANCH  54  77
BRANCH  66  87
ATOM     87  C   UNL A   1      47.245  26.765  34.774  1.00  0.00    -0.014 A 
ATOM     88  C   UNL A   1      47.099  25.724  35.708  1.00  0.00     0.010 A 
ATOM     89  C   UNL A   1      48.534  27.250  34.486  1.00  0.00     0.010 A 
ATOM     90  C   UNL A   1      48.219  25.191  36.352  1.00  0.00     0.020 A 
ATOM     91  C   UNL A   1      49.659  26.700  35.105  1.00  0.00     0.020 A 
ATOM     92  C   UNL A   1      49.493  25.678  36.042  1.00  0.00     0.054 A 
BRANCH  92  93
ATOM     93  S   UNL A   1      50.935  24.921  36.843  1.00  0.00     0.124 S 
ATOM     94  O   UNL A   1      51.537  26.061  37.527  1.00  0.00    -0.237 OA
ATOM     95  O   UNL A   1      50.327  23.915  37.711  1.00  0.00    -0.237 OA
ATOM     96  O   UNL A   1      51.710  24.384  35.726  1.00  0.00    -0.744 OA
ENDBRANCH  92  93
ENDBRANCH  66  87
ENDBRANCH  40  41
ENDBRANCH  33  35
ENDBRANCH  32  33
ENDBRANCH  31  32
ENDBRANCH  30  31
ENDBRANCH  29  30
ENDBRANCH  28  29
ENDBRANCH  27  28
ENDBRANCH  26  27
ENDBRANCH   1  26
TORSDOF 28
ENDMDL
