MODEL 1
REMARK VINA RESULT:      -8.3      0.000      0.000
REMARK SMILES C[C@@H]1CC[C@H](C)[N@H+]1Cc1cc2c(cc1Cl)C=C(C(=O)OCCOCCOCCOCCOC(=O)c1ccc(-c3c4nc(c(-c5ccc(S(=O)(=O)[O-])cc5)c5ccc([nH]5)c(-c5ccc(S(=O)(=O)[O-])cc5)c5nc(c(-c6ccc(S(=O)(=O)[O-])cc6)c6ccc3[nH]6)C=C5)C=C4)cc1)[C@@H](C(F)(F)F)O2
REMARK SMILES IDX 27 1 26 2 25 3 24 4 23 5 22 6 21 7 20 8 18 9 19 10 17 11
REMARK SMILES IDX 9 12 10 13 14 14 11 15 13 16 15 17 12 18 100 19 16 20 95 21
REMARK SMILES IDX 8 22 7 23 6 24 5 25 4 26 3 27 2 28 1 30 96 31 97 32 98 33
REMARK SMILES IDX 99 34 28 35 29 36 30 37 31 38 32 39 33 40 34 41 35 42 36 43
REMARK SMILES IDX 94 44 37 45 93 46 38 47 39 48 40 49 87 50 41 51 92 52 86 53
REMARK SMILES IDX 88 54 42 55 91 56 85 57 84 58 43 60 73 61 54 62 72 63 55 64
REMARK SMILES IDX 58 65 71 66 89 67 56 68 57 69 70 71 90 72 59 73 44 74 45 75
REMARK SMILES IDX 53 76 46 77 52 78 47 79 48 80 49 81 50 82 51 83 74 84 75 85
REMARK SMILES IDX 83 86 76 87 82 88 77 89 78 90 79 91 80 92 81 93 60 94 61 95
REMARK SMILES IDX 69 96 62 97 68 98 63 99 64 100 65 101 66 102 67 103
REMARK H PARENT 7 29 88 59 58 70
REMARK Flexibility Score: inf
ROOT
ATOM      1  C   UNL A   1      35.824  22.328  26.006  1.00  0.00     0.188 C 
ENDROOT
BRANCH   1   2
ATOM      2  O   UNL A   1      34.554  22.564  25.399  1.00  0.00    -0.377 OA
BRANCH   2   3
ATOM      3  C   UNL A   1      33.935  21.519  24.674  1.00  0.00     0.188 C 
BRANCH   3   4
ATOM      4  C   UNL A   1      32.440  21.711  24.361  1.00  0.00     0.188 C 
BRANCH   4   5
ATOM      5  O   UNL A   1      31.585  21.484  25.476  1.00  0.00    -0.376 OA
BRANCH   5   6
ATOM      6  C   UNL A   1      30.638  22.499  25.784  1.00  0.00     0.202 C 
BRANCH   6   7
ATOM      7  C   UNL A   1      31.176  23.736  26.521  1.00  0.00     0.261 C 
BRANCH   7   8
ATOM      8  O   UNL A   1      30.270  24.849  26.565  1.00  0.00    -0.460 OA
BRANCH   8   9
ATOM      9  C   UNL A   1      30.476  25.816  25.652  1.00  0.00     0.338 C 
ATOM     10  O   UNL A   1      29.745  26.097  24.715  1.00  0.00    -0.246 OA
BRANCH   9  11
ATOM     11  C   UNL A   1      31.627  26.638  26.076  1.00  0.00     0.087 C 
ATOM     12  C   UNL A   1      34.497  30.549  27.406  1.00  0.00     0.029 A 
ATOM     13  C   UNL A   1      34.768  29.192  27.100  1.00  0.00     0.058 A 
ATOM     14  C   UNL A   1      33.148  30.940  27.467  1.00  0.00     0.050 A 
ATOM     15  C   UNL A   1      33.732  28.281  26.845  1.00  0.00     0.128 A 
ATOM     16  C   UNL A   1      32.122  30.002  27.344  1.00  0.00     0.033 A 
ATOM     17  Cl  UNL A   1      32.621  32.589  27.495  1.00  0.00    -0.084 Cl
ATOM     18  C   UNL A   1      32.410  28.687  26.994  1.00  0.00     0.019 A 
ATOM     19  O   UNL A   1      34.077  27.021  26.435  1.00  0.00    -0.475 OA
ATOM     20  C   UNL A   1      31.319  27.792  26.674  1.00  0.00     0.027 C 
ATOM     21  C   UNL A   1      33.040  26.173  25.838  1.00  0.00     0.316 C 
BRANCH  12  22
ATOM     22  C   UNL A   1      35.659  31.525  27.546  1.00  0.00     0.301 C 
BRANCH  22  23
ATOM     23  N   UNL A   1      36.232  31.756  28.879  1.00  0.00    -0.327 N 
ATOM     24  C   UNL A   1      34.648  32.808  30.452  1.00  0.00     0.075 C 
ATOM     25  C   UNL A   1      35.863  33.006  29.553  1.00  0.00     0.181 C 
ATOM     26  C   UNL A   1      37.095  33.392  30.373  1.00  0.00     0.071 C 
ATOM     27  C   UNL A   1      38.237  32.823  29.561  1.00  0.00     0.071 C 
ATOM     28  C   UNL A   1      37.668  31.515  29.035  1.00  0.00     0.181 C 
ATOM     29  H   UNL A   1      35.750  31.001  29.366  1.00  0.00     0.348 HD
ATOM     30  C   UNL A   1      37.890  30.348  29.999  1.00  0.00     0.075 C 
ENDBRANCH  22  23
ENDBRANCH  12  22
BRANCH  21  31
ATOM     31  C   UNL A   1      33.311  25.988  24.337  1.00  0.00     0.430 C 
ATOM     32  F   UNL A   1      34.634  26.054  24.061  1.00  0.00    -0.167 F 
ATOM     33  F   UNL A   1      32.870  24.787  23.899  1.00  0.00    -0.167 F 
ATOM     34  F   UNL A   1      32.693  26.940  23.599  1.00  0.00    -0.167 F 
ENDBRANCH  21  31
ENDBRANCH   9  11
ENDBRANCH   8   9
ENDBRANCH   7   8
ENDBRANCH   6   7
ENDBRANCH   5   6
ENDBRANCH   4   5
ENDBRANCH   3   4
ENDBRANCH   2   3
ENDBRANCH   1   2
BRANCH   1  35
ATOM     35  C   UNL A   1      37.124  23.018  25.528  1.00  0.00     0.188 C 
BRANCH  35  36
ATOM     36  O   UNL A   1      38.001  23.430  26.569  1.00  0.00    -0.376 OA
BRANCH  36  37
ATOM     37  C   UNL A   1      39.297  23.857  26.176  1.00  0.00     0.202 C 
BRANCH  37  38
ATOM     38  C   UNL A   1      39.856  25.020  27.003  1.00  0.00     0.261 C 
BRANCH  38  39
ATOM     39  O   UNL A   1      40.409  26.104  26.244  1.00  0.00    -0.460 OA
BRANCH  39  40
ATOM     40  C   UNL A   1      41.738  26.090  25.993  1.00  0.00     0.338 C 
ATOM     41  O   UNL A   1      42.344  25.313  25.275  1.00  0.00    -0.246 OA
BRANCH  40  42
ATOM     42  C   UNL A   1      42.297  27.325  26.581  1.00  0.00     0.060 A 
ATOM     43  C   UNL A   1      42.037  28.562  25.986  1.00  0.00     0.016 A 
ATOM     44  C   UNL A   1      43.148  27.234  27.690  1.00  0.00     0.016 A 
ATOM     45  C   UNL A   1      42.616  29.716  26.516  1.00  0.00     0.010 A 
ATOM     46  C   UNL A   1      43.738  28.389  28.209  1.00  0.00     0.010 A 
ATOM     47  C   UNL A   1      43.458  29.640  27.637  1.00  0.00    -0.014 A 
BRANCH  47  48
ATOM     48  C   UNL A   1      43.880  30.882  28.329  1.00  0.00     0.031 A 
ATOM     49  C   UNL A   1      45.101  31.649  27.924  1.00  0.00     0.074 A 
ATOM     50  C   UNL A   1      43.120  31.303  29.357  1.00  0.00     0.049 A 
ATOM     51  N   UNL A   1      45.548  32.777  28.411  1.00  0.00    -0.248 NA
ATOM     52  C   UNL A   1      45.925  31.088  26.844  1.00  0.00     0.031 C 
ATOM     53  C   UNL A   1      41.909  30.627  29.828  1.00  0.00     0.029 A 
ATOM     54  N   UNL A   1      43.240  32.390  30.185  1.00  0.00    -0.354 N 
ATOM     55  C   UNL A   1      46.693  33.081  27.686  1.00  0.00     0.074 A 
ATOM     56  C   UNL A   1      46.896  31.993  26.751  1.00  0.00     0.031 C 
ATOM     57  C   UNL A   1      41.387  31.324  30.847  1.00  0.00     0.029 A 
ATOM     58  C   UNL A   1      42.241  32.476  31.126  1.00  0.00     0.049 A 
ATOM     59  H   UNL A   1      43.970  33.046  30.112  1.00  0.00     0.167 HD
ATOM     60  C   UNL A   1      47.484  34.176  27.787  1.00  0.00     0.031 A 
ATOM     61  C   UNL A   1      42.028  33.376  32.105  1.00  0.00     0.031 A 
ATOM     62  C   UNL A   1      47.275  35.239  28.742  1.00  0.00     0.049 A 
ATOM     63  C   UNL A   1      42.959  34.546  32.239  1.00  0.00     0.074 A 
ATOM     64  C   UNL A   1      48.006  36.406  28.890  1.00  0.00     0.029 A 
ATOM     65  N   UNL A   1      46.283  35.265  29.711  1.00  0.00    -0.354 N 
ATOM     66  N   UNL A   1      43.995  34.854  31.497  1.00  0.00    -0.248 NA
ATOM     67  C   UNL A   1      42.690  35.498  33.326  1.00  0.00     0.031 C 
ATOM     68  C   UNL A   1      47.508  37.096  29.996  1.00  0.00     0.029 A 
ATOM     69  C   UNL A   1      46.410  36.408  30.486  1.00  0.00     0.049 A 
ATOM     70  H   UNL A   1      45.591  34.575  29.829  1.00  0.00     0.167 HD
ATOM     71  C   UNL A   1      44.489  36.047  32.011  1.00  0.00     0.074 A 
ATOM     72  C   UNL A   1      43.633  36.411  33.121  1.00  0.00     0.031 C 
ATOM     73  C   UNL A   1      45.555  36.770  31.592  1.00  0.00     0.031 A 
BRANCH  60  74
ATOM     74  C   UNL A   1      48.651  34.320  26.841  1.00  0.00    -0.014 A 
ATOM     75  C   UNL A   1      49.932  33.888  27.235  1.00  0.00     0.010 A 
ATOM     76  C   UNL A   1      48.514  35.031  25.636  1.00  0.00     0.010 A 
ATOM     77  C   UNL A   1      51.058  34.199  26.466  1.00  0.00     0.020 A 
ATOM     78  C   UNL A   1      49.635  35.320  24.849  1.00  0.00     0.020 A 
ATOM     79  C   UNL A   1      50.902  34.924  25.283  1.00  0.00     0.054 A 
BRANCH  79  80
ATOM     80  S   UNL A   1      52.380  35.358  24.321  1.00  0.00     0.124 S 
ATOM     81  O   UNL A   1      52.242  34.508  23.144  1.00  0.00    -0.237 OA
ATOM     82  O   UNL A   1      52.200  36.789  24.092  1.00  0.00    -0.237 OA
ATOM     83  O   UNL A   1      53.482  35.013  25.216  1.00  0.00    -0.744 OA
ENDBRANCH  79  80
ENDBRANCH  60  74
BRANCH  61  84
ATOM     84  C   UNL A   1      40.843  33.203  32.988  1.00  0.00    -0.014 A 
ATOM     85  C   UNL A   1      39.715  34.034  32.837  1.00  0.00     0.010 A 
ATOM     86  C   UNL A   1      40.882  32.292  34.058  1.00  0.00     0.010 A 
ATOM     87  C   UNL A   1      38.682  34.005  33.776  1.00  0.00     0.020 A 
ATOM     88  C   UNL A   1      39.835  32.238  34.982  1.00  0.00     0.020 A 
ATOM     89  C   UNL A   1      38.757  33.119  34.853  1.00  0.00     0.054 A 
BRANCH  89  90
ATOM     90  S   UNL A   1      37.442  33.154  36.101  1.00  0.00     0.124 S 
ATOM     91  O   UNL A   1      37.949  34.148  37.042  1.00  0.00    -0.237 OA
ATOM     92  O   UNL A   1      36.276  33.563  35.322  1.00  0.00    -0.237 OA
ATOM     93  O   UNL A   1      37.406  31.782  36.599  1.00  0.00    -0.744 OA
ENDBRANCH  89  90
ENDBRANCH  61  84
BRANCH  73  94
ATOM     94  C   UNL A   1      45.892  38.047  32.319  1.00  0.00    -0.014 A 
ATOM     95  C   UNL A   1      46.692  37.997  33.477  1.00  0.00     0.010 A 
ATOM     96  C   UNL A   1      45.277  39.261  31.965  1.00  0.00     0.010 A 
ATOM     97  C   UNL A   1      46.818  39.117  34.303  1.00  0.00     0.020 A 
ATOM     98  C   UNL A   1      45.425  40.392  32.772  1.00  0.00     0.020 A 
ATOM     99  C   UNL A   1      46.165  40.303  33.955  1.00  0.00     0.054 A 
BRANCH  99 100
ATOM    100  S   UNL A   1      46.263  41.717  35.087  1.00  0.00     0.124 S 
ATOM    101  O   UNL A   1      47.395  41.354  35.935  1.00  0.00    -0.237 OA
ATOM    102  O   UNL A   1      46.490  42.838  34.179  1.00  0.00    -0.237 OA
ATOM    103  O   UNL A   1      44.961  41.717  35.751  1.00  0.00    -0.744 OA
ENDBRANCH  99 100
ENDBRANCH  73  94
ENDBRANCH  47  48
ENDBRANCH  40  42
ENDBRANCH  39  40
ENDBRANCH  38  39
ENDBRANCH  37  38
ENDBRANCH  36  37
ENDBRANCH  35  36
ENDBRANCH   1  35
TORSDOF 26
ENDMDL
MODEL 2
REMARK VINA RESULT:      -7.8      7.358     13.694
REMARK SMILES C[C@@H]1CC[C@H](C)[N@H+]1Cc1cc2c(cc1Cl)C=C(C(=O)OCCOCCOCCOCCOC(=O)c1ccc(-c3c4nc(c(-c5ccc(S(=O)(=O)[O-])cc5)c5ccc([nH]5)c(-c5ccc(S(=O)(=O)[O-])cc5)c5nc(c(-c6ccc(S(=O)(=O)[O-])cc6)c6ccc3[nH]6)C=C5)C=C4)cc1)[C@@H](C(F)(F)F)O2
REMARK SMILES IDX 27 1 26 2 25 3 24 4 23 5 22 6 21 7 20 8 18 9 19 10 17 11
REMARK SMILES IDX 9 12 10 13 14 14 11 15 13 16 15 17 12 18 100 19 16 20 95 21
REMARK SMILES IDX 8 22 7 23 6 24 5 25 4 26 3 27 2 28 1 30 96 31 97 32 98 33
REMARK SMILES IDX 99 34 28 35 29 36 30 37 31 38 32 39 33 40 34 41 35 42 36 43
REMARK SMILES IDX 94 44 37 45 93 46 38 47 39 48 40 49 87 50 41 51 92 52 86 53
REMARK SMILES IDX 88 54 42 55 91 56 85 57 84 58 43 60 73 61 54 62 72 63 55 64
REMARK SMILES IDX 58 65 71 66 89 67 56 68 57 69 70 71 90 72 59 73 44 74 45 75
REMARK SMILES IDX 53 76 46 77 52 78 47 79 48 80 49 81 50 82 51 83 74 84 75 85
REMARK SMILES IDX 83 86 76 87 82 88 77 89 78 90 79 91 80 92 81 93 60 94 61 95
REMARK SMILES IDX 69 96 62 97 68 98 63 99 64 100 65 101 66 102 67 103
REMARK H PARENT 7 29 88 59 58 70
REMARK Flexibility Score: inf
ROOT
ATOM      1  C   UNL A   1      35.246  34.783  29.109  1.00  0.00     0.188 C 
ENDROOT
BRANCH   1   2
ATOM      2  O   UNL A   1      36.314  33.837  29.057  1.00  0.00    -0.377 OA
BRANCH   2   3
ATOM      3  C   UNL A   1      36.023  32.463  29.228  1.00  0.00     0.188 C 
BRANCH   3   4
ATOM      4  C   UNL A   1      35.705  31.678  27.942  1.00  0.00     0.188 C 
BRANCH   4   5
ATOM      5  O   UNL A   1      34.759  30.630  28.128  1.00  0.00    -0.376 OA
BRANCH   5   6
ATOM      6  C   UNL A   1      33.711  30.527  27.173  1.00  0.00     0.202 C 
BRANCH   6   7
ATOM      7  C   UNL A   1      33.924  29.522  26.029  1.00  0.00     0.261 C 
BRANCH   7   8
ATOM      8  O   UNL A   1      33.047  29.698  24.905  1.00  0.00    -0.460 OA
BRANCH   8   9
ATOM      9  C   UNL A   1      31.730  29.604  25.163  1.00  0.00     0.338 C 
ATOM     10  O   UNL A   1      30.939  30.529  25.250  1.00  0.00    -0.246 OA
BRANCH   9  11
ATOM     11  C   UNL A   1      31.334  28.182  25.115  1.00  0.00     0.087 C 
ATOM     12  C   UNL A   1      31.258  23.198  25.793  1.00  0.00     0.029 A 
ATOM     13  C   UNL A   1      30.516  24.090  24.978  1.00  0.00     0.058 A 
ATOM     14  C   UNL A   1      32.165  23.763  26.707  1.00  0.00     0.050 A 
ATOM     15  C   UNL A   1      30.695  25.478  25.066  1.00  0.00     0.128 A 
ATOM     16  C   UNL A   1      32.242  25.145  26.882  1.00  0.00     0.033 A 
ATOM     17  Cl  UNL A   1      33.384  22.860  27.540  1.00  0.00    -0.084 Cl
ATOM     18  C   UNL A   1      31.540  26.000  26.038  1.00  0.00     0.019 A 
ATOM     19  O   UNL A   1      30.033  26.265  24.161  1.00  0.00    -0.475 OA
ATOM     20  C   UNL A   1      31.799  27.422  26.110  1.00  0.00     0.027 C 
ATOM     21  C   UNL A   1      30.460  27.659  24.004  1.00  0.00     0.316 C 
BRANCH  12  22
ATOM     22  C   UNL A   1      31.120  21.697  25.567  1.00  0.00     0.301 C 
BRANCH  22  23
ATOM     23  N   UNL A   1      32.138  21.007  24.762  1.00  0.00    -0.327 N 
ATOM     24  C   UNL A   1      32.546  18.685  25.491  1.00  0.00     0.075 C 
ATOM     25  C   UNL A   1      33.061  20.119  25.478  1.00  0.00     0.181 C 
ATOM     26  C   UNL A   1      34.381  20.222  24.713  1.00  0.00     0.071 C 
ATOM     27  C   UNL A   1      34.344  21.628  24.157  1.00  0.00     0.071 C 
ATOM     28  C   UNL A   1      32.880  21.817  23.795  1.00  0.00     0.181 C 
ATOM     29  H   UNL A   1      31.505  20.412  24.228  1.00  0.00     0.348 HD
ATOM     30  C   UNL A   1      32.559  21.343  22.377  1.00  0.00     0.075 C 
ENDBRANCH  22  23
ENDBRANCH  12  22
BRANCH  21  31
ATOM     31  C   UNL A   1      31.135  27.852  22.637  1.00  0.00     0.430 C 
ATOM     32  F   UNL A   1      32.475  27.689  22.720  1.00  0.00    -0.167 F 
ATOM     33  F   UNL A   1      30.677  26.960  21.730  1.00  0.00    -0.167 F 
ATOM     34  F   UNL A   1      30.905  29.090  22.141  1.00  0.00    -0.167 F 
ENDBRANCH  21  31
ENDBRANCH   9  11
ENDBRANCH   8   9
ENDBRANCH   7   8
ENDBRANCH   6   7
ENDBRANCH   5   6
ENDBRANCH   4   5
ENDBRANCH   3   4
ENDBRANCH   2   3
ENDBRANCH   1   2
BRANCH   1  35
ATOM     35  C   UNL A   1      33.953  34.545  29.924  1.00  0.00     0.188 C 
BRANCH  35  36
ATOM     36  O   UNL A   1      33.955  35.109  31.230  1.00  0.00    -0.376 OA
BRANCH  36  37
ATOM     37  C   UNL A   1      34.368  34.258  32.288  1.00  0.00     0.202 C 
BRANCH  37  38
ATOM     38  C   UNL A   1      34.918  34.996  33.513  1.00  0.00     0.261 C 
BRANCH  38  39
ATOM     39  O   UNL A   1      36.277  35.441  33.403  1.00  0.00    -0.460 OA
BRANCH  39  40
ATOM     40  C   UNL A   1      37.214  34.536  33.034  1.00  0.00     0.338 C 
ATOM     41  O   UNL A   1      37.569  34.266  31.900  1.00  0.00    -0.246 OA
BRANCH  40  42
ATOM     42  C   UNL A   1      37.883  34.084  34.271  1.00  0.00     0.060 A 
ATOM     43  C   UNL A   1      37.709  32.773  34.721  1.00  0.00     0.016 A 
ATOM     44  C   UNL A   1      38.626  35.002  35.025  1.00  0.00     0.016 A 
ATOM     45  C   UNL A   1      38.299  32.373  35.921  1.00  0.00     0.010 A 
ATOM     46  C   UNL A   1      39.202  34.602  36.233  1.00  0.00     0.010 A 
ATOM     47  C   UNL A   1      39.059  33.279  36.678  1.00  0.00    -0.014 A 
BRANCH  47  48
ATOM     48  C   UNL A   1      39.866  32.790  37.821  1.00  0.00     0.031 A 
ATOM     49  C   UNL A   1      39.303  32.659  39.202  1.00  0.00     0.074 A 
ATOM     50  C   UNL A   1      41.151  32.469  37.576  1.00  0.00     0.049 A 
ATOM     51  N   UNL A   1      39.886  32.193  40.276  1.00  0.00    -0.248 NA
ATOM     52  C   UNL A   1      37.916  33.101  39.412  1.00  0.00     0.031 C 
ATOM     53  C   UNL A   1      41.795  32.560  36.264  1.00  0.00     0.029 A 
ATOM     54  N   UNL A   1      42.139  31.999  38.403  1.00  0.00    -0.354 N 
ATOM     55  C   UNL A   1      38.938  32.261  41.288  1.00  0.00     0.074 A 
ATOM     56  C   UNL A   1      37.750  32.854  40.708  1.00  0.00     0.031 C 
ATOM     57  C   UNL A   1      43.064  32.141  36.370  1.00  0.00     0.029 A 
ATOM     58  C   UNL A   1      43.335  31.784  37.760  1.00  0.00     0.049 A 
ATOM     59  H   UNL A   1      42.005  31.831  39.363  1.00  0.00     0.167 HD
ATOM     60  C   UNL A   1      39.052  31.849  42.574  1.00  0.00     0.031 A 
ATOM     61  C   UNL A   1      44.521  31.348  38.228  1.00  0.00     0.031 A 
ATOM     62  C   UNL A   1      40.254  31.281  43.136  1.00  0.00     0.049 A 
ATOM     63  C   UNL A   1      44.641  30.961  39.673  1.00  0.00     0.074 A 
ATOM     64  C   UNL A   1      40.448  30.800  44.421  1.00  0.00     0.029 A 
ATOM     65  N   UNL A   1      41.459  31.126  42.468  1.00  0.00    -0.354 N 
ATOM     66  N   UNL A   1      43.712  30.965  40.598  1.00  0.00    -0.248 NA
ATOM     67  C   UNL A   1      45.955  30.498  40.138  1.00  0.00     0.031 C 
ATOM     68  C   UNL A   1      41.788  30.432  44.553  1.00  0.00     0.029 A 
ATOM     69  C   UNL A   1      42.411  30.597  43.326  1.00  0.00     0.049 A 
ATOM     70  H   UNL A   1      41.615  31.356  41.524  1.00  0.00     0.167 HD
ATOM     71  C   UNL A   1      44.322  30.483  41.750  1.00  0.00     0.074 A 
ATOM     72  C   UNL A   1      45.697  30.189  41.404  1.00  0.00     0.031 C 
ATOM     73  C   UNL A   1      43.782  30.302  42.979  1.00  0.00     0.031 A 
BRANCH  60  74
ATOM     74  C   UNL A   1      37.855  31.969  43.485  1.00  0.00    -0.014 A 
ATOM     75  C   UNL A   1      37.817  32.980  44.465  1.00  0.00     0.010 A 
ATOM     76  C   UNL A   1      36.851  30.985  43.483  1.00  0.00     0.010 A 
ATOM     77  C   UNL A   1      36.823  32.982  45.449  1.00  0.00     0.020 A 
ATOM     78  C   UNL A   1      35.839  30.999  44.450  1.00  0.00     0.020 A 
ATOM     79  C   UNL A   1      35.847  31.983  45.442  1.00  0.00     0.054 A 
BRANCH  79  80
ATOM     80  S   UNL A   1      34.593  31.975  46.754  1.00  0.00     0.124 S 
ATOM     81  O   UNL A   1      34.232  33.386  46.844  1.00  0.00    -0.237 OA
ATOM     82  O   UNL A   1      33.566  31.092  46.206  1.00  0.00    -0.237 OA
ATOM     83  O   UNL A   1      35.311  31.439  47.909  1.00  0.00    -0.744 OA
ENDBRANCH  79  80
ENDBRANCH  60  74
BRANCH  61  84
ATOM     84  C   UNL A   1      45.659  31.218  37.277  1.00  0.00    -0.014 A 
ATOM     85  C   UNL A   1      46.473  32.330  36.983  1.00  0.00     0.010 A 
ATOM     86  C   UNL A   1      45.860  30.019  36.572  1.00  0.00     0.010 A 
ATOM     87  C   UNL A   1      47.417  32.266  35.957  1.00  0.00     0.020 A 
ATOM     88  C   UNL A   1      46.827  29.942  35.565  1.00  0.00     0.020 A 
ATOM     89  C   UNL A   1      47.576  31.077  35.243  1.00  0.00     0.054 A 
BRANCH  89  90
ATOM     90  S   UNL A   1      48.755  31.042  33.865  1.00  0.00     0.124 S 
ATOM     91  O   UNL A   1      49.947  30.495  34.505  1.00  0.00    -0.237 OA
ATOM     92  O   UNL A   1      48.095  30.159  32.906  1.00  0.00    -0.237 OA
ATOM     93  O   UNL A   1      48.849  32.441  33.459  1.00  0.00    -0.744 OA
ENDBRANCH  89  90
ENDBRANCH  61  84
BRANCH  73  94
ATOM     94  C   UNL A   1      44.657  29.757  44.079  1.00  0.00    -0.014 A 
ATOM     95  C   UNL A   1      44.771  28.363  44.251  1.00  0.00     0.010 A 
ATOM     96  C   UNL A   1      45.216  30.613  45.044  1.00  0.00     0.010 A 
ATOM     97  C   UNL A   1      45.369  27.836  45.399  1.00  0.00     0.020 A 
ATOM     98  C   UNL A   1      45.842  30.089  46.179  1.00  0.00     0.020 A 
ATOM     99  C   UNL A   1      45.882  28.704  46.366  1.00  0.00     0.054 A 
BRANCH  99 100
ATOM    100  S   UNL A   1      46.570  28.002  47.891  1.00  0.00     0.124 S 
ATOM    101  O   UNL A   1      45.669  28.537  48.908  1.00  0.00    -0.237 OA
ATOM    102  O   UNL A   1      46.469  26.564  47.655  1.00  0.00    -0.237 OA
ATOM    103  O   UNL A   1      47.934  28.526  47.927  1.00  0.00    -0.744 OA
ENDBRANCH  99 100
ENDBRANCH  73  94
ENDBRANCH  47  48
ENDBRANCH  40  42
ENDBRANCH  39  40
ENDBRANCH  38  39
ENDBRANCH  37  38
ENDBRANCH  36  37
ENDBRANCH  35  36
ENDBRANCH   1  35
TORSDOF 26
ENDMDL
MODEL 3
REMARK VINA RESULT:      -7.7      7.365     12.524
REMARK SMILES C[C@@H]1CC[C@H](C)[N@H+]1Cc1cc2c(cc1Cl)C=C(C(=O)OCCOCCOCCOCCOC(=O)c1ccc(-c3c4nc(c(-c5ccc(S(=O)(=O)[O-])cc5)c5ccc([nH]5)c(-c5ccc(S(=O)(=O)[O-])cc5)c5nc(c(-c6ccc(S(=O)(=O)[O-])cc6)c6ccc3[nH]6)C=C5)C=C4)cc1)[C@@H](C(F)(F)F)O2
REMARK SMILES IDX 27 1 26 2 25 3 24 4 23 5 22 6 21 7 20 8 18 9 19 10 17 11
REMARK SMILES IDX 9 12 10 13 14 14 11 15 13 16 15 17 12 18 100 19 16 20 95 21
REMARK SMILES IDX 8 22 7 23 6 24 5 25 4 26 3 27 2 28 1 30 96 31 97 32 98 33
REMARK SMILES IDX 99 34 28 35 29 36 30 37 31 38 32 39 33 40 34 41 35 42 36 43
REMARK SMILES IDX 94 44 37 45 93 46 38 47 39 48 40 49 87 50 41 51 92 52 86 53
REMARK SMILES IDX 88 54 42 55 91 56 85 57 84 58 43 60 73 61 54 62 72 63 55 64
REMARK SMILES IDX 58 65 71 66 89 67 56 68 57 69 70 71 90 72 59 73 44 74 45 75
REMARK SMILES IDX 53 76 46 77 52 78 47 79 48 80 49 81 50 82 51 83 74 84 75 85
REMARK SMILES IDX 83 86 76 87 82 88 77 89 78 90 79 91 80 92 81 93 60 94 61 95
REMARK SMILES IDX 69 96 62 97 68 98 63 99 64 100 65 101 66 102 67 103
REMARK H PARENT 7 29 88 59 58 70
REMARK Flexibility Score: inf
ROOT
ATOM      1  C   UNL A   1      46.554  23.906  25.477  1.00  0.00     0.188 C 
ENDROOT
BRANCH   1   2
ATOM      2  O   UNL A   1      46.741  23.942  26.892  1.00  0.00    -0.377 OA
BRANCH   2   3
ATOM      3  C   UNL A   1      46.176  25.006  27.633  1.00  0.00     0.188 C 
BRANCH   3   4
ATOM      4  C   UNL A   1      46.307  24.904  29.163  1.00  0.00     0.188 C 
BRANCH   4   5
ATOM      5  O   UNL A   1      46.566  26.149  29.802  1.00  0.00    -0.376 OA
BRANCH   5   6
ATOM      6  C   UNL A   1      47.858  26.330  30.368  1.00  0.00     0.202 C 
BRANCH   6   7
ATOM      7  C   UNL A   1      49.013  25.572  29.693  1.00  0.00     0.261 C 
BRANCH   7   8
ATOM      8  O   UNL A   1      49.605  26.253  28.576  1.00  0.00    -0.460 OA
BRANCH   8   9
ATOM      9  C   UNL A   1      50.018  25.474  27.560  1.00  0.00     0.338 C 
ATOM     10  O   UNL A   1      49.980  24.255  27.517  1.00  0.00    -0.246 OA
BRANCH   9  11
ATOM     11  C   UNL A   1      50.337  26.331  26.399  1.00  0.00     0.087 C 
ATOM     12  C   UNL A   1      50.455  28.274  21.761  1.00  0.00     0.029 A 
ATOM     13  C   UNL A   1      51.209  28.500  22.940  1.00  0.00     0.058 A 
ATOM     14  C   UNL A   1      49.355  27.402  21.855  1.00  0.00     0.050 A 
ATOM     15  C   UNL A   1      50.885  27.862  24.146  1.00  0.00     0.128 A 
ATOM     16  C   UNL A   1      48.960  26.876  23.086  1.00  0.00     0.033 A 
ATOM     17  Cl  UNL A   1      48.524  26.745  20.487  1.00  0.00    -0.084 Cl
ATOM     18  C   UNL A   1      49.744  27.071  24.219  1.00  0.00     0.019 A 
ATOM     19  O   UNL A   1      51.734  28.034  25.207  1.00  0.00    -0.475 OA
ATOM     20  C   UNL A   1      49.420  26.346  25.428  1.00  0.00     0.027 C 
ATOM     21  C   UNL A   1      51.617  27.123  26.350  1.00  0.00     0.316 C 
BRANCH  12  22
ATOM     22  C   UNL A   1      50.926  28.890  20.449  1.00  0.00     0.301 C 
BRANCH  22  23
ATOM     23  N   UNL A   1      51.927  28.170  19.650  1.00  0.00    -0.327 N 
ATOM     24  C   UNL A   1      52.540  29.344  17.568  1.00  0.00     0.075 C 
ATOM     25  C   UNL A   1      51.757  28.196  18.193  1.00  0.00     0.181 C 
ATOM     26  C   UNL A   1      52.286  26.844  17.709  1.00  0.00     0.071 C 
ATOM     27  C   UNL A   1      52.003  25.929  18.879  1.00  0.00     0.071 C 
ATOM     28  C   UNL A   1      52.274  26.816  20.085  1.00  0.00     0.181 C 
ATOM     29  H   UNL A   1      52.726  28.765  19.868  1.00  0.00     0.348 HD
ATOM     30  C   UNL A   1      53.738  26.778  20.525  1.00  0.00     0.075 C 
ENDBRANCH  22  23
ENDBRANCH  12  22
BRANCH  21  31
ATOM     31  C   UNL A   1      52.840  26.195  26.411  1.00  0.00     0.430 C 
ATOM     32  F   UNL A   1      53.137  25.851  27.685  1.00  0.00    -0.167 F 
ATOM     33  F   UNL A   1      52.624  25.048  25.726  1.00  0.00    -0.167 F 
ATOM     34  F   UNL A   1      53.937  26.783  25.880  1.00  0.00    -0.167 F 
ENDBRANCH  21  31
ENDBRANCH   9  11
ENDBRANCH   8   9
ENDBRANCH   7   8
ENDBRANCH   6   7
ENDBRANCH   5   6
ENDBRANCH   4   5
ENDBRANCH   3   4
ENDBRANCH   2   3
ENDBRANCH   1   2
BRANCH   1  35
ATOM     35  C   UNL A   1      45.457  23.054  24.796  1.00  0.00     0.188 C 
BRANCH  35  36
ATOM     36  O   UNL A   1      44.853  22.075  25.633  1.00  0.00    -0.376 OA
BRANCH  36  37
ATOM     37  C   UNL A   1      43.655  22.457  26.293  1.00  0.00     0.202 C 
BRANCH  37  38
ATOM     38  C   UNL A   1      42.833  23.512  25.546  1.00  0.00     0.261 C 
BRANCH  38  39
ATOM     39  O   UNL A   1      42.533  24.700  26.292  1.00  0.00    -0.460 OA
BRANCH  39  40
ATOM     40  C   UNL A   1      41.330  25.288  26.095  1.00  0.00     0.338 C 
ATOM     41  O   UNL A   1      40.489  24.983  25.267  1.00  0.00    -0.246 OA
BRANCH  40  42
ATOM     42  C   UNL A   1      41.129  26.233  27.212  1.00  0.00     0.060 A 
ATOM     43  C   UNL A   1      40.239  25.918  28.243  1.00  0.00     0.016 A 
ATOM     44  C   UNL A   1      41.777  27.475  27.187  1.00  0.00     0.016 A 
ATOM     45  C   UNL A   1      40.013  26.843  29.264  1.00  0.00     0.010 A 
ATOM     46  C   UNL A   1      41.537  28.404  28.202  1.00  0.00     0.010 A 
ATOM     47  C   UNL A   1      40.669  28.084  29.258  1.00  0.00    -0.014 A 
BRANCH  47  48
ATOM     48  C   UNL A   1      40.603  28.959  30.453  1.00  0.00     0.031 A 
ATOM     49  C   UNL A   1      41.550  28.816  31.605  1.00  0.00     0.074 A 
ATOM     50  C   UNL A   1      39.640  29.900  30.476  1.00  0.00     0.049 A 
ATOM     51  N   UNL A   1      41.632  29.551  32.683  1.00  0.00    -0.248 NA
ATOM     52  C   UNL A   1      42.525  27.717  31.546  1.00  0.00     0.031 C 
ATOM     53  C   UNL A   1      38.669  30.122  29.402  1.00  0.00     0.029 A 
ATOM     54  N   UNL A   1      39.320  30.844  31.418  1.00  0.00    -0.354 N 
ATOM     55  C   UNL A   1      42.681  29.025  33.426  1.00  0.00     0.074 A 
ATOM     56  C   UNL A   1      43.178  27.878  32.693  1.00  0.00     0.031 C 
ATOM     57  C   UNL A   1      37.874  31.149  29.737  1.00  0.00     0.029 A 
ATOM     58  C   UNL A   1      38.255  31.637  31.060  1.00  0.00     0.049 A 
ATOM     59  H   UNL A   1      39.806  30.945  32.268  1.00  0.00     0.167 HD
ATOM     60  C   UNL A   1      43.184  29.474  34.601  1.00  0.00     0.031 A 
ATOM     61  C   UNL A   1      37.647  32.645  31.715  1.00  0.00     0.031 A 
ATOM     62  C   UNL A   1      42.658  30.606  35.326  1.00  0.00     0.049 A 
ATOM     63  C   UNL A   1      38.183  33.080  33.048  1.00  0.00     0.074 A 
ATOM     64  C   UNL A   1      43.130  31.155  36.507  1.00  0.00     0.029 A 
ATOM     65  N   UNL A   1      41.549  31.351  34.957  1.00  0.00    -0.354 N 
ATOM     66  N   UNL A   1      39.221  32.616  33.701  1.00  0.00    -0.248 NA
ATOM     67  C   UNL A   1      37.483  34.179  33.727  1.00  0.00     0.031 C 
ATOM     68  C   UNL A   1      42.261  32.177  36.893  1.00  0.00     0.029 A 
ATOM     69  C   UNL A   1      41.296  32.327  35.909  1.00  0.00     0.049 A 
ATOM     70  H   UNL A   1      41.019  31.209  34.139  1.00  0.00     0.167 HD
ATOM     71  C   UNL A   1      39.314  33.381  34.857  1.00  0.00     0.074 A 
ATOM     72  C   UNL A   1      38.233  34.344  34.811  1.00  0.00     0.031 C 
ATOM     73  C   UNL A   1      40.219  33.289  35.861  1.00  0.00     0.031 A 
BRANCH  60  74
ATOM     74  C   UNL A   1      44.379  28.770  35.197  1.00  0.00    -0.014 A 
ATOM     75  C   UNL A   1      44.193  27.792  36.193  1.00  0.00     0.010 A 
ATOM     76  C   UNL A   1      45.685  29.192  34.894  1.00  0.00     0.010 A 
ATOM     77  C   UNL A   1      45.285  27.280  36.902  1.00  0.00     0.020 A 
ATOM     78  C   UNL A   1      46.782  28.663  35.583  1.00  0.00     0.020 A 
ATOM     79  C   UNL A   1      46.572  27.729  36.600  1.00  0.00     0.054 A 
BRANCH  79  80
ATOM     80  S   UNL A   1      47.971  27.088  37.563  1.00  0.00     0.124 S 
ATOM     81  O   UNL A   1      49.045  28.004  37.194  1.00  0.00    -0.237 OA
ATOM     82  O   UNL A   1      47.488  27.200  38.937  1.00  0.00    -0.237 OA
ATOM     83  O   UNL A   1      48.122  25.719  37.075  1.00  0.00    -0.744 OA
ENDBRANCH  79  80
ENDBRANCH  60  74
BRANCH  61  84
ATOM     84  C   UNL A   1      36.493  33.325  31.065  1.00  0.00    -0.014 A 
ATOM     85  C   UNL A   1      36.660  33.988  29.834  1.00  0.00     0.010 A 
ATOM     86  C   UNL A   1      35.258  33.417  31.730  1.00  0.00     0.010 A 
ATOM     87  C   UNL A   1      35.638  34.785  29.314  1.00  0.00     0.020 A 
ATOM     88  C   UNL A   1      34.221  34.188  31.195  1.00  0.00     0.020 A 
ATOM     89  C   UNL A   1      34.431  34.893  30.007  1.00  0.00     0.054 A 
BRANCH  89  90
ATOM     90  S   UNL A   1      33.147  35.994  29.352  1.00  0.00     0.124 S 
ATOM     91  O   UNL A   1      32.380  35.086  28.503  1.00  0.00    -0.237 OA
ATOM     92  O   UNL A   1      32.467  36.446  30.563  1.00  0.00    -0.237 OA
ATOM     93  O   UNL A   1      33.905  37.021  28.644  1.00  0.00    -0.744 OA
ENDBRANCH  89  90
ENDBRANCH  61  84
BRANCH  73  94
ATOM     94  C   UNL A   1      40.112  34.245  37.021  1.00  0.00    -0.014 A 
ATOM     95  C   UNL A   1      39.446  33.842  38.195  1.00  0.00     0.010 A 
ATOM     96  C   UNL A   1      40.507  35.588  36.885  1.00  0.00     0.010 A 
ATOM     97  C   UNL A   1      39.119  34.776  39.181  1.00  0.00     0.020 A 
ATOM     98  C   UNL A   1      40.208  36.518  37.884  1.00  0.00     0.020 A 
ATOM     99  C   UNL A   1      39.484  36.113  39.009  1.00  0.00     0.054 A 
BRANCH  99 100
ATOM    100  S   UNL A   1      38.968  37.326  40.256  1.00  0.00     0.124 S 
ATOM    101  O   UNL A   1      38.347  38.363  39.437  1.00  0.00    -0.237 OA
ATOM    102  O   UNL A   1      38.054  36.554  41.094  1.00  0.00    -0.237 OA
ATOM    103  O   UNL A   1      40.222  37.709  40.903  1.00  0.00    -0.744 OA
ENDBRANCH  99 100
ENDBRANCH  73  94
ENDBRANCH  47  48
ENDBRANCH  40  42
ENDBRANCH  39  40
ENDBRANCH  38  39
ENDBRANCH  37  38
ENDBRANCH  36  37
ENDBRANCH  35  36
ENDBRANCH   1  35
TORSDOF 26
ENDMDL
