MODEL 1
REMARK VINA RESULT:     -10.1      0.000      0.000
REMARK SMILES CC1=C(CC(=O)OCCOCCOCCOCCOC(=O)c2ccc(-c3c4nc(c(-c5ccc(S(=O)(=O)[O-])cc5)c5ccc([nH]5)c(-c5ccc(S(=O)(=O)[O-])cc5)c5nc(c(-c6ccc(S(=O)(=O)[O-])cc6)c6ccc3[nH]6)C=C5)C=C4)cc2)c2cc(F)ccc2/C1=C\c1ccc([S@@+](C)[O-])cc1
REMARK SMILES IDX 13 1 12 2 11 3 10 4 9 5 8 6 7 7 5 8 6 9 4 10 3 11 1 12 2 13
REMARK SMILES IDX 89 14 82 15 88 16 90 17 83 18 87 19 84 20 86 21 85 22 91 23
REMARK SMILES IDX 92 24 99 25 93 26 98 27 94 28 95 29 96 30 97 31 14 32 15 33
REMARK SMILES IDX 16 34 17 35 18 36 19 37 20 38 21 39 22 40 23 41 81 42 24 43
REMARK SMILES IDX 80 44 25 45 26 46 27 47 74 48 28 49 79 50 73 51 75 52 29 53
REMARK SMILES IDX 78 54 72 55 71 56 30 58 60 59 41 60 59 61 42 62 45 63 58 64
REMARK SMILES IDX 76 65 43 66 44 67 57 69 77 70 46 71 31 72 32 73 40 74 33 75
REMARK SMILES IDX 39 76 34 77 35 78 36 79 37 80 38 81 61 82 62 83 70 84 63 85
REMARK SMILES IDX 69 86 64 87 65 88 66 89 67 90 68 91 47 92 48 93 56 94 49 95
REMARK SMILES IDX 55 96 50 97 51 98 52 99 53 100 54 101
REMARK H PARENT 75 57 45 68
REMARK Flexibility Score: inf
ROOT
ATOM      1  O   UNL A   1      34.031  27.594  26.404  1.00  0.00    -0.377 OA
ENDROOT
BRANCH   1   2
ATOM      2  C   UNL A   1      33.614  26.482  25.628  1.00  0.00     0.188 C 
BRANCH   2   3
ATOM      3  C   UNL A   1      34.554  25.397  25.063  1.00  0.00     0.188 C 
BRANCH   3   4
ATOM      4  O   UNL A   1      34.350  24.112  25.599  1.00  0.00    -0.376 OA
BRANCH   4   5
ATOM      5  C   UNL A   1      35.441  23.326  26.031  1.00  0.00     0.202 C 
BRANCH   5   6
ATOM      6  C   UNL A   1      35.312  21.904  26.616  1.00  0.00     0.261 C 
BRANCH   6   7
ATOM      7  O   UNL A   1      34.050  21.220  26.520  1.00  0.00    -0.463 OA
BRANCH   7   8
ATOM      8  C   UNL A   1      33.737  20.615  25.352  1.00  0.00     0.310 C 
ATOM      9  O   UNL A   1      34.533  19.941  24.703  1.00  0.00    -0.252 OA
BRANCH   8  10
ATOM     10  C   UNL A   1      32.289  20.841  24.873  1.00  0.00     0.159 C 
BRANCH  10  11
ATOM     11  C   UNL A   1      31.723  22.214  24.622  1.00  0.00    -0.025 C 
ATOM     12  C   UNL A   1      30.542  22.598  26.822  1.00  0.00     0.045 C 
ATOM     13  C   UNL A   1      30.970  22.987  25.447  1.00  0.00    -0.039 C 
ATOM     14  C   UNL A   1      30.673  24.285  24.806  1.00  0.00    -0.014 C 
ATOM     15  C   UNL A   1      32.040  23.035  23.432  1.00  0.00    -0.011 A 
ATOM     16  C   UNL A   1      31.386  24.282  23.513  1.00  0.00    -0.010 A 
ATOM     17  C   UNL A   1      29.890  25.260  25.317  1.00  0.00     0.017 C 
ATOM     18  C   UNL A   1      32.824  22.728  22.326  1.00  0.00     0.048 A 
ATOM     19  C   UNL A   1      31.500  25.213  22.484  1.00  0.00     0.012 A 
ATOM     20  C   UNL A   1      32.908  23.659  21.291  1.00  0.00     0.123 A 
ATOM     21  C   UNL A   1      32.256  24.889  21.358  1.00  0.00     0.040 A 
ATOM     22  F   UNL A   1      33.609  23.357  20.190  1.00  0.00    -0.207 F 
BRANCH  17  23
ATOM     23  C   UNL A   1      29.560  26.536  24.663  1.00  0.00    -0.025 A 
ATOM     24  C   UNL A   1      28.344  26.685  23.985  1.00  0.00     0.013 A 
ATOM     25  C   UNL A   1      30.499  27.571  24.616  1.00  0.00     0.013 A 
ATOM     26  C   UNL A   1      28.111  27.812  23.185  1.00  0.00     0.061 A 
ATOM     27  C   UNL A   1      30.261  28.703  23.827  1.00  0.00     0.061 A 
ATOM     28  C   UNL A   1      29.081  28.816  23.079  1.00  0.00     0.152 A 
BRANCH  28  29
ATOM     29  S   UNL A   1      28.916  30.138  21.849  1.00  0.00    -0.018 S 
ATOM     30  C   UNL A   1      28.651  31.550  22.940  1.00  0.00     0.346 C 
ATOM     31  O   UNL A   1      30.315  30.310  21.156  1.00  0.00    -0.612 OA
ENDBRANCH  28  29
ENDBRANCH  17  23
ENDBRANCH  10  11
ENDBRANCH   8  10
ENDBRANCH   7   8
ENDBRANCH   6   7
ENDBRANCH   5   6
ENDBRANCH   4   5
ENDBRANCH   3   4
ENDBRANCH   2   3
ENDBRANCH   1   2
BRANCH   1  32
ATOM     32  C   UNL A   1      33.668  28.890  25.988  1.00  0.00     0.188 C 
BRANCH  32  33
ATOM     33  C   UNL A   1      32.769  29.656  26.966  1.00  0.00     0.188 C 
BRANCH  33  34
ATOM     34  O   UNL A   1      31.889  30.582  26.333  1.00  0.00    -0.376 OA
BRANCH  34  35
ATOM     35  C   UNL A   1      31.845  31.894  26.883  1.00  0.00     0.202 C 
BRANCH  35  36
ATOM     36  C   UNL A   1      33.102  32.384  27.621  1.00  0.00     0.261 C 
BRANCH  36  37
ATOM     37  O   UNL A   1      33.417  33.775  27.495  1.00  0.00    -0.460 OA
BRANCH  37  38
ATOM     38  C   UNL A   1      33.393  34.544  28.601  1.00  0.00     0.338 C 
ATOM     39  O   UNL A   1      32.532  35.341  28.930  1.00  0.00    -0.246 OA
BRANCH  38  40
ATOM     40  C   UNL A   1      34.513  34.091  29.450  1.00  0.00     0.060 A 
ATOM     41  C   UNL A   1      34.269  33.572  30.725  1.00  0.00     0.016 A 
ATOM     42  C   UNL A   1      35.825  34.264  28.992  1.00  0.00     0.016 A 
ATOM     43  C   UNL A   1      35.341  33.210  31.539  1.00  0.00     0.010 A 
ATOM     44  C   UNL A   1      36.899  33.924  29.817  1.00  0.00     0.010 A 
ATOM     45  C   UNL A   1      36.661  33.369  31.083  1.00  0.00    -0.014 A 
BRANCH  45  46
ATOM     46  C   UNL A   1      37.771  32.718  31.815  1.00  0.00     0.031 A 
ATOM     47  C   UNL A   1      38.310  33.244  33.107  1.00  0.00     0.074 A 
ATOM     48  C   UNL A   1      38.300  31.619  31.245  1.00  0.00     0.049 A 
ATOM     49  N   UNL A   1      39.230  32.720  33.874  1.00  0.00    -0.248 NA
ATOM     50  C   UNL A   1      37.762  34.514  33.603  1.00  0.00     0.031 C 
ATOM     51  C   UNL A   1      37.849  31.047  29.974  1.00  0.00     0.029 A 
ATOM     52  N   UNL A   1      39.310  30.787  31.648  1.00  0.00    -0.354 N 
ATOM     53  C   UNL A   1      39.363  33.579  34.958  1.00  0.00     0.074 A 
ATOM     54  C   UNL A   1      38.455  34.685  34.725  1.00  0.00     0.031 C 
ATOM     55  C   UNL A   1      38.562  29.943  29.714  1.00  0.00     0.029 A 
ATOM     56  C   UNL A   1      39.538  29.746  30.780  1.00  0.00     0.049 A 
ATOM     57  H   UNL A   1      39.823  30.921  32.477  1.00  0.00     0.167 HD
ATOM     58  C   UNL A   1      40.161  33.439  36.045  1.00  0.00     0.031 A 
ATOM     59  C   UNL A   1      40.426  28.736  30.834  1.00  0.00     0.031 A 
ATOM     60  C   UNL A   1      41.077  32.338  36.235  1.00  0.00     0.049 A 
ATOM     61  C   UNL A   1      41.322  28.625  32.030  1.00  0.00     0.074 A 
ATOM     62  C   UNL A   1      41.893  32.082  37.323  1.00  0.00     0.029 A 
ATOM     63  N   UNL A   1      41.312  31.323  35.317  1.00  0.00    -0.354 N 
ATOM     64  N   UNL A   1      41.373  29.399  33.087  1.00  0.00    -0.248 NA
ATOM     65  C   UNL A   1      42.266  27.501  32.054  1.00  0.00     0.031 C 
ATOM     66  C   UNL A   1      42.675  30.962  37.033  1.00  0.00     0.029 A 
ATOM     67  C   UNL A   1      42.290  30.466  35.797  1.00  0.00     0.049 A 
ATOM     68  H   UNL A   1      40.851  31.226  34.453  1.00  0.00     0.167 HD
ATOM     69  C   UNL A   1      42.348  28.853  33.910  1.00  0.00     0.074 A 
ATOM     70  C   UNL A   1      42.842  27.666  33.238  1.00  0.00     0.031 C 
ATOM     71  C   UNL A   1      42.793  29.298  35.110  1.00  0.00     0.031 A 
BRANCH  58  72
ATOM     72  C   UNL A   1      40.086  34.480  37.136  1.00  0.00    -0.014 A 
ATOM     73  C   UNL A   1      39.178  34.321  38.201  1.00  0.00     0.010 A 
ATOM     74  C   UNL A   1      40.803  35.686  37.029  1.00  0.00     0.010 A 
ATOM     75  C   UNL A   1      38.965  35.357  39.117  1.00  0.00     0.020 A 
ATOM     76  C   UNL A   1      40.614  36.713  37.960  1.00  0.00     0.020 A 
ATOM     77  C   UNL A   1      39.678  36.551  38.985  1.00  0.00     0.054 A 
BRANCH  77  78
ATOM     78  S   UNL A   1      39.367  37.896  40.164  1.00  0.00     0.124 S 
ATOM     79  O   UNL A   1      40.610  38.659  40.098  1.00  0.00    -0.237 OA
ATOM     80  O   UNL A   1      38.191  38.551  39.596  1.00  0.00    -0.237 OA
ATOM     81  O   UNL A   1      39.128  37.196  41.425  1.00  0.00    -0.744 OA
ENDBRANCH  77  78
ENDBRANCH  58  72
BRANCH  59  82
ATOM     82  C   UNL A   1      40.429  27.733  29.736  1.00  0.00    -0.014 A 
ATOM     83  C   UNL A   1      39.378  26.801  29.621  1.00  0.00     0.010 A 
ATOM     84  C   UNL A   1      41.546  27.612  28.893  1.00  0.00     0.010 A 
ATOM     85  C   UNL A   1      39.480  25.726  28.735  1.00  0.00     0.020 A 
ATOM     86  C   UNL A   1      41.636  26.556  27.982  1.00  0.00     0.020 A 
ATOM     87  C   UNL A   1      40.618  25.601  27.935  1.00  0.00     0.054 A 
BRANCH  87  88
ATOM     88  S   UNL A   1      40.769  24.148  26.858  1.00  0.00     0.124 S 
ATOM     89  O   UNL A   1      40.991  23.080  27.829  1.00  0.00    -0.237 OA
ATOM     90  O   UNL A   1      39.477  24.122  26.177  1.00  0.00    -0.237 OA
ATOM     91  O   UNL A   1      41.912  24.470  26.009  1.00  0.00    -0.744 OA
ENDBRANCH  87  88
ENDBRANCH  59  82
BRANCH  71  92
ATOM     92  C   UNL A   1      43.897  28.522  35.783  1.00  0.00    -0.014 A 
ATOM     93  C   UNL A   1      43.582  27.487  36.682  1.00  0.00     0.010 A 
ATOM     94  C   UNL A   1      45.243  28.896  35.614  1.00  0.00     0.010 A 
ATOM     95  C   UNL A   1      44.585  26.868  37.432  1.00  0.00     0.020 A 
ATOM     96  C   UNL A   1      46.253  28.256  36.338  1.00  0.00     0.020 A 
ATOM     97  C   UNL A   1      45.914  27.265  37.263  1.00  0.00     0.054 A 
BRANCH  97  98
ATOM     98  S   UNL A   1      47.198  26.478  38.273  1.00  0.00     0.124 S 
ATOM     99  O   UNL A   1      47.863  25.612  37.305  1.00  0.00    -0.237 OA
ATOM    100  O   UNL A   1      47.982  27.619  38.740  1.00  0.00    -0.237 OA
ATOM    101  O   UNL A   1      46.440  25.787  39.313  1.00  0.00    -0.744 OA
ENDBRANCH  97  98
ENDBRANCH  71  92
ENDBRANCH  45  46
ENDBRANCH  38  40
ENDBRANCH  37  38
ENDBRANCH  36  37
ENDBRANCH  35  36
ENDBRANCH  34  35
ENDBRANCH  33  34
ENDBRANCH  32  33
ENDBRANCH   1  32
TORSDOF 26
ENDMDL
MODEL 2
REMARK VINA RESULT:     -10.0      1.299      7.758
REMARK SMILES CC1=C(CC(=O)OCCOCCOCCOCCOC(=O)c2ccc(-c3c4nc(c(-c5ccc(S(=O)(=O)[O-])cc5)c5ccc([nH]5)c(-c5ccc(S(=O)(=O)[O-])cc5)c5nc(c(-c6ccc(S(=O)(=O)[O-])cc6)c6ccc3[nH]6)C=C5)C=C4)cc2)c2cc(F)ccc2/C1=C\c1ccc([S@@+](C)[O-])cc1
REMARK SMILES IDX 13 1 12 2 11 3 10 4 9 5 8 6 7 7 5 8 6 9 4 10 3 11 1 12 2 13
REMARK SMILES IDX 89 14 82 15 88 16 90 17 83 18 87 19 84 20 86 21 85 22 91 23
REMARK SMILES IDX 92 24 99 25 93 26 98 27 94 28 95 29 96 30 97 31 14 32 15 33
REMARK SMILES IDX 16 34 17 35 18 36 19 37 20 38 21 39 22 40 23 41 81 42 24 43
REMARK SMILES IDX 80 44 25 45 26 46 27 47 74 48 28 49 79 50 73 51 75 52 29 53
REMARK SMILES IDX 78 54 72 55 71 56 30 58 60 59 41 60 59 61 42 62 45 63 58 64
REMARK SMILES IDX 76 65 43 66 44 67 57 69 77 70 46 71 31 72 32 73 40 74 33 75
REMARK SMILES IDX 39 76 34 77 35 78 36 79 37 80 38 81 61 82 62 83 70 84 63 85
REMARK SMILES IDX 69 86 64 87 65 88 66 89 67 90 68 91 47 92 48 93 56 94 49 95
REMARK SMILES IDX 55 96 50 97 51 98 52 99 53 100 54 101
REMARK H PARENT 75 57 45 68
REMARK Flexibility Score: inf
ROOT
ATOM      1  O   UNL A   1      34.037  27.531  26.449  1.00  0.00    -0.377 OA
ENDROOT
BRANCH   1   2
ATOM      2  C   UNL A   1      33.750  26.692  25.341  1.00  0.00     0.188 C 
BRANCH   2   3
ATOM      3  C   UNL A   1      34.494  25.381  25.011  1.00  0.00     0.188 C 
BRANCH   3   4
ATOM      4  O   UNL A   1      34.382  24.382  25.998  1.00  0.00    -0.376 OA
BRANCH   4   5
ATOM      5  C   UNL A   1      35.386  23.402  26.152  1.00  0.00     0.202 C 
BRANCH   5   6
ATOM      6  C   UNL A   1      35.117  21.937  26.555  1.00  0.00     0.261 C 
BRANCH   6   7
ATOM      7  O   UNL A   1      33.771  21.432  26.502  1.00  0.00    -0.463 OA
BRANCH   7   8
ATOM      8  C   UNL A   1      33.416  20.663  25.448  1.00  0.00     0.310 C 
ATOM      9  O   UNL A   1      34.128  19.772  24.990  1.00  0.00    -0.252 OA
BRANCH   8  10
ATOM     10  C   UNL A   1      32.037  20.989  24.842  1.00  0.00     0.159 C 
BRANCH  10  11
ATOM     11  C   UNL A   1      31.599  22.398  24.536  1.00  0.00    -0.025 C 
ATOM     12  C   UNL A   1      30.402  22.950  26.691  1.00  0.00     0.045 C 
ATOM     13  C   UNL A   1      30.897  23.258  25.317  1.00  0.00    -0.039 C 
ATOM     14  C   UNL A   1      30.729  24.557  24.632  1.00  0.00    -0.014 C 
ATOM     15  C   UNL A   1      32.016  23.152  23.332  1.00  0.00    -0.011 A 
ATOM     16  C   UNL A   1      31.472  24.452  23.359  1.00  0.00    -0.010 A 
ATOM     17  C   UNL A   1      30.021  25.611  25.093  1.00  0.00     0.017 C 
ATOM     18  C   UNL A   1      32.797  22.743  22.257  1.00  0.00     0.048 A 
ATOM     19  C   UNL A   1      31.691  25.337  22.307  1.00  0.00     0.012 A 
ATOM     20  C   UNL A   1      32.988  23.631  21.198  1.00  0.00     0.123 A 
ATOM     21  C   UNL A   1      32.444  24.915  21.212  1.00  0.00     0.040 A 
ATOM     22  F   UNL A   1      33.687  23.236  20.126  1.00  0.00    -0.207 F 
BRANCH  17  23
ATOM     23  C   UNL A   1      29.821  26.889  24.393  1.00  0.00    -0.025 A 
ATOM     24  C   UNL A   1      30.727  27.940  24.576  1.00  0.00     0.013 A 
ATOM     25  C   UNL A   1      28.670  27.105  23.629  1.00  0.00     0.013 A 
ATOM     26  C   UNL A   1      30.436  29.221  24.087  1.00  0.00     0.061 A 
ATOM     27  C   UNL A   1      28.386  28.383  23.131  1.00  0.00     0.061 A 
ATOM     28  C   UNL A   1      29.248  29.457  23.385  1.00  0.00     0.152 A 
BRANCH  28  29
ATOM     29  S   UNL A   1      28.729  31.147  22.984  1.00  0.00    -0.018 S 
ATOM     30  C   UNL A   1      28.748  31.063  21.182  1.00  0.00     0.346 C 
ATOM     31  O   UNL A   1      27.236  31.301  23.451  1.00  0.00    -0.612 OA
ENDBRANCH  28  29
ENDBRANCH  17  23
ENDBRANCH  10  11
ENDBRANCH   8  10
ENDBRANCH   7   8
ENDBRANCH   6   7
ENDBRANCH   5   6
ENDBRANCH   4   5
ENDBRANCH   3   4
ENDBRANCH   2   3
ENDBRANCH   1   2
BRANCH   1  32
ATOM     32  C   UNL A   1      34.006  28.928  26.271  1.00  0.00     0.188 C 
BRANCH  32  33
ATOM     33  C   UNL A   1      32.926  29.660  27.076  1.00  0.00     0.188 C 
BRANCH  33  34
ATOM     34  O   UNL A   1      32.237  30.663  26.334  1.00  0.00    -0.376 OA
BRANCH  34  35
ATOM     35  C   UNL A   1      32.112  31.939  26.954  1.00  0.00     0.202 C 
BRANCH  35  36
ATOM     36  C   UNL A   1      33.362  32.501  27.649  1.00  0.00     0.261 C 
BRANCH  36  37
ATOM     37  O   UNL A   1      33.386  33.915  27.878  1.00  0.00    -0.460 OA
BRANCH  37  38
ATOM     38  C   UNL A   1      33.489  34.361  29.145  1.00  0.00     0.338 C 
ATOM     39  O   UNL A   1      32.655  34.981  29.782  1.00  0.00    -0.246 OA
BRANCH  38  40
ATOM     40  C   UNL A   1      34.731  33.779  29.695  1.00  0.00     0.060 A 
ATOM     41  C   UNL A   1      35.978  34.225  29.247  1.00  0.00     0.016 A 
ATOM     42  C   UNL A   1      34.639  32.722  30.609  1.00  0.00     0.016 A 
ATOM     43  C   UNL A   1      37.138  33.621  29.728  1.00  0.00     0.010 A 
ATOM     44  C   UNL A   1      35.800  32.102  31.072  1.00  0.00     0.010 A 
ATOM     45  C   UNL A   1      37.056  32.566  30.654  1.00  0.00    -0.014 A 
BRANCH  45  46
ATOM     46  C   UNL A   1      38.273  32.134  31.379  1.00  0.00     0.031 A 
ATOM     47  C   UNL A   1      39.217  31.109  30.838  1.00  0.00     0.074 A 
ATOM     48  C   UNL A   1      38.486  32.700  32.582  1.00  0.00     0.049 A 
ATOM     49  N   UNL A   1      40.351  30.702  31.349  1.00  0.00    -0.248 NA
ATOM     50  C   UNL A   1      38.853  30.450  29.576  1.00  0.00     0.031 C 
ATOM     51  C   UNL A   1      37.603  33.695  33.197  1.00  0.00     0.029 A 
ATOM     52  N   UNL A   1      39.494  32.537  33.493  1.00  0.00    -0.354 N 
ATOM     53  C   UNL A   1      40.852  29.754  30.466  1.00  0.00     0.074 A 
ATOM     54  C   UNL A   1      39.874  29.615  29.405  1.00  0.00     0.031 C 
ATOM     55  C   UNL A   1      38.122  34.073  34.372  1.00  0.00     0.029 A 
ATOM     56  C   UNL A   1      39.354  33.327  34.609  1.00  0.00     0.049 A 
ATOM     57  H   UNL A   1      40.245  31.914  33.364  1.00  0.00     0.167 HD
ATOM     58  C   UNL A   1      42.027  29.081  30.538  1.00  0.00     0.031 A 
ATOM     59  C   UNL A   1      40.131  33.452  35.701  1.00  0.00     0.031 A 
ATOM     60  C   UNL A   1      42.969  29.221  31.624  1.00  0.00     0.049 A 
ATOM     61  C   UNL A   1      41.407  32.668  35.773  1.00  0.00     0.074 A 
ATOM     62  C   UNL A   1      44.208  28.619  31.765  1.00  0.00     0.029 A 
ATOM     63  N   UNL A   1      42.777  30.000  32.757  1.00  0.00    -0.354 N 
ATOM     64  N   UNL A   1      41.908  31.842  34.887  1.00  0.00    -0.248 NA
ATOM     65  C   UNL A   1      42.230  32.844  36.974  1.00  0.00     0.031 C 
ATOM     66  C   UNL A   1      44.727  28.970  33.013  1.00  0.00     0.029 A 
ATOM     67  C   UNL A   1      43.854  29.859  33.619  1.00  0.00     0.049 A 
ATOM     68  H   UNL A   1      41.992  30.570  32.924  1.00  0.00     0.167 HD
ATOM     69  C   UNL A   1      43.113  31.402  35.418  1.00  0.00     0.074 A 
ATOM     70  C   UNL A   1      43.276  32.076  36.692  1.00  0.00     0.031 C 
ATOM     71  C   UNL A   1      43.998  30.517  34.898  1.00  0.00     0.031 A 
BRANCH  58  72
ATOM     72  C   UNL A   1      42.391  28.139  29.416  1.00  0.00    -0.014 A 
ATOM     73  C   UNL A   1      43.302  28.545  28.421  1.00  0.00     0.010 A 
ATOM     74  C   UNL A   1      41.720  26.912  29.262  1.00  0.00     0.010 A 
ATOM     75  C   UNL A   1      43.510  27.761  27.281  1.00  0.00     0.020 A 
ATOM     76  C   UNL A   1      41.946  26.112  28.137  1.00  0.00     0.020 A 
ATOM     77  C   UNL A   1      42.823  26.553  27.142  1.00  0.00     0.054 A 
BRANCH  77  78
ATOM     78  S   UNL A   1      43.081  25.563  25.643  1.00  0.00     0.124 S 
ATOM     79  O   UNL A   1      42.260  26.266  24.662  1.00  0.00    -0.237 OA
ATOM     80  O   UNL A   1      44.526  25.658  25.444  1.00  0.00    -0.237 OA
ATOM     81  O   UNL A   1      42.603  24.235  26.023  1.00  0.00    -0.744 OA
ENDBRANCH  77  78
ENDBRANCH  58  72
BRANCH  59  82
ATOM     82  C   UNL A   1      39.724  34.416  36.757  1.00  0.00    -0.014 A 
ATOM     83  C   UNL A   1      40.209  35.739  36.738  1.00  0.00     0.010 A 
ATOM     84  C   UNL A   1      38.972  33.979  37.860  1.00  0.00     0.010 A 
ATOM     85  C   UNL A   1      40.010  36.582  37.833  1.00  0.00     0.020 A 
ATOM     86  C   UNL A   1      38.743  34.831  38.944  1.00  0.00     0.020 A 
ATOM     87  C   UNL A   1      39.294  36.114  38.938  1.00  0.00     0.054 A 
BRANCH  87  88
ATOM     88  S   UNL A   1      39.127  37.194  40.386  1.00  0.00     0.124 S 
ATOM     89  O   UNL A   1      38.579  36.275  41.381  1.00  0.00    -0.237 OA
ATOM     90  O   UNL A   1      40.501  37.628  40.620  1.00  0.00    -0.237 OA
ATOM     91  O   UNL A   1      38.214  38.238  39.930  1.00  0.00    -0.744 OA
ENDBRANCH  87  88
ENDBRANCH  59  82
BRANCH  71  92
ATOM     92  C   UNL A   1      45.225  30.191  35.709  1.00  0.00    -0.014 A 
ATOM     93  C   UNL A   1      46.405  30.938  35.532  1.00  0.00     0.010 A 
ATOM     94  C   UNL A   1      45.247  29.071  36.561  1.00  0.00     0.010 A 
ATOM     95  C   UNL A   1      47.593  30.548  36.156  1.00  0.00     0.020 A 
ATOM     96  C   UNL A   1      46.425  28.699  37.213  1.00  0.00     0.020 A 
ATOM     97  C   UNL A   1      47.597  29.423  36.985  1.00  0.00     0.054 A 
BRANCH  97  98
ATOM     98  S   UNL A   1      49.156  28.910  37.756  1.00  0.00     0.124 S 
ATOM     99  O   UNL A   1      48.718  28.476  39.078  1.00  0.00    -0.237 OA
ATOM    100  O   UNL A   1      49.619  27.848  36.865  1.00  0.00    -0.237 OA
ATOM    101  O   UNL A   1      49.966  30.126  37.733  1.00  0.00    -0.744 OA
ENDBRANCH  97  98
ENDBRANCH  71  92
ENDBRANCH  45  46
ENDBRANCH  38  40
ENDBRANCH  37  38
ENDBRANCH  36  37
ENDBRANCH  35  36
ENDBRANCH  34  35
ENDBRANCH  33  34
ENDBRANCH  32  33
ENDBRANCH   1  32
TORSDOF 26
ENDMDL
MODEL 3
REMARK VINA RESULT:      -9.0      2.415      3.401
REMARK SMILES CC1=C(CC(=O)OCCOCCOCCOCCOC(=O)c2ccc(-c3c4nc(c(-c5ccc(S(=O)(=O)[O-])cc5)c5ccc([nH]5)c(-c5ccc(S(=O)(=O)[O-])cc5)c5nc(c(-c6ccc(S(=O)(=O)[O-])cc6)c6ccc3[nH]6)C=C5)C=C4)cc2)c2cc(F)ccc2/C1=C\c1ccc([S@@+](C)[O-])cc1
REMARK SMILES IDX 13 1 12 2 11 3 10 4 9 5 8 6 7 7 5 8 6 9 4 10 3 11 1 12 2 13
REMARK SMILES IDX 89 14 82 15 88 16 90 17 83 18 87 19 84 20 86 21 85 22 91 23
REMARK SMILES IDX 92 24 99 25 93 26 98 27 94 28 95 29 96 30 97 31 14 32 15 33
REMARK SMILES IDX 16 34 17 35 18 36 19 37 20 38 21 39 22 40 23 41 81 42 24 43
REMARK SMILES IDX 80 44 25 45 26 46 27 47 74 48 28 49 79 50 73 51 75 52 29 53
REMARK SMILES IDX 78 54 72 55 71 56 30 58 60 59 41 60 59 61 42 62 45 63 58 64
REMARK SMILES IDX 76 65 43 66 44 67 57 69 77 70 46 71 31 72 32 73 40 74 33 75
REMARK SMILES IDX 39 76 34 77 35 78 36 79 37 80 38 81 61 82 62 83 70 84 63 85
REMARK SMILES IDX 69 86 64 87 65 88 66 89 67 90 68 91 47 92 48 93 56 94 49 95
REMARK SMILES IDX 55 96 50 97 51 98 52 99 53 100 54 101
REMARK H PARENT 75 57 45 68
REMARK Flexibility Score: inf
ROOT
ATOM      1  O   UNL A   1      34.248  26.756  25.852  1.00  0.00    -0.377 OA
ENDROOT
BRANCH   1   2
ATOM      2  C   UNL A   1      34.296  25.920  24.707  1.00  0.00     0.188 C 
BRANCH   2   3
ATOM      3  C   UNL A   1      34.757  24.447  24.707  1.00  0.00     0.188 C 
BRANCH   3   4
ATOM      4  O   UNL A   1      35.261  23.994  25.941  1.00  0.00    -0.376 OA
BRANCH   4   5
ATOM      5  C   UNL A   1      36.045  22.822  26.015  1.00  0.00     0.202 C 
BRANCH   5   6
ATOM      6  C   UNL A   1      35.482  21.416  26.309  1.00  0.00     0.261 C 
BRANCH   6   7
ATOM      7  O   UNL A   1      34.068  21.187  26.178  1.00  0.00    -0.463 OA
BRANCH   7   8
ATOM      8  C   UNL A   1      33.628  20.491  25.105  1.00  0.00     0.310 C 
ATOM      9  O   UNL A   1      34.310  19.660  24.510  1.00  0.00    -0.252 OA
BRANCH   8  10
ATOM     10  C   UNL A   1      32.189  20.823  24.662  1.00  0.00     0.159 C 
BRANCH  10  11
ATOM     11  C   UNL A   1      31.707  22.237  24.467  1.00  0.00    -0.025 C 
ATOM     12  C   UNL A   1      30.619  22.631  26.713  1.00  0.00     0.045 C 
ATOM     13  C   UNL A   1      31.031  23.033  25.336  1.00  0.00    -0.039 C 
ATOM     14  C   UNL A   1      30.801  24.365  24.741  1.00  0.00    -0.014 C 
ATOM     15  C   UNL A   1      32.043  23.071  23.291  1.00  0.00    -0.011 A 
ATOM     16  C   UNL A   1      31.474  24.354  23.426  1.00  0.00    -0.010 A 
ATOM     17  C   UNL A   1      30.098  25.373  25.302  1.00  0.00     0.017 C 
ATOM     18  C   UNL A   1      32.772  22.746  22.153  1.00  0.00     0.048 A 
ATOM     19  C   UNL A   1      31.619  25.305  22.420  1.00  0.00     0.012 A 
ATOM     20  C   UNL A   1      32.886  23.700  21.141  1.00  0.00     0.123 A 
ATOM     21  C   UNL A   1      32.319  24.968  21.263  1.00  0.00     0.040 A 
ATOM     22  F   UNL A   1      33.533  23.386  20.011  1.00  0.00    -0.207 F 
BRANCH  17  23
ATOM     23  C   UNL A   1      29.834  26.686  24.694  1.00  0.00    -0.025 A 
ATOM     24  C   UNL A   1      28.683  26.885  23.923  1.00  0.00     0.013 A 
ATOM     25  C   UNL A   1      30.779  27.713  24.788  1.00  0.00     0.013 A 
ATOM     26  C   UNL A   1      28.527  28.057  23.169  1.00  0.00     0.061 A 
ATOM     27  C   UNL A   1      30.616  28.889  24.045  1.00  0.00     0.061 A 
ATOM     28  C   UNL A   1      29.508  29.055  23.204  1.00  0.00     0.152 A 
BRANCH  28  29
ATOM     29  S   UNL A   1      29.457  30.445  22.041  1.00  0.00    -0.018 S 
ATOM     30  C   UNL A   1      27.923  30.070  21.170  1.00  0.00     0.346 C 
ATOM     31  O   UNL A   1      29.236  31.753  22.883  1.00  0.00    -0.612 OA
ENDBRANCH  28  29
ENDBRANCH  17  23
ENDBRANCH  10  11
ENDBRANCH   8  10
ENDBRANCH   7   8
ENDBRANCH   6   7
ENDBRANCH   5   6
ENDBRANCH   4   5
ENDBRANCH   3   4
ENDBRANCH   2   3
ENDBRANCH   1   2
BRANCH   1  32
ATOM     32  C   UNL A   1      33.962  28.124  25.685  1.00  0.00     0.188 C 
BRANCH  32  33
ATOM     33  C   UNL A   1      33.665  28.888  26.983  1.00  0.00     0.188 C 
BRANCH  33  34
ATOM     34  O   UNL A   1      33.267  30.241  26.775  1.00  0.00    -0.376 OA
BRANCH  34  35
ATOM     35  C   UNL A   1      33.518  31.147  27.844  1.00  0.00     0.202 C 
BRANCH  35  36
ATOM     36  C   UNL A   1      34.961  31.652  28.006  1.00  0.00     0.261 C 
BRANCH  36  37
ATOM     37  O   UNL A   1      35.147  32.804  28.835  1.00  0.00    -0.460 OA
BRANCH  37  38
ATOM     38  C   UNL A   1      35.197  32.635  30.171  1.00  0.00     0.338 C 
ATOM     39  O   UNL A   1      34.307  32.839  30.978  1.00  0.00    -0.246 OA
BRANCH  38  40
ATOM     40  C   UNL A   1      36.478  31.958  30.460  1.00  0.00     0.060 A 
ATOM     41  C   UNL A   1      37.668  32.426  29.895  1.00  0.00     0.016 A 
ATOM     42  C   UNL A   1      36.471  30.796  31.242  1.00  0.00     0.016 A 
ATOM     43  C   UNL A   1      38.858  31.738  30.124  1.00  0.00     0.010 A 
ATOM     44  C   UNL A   1      37.659  30.094  31.452  1.00  0.00     0.010 A 
ATOM     45  C   UNL A   1      38.862  30.577  30.917  1.00  0.00    -0.014 A 
BRANCH  45  46
ATOM     46  C   UNL A   1      40.149  30.026  31.400  1.00  0.00     0.031 A 
ATOM     47  C   UNL A   1      40.863  30.565  32.598  1.00  0.00     0.074 A 
ATOM     48  C   UNL A   1      40.670  29.011  30.686  1.00  0.00     0.049 A 
ATOM     49  N   UNL A   1      41.958  30.119  33.157  1.00  0.00    -0.248 NA
ATOM     50  C   UNL A   1      40.291  31.750  33.252  1.00  0.00     0.031 C 
ATOM     51  C   UNL A   1      40.051  28.435  29.489  1.00  0.00     0.029 A 
ATOM     52  N   UNL A   1      41.817  28.281  30.854  1.00  0.00    -0.354 N 
ATOM     53  C   UNL A   1      42.202  30.951  34.242  1.00  0.00     0.074 A 
ATOM     54  C   UNL A   1      41.160  31.959  34.236  1.00  0.00     0.031 C 
ATOM     55  C   UNL A   1      40.810  27.426  29.046  1.00  0.00     0.029 A 
ATOM     56  C   UNL A   1      41.983  27.301  29.906  1.00  0.00     0.049 A 
ATOM     57  H   UNL A   1      42.459  28.443  31.582  1.00  0.00     0.167 HD
ATOM     58  C   UNL A   1      43.199  30.863  35.157  1.00  0.00     0.031 A 
ATOM     59  C   UNL A   1      42.963  26.392  29.744  1.00  0.00     0.031 A 
ATOM     60  C   UNL A   1      44.241  29.863  35.119  1.00  0.00     0.049 A 
ATOM     61  C   UNL A   1      44.073  26.340  30.749  1.00  0.00     0.074 A 
ATOM     62  C   UNL A   1      45.266  29.661  36.026  1.00  0.00     0.029 A 
ATOM     63  N   UNL A   1      44.402  28.911  34.122  1.00  0.00    -0.354 N 
ATOM     64  N   UNL A   1      44.241  27.079  31.819  1.00  0.00    -0.248 NA
ATOM     65  C   UNL A   1      45.113  25.326  30.542  1.00  0.00     0.031 C 
ATOM     66  C   UNL A   1      46.090  28.644  35.540  1.00  0.00     0.029 A 
ATOM     67  C   UNL A   1      45.534  28.149  34.370  1.00  0.00     0.049 A 
ATOM     68  H   UNL A   1      43.801  28.792  33.351  1.00  0.00     0.167 HD
ATOM     69  C   UNL A   1      45.402  26.616  32.422  1.00  0.00     0.074 A 
ATOM     70  C   UNL A   1      45.880  25.513  31.609  1.00  0.00     0.031 C 
ATOM     71  C   UNL A   1      46.016  27.067  33.542  1.00  0.00     0.031 A 
BRANCH  58  72
ATOM     72  C   UNL A   1      43.224  31.853  36.297  1.00  0.00    -0.014 A 
ATOM     73  C   UNL A   1      42.747  31.476  37.568  1.00  0.00     0.010 A 
ATOM     74  C   UNL A   1      43.576  33.196  36.074  1.00  0.00     0.010 A 
ATOM     75  C   UNL A   1      42.592  32.428  38.582  1.00  0.00     0.020 A 
ATOM     76  C   UNL A   1      43.449  34.145  37.094  1.00  0.00     0.020 A 
ATOM     77  C   UNL A   1      42.935  33.759  38.335  1.00  0.00     0.054 A 
BRANCH  77  78
ATOM     78  S   UNL A   1      42.699  34.986  39.652  1.00  0.00     0.124 S 
ATOM     79  O   UNL A   1      43.160  36.216  39.015  1.00  0.00    -0.237 OA
ATOM     80  O   UNL A   1      41.262  34.907  39.907  1.00  0.00    -0.237 OA
ATOM     81  O   UNL A   1      43.541  34.489  40.738  1.00  0.00    -0.744 OA
ENDBRANCH  77  78
ENDBRANCH  58  72
BRANCH  59  82
ATOM     82  C   UNL A   1      42.863  25.433  28.612  1.00  0.00    -0.014 A 
ATOM     83  C   UNL A   1      42.278  24.165  28.804  1.00  0.00     0.010 A 
ATOM     84  C   UNL A   1      43.478  25.723  27.383  1.00  0.00     0.010 A 
ATOM     85  C   UNL A   1      42.376  23.184  27.815  1.00  0.00     0.020 A 
ATOM     86  C   UNL A   1      43.549  24.754  26.379  1.00  0.00     0.020 A 
ATOM     87  C   UNL A   1      43.028  23.480  26.616  1.00  0.00     0.054 A 
BRANCH  87  88
ATOM     88  S   UNL A   1      43.222  22.163  25.383  1.00  0.00     0.124 S 
ATOM     89  O   UNL A   1      41.991  21.400  25.568  1.00  0.00    -0.237 OA
ATOM     90  O   UNL A   1      43.317  22.910  24.132  1.00  0.00    -0.237 OA
ATOM     91  O   UNL A   1      44.447  21.485  25.797  1.00  0.00    -0.744 OA
ENDBRANCH  87  88
ENDBRANCH  59  82
BRANCH  71  92
ATOM     92  C   UNL A   1      47.298  26.395  33.962  1.00  0.00    -0.014 A 
ATOM     93  C   UNL A   1      48.533  26.867  33.476  1.00  0.00     0.010 A 
ATOM     94  C   UNL A   1      47.273  25.223  34.741  1.00  0.00     0.010 A 
ATOM     95  C   UNL A   1      49.711  26.159  33.726  1.00  0.00     0.020 A 
ATOM     96  C   UNL A   1      48.455  24.532  35.021  1.00  0.00     0.020 A 
ATOM     97  C   UNL A   1      49.662  24.989  34.488  1.00  0.00     0.054 A 
BRANCH  97  98
ATOM     98  S   UNL A   1      51.196  24.063  34.769  1.00  0.00     0.124 S 
ATOM     99  O   UNL A   1      52.003  24.449  33.616  1.00  0.00    -0.237 OA
ATOM    100  O   UNL A   1      51.651  24.580  36.058  1.00  0.00    -0.237 OA
ATOM    101  O   UNL A   1      50.757  22.670  34.787  1.00  0.00    -0.744 OA
ENDBRANCH  97  98
ENDBRANCH  71  92
ENDBRANCH  45  46
ENDBRANCH  38  40
ENDBRANCH  37  38
ENDBRANCH  36  37
ENDBRANCH  35  36
ENDBRANCH  34  35
ENDBRANCH  33  34
ENDBRANCH  32  33
ENDBRANCH   1  32
TORSDOF 26
ENDMDL
