MODEL 1
REMARK VINA RESULT:      -8.8      0.000      0.000
REMARK SMILES O=C(OCCOCCOCCOCCOC(=O)c1nc(F)ccc1Br)c1ccc(-c2c3nc(c(-c4ccc(S(=O)(=O)[O-])cc4)c4ccc([nH]4)c(-c4ccc(S(=O)(=O)[O-])cc4)c4nc(c(-c5ccc(S(=O)(=O)[O-])cc5)c5ccc2[nH]5)C=C4)C=C3)cc1
REMARK SMILES IDX 7 1 6 2 5 3 4 4 3 5 2 6 1 7 26 8 27 9 85 10 28 11 84 12
REMARK SMILES IDX 29 13 30 14 31 15 78 16 32 17 83 18 77 19 79 20 33 21 82 22
REMARK SMILES IDX 76 23 75 24 34 26 64 27 45 28 63 29 46 30 49 31 62 32 80 33
REMARK SMILES IDX 47 34 48 35 61 37 81 38 50 39 35 40 36 41 44 42 37 43 43 44
REMARK SMILES IDX 38 45 39 46 40 47 41 48 42 49 65 50 66 51 74 52 67 53 73 54
REMARK SMILES IDX 68 55 69 56 70 57 71 58 72 59 51 60 52 61 60 62 53 63 59 64
REMARK SMILES IDX 54 65 55 66 56 67 57 68 58 69 8 70 9 71 10 72 11 73 12 74
REMARK SMILES IDX 13 75 14 76 15 77 16 78 17 79 18 80 19 81 24 82 20 83 23 84
REMARK SMILES IDX 25 85 21 86 22 87
REMARK H PARENT 79 25 49 36
REMARK Flexibility Score: inf
ROOT
ATOM      1  C   UNL A   1      33.366  21.688  25.126  1.00  0.00     0.188 C 
ENDROOT
BRANCH   1   2
ATOM      2  O   UNL A   1      34.465  21.209  24.340  1.00  0.00    -0.376 OA
BRANCH   2   3
ATOM      3  C   UNL A   1      35.727  21.267  24.997  1.00  0.00     0.202 C 
BRANCH   3   4
ATOM      4  C   UNL A   1      35.895  22.460  25.934  1.00  0.00     0.261 C 
BRANCH   4   5
ATOM      5  O   UNL A   1      37.024  23.279  25.609  1.00  0.00    -0.460 OA
BRANCH   5   6
ATOM      6  C   UNL A   1      38.278  23.249  26.122  1.00  0.00     0.338 C 
ATOM      7  O   UNL A   1      38.905  22.195  25.989  1.00  0.00    -0.246 OA
BRANCH   6   8
ATOM      8  C   UNL A   1      38.949  24.363  26.888  1.00  0.00     0.060 A 
ATOM      9  C   UNL A   1      39.941  25.084  26.190  1.00  0.00     0.016 A 
ATOM     10  C   UNL A   1      38.699  24.748  28.208  1.00  0.00     0.016 A 
ATOM     11  C   UNL A   1      40.627  26.156  26.775  1.00  0.00     0.010 A 
ATOM     12  C   UNL A   1      39.384  25.811  28.805  1.00  0.00     0.010 A 
ATOM     13  C   UNL A   1      40.335  26.534  28.085  1.00  0.00    -0.014 A 
BRANCH  13  14
ATOM     14  C   UNL A   1      40.854  27.788  28.667  1.00  0.00     0.031 A 
ATOM     15  C   UNL A   1      42.212  27.857  29.290  1.00  0.00     0.074 A 
ATOM     16  C   UNL A   1      40.003  28.831  28.725  1.00  0.00     0.049 A 
ATOM     17  N   UNL A   1      42.783  28.876  29.876  1.00  0.00    -0.248 NA
ATOM     18  C   UNL A   1      43.035  26.637  29.263  1.00  0.00     0.031 C 
ATOM     19  C   UNL A   1      38.636  28.819  28.191  1.00  0.00     0.029 A 
ATOM     20  N   UNL A   1      40.131  30.073  29.286  1.00  0.00    -0.354 N 
ATOM     21  C   UNL A   1      44.042  28.435  30.263  1.00  0.00     0.074 A 
ATOM     22  C   UNL A   1      44.139  27.042  29.884  1.00  0.00     0.031 C 
ATOM     23  C   UNL A   1      38.040  29.983  28.487  1.00  0.00     0.029 A 
ATOM     24  C   UNL A   1      38.978  30.819  29.231  1.00  0.00     0.049 A 
ATOM     25  H   UNL A   1      40.968  30.401  29.687  1.00  0.00     0.167 HD
ATOM     26  C   UNL A   1      45.022  29.149  30.865  1.00  0.00     0.031 A 
ATOM     27  C   UNL A   1      38.695  32.036  29.734  1.00  0.00     0.031 A 
ATOM     28  C   UNL A   1      44.877  30.532  31.250  1.00  0.00     0.049 A 
ATOM     29  C   UNL A   1      39.793  32.802  30.410  1.00  0.00     0.074 A 
ATOM     30  C   UNL A   1      45.832  31.369  31.799  1.00  0.00     0.029 A 
ATOM     31  N   UNL A   1      43.709  31.273  31.141  1.00  0.00    -0.354 N 
ATOM     32  N   UNL A   1      41.020  32.413  30.659  1.00  0.00    -0.248 NA
ATOM     33  C   UNL A   1      39.493  34.173  30.842  1.00  0.00     0.031 C 
ATOM     34  C   UNL A   1      45.225  32.592  32.086  1.00  0.00     0.029 A 
ATOM     35  C   UNL A   1      43.910  32.546  31.647  1.00  0.00     0.049 A 
ATOM     36  H   UNL A   1      42.863  30.943  30.761  1.00  0.00     0.167 HD
ATOM     37  C   UNL A   1      41.648  33.496  31.257  1.00  0.00     0.074 A 
ATOM     38  C   UNL A   1      40.667  34.562  31.325  1.00  0.00     0.031 C 
ATOM     39  C   UNL A   1      42.922  33.595  31.704  1.00  0.00     0.031 A 
BRANCH  26  40
ATOM     40  C   UNL A   1      46.359  28.502  31.120  1.00  0.00    -0.014 A 
ATOM     41  C   UNL A   1      46.678  28.027  32.407  1.00  0.00     0.010 A 
ATOM     42  C   UNL A   1      47.371  28.561  30.145  1.00  0.00     0.010 A 
ATOM     43  C   UNL A   1      47.993  27.679  32.730  1.00  0.00     0.020 A 
ATOM     44  C   UNL A   1      48.684  28.193  30.459  1.00  0.00     0.020 A 
ATOM     45  C   UNL A   1      48.992  27.784  31.759  1.00  0.00     0.054 A 
BRANCH  45  46
ATOM     46  S   UNL A   1      50.709  27.423  32.224  1.00  0.00     0.124 S 
ATOM     47  O   UNL A   1      51.093  28.628  32.952  1.00  0.00    -0.237 OA
ATOM     48  O   UNL A   1      50.572  26.213  33.031  1.00  0.00    -0.237 OA
ATOM     49  O   UNL A   1      51.379  27.230  30.939  1.00  0.00    -0.744 OA
ENDBRANCH  45  46
ENDBRANCH  26  40
BRANCH  27  50
ATOM     50  C   UNL A   1      37.323  32.581  29.559  1.00  0.00    -0.014 A 
ATOM     51  C   UNL A   1      37.001  33.320  28.403  1.00  0.00     0.010 A 
ATOM     52  C   UNL A   1      36.379  32.486  30.594  1.00  0.00     0.010 A 
ATOM     53  C   UNL A   1      35.783  33.999  28.310  1.00  0.00     0.020 A 
ATOM     54  C   UNL A   1      35.148  33.144  30.493  1.00  0.00     0.020 A 
ATOM     55  C   UNL A   1      34.872  33.921  29.365  1.00  0.00     0.054 A 
BRANCH  55  56
ATOM     56  S   UNL A   1      33.327  34.867  29.256  1.00  0.00     0.124 S 
ATOM     57  O   UNL A   1      33.804  36.163  28.781  1.00  0.00    -0.237 OA
ATOM     58  O   UNL A   1      32.545  34.094  28.294  1.00  0.00    -0.237 OA
ATOM     59  O   UNL A   1      32.818  34.849  30.625  1.00  0.00    -0.744 OA
ENDBRANCH  55  56
ENDBRANCH  27  50
BRANCH  39  60
ATOM     60  C   UNL A   1      43.361  34.895  32.322  1.00  0.00    -0.014 A 
ATOM     61  C   UNL A   1      42.998  35.189  33.649  1.00  0.00     0.010 A 
ATOM     62  C   UNL A   1      43.960  35.890  31.532  1.00  0.00     0.010 A 
ATOM     63  C   UNL A   1      43.173  36.477  34.158  1.00  0.00     0.020 A 
ATOM     64  C   UNL A   1      44.160  37.173  32.047  1.00  0.00     0.020 A 
ATOM     65  C   UNL A   1      43.735  37.466  33.346  1.00  0.00     0.054 A 
BRANCH  65  66
ATOM     66  S   UNL A   1      43.872  39.154  33.993  1.00  0.00     0.124 S 
ATOM     67  O   UNL A   1      44.009  38.923  35.428  1.00  0.00    -0.237 OA
ATOM     68  O   UNL A   1      45.065  39.660  33.320  1.00  0.00    -0.237 OA
ATOM     69  O   UNL A   1      42.620  39.783  33.578  1.00  0.00    -0.744 OA
ENDBRANCH  65  66
ENDBRANCH  39  60
ENDBRANCH  13  14
ENDBRANCH   6   8
ENDBRANCH   5   6
ENDBRANCH   4   5
ENDBRANCH   3   4
ENDBRANCH   2   3
ENDBRANCH   1   2
BRANCH   1  70
ATOM     70  C   UNL A   1      32.497  22.642  24.310  1.00  0.00     0.188 C 
BRANCH  70  71
ATOM     71  O   UNL A   1      33.231  23.628  23.591  1.00  0.00    -0.377 OA
BRANCH  71  72
ATOM     72  C   UNL A   1      33.116  23.619  22.174  1.00  0.00     0.188 C 
BRANCH  72  73
ATOM     73  C   UNL A   1      33.029  24.961  21.420  1.00  0.00     0.188 C 
BRANCH  73  74
ATOM     74  O   UNL A   1      33.890  25.973  21.923  1.00  0.00    -0.376 OA
BRANCH  74  75
ATOM     75  C   UNL A   1      33.300  27.261  22.064  1.00  0.00     0.202 C 
BRANCH  75  76
ATOM     76  C   UNL A   1      34.102  28.195  22.972  1.00  0.00     0.261 C 
BRANCH  76  77
ATOM     77  O   UNL A   1      33.895  27.962  24.375  1.00  0.00    -0.458 OA
BRANCH  77  78
ATOM     78  C   UNL A   1      32.871  28.595  24.996  1.00  0.00     0.358 C 
ATOM     79  O   UNL A   1      32.760  29.794  25.180  1.00  0.00    -0.244 OA
BRANCH  78  80
ATOM     80  C   UNL A   1      31.834  27.555  25.278  1.00  0.00     0.165 A 
ATOM     81  N   UNL A   1      32.225  26.573  26.143  1.00  0.00    -0.211 NA
ATOM     82  C   UNL A   1      30.637  27.506  24.559  1.00  0.00     0.051 A 
ATOM     83  C   UNL A   1      31.420  25.503  26.259  1.00  0.00     0.213 A 
ATOM     84  C   UNL A   1      29.832  26.373  24.708  1.00  0.00     0.023 A 
ATOM     85  Br  UNL A   1      30.066  28.814  23.317  1.00  0.00    -0.048 Br
ATOM     86  F   UNL A   1      31.802  24.523  27.088  1.00  0.00    -0.185 F 
ATOM     87  C   UNL A   1      30.235  25.350  25.564  1.00  0.00     0.061 A 
ENDBRANCH  78  80
ENDBRANCH  77  78
ENDBRANCH  76  77
ENDBRANCH  75  76
ENDBRANCH  74  75
ENDBRANCH  73  74
ENDBRANCH  72  73
ENDBRANCH  71  72
ENDBRANCH  70  71
ENDBRANCH   1  70
TORSDOF 23
ENDMDL
MODEL 2
REMARK VINA RESULT:      -8.8      4.056      5.150
REMARK SMILES O=C(OCCOCCOCCOCCOC(=O)c1nc(F)ccc1Br)c1ccc(-c2c3nc(c(-c4ccc(S(=O)(=O)[O-])cc4)c4ccc([nH]4)c(-c4ccc(S(=O)(=O)[O-])cc4)c4nc(c(-c5ccc(S(=O)(=O)[O-])cc5)c5ccc2[nH]5)C=C4)C=C3)cc1
REMARK SMILES IDX 7 1 6 2 5 3 4 4 3 5 2 6 1 7 26 8 27 9 85 10 28 11 84 12
REMARK SMILES IDX 29 13 30 14 31 15 78 16 32 17 83 18 77 19 79 20 33 21 82 22
REMARK SMILES IDX 76 23 75 24 34 26 64 27 45 28 63 29 46 30 49 31 62 32 80 33
REMARK SMILES IDX 47 34 48 35 61 37 81 38 50 39 35 40 36 41 44 42 37 43 43 44
REMARK SMILES IDX 38 45 39 46 40 47 41 48 42 49 65 50 66 51 74 52 67 53 73 54
REMARK SMILES IDX 68 55 69 56 70 57 71 58 72 59 51 60 52 61 60 62 53 63 59 64
REMARK SMILES IDX 54 65 55 66 56 67 57 68 58 69 8 70 9 71 10 72 11 73 12 74
REMARK SMILES IDX 13 75 14 76 15 77 16 78 17 79 18 80 19 81 24 82 20 83 23 84
REMARK SMILES IDX 25 85 21 86 22 87
REMARK H PARENT 79 25 49 36
REMARK Flexibility Score: inf
ROOT
ATOM      1  C   UNL A   1      37.377  22.093  24.867  1.00  0.00     0.188 C 
ENDROOT
BRANCH   1   2
ATOM      2  O   UNL A   1      37.959  22.118  26.177  1.00  0.00    -0.376 OA
BRANCH   2   3
ATOM      3  C   UNL A   1      39.382  22.153  26.189  1.00  0.00     0.202 C 
BRANCH   3   4
ATOM      4  C   UNL A   1      39.979  23.178  27.150  1.00  0.00     0.261 C 
BRANCH   4   5
ATOM      5  O   UNL A   1      39.348  24.462  27.068  1.00  0.00    -0.460 OA
BRANCH   5   6
ATOM      6  C   UNL A   1      39.915  25.688  26.972  1.00  0.00     0.338 C 
ATOM      7  O   UNL A   1      40.496  25.948  25.915  1.00  0.00    -0.246 OA
BRANCH   6   8
ATOM      8  C   UNL A   1      39.951  26.736  28.058  1.00  0.00     0.060 A 
ATOM      9  C   UNL A   1      39.146  26.482  29.189  1.00  0.00     0.016 A 
ATOM     10  C   UNL A   1      40.685  27.925  28.059  1.00  0.00     0.016 A 
ATOM     11  C   UNL A   1      39.103  27.360  30.279  1.00  0.00     0.010 A 
ATOM     12  C   UNL A   1      40.642  28.814  29.137  1.00  0.00     0.010 A 
ATOM     13  C   UNL A   1      39.868  28.526  30.261  1.00  0.00    -0.014 A 
BRANCH  13  14
ATOM     14  C   UNL A   1      40.039  29.363  31.466  1.00  0.00     0.031 A 
ATOM     15  C   UNL A   1      41.071  29.042  32.501  1.00  0.00     0.074 A 
ATOM     16  C   UNL A   1      39.144  30.352  31.653  1.00  0.00     0.049 A 
ATOM     17  N   UNL A   1      41.308  29.661  33.627  1.00  0.00    -0.248 NA
ATOM     18  C   UNL A   1      41.943  27.883  32.253  1.00  0.00     0.031 C 
ATOM     19  C   UNL A   1      38.067  30.688  30.714  1.00  0.00     0.029 A 
ATOM     20  N   UNL A   1      38.961  31.222  32.694  1.00  0.00    -0.354 N 
ATOM     21  C   UNL A   1      42.374  28.990  34.212  1.00  0.00     0.074 A 
ATOM     22  C   UNL A   1      42.713  27.888  33.338  1.00  0.00     0.031 C 
ATOM     23  C   UNL A   1      37.313  31.662  31.242  1.00  0.00     0.029 A 
ATOM     24  C   UNL A   1      37.848  32.017  32.553  1.00  0.00     0.049 A 
ATOM     25  H   UNL A   1      39.567  31.273  33.469  1.00  0.00     0.167 HD
ATOM     26  C   UNL A   1      43.009  29.292  35.369  1.00  0.00     0.031 A 
ATOM     27  C   UNL A   1      37.306  32.924  33.388  1.00  0.00     0.031 A 
ATOM     28  C   UNL A   1      42.624  30.387  36.226  1.00  0.00     0.049 A 
ATOM     29  C   UNL A   1      38.020  33.231  34.670  1.00  0.00     0.074 A 
ATOM     30  C   UNL A   1      43.246  30.824  37.382  1.00  0.00     0.029 A 
ATOM     31  N   UNL A   1      41.518  31.202  36.032  1.00  0.00    -0.354 N 
ATOM     32  N   UNL A   1      39.102  32.668  35.152  1.00  0.00    -0.248 NA
ATOM     33  C   UNL A   1      37.475  34.309  35.506  1.00  0.00     0.031 C 
ATOM     34  C   UNL A   1      42.480  31.856  37.924  1.00  0.00     0.029 A 
ATOM     35  C   UNL A   1      41.420  32.116  37.067  1.00  0.00     0.049 A 
ATOM     36  H   UNL A   1      40.896  31.140  35.272  1.00  0.00     0.167 HD
ATOM     37  C   UNL A   1      39.382  33.334  36.335  1.00  0.00     0.074 A 
ATOM     38  C   UNL A   1      38.361  34.352  36.494  1.00  0.00     0.031 C 
ATOM     39  C   UNL A   1      40.397  33.123  37.207  1.00  0.00     0.031 A 
BRANCH  26  40
ATOM     40  C   UNL A   1      44.212  28.484  35.785  1.00  0.00    -0.014 A 
ATOM     41  C   UNL A   1      45.403  28.557  35.036  1.00  0.00     0.010 A 
ATOM     42  C   UNL A   1      44.092  27.500  36.782  1.00  0.00     0.010 A 
ATOM     43  C   UNL A   1      46.426  27.625  35.237  1.00  0.00     0.020 A 
ATOM     44  C   UNL A   1      45.123  26.579  37.000  1.00  0.00     0.020 A 
ATOM     45  C   UNL A   1      46.270  26.628  36.204  1.00  0.00     0.054 A 
BRANCH  45  46
ATOM     46  S   UNL A   1      47.564  25.368  36.381  1.00  0.00     0.124 S 
ATOM     47  O   UNL A   1      46.955  24.426  37.314  1.00  0.00    -0.237 OA
ATOM     48  O   UNL A   1      47.727  24.885  35.011  1.00  0.00    -0.237 OA
ATOM     49  O   UNL A   1      48.704  26.118  36.905  1.00  0.00    -0.744 OA
ENDBRANCH  45  46
ENDBRANCH  26  40
BRANCH  27  50
ATOM     50  C   UNL A   1      36.051  33.609  32.982  1.00  0.00    -0.014 A 
ATOM     51  C   UNL A   1      36.100  34.913  32.450  1.00  0.00     0.010 A 
ATOM     52  C   UNL A   1      34.801  33.026  33.247  1.00  0.00     0.010 A 
ATOM     53  C   UNL A   1      34.925  35.641  32.245  1.00  0.00     0.020 A 
ATOM     54  C   UNL A   1      33.621  33.743  33.018  1.00  0.00     0.020 A 
ATOM     55  C   UNL A   1      33.694  35.057  32.548  1.00  0.00     0.054 A 
BRANCH  55  56
ATOM     56  S   UNL A   1      32.184  36.044  32.340  1.00  0.00     0.124 S 
ATOM     57  O   UNL A   1      32.417  37.144  33.273  1.00  0.00    -0.237 OA
ATOM     58  O   UNL A   1      32.226  36.400  30.924  1.00  0.00    -0.237 OA
ATOM     59  O   UNL A   1      31.118  35.119  32.716  1.00  0.00    -0.744 OA
ENDBRANCH  55  56
ENDBRANCH  27  50
BRANCH  39  60
ATOM     60  C   UNL A   1      40.477  33.993  38.432  1.00  0.00    -0.014 A 
ATOM     61  C   UNL A   1      39.727  33.653  39.574  1.00  0.00     0.010 A 
ATOM     62  C   UNL A   1      41.136  35.232  38.381  1.00  0.00     0.010 A 
ATOM     63  C   UNL A   1      39.587  34.565  40.621  1.00  0.00     0.020 A 
ATOM     64  C   UNL A   1      41.019  36.136  39.439  1.00  0.00     0.020 A 
ATOM     65  C   UNL A   1      40.218  35.810  40.537  1.00  0.00     0.054 A 
BRANCH  65  66
ATOM     66  S   UNL A   1      39.953  37.015  41.866  1.00  0.00     0.124 S 
ATOM     67  O   UNL A   1      41.319  37.350  42.254  1.00  0.00    -0.237 OA
ATOM     68  O   UNL A   1      39.211  38.077  41.191  1.00  0.00    -0.237 OA
ATOM     69  O   UNL A   1      39.186  36.266  42.859  1.00  0.00    -0.744 OA
ENDBRANCH  65  66
ENDBRANCH  39  60
ENDBRANCH  13  14
ENDBRANCH   6   8
ENDBRANCH   5   6
ENDBRANCH   4   5
ENDBRANCH   3   4
ENDBRANCH   2   3
ENDBRANCH   1   2
BRANCH   1  70
ATOM     70  C   UNL A   1      36.278  21.038  24.787  1.00  0.00     0.188 C 
BRANCH  70  71
ATOM     71  O   UNL A   1      34.957  21.561  24.894  1.00  0.00    -0.377 OA
BRANCH  71  72
ATOM     72  C   UNL A   1      34.335  21.499  26.171  1.00  0.00     0.188 C 
BRANCH  72  73
ATOM     73  C   UNL A   1      33.623  22.751  26.720  1.00  0.00     0.188 C 
BRANCH  73  74
ATOM     74  O   UNL A   1      32.292  22.921  26.250  1.00  0.00    -0.376 OA
BRANCH  74  75
ATOM     75  C   UNL A   1      31.528  23.913  26.929  1.00  0.00     0.202 C 
BRANCH  75  76
ATOM     76  C   UNL A   1      30.188  24.207  26.252  1.00  0.00     0.261 C 
BRANCH  76  77
ATOM     77  O   UNL A   1      30.126  25.497  25.620  1.00  0.00    -0.458 OA
BRANCH  77  78
ATOM     78  C   UNL A   1      30.740  25.667  24.424  1.00  0.00     0.358 C 
ATOM     79  O   UNL A   1      30.510  25.058  23.394  1.00  0.00    -0.244 OA
BRANCH  78  80
ATOM     80  C   UNL A   1      31.648  26.845  24.573  1.00  0.00     0.165 A 
ATOM     81  N   UNL A   1      31.022  28.016  24.892  1.00  0.00    -0.211 NA
ATOM     82  C   UNL A   1      32.999  26.773  24.224  1.00  0.00     0.051 A 
ATOM     83  C   UNL A   1      31.754  29.141  24.822  1.00  0.00     0.213 A 
ATOM     84  C   UNL A   1      33.721  27.968  24.160  1.00  0.00     0.023 A 
ATOM     85  Br  UNL A   1      33.906  25.187  23.731  1.00  0.00    -0.048 Br
ATOM     86  F   UNL A   1      31.147  30.299  25.112  1.00  0.00    -0.185 F 
ATOM     87  C   UNL A   1      33.086  29.172  24.454  1.00  0.00     0.061 A 
ENDBRANCH  78  80
ENDBRANCH  77  78
ENDBRANCH  76  77
ENDBRANCH  75  76
ENDBRANCH  74  75
ENDBRANCH  73  74
ENDBRANCH  72  73
ENDBRANCH  71  72
ENDBRANCH  70  71
ENDBRANCH   1  70
TORSDOF 23
ENDMDL
MODEL 3
REMARK VINA RESULT:      -8.7      5.525     11.169
REMARK SMILES O=C(OCCOCCOCCOCCOC(=O)c1nc(F)ccc1Br)c1ccc(-c2c3nc(c(-c4ccc(S(=O)(=O)[O-])cc4)c4ccc([nH]4)c(-c4ccc(S(=O)(=O)[O-])cc4)c4nc(c(-c5ccc(S(=O)(=O)[O-])cc5)c5ccc2[nH]5)C=C4)C=C3)cc1
REMARK SMILES IDX 7 1 6 2 5 3 4 4 3 5 2 6 1 7 26 8 27 9 85 10 28 11 84 12
REMARK SMILES IDX 29 13 30 14 31 15 78 16 32 17 83 18 77 19 79 20 33 21 82 22
REMARK SMILES IDX 76 23 75 24 34 26 64 27 45 28 63 29 46 30 49 31 62 32 80 33
REMARK SMILES IDX 47 34 48 35 61 37 81 38 50 39 35 40 36 41 44 42 37 43 43 44
REMARK SMILES IDX 38 45 39 46 40 47 41 48 42 49 65 50 66 51 74 52 67 53 73 54
REMARK SMILES IDX 68 55 69 56 70 57 71 58 72 59 51 60 52 61 60 62 53 63 59 64
REMARK SMILES IDX 54 65 55 66 56 67 57 68 58 69 8 70 9 71 10 72 11 73 12 74
REMARK SMILES IDX 13 75 14 76 15 77 16 78 17 79 18 80 19 81 24 82 20 83 23 84
REMARK SMILES IDX 25 85 21 86 22 87
REMARK H PARENT 79 25 49 36
REMARK Flexibility Score: inf
ROOT
ATOM      1  C   UNL A   1      43.345  23.882  24.849  1.00  0.00     0.188 C 
ENDROOT
BRANCH   1   2
ATOM      2  O   UNL A   1      44.432  24.783  25.099  1.00  0.00    -0.376 OA
BRANCH   2   3
ATOM      3  C   UNL A   1      44.128  25.834  26.011  1.00  0.00     0.202 C 
BRANCH   3   4
ATOM      4  C   UNL A   1      43.266  26.948  25.421  1.00  0.00     0.261 C 
BRANCH   4   5
ATOM      5  O   UNL A   1      41.902  26.561  25.221  1.00  0.00    -0.460 OA
BRANCH   5   6
ATOM      6  C   UNL A   1      40.924  26.369  26.140  1.00  0.00     0.338 C 
ATOM      7  O   UNL A   1      40.152  25.430  25.937  1.00  0.00    -0.246 OA
BRANCH   6   8
ATOM      8  C   UNL A   1      40.662  27.235  27.348  1.00  0.00     0.060 A 
ATOM      9  C   UNL A   1      39.938  26.628  28.397  1.00  0.00     0.016 A 
ATOM     10  C   UNL A   1      41.049  28.564  27.534  1.00  0.00     0.016 A 
ATOM     11  C   UNL A   1      39.644  27.310  29.585  1.00  0.00     0.010 A 
ATOM     12  C   UNL A   1      40.753  29.258  28.711  1.00  0.00     0.010 A 
ATOM     13  C   UNL A   1      40.069  28.628  29.751  1.00  0.00    -0.014 A 
BRANCH  13  14
ATOM     14  C   UNL A   1      39.991  29.312  31.057  1.00  0.00     0.031 A 
ATOM     15  C   UNL A   1      38.953  30.353  31.334  1.00  0.00     0.074 A 
ATOM     16  C   UNL A   1      40.971  29.047  31.943  1.00  0.00     0.049 A 
ATOM     17  N   UNL A   1      38.789  31.065  32.417  1.00  0.00    -0.248 NA
ATOM     18  C   UNL A   1      37.980  30.642  30.268  1.00  0.00     0.031 C 
ATOM     19  C   UNL A   1      42.056  28.085  31.720  1.00  0.00     0.029 A 
ATOM     20  N   UNL A   1      41.246  29.580  33.174  1.00  0.00    -0.354 N 
ATOM     21  C   UNL A   1      37.680  31.867  32.181  1.00  0.00     0.074 A 
ATOM     22  C   UNL A   1      37.232  31.586  30.834  1.00  0.00     0.031 C 
ATOM     23  C   UNL A   1      42.900  28.128  32.760  1.00  0.00     0.029 A 
ATOM     24  C   UNL A   1      42.420  29.117  33.719  1.00  0.00     0.049 A 
ATOM     25  H   UNL A   1      40.659  30.229  33.625  1.00  0.00     0.167 HD
ATOM     26  C   UNL A   1      37.092  32.741  33.031  1.00  0.00     0.031 A 
ATOM     27  C   UNL A   1      43.052  29.458  34.859  1.00  0.00     0.031 A 
ATOM     28  C   UNL A   1      37.585  33.011  34.360  1.00  0.00     0.049 A 
ATOM     29  C   UNL A   1      42.389  30.439  35.778  1.00  0.00     0.074 A 
ATOM     30  C   UNL A   1      37.022  33.824  35.329  1.00  0.00     0.029 A 
ATOM     31  N   UNL A   1      38.753  32.493  34.899  1.00  0.00    -0.354 N 
ATOM     32  N   UNL A   1      41.271  31.099  35.591  1.00  0.00    -0.248 NA
ATOM     33  C   UNL A   1      43.039  30.703  37.068  1.00  0.00     0.031 C 
ATOM     34  C   UNL A   1      37.883  33.852  36.426  1.00  0.00     0.029 A 
ATOM     35  C   UNL A   1      38.946  32.997  36.174  1.00  0.00     0.049 A 
ATOM     36  H   UNL A   1      39.355  31.861  34.445  1.00  0.00     0.167 HD
ATOM     37  C   UNL A   1      41.069  31.840  36.746  1.00  0.00     0.074 A 
ATOM     38  C   UNL A   1      42.177  31.540  37.633  1.00  0.00     0.031 C 
ATOM     39  C   UNL A   1      40.055  32.687  37.043  1.00  0.00     0.031 A 
BRANCH  26  40
ATOM     40  C   UNL A   1      35.832  33.451  32.608  1.00  0.00    -0.014 A 
ATOM     41  C   UNL A   1      35.908  34.589  31.782  1.00  0.00     0.010 A 
ATOM     42  C   UNL A   1      34.600  33.120  33.202  1.00  0.00     0.010 A 
ATOM     43  C   UNL A   1      34.792  35.414  31.603  1.00  0.00     0.020 A 
ATOM     44  C   UNL A   1      33.477  33.931  33.008  1.00  0.00     0.020 A 
ATOM     45  C   UNL A   1      33.589  35.090  32.236  1.00  0.00     0.054 A 
BRANCH  45  46
ATOM     46  S   UNL A   1      32.181  36.225  32.075  1.00  0.00     0.124 S 
ATOM     47  O   UNL A   1      32.316  36.693  30.699  1.00  0.00    -0.237 OA
ATOM     48  O   UNL A   1      31.039  35.352  32.336  1.00  0.00    -0.237 OA
ATOM     49  O   UNL A   1      32.432  37.232  33.105  1.00  0.00    -0.744 OA
ENDBRANCH  45  46
ENDBRANCH  26  40
BRANCH  27  50
ATOM     50  C   UNL A   1      44.355  28.814  35.174  1.00  0.00    -0.014 A 
ATOM     51  C   UNL A   1      44.459  27.934  36.269  1.00  0.00     0.010 A 
ATOM     52  C   UNL A   1      45.518  29.176  34.475  1.00  0.00     0.010 A 
ATOM     53  C   UNL A   1      45.708  27.474  36.694  1.00  0.00     0.020 A 
ATOM     54  C   UNL A   1      46.768  28.697  34.882  1.00  0.00     0.020 A 
ATOM     55  C   UNL A   1      46.857  27.873  36.008  1.00  0.00     0.054 A 
BRANCH  55  56
ATOM     56  S   UNL A   1      48.475  27.321  36.618  1.00  0.00     0.124 S 
ATOM     57  O   UNL A   1      48.429  25.890  36.329  1.00  0.00    -0.237 OA
ATOM     58  O   UNL A   1      49.406  28.097  35.803  1.00  0.00    -0.237 OA
ATOM     59  O   UNL A   1      48.444  27.676  38.034  1.00  0.00    -0.744 OA
ENDBRANCH  55  56
ENDBRANCH  27  50
BRANCH  39  60
ATOM     60  C   UNL A   1      40.071  33.376  38.381  1.00  0.00    -0.014 A 
ATOM     61  C   UNL A   1      39.219  32.921  39.405  1.00  0.00     0.010 A 
ATOM     62  C   UNL A   1      40.780  34.576  38.553  1.00  0.00     0.010 A 
ATOM     63  C   UNL A   1      39.031  33.687  40.556  1.00  0.00     0.020 A 
ATOM     64  C   UNL A   1      40.614  35.331  39.716  1.00  0.00     0.020 A 
ATOM     65  C   UNL A   1      39.715  34.898  40.695  1.00  0.00     0.054 A 
BRANCH  65  66
ATOM     66  S   UNL A   1      39.391  35.922  42.156  1.00  0.00     0.124 S 
ATOM     67  O   UNL A   1      38.321  36.798  41.686  1.00  0.00    -0.237 OA
ATOM     68  O   UNL A   1      39.002  34.935  43.159  1.00  0.00    -0.237 OA
ATOM     69  O   UNL A   1      40.672  36.579  42.405  1.00  0.00    -0.744 OA
ENDBRANCH  65  66
ENDBRANCH  39  60
ENDBRANCH  13  14
ENDBRANCH   6   8
ENDBRANCH   5   6
ENDBRANCH   4   5
ENDBRANCH   3   4
ENDBRANCH   2   3
ENDBRANCH   1   2
BRANCH   1  70
ATOM     70  C   UNL A   1      43.825  22.435  24.893  1.00  0.00     0.188 C 
BRANCH  70  71
ATOM     71  O   UNL A   1      45.088  22.258  25.526  1.00  0.00    -0.377 OA
BRANCH  71  72
ATOM     72  C   UNL A   1      46.095  21.575  24.790  1.00  0.00     0.188 C 
BRANCH  72  73
ATOM     73  C   UNL A   1      46.376  20.092  25.101  1.00  0.00     0.188 C 
BRANCH  73  74
ATOM     74  O   UNL A   1      46.010  19.195  24.061  1.00  0.00    -0.376 OA
BRANCH  74  75
ATOM     75  C   UNL A   1      44.611  18.992  23.895  1.00  0.00     0.202 C 
BRANCH  75  76
ATOM     76  C   UNL A   1      43.892  18.663  25.205  1.00  0.00     0.261 C 
BRANCH  76  77
ATOM     77  O   UNL A   1      42.828  19.574  25.530  1.00  0.00    -0.458 OA
BRANCH  77  78
ATOM     78  C   UNL A   1      42.098  19.351  26.649  1.00  0.00     0.358 C 
ATOM     79  O   UNL A   1      42.463  18.759  27.650  1.00  0.00    -0.244 OA
BRANCH  78  80
ATOM     80  C   UNL A   1      40.816  20.100  26.480  1.00  0.00     0.165 A 
ATOM     81  N   UNL A   1      39.870  19.459  25.733  1.00  0.00    -0.211 NA
ATOM     82  C   UNL A   1      40.686  21.427  26.900  1.00  0.00     0.051 A 
ATOM     83  C   UNL A   1      38.792  20.173  25.366  1.00  0.00     0.213 A 
ATOM     84  C   UNL A   1      39.551  22.133  26.492  1.00  0.00     0.023 A 
ATOM     85  Br  UNL A   1      41.983  22.379  27.897  1.00  0.00    -0.048 Br
ATOM     86  F   UNL A   1      37.866  19.562  24.616  1.00  0.00    -0.185 F 
ATOM     87  C   UNL A   1      38.592  21.498  25.705  1.00  0.00     0.061 A 
ENDBRANCH  78  80
ENDBRANCH  77  78
ENDBRANCH  76  77
ENDBRANCH  75  76
ENDBRANCH  74  75
ENDBRANCH  73  74
ENDBRANCH  72  73
ENDBRANCH  71  72
ENDBRANCH  70  71
ENDBRANCH   1  70
TORSDOF 23
ENDMDL
