MODEL 1
REMARK VINA RESULT:      -9.5      0.000      0.000
REMARK SMILES C[C@@H](O)[C@@H](NC(=O)Nc1ccc(F)cc1F)C(=O)OCCOCCOCCOCCOC(=O)c1ccc(-c2c3nc(c(-c4ccc(S(=O)(=O)[O-])cc4)c4ccc([nH]4)c(-c4ccc(S(=O)(=O)[O-])cc4)c4nc(c(-c5ccc(S(=O)(=O)[O-])cc5)c5ccc2[nH]5)C=C4)C=C3)cc1
REMARK SMILES IDX 26 1 25 2 24 3 23 4 22 5 21 6 20 7 19 8 17 9 18 10 4 11 2 12
REMARK SMILES IDX 1 13 3 14 5 16 6 17 7 19 8 20 9 22 10 23 15 24 11 25 14 26
REMARK SMILES IDX 16 27 12 28 13 29 27 30 28 31 29 32 30 33 31 34 32 35 33 36
REMARK SMILES IDX 34 37 35 38 93 39 36 40 92 41 37 42 38 43 39 44 86 45 40 46
REMARK SMILES IDX 91 47 85 48 87 49 41 50 90 51 84 52 83 53 42 55 72 56 53 57
REMARK SMILES IDX 71 58 54 59 57 60 70 61 88 62 55 63 56 64 69 66 89 67 58 68
REMARK SMILES IDX 43 69 44 70 52 71 45 72 51 73 46 74 47 75 48 76 49 77 50 78
REMARK SMILES IDX 73 79 74 80 82 81 75 82 81 83 76 84 77 85 78 86 79 87 80 88
REMARK SMILES IDX 59 89 60 90 68 91 61 92 67 93 62 94 63 95 64 96 65 97 66 98
REMARK H PARENT 3 15 5 18 8 21 87 54 57 65
REMARK Flexibility Score: inf
ROOT
ATOM      1  C   UNL A   1      40.301  20.992  26.714  1.00  0.00     0.188 C 
ENDROOT
BRANCH   1   2
ATOM      2  O   UNL A   1      40.038  22.358  26.967  1.00  0.00    -0.377 OA
BRANCH   2   3
ATOM      3  C   UNL A   1      38.858  22.904  26.389  1.00  0.00     0.188 C 
BRANCH   3   4
ATOM      4  C   UNL A   1      37.982  22.046  25.456  1.00  0.00     0.188 C 
BRANCH   4   5
ATOM      5  O   UNL A   1      37.108  22.794  24.605  1.00  0.00    -0.376 OA
BRANCH   5   6
ATOM      6  C   UNL A   1      36.400  23.914  25.110  1.00  0.00     0.202 C 
BRANCH   6   7
ATOM      7  C   UNL A   1      34.950  24.110  24.606  1.00  0.00     0.261 C 
BRANCH   7   8
ATOM      8  O   UNL A   1      34.647  24.559  23.261  1.00  0.00    -0.462 OA
BRANCH   8   9
ATOM      9  C   UNL A   1      33.371  24.677  22.856  1.00  0.00     0.331 C 
ATOM     10  O   UNL A   1      32.805  23.869  22.135  1.00  0.00    -0.250 OA
BRANCH   9  11
ATOM     11  C   UNL A   1      32.642  25.925  23.310  1.00  0.00     0.222 C 
BRANCH  11  12
ATOM     12  C   UNL A   1      32.973  27.086  22.329  1.00  0.00     0.145 C 
ATOM     13  C   UNL A   1      34.057  28.028  22.843  1.00  0.00     0.041 C 
BRANCH  12  14
ATOM     14  O   UNL A   1      33.498  26.533  21.112  1.00  0.00    -0.391 OA
ATOM     15  H   UNL A   1      34.321  26.988  20.879  1.00  0.00     0.211 HD
ENDBRANCH  12  14
ENDBRANCH  11  12
BRANCH  11  16
ATOM     16  N   UNL A   1      31.210  25.686  23.531  1.00  0.00    -0.322 N 
ATOM     17  C   UNL A   1      30.302  26.173  24.408  1.00  0.00     0.320 C 
ATOM     18  H   UNL A   1      30.828  25.028  22.907  1.00  0.00     0.166 HD
ATOM     19  O   UNL A   1      29.124  25.874  24.205  1.00  0.00    -0.248 OA
ATOM     20  N   UNL A   1      30.663  26.688  25.601  1.00  0.00    -0.305 N 
ATOM     21  H   UNL A   1      30.344  26.165  26.371  1.00  0.00     0.171 HD
BRANCH  20  22
ATOM     22  C   UNL A   1      31.410  27.826  25.960  1.00  0.00     0.079 A 
ATOM     23  C   UNL A   1      32.241  27.895  27.079  1.00  0.00     0.032 A 
ATOM     24  C   UNL A   1      31.230  28.981  25.174  1.00  0.00     0.149 A 
ATOM     25  C   UNL A   1      32.778  29.133  27.463  1.00  0.00     0.041 A 
ATOM     26  C   UNL A   1      31.753  30.212  25.553  1.00  0.00     0.080 A 
ATOM     27  F   UNL A   1      30.420  28.932  24.103  1.00  0.00    -0.205 F 
ATOM     28  C   UNL A   1      32.504  30.280  26.716  1.00  0.00     0.126 A 
ATOM     29  F   UNL A   1      32.947  31.470  27.145  1.00  0.00    -0.207 F 
ENDBRANCH  20  22
ENDBRANCH  11  16
ENDBRANCH   9  11
ENDBRANCH   8   9
ENDBRANCH   7   8
ENDBRANCH   6   7
ENDBRANCH   5   6
ENDBRANCH   4   5
ENDBRANCH   3   4
ENDBRANCH   2   3
ENDBRANCH   1   2
BRANCH   1  30
ATOM     30  C   UNL A   1      41.740  20.732  26.242  1.00  0.00     0.188 C 
BRANCH  30  31
ATOM     31  O   UNL A   1      42.379  21.649  25.369  1.00  0.00    -0.376 OA
BRANCH  31  32
ATOM     32  C   UNL A   1      43.158  22.731  25.839  1.00  0.00     0.202 C 
BRANCH  32  33
ATOM     33  C   UNL A   1      43.154  24.149  25.230  1.00  0.00     0.261 C 
BRANCH  33  34
ATOM     34  O   UNL A   1      42.491  25.203  25.920  1.00  0.00    -0.460 OA
BRANCH  34  35
ATOM     35  C   UNL A   1      43.125  26.399  26.006  1.00  0.00     0.338 C 
ATOM     36  O   UNL A   1      43.929  26.856  25.233  1.00  0.00    -0.246 OA
BRANCH  35  37
ATOM     37  C   UNL A   1      42.456  27.144  27.114  1.00  0.00     0.060 A 
ATOM     38  C   UNL A   1      42.672  28.526  27.226  1.00  0.00     0.016 A 
ATOM     39  C   UNL A   1      41.565  26.500  27.980  1.00  0.00     0.016 A 
ATOM     40  C   UNL A   1      42.028  29.262  28.221  1.00  0.00     0.010 A 
ATOM     41  C   UNL A   1      40.961  27.225  29.010  1.00  0.00     0.010 A 
ATOM     42  C   UNL A   1      41.235  28.596  29.163  1.00  0.00    -0.014 A 
BRANCH  42  43
ATOM     43  C   UNL A   1      41.045  29.210  30.497  1.00  0.00     0.031 A 
ATOM     44  C   UNL A   1      39.938  30.231  30.603  1.00  0.00     0.074 A 
ATOM     45  C   UNL A   1      41.799  28.900  31.566  1.00  0.00     0.049 A 
ATOM     46  N   UNL A   1      39.613  31.006  31.602  1.00  0.00    -0.248 NA
ATOM     47  C   UNL A   1      39.086  30.400  29.410  1.00  0.00     0.031 C 
ATOM     48  C   UNL A   1      42.845  27.881  31.609  1.00  0.00     0.029 A 
ATOM     49  N   UNL A   1      41.795  29.433  32.831  1.00  0.00    -0.354 N 
ATOM     50  C   UNL A   1      38.527  31.750  31.156  1.00  0.00     0.074 A 
ATOM     51  C   UNL A   1      38.258  31.356  29.794  1.00  0.00     0.031 C 
ATOM     52  C   UNL A   1      43.394  27.874  32.839  1.00  0.00     0.029 A 
ATOM     53  C   UNL A   1      42.765  28.913  33.655  1.00  0.00     0.049 A 
ATOM     54  H   UNL A   1      41.157  30.123  33.122  1.00  0.00     0.167 HD
ATOM     55  C   UNL A   1      37.813  32.688  31.816  1.00  0.00     0.031 A 
ATOM     56  C   UNL A   1      43.114  29.262  34.910  1.00  0.00     0.031 A 
ATOM     57  C   UNL A   1      38.104  33.111  33.154  1.00  0.00     0.049 A 
ATOM     58  C   UNL A   1      42.369  30.385  35.594  1.00  0.00     0.074 A 
ATOM     59  C   UNL A   1      37.477  34.087  33.904  1.00  0.00     0.029 A 
ATOM     60  N   UNL A   1      39.116  32.580  33.938  1.00  0.00    -0.354 N 
ATOM     61  N   UNL A   1      41.357  31.095  35.153  1.00  0.00    -0.248 NA
ATOM     62  C   UNL A   1      42.816  30.755  36.946  1.00  0.00     0.031 C 
ATOM     63  C   UNL A   1      38.137  34.173  35.134  1.00  0.00     0.029 A 
ATOM     64  C   UNL A   1      39.136  33.213  35.165  1.00  0.00     0.049 A 
ATOM     65  H   UNL A   1      39.729  31.861  33.662  1.00  0.00     0.167 HD
ATOM     66  C   UNL A   1      41.022  31.964  36.188  1.00  0.00     0.074 A 
ATOM     67  C   UNL A   1      41.937  31.692  37.277  1.00  0.00     0.031 C 
ATOM     68  C   UNL A   1      40.042  32.901  36.239  1.00  0.00     0.031 A 
BRANCH  55  69
ATOM     69  C   UNL A   1      36.681  33.336  31.074  1.00  0.00    -0.014 A 
ATOM     70  C   UNL A   1      36.871  33.862  29.782  1.00  0.00     0.010 A 
ATOM     71  C   UNL A   1      35.412  33.423  31.672  1.00  0.00     0.010 A 
ATOM     72  C   UNL A   1      35.817  34.489  29.115  1.00  0.00     0.020 A 
ATOM     73  C   UNL A   1      34.350  34.027  30.998  1.00  0.00     0.020 A 
ATOM     74  C   UNL A   1      34.563  34.570  29.727  1.00  0.00     0.054 A 
BRANCH  74  75
ATOM     75  S   UNL A   1      33.203  35.361  28.826  1.00  0.00     0.124 S 
ATOM     76  O   UNL A   1      33.915  36.334  28.002  1.00  0.00    -0.237 OA
ATOM     77  O   UNL A   1      32.604  34.243  28.102  1.00  0.00    -0.237 OA
ATOM     78  O   UNL A   1      32.372  35.931  29.884  1.00  0.00    -0.744 OA
ENDBRANCH  74  75
ENDBRANCH  55  69
BRANCH  56  79
ATOM     79  C   UNL A   1      44.240  28.577  35.605  1.00  0.00    -0.014 A 
ATOM     80  C   UNL A   1      45.554  29.069  35.503  1.00  0.00     0.010 A 
ATOM     81  C   UNL A   1      44.012  27.396  36.336  1.00  0.00     0.010 A 
ATOM     82  C   UNL A   1      46.620  28.380  36.090  1.00  0.00     0.020 A 
ATOM     83  C   UNL A   1      45.072  26.719  36.948  1.00  0.00     0.020 A 
ATOM     84  C   UNL A   1      46.372  27.207  36.807  1.00  0.00     0.054 A 
BRANCH  84  85
ATOM     85  S   UNL A   1      47.765  26.340  37.583  1.00  0.00     0.124 S 
ATOM     86  O   UNL A   1      48.583  25.985  36.427  1.00  0.00    -0.237 OA
ATOM     87  O   UNL A   1      48.323  27.362  38.465  1.00  0.00    -0.237 OA
ATOM     88  O   UNL A   1      47.127  25.218  38.268  1.00  0.00    -0.744 OA
ENDBRANCH  84  85
ENDBRANCH  56  79
BRANCH  68  89
ATOM     89  C   UNL A   1      39.853  33.653  37.528  1.00  0.00    -0.014 A 
ATOM     90  C   UNL A   1      40.582  34.820  37.809  1.00  0.00     0.010 A 
ATOM     91  C   UNL A   1      38.851  33.233  38.423  1.00  0.00     0.010 A 
ATOM     92  C   UNL A   1      40.323  35.546  38.975  1.00  0.00     0.020 A 
ATOM     93  C   UNL A   1      38.573  33.969  39.576  1.00  0.00     0.020 A 
ATOM     94  C   UNL A   1      39.318  35.118  39.848  1.00  0.00     0.054 A 
BRANCH  94  95
ATOM     95  S   UNL A   1      38.953  36.115  41.319  1.00  0.00     0.124 S 
ATOM     96  O   UNL A   1      38.778  37.447  40.747  1.00  0.00    -0.237 OA
ATOM     97  O   UNL A   1      37.739  35.488  41.838  1.00  0.00    -0.237 OA
ATOM     98  O   UNL A   1      40.140  35.945  42.156  1.00  0.00    -0.744 OA
ENDBRANCH  94  95
ENDBRANCH  68  89
ENDBRANCH  42  43
ENDBRANCH  35  37
ENDBRANCH  34  35
ENDBRANCH  33  34
ENDBRANCH  32  33
ENDBRANCH  31  32
ENDBRANCH  30  31
ENDBRANCH   1  30
TORSDOF 27
ENDMDL
MODEL 2
REMARK VINA RESULT:      -9.4      2.700      8.992
REMARK SMILES C[C@@H](O)[C@@H](NC(=O)Nc1ccc(F)cc1F)C(=O)OCCOCCOCCOCCOC(=O)c1ccc(-c2c3nc(c(-c4ccc(S(=O)(=O)[O-])cc4)c4ccc([nH]4)c(-c4ccc(S(=O)(=O)[O-])cc4)c4nc(c(-c5ccc(S(=O)(=O)[O-])cc5)c5ccc2[nH]5)C=C4)C=C3)cc1
REMARK SMILES IDX 26 1 25 2 24 3 23 4 22 5 21 6 20 7 19 8 17 9 18 10 4 11 2 12
REMARK SMILES IDX 1 13 3 14 5 16 6 17 7 19 8 20 9 22 10 23 15 24 11 25 14 26
REMARK SMILES IDX 16 27 12 28 13 29 27 30 28 31 29 32 30 33 31 34 32 35 33 36
REMARK SMILES IDX 34 37 35 38 93 39 36 40 92 41 37 42 38 43 39 44 86 45 40 46
REMARK SMILES IDX 91 47 85 48 87 49 41 50 90 51 84 52 83 53 42 55 72 56 53 57
REMARK SMILES IDX 71 58 54 59 57 60 70 61 88 62 55 63 56 64 69 66 89 67 58 68
REMARK SMILES IDX 43 69 44 70 52 71 45 72 51 73 46 74 47 75 48 76 49 77 50 78
REMARK SMILES IDX 73 79 74 80 82 81 75 82 81 83 76 84 77 85 78 86 79 87 80 88
REMARK SMILES IDX 59 89 60 90 68 91 61 92 67 93 62 94 63 95 64 96 65 97 66 98
REMARK H PARENT 3 15 5 18 8 21 87 54 57 65
REMARK Flexibility Score: inf
ROOT
ATOM      1  C   UNL A   1      30.692  29.308  23.511  1.00  0.00     0.188 C 
ENDROOT
BRANCH   1   2
ATOM      2  O   UNL A   1      29.958  28.165  23.908  1.00  0.00    -0.377 OA
BRANCH   2   3
ATOM      3  C   UNL A   1      30.659  27.178  24.655  1.00  0.00     0.188 C 
BRANCH   3   4
ATOM      4  C   UNL A   1      29.967  25.852  25.029  1.00  0.00     0.188 C 
BRANCH   4   5
ATOM      5  O   UNL A   1      30.310  25.347  26.323  1.00  0.00    -0.376 OA
BRANCH   5   6
ATOM      6  C   UNL A   1      31.395  24.447  26.478  1.00  0.00     0.202 C 
BRANCH   6   7
ATOM      7  C   UNL A   1      31.044  22.985  26.840  1.00  0.00     0.261 C 
BRANCH   7   8
ATOM      8  O   UNL A   1      31.450  21.860  26.019  1.00  0.00    -0.462 OA
BRANCH   8   9
ATOM      9  C   UNL A   1      32.751  21.544  25.894  1.00  0.00     0.331 C 
ATOM     10  O   UNL A   1      33.603  21.814  26.727  1.00  0.00    -0.250 OA
BRANCH   9  11
ATOM     11  C   UNL A   1      33.146  20.847  24.608  1.00  0.00     0.222 C 
BRANCH  11  12
ATOM     12  C   UNL A   1      32.484  19.441  24.575  1.00  0.00     0.145 C 
ATOM     13  C   UNL A   1      33.304  18.398  23.822  1.00  0.00     0.041 C 
BRANCH  12  14
ATOM     14  O   UNL A   1      32.379  18.943  25.917  1.00  0.00    -0.391 OA
ATOM     15  H   UNL A   1      33.267  18.806  26.281  1.00  0.00     0.211 HD
ENDBRANCH  12  14
ENDBRANCH  11  12
BRANCH  11  16
ATOM     16  N   UNL A   1      32.900  21.680  23.424  1.00  0.00    -0.322 N 
ATOM     17  C   UNL A   1      33.566  22.704  22.841  1.00  0.00     0.320 C 
ATOM     18  H   UNL A   1      32.070  21.442  22.951  1.00  0.00     0.166 HD
ATOM     19  O   UNL A   1      33.155  23.074  21.740  1.00  0.00    -0.248 OA
ATOM     20  N   UNL A   1      34.420  23.486  23.532  1.00  0.00    -0.305 N 
ATOM     21  H   UNL A   1      34.123  24.421  23.615  1.00  0.00     0.171 HD
BRANCH  20  22
ATOM     22  C   UNL A   1      35.654  23.227  24.159  1.00  0.00     0.079 A 
ATOM     23  C   UNL A   1      36.500  22.172  23.812  1.00  0.00     0.032 A 
ATOM     24  C   UNL A   1      35.998  24.044  25.253  1.00  0.00     0.149 A 
ATOM     25  C   UNL A   1      37.602  21.876  24.629  1.00  0.00     0.041 A 
ATOM     26  C   UNL A   1      37.085  23.752  26.070  1.00  0.00     0.080 A 
ATOM     27  F   UNL A   1      35.184  25.053  25.606  1.00  0.00    -0.205 F 
ATOM     28  C   UNL A   1      37.864  22.648  25.762  1.00  0.00     0.126 A 
ATOM     29  F   UNL A   1      38.864  22.300  26.583  1.00  0.00    -0.207 F 
ENDBRANCH  20  22
ENDBRANCH  11  16
ENDBRANCH   9  11
ENDBRANCH   8   9
ENDBRANCH   7   8
ENDBRANCH   6   7
ENDBRANCH   5   6
ENDBRANCH   4   5
ENDBRANCH   3   4
ENDBRANCH   2   3
ENDBRANCH   1   2
BRANCH   1  30
ATOM     30  C   UNL A   1      31.874  29.620  24.442  1.00  0.00     0.188 C 
BRANCH  30  31
ATOM     31  O   UNL A   1      31.711  30.530  25.516  1.00  0.00    -0.376 OA
BRANCH  31  32
ATOM     32  C   UNL A   1      32.210  30.275  26.814  1.00  0.00     0.202 C 
BRANCH  32  33
ATOM     33  C   UNL A   1      33.496  30.893  27.401  1.00  0.00     0.261 C 
BRANCH  33  34
ATOM     34  O   UNL A   1      33.393  31.957  28.342  1.00  0.00    -0.460 OA
BRANCH  34  35
ATOM     35  C   UNL A   1      34.165  33.054  28.142  1.00  0.00     0.338 C 
ATOM     36  O   UNL A   1      33.966  33.956  27.367  1.00  0.00    -0.246 OA
BRANCH  35  37
ATOM     37  C   UNL A   1      35.182  33.049  29.235  1.00  0.00     0.060 A 
ATOM     38  C   UNL A   1      36.384  33.746  29.043  1.00  0.00     0.016 A 
ATOM     39  C   UNL A   1      34.917  32.432  30.463  1.00  0.00     0.016 A 
ATOM     40  C   UNL A   1      37.338  33.802  30.059  1.00  0.00     0.010 A 
ATOM     41  C   UNL A   1      35.892  32.440  31.463  1.00  0.00     0.010 A 
ATOM     42  C   UNL A   1      37.125  33.080  31.240  1.00  0.00    -0.014 A 
BRANCH  42  43
ATOM     43  C   UNL A   1      38.299  32.648  32.034  1.00  0.00     0.031 A 
ATOM     44  C   UNL A   1      39.132  31.542  31.432  1.00  0.00     0.074 A 
ATOM     45  C   UNL A   1      38.624  33.185  33.222  1.00  0.00     0.049 A 
ATOM     46  N   UNL A   1      40.142  30.890  31.942  1.00  0.00    -0.248 NA
ATOM     47  C   UNL A   1      38.769  31.116  30.066  1.00  0.00     0.031 C 
ATOM     48  C   UNL A   1      37.943  34.304  33.871  1.00  0.00     0.029 A 
ATOM     49  N   UNL A   1      39.622  32.842  34.100  1.00  0.00    -0.354 N 
ATOM     50  C   UNL A   1      40.526  29.980  30.963  1.00  0.00     0.074 A 
ATOM     51  C   UNL A   1      39.635  30.144  29.840  1.00  0.00     0.031 C 
ATOM     52  C   UNL A   1      38.537  34.544  35.056  1.00  0.00     0.029 A 
ATOM     53  C   UNL A   1      39.611  33.573  35.264  1.00  0.00     0.049 A 
ATOM     54  H   UNL A   1      40.283  32.138  33.914  1.00  0.00     0.167 HD
ATOM     55  C   UNL A   1      41.531  29.077  30.992  1.00  0.00     0.031 A 
ATOM     56  C   UNL A   1      40.367  33.446  36.374  1.00  0.00     0.031 A 
ATOM     57  C   UNL A   1      42.390  28.883  32.122  1.00  0.00     0.049 A 
ATOM     58  C   UNL A   1      41.418  32.361  36.427  1.00  0.00     0.074 A 
ATOM     59  C   UNL A   1      43.411  27.965  32.280  1.00  0.00     0.029 A 
ATOM     60  N   UNL A   1      42.322  29.623  33.291  1.00  0.00    -0.354 N 
ATOM     61  N   UNL A   1      41.758  31.494  35.502  1.00  0.00    -0.248 NA
ATOM     62  C   UNL A   1      42.187  32.238  37.675  1.00  0.00     0.031 C 
ATOM     63  C   UNL A   1      43.937  28.125  33.565  1.00  0.00     0.029 A 
ATOM     64  C   UNL A   1      43.280  29.179  34.182  1.00  0.00     0.049 A 
ATOM     65  H   UNL A   1      41.687  30.356  33.462  1.00  0.00     0.167 HD
ATOM     66  C   UNL A   1      42.805  30.753  36.043  1.00  0.00     0.074 A 
ATOM     67  C   UNL A   1      43.044  31.272  37.372  1.00  0.00     0.031 C 
ATOM     68  C   UNL A   1      43.512  29.735  35.489  1.00  0.00     0.031 A 
BRANCH  55  69
ATOM     69  C   UNL A   1      41.712  28.214  29.777  1.00  0.00    -0.014 A 
ATOM     70  C   UNL A   1      41.025  26.993  29.649  1.00  0.00     0.010 A 
ATOM     71  C   UNL A   1      42.582  28.625  28.753  1.00  0.00     0.010 A 
ATOM     72  C   UNL A   1      41.226  26.186  28.527  1.00  0.00     0.020 A 
ATOM     73  C   UNL A   1      42.767  27.833  27.618  1.00  0.00     0.020 A 
ATOM     74  C   UNL A   1      42.097  26.610  27.520  1.00  0.00     0.054 A 
BRANCH  74  75
ATOM     75  S   UNL A   1      42.317  25.558  26.059  1.00  0.00     0.124 S 
ATOM     76  O   UNL A   1      43.412  24.687  26.478  1.00  0.00    -0.237 OA
ATOM     77  O   UNL A   1      41.014  24.911  25.931  1.00  0.00    -0.237 OA
ATOM     78  O   UNL A   1      42.646  26.504  24.997  1.00  0.00    -0.744 OA
ENDBRANCH  74  75
ENDBRANCH  55  69
BRANCH  56  79
ATOM     79  C   UNL A   1      40.151  34.338  37.548  1.00  0.00    -0.014 A 
ATOM     80  C   UNL A   1      40.891  35.526  37.694  1.00  0.00     0.010 A 
ATOM     81  C   UNL A   1      39.235  33.980  38.555  1.00  0.00     0.010 A 
ATOM     82  C   UNL A   1      40.743  36.322  38.835  1.00  0.00     0.020 A 
ATOM     83  C   UNL A   1      39.064  34.787  39.684  1.00  0.00     0.020 A 
ATOM     84  C   UNL A   1      39.832  35.945  39.825  1.00  0.00     0.054 A 
BRANCH  84  85
ATOM     85  S   UNL A   1      39.636  37.001  41.287  1.00  0.00     0.124 S 
ATOM     86  O   UNL A   1      38.939  38.159  40.735  1.00  0.00    -0.237 OA
ATOM     87  O   UNL A   1      38.851  36.158  42.185  1.00  0.00    -0.237 OA
ATOM     88  O   UNL A   1      41.011  37.244  41.718  1.00  0.00    -0.744 OA
ENDBRANCH  84  85
ENDBRANCH  56  79
BRANCH  68  89
ATOM     89  C   UNL A   1      44.655  29.160  36.278  1.00  0.00    -0.014 A 
ATOM     90  C   UNL A   1      45.947  29.708  36.205  1.00  0.00     0.010 A 
ATOM     91  C   UNL A   1      44.400  28.115  37.187  1.00  0.00     0.010 A 
ATOM     92  C   UNL A   1      46.969  29.208  37.015  1.00  0.00     0.020 A 
ATOM     93  C   UNL A   1      45.413  27.630  38.015  1.00  0.00     0.020 A 
ATOM     94  C   UNL A   1      46.694  28.175  37.917  1.00  0.00     0.054 A 
BRANCH  94  95
ATOM     95  S   UNL A   1      48.020  27.590  39.008  1.00  0.00     0.124 S 
ATOM     96  O   UNL A   1      47.275  26.840  40.017  1.00  0.00    -0.237 OA
ATOM     97  O   UNL A   1      48.845  26.785  38.108  1.00  0.00    -0.237 OA
ATOM     98  O   UNL A   1      48.648  28.821  39.482  1.00  0.00    -0.744 OA
ENDBRANCH  94  95
ENDBRANCH  68  89
ENDBRANCH  42  43
ENDBRANCH  35  37
ENDBRANCH  34  35
ENDBRANCH  33  34
ENDBRANCH  32  33
ENDBRANCH  31  32
ENDBRANCH  30  31
ENDBRANCH   1  30
TORSDOF 27
ENDMDL
MODEL 3
REMARK VINA RESULT:      -9.4      6.744     12.766
REMARK SMILES C[C@@H](O)[C@@H](NC(=O)Nc1ccc(F)cc1F)C(=O)OCCOCCOCCOCCOC(=O)c1ccc(-c2c3nc(c(-c4ccc(S(=O)(=O)[O-])cc4)c4ccc([nH]4)c(-c4ccc(S(=O)(=O)[O-])cc4)c4nc(c(-c5ccc(S(=O)(=O)[O-])cc5)c5ccc2[nH]5)C=C4)C=C3)cc1
REMARK SMILES IDX 26 1 25 2 24 3 23 4 22 5 21 6 20 7 19 8 17 9 18 10 4 11 2 12
REMARK SMILES IDX 1 13 3 14 5 16 6 17 7 19 8 20 9 22 10 23 15 24 11 25 14 26
REMARK SMILES IDX 16 27 12 28 13 29 27 30 28 31 29 32 30 33 31 34 32 35 33 36
REMARK SMILES IDX 34 37 35 38 93 39 36 40 92 41 37 42 38 43 39 44 86 45 40 46
REMARK SMILES IDX 91 47 85 48 87 49 41 50 90 51 84 52 83 53 42 55 72 56 53 57
REMARK SMILES IDX 71 58 54 59 57 60 70 61 88 62 55 63 56 64 69 66 89 67 58 68
REMARK SMILES IDX 43 69 44 70 52 71 45 72 51 73 46 74 47 75 48 76 49 77 50 78
REMARK SMILES IDX 73 79 74 80 82 81 75 82 81 83 76 84 77 85 78 86 79 87 80 88
REMARK SMILES IDX 59 89 60 90 68 91 61 92 67 93 62 94 63 95 64 96 65 97 66 98
REMARK H PARENT 3 15 5 18 8 21 87 54 57 65
REMARK Flexibility Score: inf
ROOT
ATOM      1  C   UNL A   1      33.108  30.200  27.420  1.00  0.00     0.188 C 
ENDROOT
BRANCH   1   2
ATOM      2  O   UNL A   1      32.144  30.255  26.386  1.00  0.00    -0.377 OA
BRANCH   2   3
ATOM      3  C   UNL A   1      32.337  29.385  25.278  1.00  0.00     0.188 C 
BRANCH   3   4
ATOM      4  C   UNL A   1      33.703  29.326  24.566  1.00  0.00     0.188 C 
BRANCH   4   5
ATOM      5  O   UNL A   1      33.949  28.112  23.850  1.00  0.00    -0.376 OA
BRANCH   5   6
ATOM      6  C   UNL A   1      32.880  27.410  23.237  1.00  0.00     0.202 C 
BRANCH   6   7
ATOM      7  C   UNL A   1      32.979  25.867  23.213  1.00  0.00     0.261 C 
BRANCH   7   8
ATOM      8  O   UNL A   1      32.489  25.038  24.298  1.00  0.00    -0.462 OA
BRANCH   8   9
ATOM      9  C   UNL A   1      31.840  23.891  24.037  1.00  0.00     0.331 C 
ATOM     10  O   UNL A   1      30.654  23.826  23.750  1.00  0.00    -0.250 OA
BRANCH   9  11
ATOM     11  C   UNL A   1      32.658  22.621  24.159  1.00  0.00     0.222 C 
BRANCH  11  12
ATOM     12  C   UNL A   1      32.900  22.041  22.737  1.00  0.00     0.145 C 
ATOM     13  C   UNL A   1      31.905  20.955  22.343  1.00  0.00     0.041 C 
BRANCH  12  14
ATOM     14  O   UNL A   1      32.722  23.087  21.770  1.00  0.00    -0.391 OA
ATOM     15  H   UNL A   1      32.101  23.745  22.116  1.00  0.00     0.211 HD
ENDBRANCH  12  14
ENDBRANCH  11  12
BRANCH  11  16
ATOM     16  N   UNL A   1      33.868  22.812  24.969  1.00  0.00    -0.322 N 
ATOM     17  C   UNL A   1      34.700  21.971  25.625  1.00  0.00     0.320 C 
ATOM     18  H   UNL A   1      34.130  23.757  25.054  1.00  0.00     0.166 HD
ATOM     19  O   UNL A   1      35.736  22.461  26.078  1.00  0.00    -0.248 OA
ATOM     20  N   UNL A   1      34.302  20.751  26.042  1.00  0.00    -0.305 N 
ATOM     21  H   UNL A   1      34.285  20.653  27.021  1.00  0.00     0.171 HD
BRANCH  20  22
ATOM     22  C   UNL A   1      33.906  19.592  25.350  1.00  0.00     0.079 A 
ATOM     23  C   UNL A   1      32.601  19.097  25.336  1.00  0.00     0.032 A 
ATOM     24  C   UNL A   1      34.919  18.856  24.705  1.00  0.00     0.149 A 
ATOM     25  C   UNL A   1      32.350  17.828  24.790  1.00  0.00     0.041 A 
ATOM     26  C   UNL A   1      34.679  17.596  24.168  1.00  0.00     0.080 A 
ATOM     27  F   UNL A   1      36.182  19.313  24.724  1.00  0.00    -0.205 F 
ATOM     28  C   UNL A   1      33.394  17.081  24.242  1.00  0.00     0.126 A 
ATOM     29  F   UNL A   1      33.158  15.836  23.808  1.00  0.00    -0.207 F 
ENDBRANCH  20  22
ENDBRANCH  11  16
ENDBRANCH   9  11
ENDBRANCH   8   9
ENDBRANCH   7   8
ENDBRANCH   6   7
ENDBRANCH   5   6
ENDBRANCH   4   5
ENDBRANCH   3   4
ENDBRANCH   2   3
ENDBRANCH   1   2
BRANCH   1  30
ATOM     30  C   UNL A   1      33.841  31.533  27.634  1.00  0.00     0.188 C 
BRANCH  30  31
ATOM     31  O   UNL A   1      34.315  31.884  28.923  1.00  0.00    -0.376 OA
BRANCH  31  32
ATOM     32  C   UNL A   1      35.431  32.730  29.120  1.00  0.00     0.202 C 
BRANCH  32  33
ATOM     33  C   UNL A   1      36.896  32.252  29.194  1.00  0.00     0.261 C 
BRANCH  33  34
ATOM     34  O   UNL A   1      37.319  31.165  28.378  1.00  0.00    -0.460 OA
BRANCH  34  35
ATOM     35  C   UNL A   1      37.501  29.961  28.975  1.00  0.00     0.338 C 
ATOM     36  O   UNL A   1      36.677  29.304  29.560  1.00  0.00    -0.246 OA
BRANCH  35  37
ATOM     37  C   UNL A   1      38.857  29.493  28.559  1.00  0.00     0.060 A 
ATOM     38  C   UNL A   1      39.779  29.128  29.551  1.00  0.00     0.016 A 
ATOM     39  C   UNL A   1      39.184  29.343  27.207  1.00  0.00     0.016 A 
ATOM     40  C   UNL A   1      41.039  28.644  29.199  1.00  0.00     0.010 A 
ATOM     41  C   UNL A   1      40.464  28.910  26.852  1.00  0.00     0.010 A 
ATOM     42  C   UNL A   1      41.410  28.612  27.850  1.00  0.00    -0.014 A 
BRANCH  42  43
ATOM     43  C   UNL A   1      42.848  28.680  27.502  1.00  0.00     0.031 A 
ATOM     44  C   UNL A   1      43.464  27.403  26.985  1.00  0.00     0.074 A 
ATOM     45  C   UNL A   1      43.586  29.796  27.633  1.00  0.00     0.049 A 
ATOM     46  N   UNL A   1      44.711  27.132  26.709  1.00  0.00    -0.248 NA
ATOM     47  C   UNL A   1      42.539  26.276  26.753  1.00  0.00     0.031 C 
ATOM     48  C   UNL A   1      43.091  31.106  28.050  1.00  0.00     0.029 A 
ATOM     49  N   UNL A   1      44.930  29.991  27.430  1.00  0.00    -0.354 N 
ATOM     50  C   UNL A   1      44.716  25.811  26.277  1.00  0.00     0.074 A 
ATOM     51  C   UNL A   1      43.360  25.324  26.346  1.00  0.00     0.031 C 
ATOM     52  C   UNL A   1      44.125  31.969  28.086  1.00  0.00     0.029 A 
ATOM     53  C   UNL A   1      45.357  31.263  27.734  1.00  0.00     0.049 A 
ATOM     54  H   UNL A   1      45.532  29.288  27.097  1.00  0.00     0.167 HD
ATOM     55  C   UNL A   1      45.759  25.059  25.862  1.00  0.00     0.031 A 
ATOM     56  C   UNL A   1      46.604  31.777  27.749  1.00  0.00     0.031 A 
ATOM     57  C   UNL A   1      47.113  25.527  25.833  1.00  0.00     0.049 A 
ATOM     58  C   UNL A   1      47.770  30.888  27.380  1.00  0.00     0.074 A 
ATOM     59  C   UNL A   1      48.256  24.836  25.477  1.00  0.00     0.029 A 
ATOM     60  N   UNL A   1      47.503  26.810  26.181  1.00  0.00    -0.354 N 
ATOM     61  N   UNL A   1      47.763  29.634  26.994  1.00  0.00    -0.248 NA
ATOM     62  C   UNL A   1      49.112  31.486  27.453  1.00  0.00     0.031 C 
ATOM     63  C   UNL A   1      49.346  25.694  25.646  1.00  0.00     0.029 A 
ATOM     64  C   UNL A   1      48.873  26.932  26.053  1.00  0.00     0.049 A 
ATOM     65  H   UNL A   1      46.896  27.527  26.475  1.00  0.00     0.167 HD
ATOM     66  C   UNL A   1      49.092  29.309  26.737  1.00  0.00     0.074 A 
ATOM     67  C   UNL A   1      49.875  30.494  27.013  1.00  0.00     0.031 C 
ATOM     68  C   UNL A   1      49.621  28.135  26.308  1.00  0.00     0.031 A 
BRANCH  55  69
ATOM     69  C   UNL A   1      45.464  23.645  25.451  1.00  0.00    -0.014 A 
ATOM     70  C   UNL A   1      45.439  22.607  26.401  1.00  0.00     0.010 A 
ATOM     71  C   UNL A   1      45.211  23.349  24.101  1.00  0.00     0.010 A 
ATOM     72  C   UNL A   1      45.193  21.292  26.000  1.00  0.00     0.020 A 
ATOM     73  C   UNL A   1      44.940  22.040  23.701  1.00  0.00     0.020 A 
ATOM     74  C   UNL A   1      44.947  21.016  24.652  1.00  0.00     0.054 A 
BRANCH  74  75
ATOM     75  S   UNL A   1      44.599  19.305  24.164  1.00  0.00     0.124 S 
ATOM     76  O   UNL A   1      43.335  19.047  24.849  1.00  0.00    -0.237 OA
ATOM     77  O   UNL A   1      44.517  19.397  22.709  1.00  0.00    -0.237 OA
ATOM     78  O   UNL A   1      45.747  18.559  24.673  1.00  0.00    -0.744 OA
ENDBRANCH  74  75
ENDBRANCH  55  69
BRANCH  56  79
ATOM     79  C   UNL A   1      46.838  33.191  28.155  1.00  0.00    -0.014 A 
ATOM     80  C   UNL A   1      46.843  34.222  27.197  1.00  0.00     0.010 A 
ATOM     81  C   UNL A   1      47.106  33.511  29.499  1.00  0.00     0.010 A 
ATOM     82  C   UNL A   1      47.141  35.538  27.569  1.00  0.00     0.020 A 
ATOM     83  C   UNL A   1      47.377  34.830  29.879  1.00  0.00     0.020 A 
ATOM     84  C   UNL A   1      47.409  35.832  28.908  1.00  0.00     0.054 A 
BRANCH  84  85
ATOM     85  S   UNL A   1      47.770  37.548  29.375  1.00  0.00     0.124 S 
ATOM     86  O   UNL A   1      46.485  37.995  29.906  1.00  0.00    -0.237 OA
ATOM     87  O   UNL A   1      48.841  37.390  30.356  1.00  0.00    -0.237 OA
ATOM     88  O   UNL A   1      48.177  38.165  28.115  1.00  0.00    -0.744 OA
ENDBRANCH  84  85
ENDBRANCH  56  79
BRANCH  68  89
ATOM     89  C   UNL A   1      51.100  28.086  26.038  1.00  0.00    -0.014 A 
ATOM     90  C   UNL A   1      52.014  27.690  27.028  1.00  0.00     0.010 A 
ATOM     91  C   UNL A   1      51.564  28.344  24.734  1.00  0.00     0.010 A 
ATOM     92  C   UNL A   1      53.372  27.570  26.723  1.00  0.00     0.020 A 
ATOM     93  C   UNL A   1      52.916  28.201  24.419  1.00  0.00     0.020 A 
ATOM     94  C   UNL A   1      53.813  27.823  25.420  1.00  0.00     0.054 A 
BRANCH  94  95
ATOM     95  S   UNL A   1      55.570  27.593  25.031  1.00  0.00     0.124 S 
ATOM     96  O   UNL A   1      56.076  26.985  26.258  1.00  0.00    -0.237 OA
ATOM     97  O   UNL A   1      55.528  26.713  23.864  1.00  0.00    -0.237 OA
ATOM     98  O   UNL A   1      56.046  28.949  24.762  1.00  0.00    -0.744 OA
ENDBRANCH  94  95
ENDBRANCH  68  89
ENDBRANCH  42  43
ENDBRANCH  35  37
ENDBRANCH  34  35
ENDBRANCH  33  34
ENDBRANCH  32  33
ENDBRANCH  31  32
ENDBRANCH  30  31
ENDBRANCH   1  30
TORSDOF 27
ENDMDL
