MODEL 1
REMARK VINA RESULT:      -7.6      0.000      0.000
REMARK SMILES CCC(CC)(Nc1cc2ccccc2c(=O)[nH]1)C(=O)OCCOCCOCCOCCOC(=O)c1ccc(-c2c3nc(c(-c4ccc(S(=O)(=O)[O-])cc4)c4ccc([nH]4)c(-c4ccc(S(=O)(=O)[O-])cc4)c4nc(c(-c5ccc(S(=O)(=O)[O-])cc5)c5ccc2[nH]5)C=C4)C=C3)cc1
REMARK SMILES IDX 27 1 26 2 25 3 24 4 23 5 22 6 21 7 20 8 18 9 19 10 3 11 2 12
REMARK SMILES IDX 1 13 4 14 5 15 6 16 7 18 8 19 17 20 9 21 15 22 10 24 14 25
REMARK SMILES IDX 16 26 11 27 13 28 12 29 28 30 29 31 30 32 31 33 32 34 33 35
REMARK SMILES IDX 34 36 35 37 36 38 94 39 37 40 93 41 38 42 39 43 40 44 87 45
REMARK SMILES IDX 41 46 92 47 86 48 88 49 42 50 91 51 85 52 84 53 43 55 73 56
REMARK SMILES IDX 54 57 72 58 55 59 58 60 71 61 89 62 56 63 57 64 70 66 90 67
REMARK SMILES IDX 59 68 44 69 45 70 53 71 46 72 52 73 47 74 48 75 49 76 50 77
REMARK SMILES IDX 51 78 74 79 75 80 83 81 76 82 82 83 77 84 78 85 79 86 80 87
REMARK SMILES IDX 81 88 60 89 61 90 69 91 62 92 68 93 63 94 64 95 65 96 66 97
REMARK SMILES IDX 67 98
REMARK H PARENT 6 17 17 23 88 54 58 65
REMARK Flexibility Score: inf
ROOT
ATOM      1  C   UNL A   1      38.969  27.089  30.127  1.00  0.00     0.188 C 
ENDROOT
BRANCH   1   2
ATOM      2  O   UNL A   1      39.818  26.486  29.152  1.00  0.00    -0.377 OA
BRANCH   2   3
ATOM      3  C   UNL A   1      39.262  25.425  28.401  1.00  0.00     0.188 C 
BRANCH   3   4
ATOM      4  C   UNL A   1      40.246  24.511  27.666  1.00  0.00     0.188 C 
BRANCH   4   5
ATOM      5  O   UNL A   1      39.965  23.119  27.638  1.00  0.00    -0.376 OA
BRANCH   5   6
ATOM      6  C   UNL A   1      39.348  22.598  26.450  1.00  0.00     0.202 C 
BRANCH   6   7
ATOM      7  C   UNL A   1      38.002  23.206  26.067  1.00  0.00     0.261 C 
BRANCH   7   8
ATOM      8  O   UNL A   1      37.008  22.162  25.950  1.00  0.00    -0.461 OA
BRANCH   8   9
ATOM      9  C   UNL A   1      36.234  22.190  24.846  1.00  0.00     0.331 C 
ATOM     10  O   UNL A   1      36.709  22.211  23.709  1.00  0.00    -0.249 OA
BRANCH   9  11
ATOM     11  C   UNL A   1      34.703  22.199  25.078  1.00  0.00     0.136 C 
BRANCH  11  12
ATOM     12  C   UNL A   1      34.406  22.913  26.440  1.00  0.00     0.037 C 
ATOM     13  C   UNL A   1      33.999  22.061  27.632  1.00  0.00     0.007 C 
ENDBRANCH  11  12
BRANCH  11  14
ATOM     14  C   UNL A   1      34.320  20.690  25.066  1.00  0.00     0.037 C 
ATOM     15  C   UNL A   1      33.302  20.248  24.023  1.00  0.00     0.007 C 
ENDBRANCH  11  14
BRANCH  11  16
ATOM     16  N   UNL A   1      33.780  22.880  24.143  1.00  0.00    -0.356 N 
ATOM     17  H   UNL A   1      33.628  22.335  23.338  1.00  0.00     0.163 HD
BRANCH  16  18
ATOM     18  C   UNL A   1      33.076  24.057  24.082  1.00  0.00     0.107 A 
ATOM     19  C   UNL A   1      33.664  25.125  23.504  1.00  0.00     0.053 A 
ATOM     20  N   UNL A   1      31.852  24.232  24.658  1.00  0.00    -0.308 N 
ATOM     21  C   UNL A   1      33.039  26.445  23.511  1.00  0.00    -0.009 A 
ATOM     22  C   UNL A   1      31.155  25.418  24.742  1.00  0.00     0.257 A 
ATOM     23  H   UNL A   1      31.427  23.436  25.050  1.00  0.00     0.171 HD
ATOM     24  C   UNL A   1      33.659  27.546  22.907  1.00  0.00     0.009 A 
ATOM     25  C   UNL A   1      31.832  26.615  24.189  1.00  0.00     0.047 A 
ATOM     26  O   UNL A   1      30.038  25.486  25.245  1.00  0.00    -0.269 OA
ATOM     27  C   UNL A   1      33.096  28.817  23.029  1.00  0.00     0.001 A 
ATOM     28  C   UNL A   1      31.290  27.890  24.346  1.00  0.00     0.014 A 
ATOM     29  C   UNL A   1      31.931  28.992  23.774  1.00  0.00     0.001 A 
ENDBRANCH  16  18
ENDBRANCH  11  16
ENDBRANCH   9  11
ENDBRANCH   8   9
ENDBRANCH   7   8
ENDBRANCH   6   7
ENDBRANCH   5   6
ENDBRANCH   4   5
ENDBRANCH   3   4
ENDBRANCH   2   3
ENDBRANCH   1   2
BRANCH   1  30
ATOM     30  C   UNL A   1      39.247  28.557  30.469  1.00  0.00     0.188 C 
BRANCH  30  31
ATOM     31  O   UNL A   1      38.694  29.059  31.684  1.00  0.00    -0.376 OA
BRANCH  31  32
ATOM     32  C   UNL A   1      37.744  30.116  31.588  1.00  0.00     0.202 C 
BRANCH  32  33
ATOM     33  C   UNL A   1      38.269  31.478  32.032  1.00  0.00     0.261 C 
BRANCH  33  34
ATOM     34  O   UNL A   1      37.681  32.527  31.247  1.00  0.00    -0.460 OA
BRANCH  34  35
ATOM     35  C   UNL A   1      37.944  33.804  31.604  1.00  0.00     0.338 C 
ATOM     36  O   UNL A   1      37.348  34.497  32.407  1.00  0.00    -0.246 OA
BRANCH  35  37
ATOM     37  C   UNL A   1      39.155  34.217  30.878  1.00  0.00     0.060 A 
ATOM     38  C   UNL A   1      39.087  34.589  29.531  1.00  0.00     0.016 A 
ATOM     39  C   UNL A   1      40.370  34.220  31.558  1.00  0.00     0.016 A 
ATOM     40  C   UNL A   1      40.257  34.951  28.853  1.00  0.00     0.010 A 
ATOM     41  C   UNL A   1      41.522  34.628  30.895  1.00  0.00     0.010 A 
ATOM     42  C   UNL A   1      41.486  34.952  29.525  1.00  0.00    -0.014 A 
BRANCH  42  43
ATOM     43  C   UNL A   1      42.789  35.069  28.815  1.00  0.00     0.031 A 
ATOM     44  C   UNL A   1      43.617  33.816  28.686  1.00  0.00     0.074 A 
ATOM     45  C   UNL A   1      43.283  36.245  28.389  1.00  0.00     0.049 A 
ATOM     46  N   UNL A   1      44.887  33.677  28.413  1.00  0.00    -0.248 NA
ATOM     47  C   UNL A   1      42.923  32.552  28.988  1.00  0.00     0.031 C 
ATOM     48  C   UNL A   1      42.601  37.537  28.448  1.00  0.00     0.029 A 
ATOM     49  N   UNL A   1      44.511  36.536  27.841  1.00  0.00    -0.354 N 
ATOM     50  C   UNL A   1      45.161  32.328  28.615  1.00  0.00     0.074 A 
ATOM     51  C   UNL A   1      43.936  31.706  29.064  1.00  0.00     0.031 C 
ATOM     52  C   UNL A   1      43.419  38.483  27.954  1.00  0.00     0.029 A 
ATOM     53  C   UNL A   1      44.699  37.875  27.592  1.00  0.00     0.049 A 
ATOM     54  H   UNL A   1      45.190  35.851  27.646  1.00  0.00     0.167 HD
ATOM     55  C   UNL A   1      46.328  31.664  28.437  1.00  0.00     0.031 A 
ATOM     56  C   UNL A   1      45.790  38.535  27.149  1.00  0.00     0.031 A 
ATOM     57  C   UNL A   1      47.514  32.271  27.901  1.00  0.00     0.049 A 
ATOM     58  C   UNL A   1      47.054  37.767  26.858  1.00  0.00     0.074 A 
ATOM     59  C   UNL A   1      48.722  31.676  27.590  1.00  0.00     0.029 A 
ATOM     60  N   UNL A   1      47.626  33.613  27.568  1.00  0.00    -0.354 N 
ATOM     61  N   UNL A   1      47.306  36.491  27.041  1.00  0.00    -0.248 NA
ATOM     62  C   UNL A   1      48.183  38.525  26.294  1.00  0.00     0.031 C 
ATOM     63  C   UNL A   1      49.575  32.665  27.088  1.00  0.00     0.029 A 
ATOM     64  C   UNL A   1      48.881  33.865  27.045  1.00  0.00     0.049 A 
ATOM     65  H   UNL A   1      46.917  34.287  27.686  1.00  0.00     0.167 HD
ATOM     66  C   UNL A   1      48.607  36.289  26.586  1.00  0.00     0.074 A 
ATOM     67  C   UNL A   1      49.090  37.572  26.117  1.00  0.00     0.031 C 
ATOM     68  C   UNL A   1      49.334  35.144  26.557  1.00  0.00     0.031 A 
BRANCH  55  69
ATOM     69  C   UNL A   1      46.364  30.215  28.851  1.00  0.00    -0.014 A 
ATOM     70  C   UNL A   1      46.021  29.183  27.959  1.00  0.00     0.010 A 
ATOM     71  C   UNL A   1      46.706  29.886  30.176  1.00  0.00     0.010 A 
ATOM     72  C   UNL A   1      45.926  27.863  28.406  1.00  0.00     0.020 A 
ATOM     73  C   UNL A   1      46.652  28.561  30.617  1.00  0.00     0.020 A 
ATOM     74  C   UNL A   1      46.226  27.563  29.737  1.00  0.00     0.054 A 
BRANCH  74  75
ATOM     75  S   UNL A   1      46.057  25.850  30.307  1.00  0.00     0.124 S 
ATOM     76  O   UNL A   1      46.401  25.099  29.103  1.00  0.00    -0.237 OA
ATOM     77  O   UNL A   1      47.031  25.773  31.394  1.00  0.00    -0.237 OA
ATOM     78  O   UNL A   1      44.659  25.760  30.721  1.00  0.00    -0.744 OA
ENDBRANCH  74  75
ENDBRANCH  55  69
BRANCH  56  79
ATOM     79  C   UNL A   1      45.721  40.007  26.937  1.00  0.00    -0.014 A 
ATOM     80  C   UNL A   1      46.267  40.886  27.889  1.00  0.00     0.010 A 
ATOM     81  C   UNL A   1      45.154  40.538  25.763  1.00  0.00     0.010 A 
ATOM     82  C   UNL A   1      46.250  42.267  27.672  1.00  0.00     0.020 A 
ATOM     83  C   UNL A   1      45.157  41.918  25.533  1.00  0.00     0.020 A 
ATOM     84  C   UNL A   1      45.704  42.774  26.490  1.00  0.00     0.054 A 
BRANCH  84  85
ATOM     85  S   UNL A   1      45.781  44.563  26.192  1.00  0.00     0.124 S 
ATOM     86  O   UNL A   1      45.317  45.107  27.464  1.00  0.00    -0.237 OA
ATOM     87  O   UNL A   1      47.197  44.774  25.894  1.00  0.00    -0.237 OA
ATOM     88  O   UNL A   1      44.880  44.762  25.059  1.00  0.00    -0.744 OA
ENDBRANCH  84  85
ENDBRANCH  56  79
BRANCH  68  89
ATOM     89  C   UNL A   1      50.708  35.191  25.945  1.00  0.00    -0.014 A 
ATOM     90  C   UNL A   1      50.904  34.995  24.568  1.00  0.00     0.010 A 
ATOM     91  C   UNL A   1      51.803  35.561  26.750  1.00  0.00     0.010 A 
ATOM     92  C   UNL A   1      52.174  35.162  24.007  1.00  0.00     0.020 A 
ATOM     93  C   UNL A   1      53.068  35.749  26.188  1.00  0.00     0.020 A 
ATOM     94  C   UNL A   1      53.246  35.545  24.819  1.00  0.00     0.054 A 
BRANCH  94  95
ATOM     95  S   UNL A   1      54.864  35.842  24.053  1.00  0.00     0.124 S 
ATOM     96  O   UNL A   1      54.613  35.482  22.660  1.00  0.00    -0.237 OA
ATOM     97  O   UNL A   1      55.083  37.265  24.306  1.00  0.00    -0.237 OA
ATOM     98  O   UNL A   1      55.761  34.943  24.777  1.00  0.00    -0.744 OA
ENDBRANCH  94  95
ENDBRANCH  68  89
ENDBRANCH  42  43
ENDBRANCH  35  37
ENDBRANCH  34  35
ENDBRANCH  33  34
ENDBRANCH  32  33
ENDBRANCH  31  32
ENDBRANCH  30  31
ENDBRANCH   1  30
TORSDOF 27
ENDMDL
MODEL 2
REMARK VINA RESULT:      -7.5     10.979     15.720
REMARK SMILES CCC(CC)(Nc1cc2ccccc2c(=O)[nH]1)C(=O)OCCOCCOCCOCCOC(=O)c1ccc(-c2c3nc(c(-c4ccc(S(=O)(=O)[O-])cc4)c4ccc([nH]4)c(-c4ccc(S(=O)(=O)[O-])cc4)c4nc(c(-c5ccc(S(=O)(=O)[O-])cc5)c5ccc2[nH]5)C=C4)C=C3)cc1
REMARK SMILES IDX 27 1 26 2 25 3 24 4 23 5 22 6 21 7 20 8 18 9 19 10 3 11 2 12
REMARK SMILES IDX 1 13 4 14 5 15 6 16 7 18 8 19 17 20 9 21 15 22 10 24 14 25
REMARK SMILES IDX 16 26 11 27 13 28 12 29 28 30 29 31 30 32 31 33 32 34 33 35
REMARK SMILES IDX 34 36 35 37 36 38 94 39 37 40 93 41 38 42 39 43 40 44 87 45
REMARK SMILES IDX 41 46 92 47 86 48 88 49 42 50 91 51 85 52 84 53 43 55 73 56
REMARK SMILES IDX 54 57 72 58 55 59 58 60 71 61 89 62 56 63 57 64 70 66 90 67
REMARK SMILES IDX 59 68 44 69 45 70 53 71 46 72 52 73 47 74 48 75 49 76 50 77
REMARK SMILES IDX 51 78 74 79 75 80 83 81 76 82 82 83 77 84 78 85 79 86 80 87
REMARK SMILES IDX 81 88 60 89 61 90 69 91 62 92 68 93 63 94 64 95 65 96 66 97
REMARK SMILES IDX 67 98
REMARK H PARENT 6 17 17 23 88 54 58 65
REMARK Flexibility Score: inf
ROOT
ATOM      1  C   UNL A   1      48.174  21.268  35.343  1.00  0.00     0.188 C 
ENDROOT
BRANCH   1   2
ATOM      2  O   UNL A   1      48.629  21.201  36.693  1.00  0.00    -0.377 OA
BRANCH   2   3
ATOM      3  C   UNL A   1      49.176  19.967  37.115  1.00  0.00     0.188 C 
BRANCH   3   4
ATOM      4  C   UNL A   1      48.982  19.595  38.587  1.00  0.00     0.188 C 
BRANCH   4   5
ATOM      5  O   UNL A   1      47.686  19.189  39.004  1.00  0.00    -0.376 OA
BRANCH   5   6
ATOM      6  C   UNL A   1      46.984  20.059  39.905  1.00  0.00     0.202 C 
BRANCH   6   7
ATOM      7  C   UNL A   1      46.387  19.403  41.147  1.00  0.00     0.261 C 
BRANCH   7   8
ATOM      8  O   UNL A   1      45.006  19.051  40.899  1.00  0.00    -0.461 OA
BRANCH   8   9
ATOM      9  C   UNL A   1      44.375  18.369  41.877  1.00  0.00     0.331 C 
ATOM     10  O   UNL A   1      44.099  18.881  42.963  1.00  0.00    -0.249 OA
BRANCH   9  11
ATOM     11  C   UNL A   1      44.012  16.895  41.566  1.00  0.00     0.136 C 
BRANCH  11  12
ATOM     12  C   UNL A   1      45.292  16.013  41.755  1.00  0.00     0.037 C 
ATOM     13  C   UNL A   1      46.188  16.283  42.954  1.00  0.00     0.007 C 
ENDBRANCH  11  12
BRANCH  11  14
ATOM     14  C   UNL A   1      43.497  16.944  40.098  1.00  0.00     0.037 C 
ATOM     15  C   UNL A   1      43.938  15.814  39.178  1.00  0.00     0.007 C 
ENDBRANCH  11  14
BRANCH  11  16
ATOM     16  N   UNL A   1      42.992  16.166  42.352  1.00  0.00    -0.356 N 
ATOM     17  H   UNL A   1      42.408  16.791  42.837  1.00  0.00     0.163 HD
BRANCH  16  18
ATOM     18  C   UNL A   1      42.632  14.863  42.594  1.00  0.00     0.107 A 
ATOM     19  C   UNL A   1      43.196  14.227  43.641  1.00  0.00     0.053 A 
ATOM     20  N   UNL A   1      41.806  14.148  41.777  1.00  0.00    -0.308 N 
ATOM     21  C   UNL A   1      42.966  12.807  43.893  1.00  0.00    -0.009 A 
ATOM     22  C   UNL A   1      41.508  12.807  41.894  1.00  0.00     0.257 A 
ATOM     23  H   UNL A   1      41.382  14.636  41.035  1.00  0.00     0.171 HD
ATOM     24  C   UNL A   1      43.557  12.157  44.984  1.00  0.00     0.009 A 
ATOM     25  C   UNL A   1      42.193  12.079  42.989  1.00  0.00     0.047 A 
ATOM     26  O   UNL A   1      40.724  12.243  41.139  1.00  0.00    -0.269 OA
ATOM     27  C   UNL A   1      43.415  10.777  45.135  1.00  0.00     0.001 A 
ATOM     28  C   UNL A   1      42.085  10.695  43.115  1.00  0.00     0.014 A 
ATOM     29  C   UNL A   1      42.706  10.044  44.184  1.00  0.00     0.001 A 
ENDBRANCH  16  18
ENDBRANCH  11  16
ENDBRANCH   9  11
ENDBRANCH   8   9
ENDBRANCH   7   8
ENDBRANCH   6   7
ENDBRANCH   5   6
ENDBRANCH   4   5
ENDBRANCH   3   4
ENDBRANCH   2   3
ENDBRANCH   1   2
BRANCH   1  30
ATOM     30  C   UNL A   1      47.784  22.653  34.815  1.00  0.00     0.188 C 
BRANCH  30  31
ATOM     31  O   UNL A   1      46.591  23.236  35.337  1.00  0.00    -0.376 OA
BRANCH  31  32
ATOM     32  C   UNL A   1      45.525  22.356  35.682  1.00  0.00     0.202 C 
BRANCH  32  33
ATOM     33  C   UNL A   1      44.404  22.286  34.650  1.00  0.00     0.261 C 
BRANCH  33  34
ATOM     34  O   UNL A   1      43.984  23.606  34.270  1.00  0.00    -0.460 OA
BRANCH  34  35
ATOM     35  C   UNL A   1      42.935  24.146  34.928  1.00  0.00     0.338 C 
ATOM     36  O   UNL A   1      41.875  23.621  35.212  1.00  0.00    -0.246 OA
BRANCH  35  37
ATOM     37  C   UNL A   1      43.321  25.512  35.313  1.00  0.00     0.060 A 
ATOM     38  C   UNL A   1      43.288  25.911  36.654  1.00  0.00     0.016 A 
ATOM     39  C   UNL A   1      43.708  26.401  34.314  1.00  0.00     0.016 A 
ATOM     40  C   UNL A   1      43.633  27.225  36.995  1.00  0.00     0.010 A 
ATOM     41  C   UNL A   1      44.097  27.691  34.661  1.00  0.00     0.010 A 
ATOM     42  C   UNL A   1      44.018  28.130  35.997  1.00  0.00    -0.014 A 
BRANCH  42  43
ATOM     43  C   UNL A   1      44.142  29.592  36.245  1.00  0.00     0.031 A 
ATOM     44  C   UNL A   1      42.931  30.444  35.961  1.00  0.00     0.074 A 
ATOM     45  C   UNL A   1      45.300  30.174  36.606  1.00  0.00     0.049 A 
ATOM     46  N   UNL A   1      42.839  31.734  35.783  1.00  0.00    -0.248 NA
ATOM     47  C   UNL A   1      41.664  29.717  35.773  1.00  0.00     0.031 C 
ATOM     48  C   UNL A   1      46.551  29.482  36.911  1.00  0.00     0.029 A 
ATOM     49  N   UNL A   1      45.608  31.507  36.745  1.00  0.00    -0.354 N 
ATOM     50  C   UNL A   1      41.532  31.956  35.361  1.00  0.00     0.074 A 
ATOM     51  C   UNL A   1      40.887  30.665  35.279  1.00  0.00     0.031 C 
ATOM     52  C   UNL A   1      47.492  30.398  37.205  1.00  0.00     0.029 A 
ATOM     53  C   UNL A   1      46.927  31.738  37.058  1.00  0.00     0.049 A 
ATOM     54  H   UNL A   1      44.947  32.228  36.631  1.00  0.00     0.167 HD
ATOM     55  C   UNL A   1      40.921  33.129  35.072  1.00  0.00     0.031 A 
ATOM     56  C   UNL A   1      47.603  32.899  37.183  1.00  0.00     0.031 A 
ATOM     57  C   UNL A   1      41.542  34.412  35.248  1.00  0.00     0.049 A 
ATOM     58  C   UNL A   1      46.884  34.205  36.957  1.00  0.00     0.074 A 
ATOM     59  C   UNL A   1      40.989  35.667  35.078  1.00  0.00     0.029 A 
ATOM     60  N   UNL A   1      42.852  34.599  35.665  1.00  0.00    -0.354 N 
ATOM     61  N   UNL A   1      45.647  34.410  36.568  1.00  0.00    -0.248 NA
ATOM     62  C   UNL A   1      47.649  35.440  37.194  1.00  0.00     0.031 C 
ATOM     63  C   UNL A   1      41.974  36.617  35.372  1.00  0.00     0.029 A 
ATOM     64  C   UNL A   1      43.125  35.951  35.767  1.00  0.00     0.049 A 
ATOM     65  H   UNL A   1      43.492  33.877  35.859  1.00  0.00     0.167 HD
ATOM     66  C   UNL A   1      45.477  35.792  36.544  1.00  0.00     0.074 A 
ATOM     67  C   UNL A   1      46.736  36.375  36.960  1.00  0.00     0.031 C 
ATOM     68  C   UNL A   1      44.376  36.512  36.211  1.00  0.00     0.031 A 
BRANCH  55  69
ATOM     69  C   UNL A   1      39.521  33.057  34.520  1.00  0.00    -0.014 A 
ATOM     70  C   UNL A   1      39.275  32.801  33.159  1.00  0.00     0.010 A 
ATOM     71  C   UNL A   1      38.430  33.298  35.376  1.00  0.00     0.010 A 
ATOM     72  C   UNL A   1      37.978  32.881  32.646  1.00  0.00     0.020 A 
ATOM     73  C   UNL A   1      37.126  33.338  34.874  1.00  0.00     0.020 A 
ATOM     74  C   UNL A   1      36.914  33.165  33.505  1.00  0.00     0.054 A 
BRANCH  74  75
ATOM     75  S   UNL A   1      35.244  33.304  32.812  1.00  0.00     0.124 S 
ATOM     76  O   UNL A   1      35.232  32.214  31.839  1.00  0.00    -0.237 OA
ATOM     77  O   UNL A   1      34.391  33.108  33.982  1.00  0.00    -0.237 OA
ATOM     78  O   UNL A   1      35.217  34.649  32.243  1.00  0.00    -0.744 OA
ENDBRANCH  74  75
ENDBRANCH  55  69
BRANCH  56  79
ATOM     79  C   UNL A   1      49.043  32.872  37.560  1.00  0.00    -0.014 A 
ATOM     80  C   UNL A   1      49.421  32.821  38.914  1.00  0.00     0.010 A 
ATOM     81  C   UNL A   1      50.044  32.851  36.571  1.00  0.00     0.010 A 
ATOM     82  C   UNL A   1      50.770  32.744  39.272  1.00  0.00     0.020 A 
ATOM     83  C   UNL A   1      51.394  32.751  36.926  1.00  0.00     0.020 A 
ATOM     84  C   UNL A   1      51.748  32.701  38.275  1.00  0.00     0.054 A 
BRANCH  84  85
ATOM     85  S   UNL A   1      53.485  32.506  38.766  1.00  0.00     0.124 S 
ATOM     86  O   UNL A   1      54.042  31.766  37.639  1.00  0.00    -0.237 OA
ATOM     87  O   UNL A   1      53.935  33.891  38.896  1.00  0.00    -0.237 OA
ATOM     88  O   UNL A   1      53.406  31.767  40.024  1.00  0.00    -0.744 OA
ENDBRANCH  84  85
ENDBRANCH  56  79
BRANCH  68  89
ATOM     89  C   UNL A   1      44.444  38.010  36.336  1.00  0.00    -0.014 A 
ATOM     90  C   UNL A   1      44.276  38.650  37.575  1.00  0.00     0.010 A 
ATOM     91  C   UNL A   1      44.806  38.775  35.210  1.00  0.00     0.010 A 
ATOM     92  C   UNL A   1      44.461  40.032  37.685  1.00  0.00     0.020 A 
ATOM     93  C   UNL A   1      45.014  40.152  35.322  1.00  0.00     0.020 A 
ATOM     94  C   UNL A   1      44.836  40.773  36.559  1.00  0.00     0.054 A 
BRANCH  94  95
ATOM     95  S   UNL A   1      45.158  42.549  36.746  1.00  0.00     0.124 S 
ATOM     96  O   UNL A   1      44.455  42.858  37.988  1.00  0.00    -0.237 OA
ATOM     97  O   UNL A   1      46.617  42.605  36.818  1.00  0.00    -0.237 OA
ATOM     98  O   UNL A   1      44.578  43.136  35.539  1.00  0.00    -0.744 OA
ENDBRANCH  94  95
ENDBRANCH  68  89
ENDBRANCH  42  43
ENDBRANCH  35  37
ENDBRANCH  34  35
ENDBRANCH  33  34
ENDBRANCH  32  33
ENDBRANCH  31  32
ENDBRANCH  30  31
ENDBRANCH   1  30
TORSDOF 27
ENDMDL
MODEL 3
REMARK VINA RESULT:      -7.4      5.841     15.323
REMARK SMILES CCC(CC)(Nc1cc2ccccc2c(=O)[nH]1)C(=O)OCCOCCOCCOCCOC(=O)c1ccc(-c2c3nc(c(-c4ccc(S(=O)(=O)[O-])cc4)c4ccc([nH]4)c(-c4ccc(S(=O)(=O)[O-])cc4)c4nc(c(-c5ccc(S(=O)(=O)[O-])cc5)c5ccc2[nH]5)C=C4)C=C3)cc1
REMARK SMILES IDX 27 1 26 2 25 3 24 4 23 5 22 6 21 7 20 8 18 9 19 10 3 11 2 12
REMARK SMILES IDX 1 13 4 14 5 15 6 16 7 18 8 19 17 20 9 21 15 22 10 24 14 25
REMARK SMILES IDX 16 26 11 27 13 28 12 29 28 30 29 31 30 32 31 33 32 34 33 35
REMARK SMILES IDX 34 36 35 37 36 38 94 39 37 40 93 41 38 42 39 43 40 44 87 45
REMARK SMILES IDX 41 46 92 47 86 48 88 49 42 50 91 51 85 52 84 53 43 55 73 56
REMARK SMILES IDX 54 57 72 58 55 59 58 60 71 61 89 62 56 63 57 64 70 66 90 67
REMARK SMILES IDX 59 68 44 69 45 70 53 71 46 72 52 73 47 74 48 75 49 76 50 77
REMARK SMILES IDX 51 78 74 79 75 80 83 81 76 82 82 83 77 84 78 85 79 86 80 87
REMARK SMILES IDX 81 88 60 89 61 90 69 91 62 92 68 93 63 94 64 95 65 96 66 97
REMARK SMILES IDX 67 98
REMARK H PARENT 6 17 17 23 88 54 58 65
REMARK Flexibility Score: inf
ROOT
ATOM      1  C   UNL A   1      43.477  42.022  30.210  1.00  0.00     0.188 C 
ENDROOT
BRANCH   1   2
ATOM      2  O   UNL A   1      43.240  40.923  29.331  1.00  0.00    -0.377 OA
BRANCH   2   3
ATOM      3  C   UNL A   1      43.519  41.138  27.962  1.00  0.00     0.188 C 
BRANCH   3   4
ATOM      4  C   UNL A   1      42.845  40.192  26.965  1.00  0.00     0.188 C 
BRANCH   4   5
ATOM      5  O   UNL A   1      42.336  40.750  25.762  1.00  0.00    -0.376 OA
BRANCH   5   6
ATOM      6  C   UNL A   1      43.121  41.772  25.128  1.00  0.00     0.202 C 
BRANCH   6   7
ATOM      7  C   UNL A   1      42.588  42.307  23.802  1.00  0.00     0.261 C 
BRANCH   7   8
ATOM      8  O   UNL A   1      43.563  43.193  23.205  1.00  0.00    -0.461 OA
BRANCH   8   9
ATOM      9  C   UNL A   1      43.987  42.871  21.965  1.00  0.00     0.331 C 
ATOM     10  O   UNL A   1      43.286  42.240  21.173  1.00  0.00    -0.249 OA
BRANCH   9  11
ATOM     11  C   UNL A   1      45.414  43.337  21.583  1.00  0.00     0.136 C 
BRANCH  11  12
ATOM     12  C   UNL A   1      46.263  42.080  21.189  1.00  0.00     0.037 C 
ATOM     13  C   UNL A   1      47.773  42.228  21.090  1.00  0.00     0.007 C 
ENDBRANCH  11  12
BRANCH  11  14
ATOM     14  C   UNL A   1      45.922  44.058  22.865  1.00  0.00     0.037 C 
ATOM     15  C   UNL A   1      46.755  45.317  22.660  1.00  0.00     0.007 C 
ENDBRANCH  11  14
BRANCH  11  16
ATOM     16  N   UNL A   1      45.652  44.260  20.451  1.00  0.00    -0.356 N 
ATOM     17  H   UNL A   1      46.542  44.115  20.059  1.00  0.00     0.163 HD
BRANCH  16  18
ATOM     18  C   UNL A   1      44.979  45.260  19.794  1.00  0.00     0.107 A 
ATOM     19  C   UNL A   1      44.017  44.913  18.914  1.00  0.00     0.053 A 
ATOM     20  N   UNL A   1      45.297  46.582  19.910  1.00  0.00    -0.308 N 
ATOM     21  C   UNL A   1      43.343  45.905  18.081  1.00  0.00    -0.009 A 
ATOM     22  C   UNL A   1      44.748  47.617  19.184  1.00  0.00     0.257 A 
ATOM     23  H   UNL A   1      45.981  46.818  20.576  1.00  0.00     0.171 HD
ATOM     24  C   UNL A   1      42.345  45.534  17.171  1.00  0.00     0.009 A 
ATOM     25  C   UNL A   1      43.753  47.237  18.153  1.00  0.00     0.047 A 
ATOM     26  O   UNL A   1      45.061  48.787  19.375  1.00  0.00    -0.269 OA
ATOM     27  C   UNL A   1      41.800  46.483  16.306  1.00  0.00     0.001 A 
ATOM     28  C   UNL A   1      43.240  48.177  17.261  1.00  0.00     0.014 A 
ATOM     29  C   UNL A   1      42.270  47.795  16.330  1.00  0.00     0.001 A 
ENDBRANCH  16  18
ENDBRANCH  11  16
ENDBRANCH   9  11
ENDBRANCH   8   9
ENDBRANCH   7   8
ENDBRANCH   6   7
ENDBRANCH   5   6
ENDBRANCH   4   5
ENDBRANCH   3   4
ENDBRANCH   2   3
ENDBRANCH   1   2
BRANCH   1  30
ATOM     30  C   UNL A   1      44.842  42.710  30.101  1.00  0.00     0.188 C 
BRANCH  30  31
ATOM     31  O   UNL A   1      45.911  42.160  30.869  1.00  0.00    -0.376 OA
BRANCH  31  32
ATOM     32  C   UNL A   1      45.693  40.895  31.489  1.00  0.00     0.202 C 
BRANCH  32  33
ATOM     33  C   UNL A   1      46.746  40.509  32.523  1.00  0.00     0.261 C 
BRANCH  33  34
ATOM     34  O   UNL A   1      46.982  39.093  32.501  1.00  0.00    -0.460 OA
BRANCH  34  35
ATOM     35  C   UNL A   1      46.517  38.361  33.537  1.00  0.00     0.338 C 
ATOM     36  O   UNL A   1      46.318  38.721  34.682  1.00  0.00    -0.246 OA
BRANCH  35  37
ATOM     37  C   UNL A   1      46.219  37.017  33.020  1.00  0.00     0.060 A 
ATOM     38  C   UNL A   1      46.230  36.763  31.644  1.00  0.00     0.016 A 
ATOM     39  C   UNL A   1      45.916  36.006  33.928  1.00  0.00     0.016 A 
ATOM     40  C   UNL A   1      45.915  35.482  31.173  1.00  0.00     0.010 A 
ATOM     41  C   UNL A   1      45.652  34.724  33.460  1.00  0.00     0.010 A 
ATOM     42  C   UNL A   1      45.603  34.459  32.078  1.00  0.00    -0.014 A 
BRANCH  42  43
ATOM     43  C   UNL A   1      45.012  33.163  31.650  1.00  0.00     0.031 A 
ATOM     44  C   UNL A   1      45.969  32.063  31.266  1.00  0.00     0.074 A 
ATOM     45  C   UNL A   1      43.688  32.980  31.500  1.00  0.00     0.049 A 
ATOM     46  N   UNL A   1      45.759  30.975  30.576  1.00  0.00    -0.248 NA
ATOM     47  C   UNL A   1      47.375  32.271  31.653  1.00  0.00     0.031 C 
ATOM     48  C   UNL A   1      42.643  33.950  31.826  1.00  0.00     0.029 A 
ATOM     49  N   UNL A   1      43.000  31.901  30.995  1.00  0.00    -0.354 N 
ATOM     50  C   UNL A   1      47.020  30.428  30.358  1.00  0.00     0.074 A 
ATOM     51  C   UNL A   1      47.982  31.323  30.959  1.00  0.00     0.031 C 
ATOM     52  C   UNL A   1      41.447  33.420  31.515  1.00  0.00     0.029 A 
ATOM     53  C   UNL A   1      41.642  32.098  30.921  1.00  0.00     0.049 A 
ATOM     54  H   UNL A   1      43.440  31.066  30.713  1.00  0.00     0.167 HD
ATOM     55  C   UNL A   1      47.349  29.281  29.718  1.00  0.00     0.031 A 
ATOM     56  C   UNL A   1      40.673  31.312  30.407  1.00  0.00     0.031 A 
ATOM     57  C   UNL A   1      46.379  28.351  29.207  1.00  0.00     0.049 A 
ATOM     58  C   UNL A   1      41.043  29.988  29.787  1.00  0.00     0.074 A 
ATOM     59  C   UNL A   1      46.594  27.115  28.627  1.00  0.00     0.029 A 
ATOM     60  N   UNL A   1      45.007  28.548  29.246  1.00  0.00    -0.354 N 
ATOM     61  N   UNL A   1      42.234  29.471  29.591  1.00  0.00    -0.248 NA
ATOM     62  C   UNL A   1      39.937  29.135  29.323  1.00  0.00     0.031 C 
ATOM     63  C   UNL A   1      45.348  26.573  28.293  1.00  0.00     0.029 A 
ATOM     64  C   UNL A   1      44.359  27.452  28.707  1.00  0.00     0.049 A 
ATOM     65  H   UNL A   1      44.560  29.349  29.604  1.00  0.00     0.167 HD
ATOM     66  C   UNL A   1      42.019  28.223  29.013  1.00  0.00     0.074 A 
ATOM     67  C   UNL A   1      40.585  28.060  28.891  1.00  0.00     0.031 C 
ATOM     68  C   UNL A   1      42.928  27.296  28.621  1.00  0.00     0.031 A 
BRANCH  55  69
ATOM     69  C   UNL A   1      48.816  28.995  29.528  1.00  0.00    -0.014 A 
ATOM     70  C   UNL A   1      49.510  29.426  28.383  1.00  0.00     0.010 A 
ATOM     71  C   UNL A   1      49.501  28.238  30.497  1.00  0.00     0.010 A 
ATOM     72  C   UNL A   1      50.831  29.028  28.164  1.00  0.00     0.020 A 
ATOM     73  C   UNL A   1      50.836  27.872  30.301  1.00  0.00     0.020 A 
ATOM     74  C   UNL A   1      51.480  28.239  29.117  1.00  0.00     0.054 A 
BRANCH  74  75
ATOM     75  S   UNL A   1      53.180  27.698  28.795  1.00  0.00     0.124 S 
ATOM     76  O   UNL A   1      53.143  27.439  27.357  1.00  0.00    -0.237 OA
ATOM     77  O   UNL A   1      53.971  28.857  29.202  1.00  0.00    -0.237 OA
ATOM     78  O   UNL A   1      53.333  26.515  29.638  1.00  0.00    -0.744 OA
ENDBRANCH  74  75
ENDBRANCH  55  69
BRANCH  56  79
ATOM     79  C   UNL A   1      39.254  31.756  30.476  1.00  0.00    -0.014 A 
ATOM     80  C   UNL A   1      38.666  32.422  29.386  1.00  0.00     0.010 A 
ATOM     81  C   UNL A   1      38.468  31.477  31.610  1.00  0.00     0.010 A 
ATOM     82  C   UNL A   1      37.319  32.797  29.425  1.00  0.00     0.020 A 
ATOM     83  C   UNL A   1      37.115  31.830  31.643  1.00  0.00     0.020 A 
ATOM     84  C   UNL A   1      36.549  32.490  30.550  1.00  0.00     0.054 A 
BRANCH  84  85
ATOM     85  S   UNL A   1      34.782  32.904  30.536  1.00  0.00     0.124 S 
ATOM     86  O   UNL A   1      34.808  34.362  30.515  1.00  0.00    -0.237 OA
ATOM     87  O   UNL A   1      34.317  32.263  29.307  1.00  0.00    -0.237 OA
ATOM     88  O   UNL A   1      34.278  32.303  31.769  1.00  0.00    -0.744 OA
ENDBRANCH  84  85
ENDBRANCH  56  79
BRANCH  68  89
ATOM     89  C   UNL A   1      42.419  25.987  28.079  1.00  0.00    -0.014 A 
ATOM     90  C   UNL A   1      42.714  24.768  28.710  1.00  0.00     0.010 A 
ATOM     91  C   UNL A   1      41.526  25.999  26.989  1.00  0.00     0.010 A 
ATOM     92  C   UNL A   1      42.131  23.580  28.256  1.00  0.00     0.020 A 
ATOM     93  C   UNL A   1      40.925  24.818  26.549  1.00  0.00     0.020 A 
ATOM     94  C   UNL A   1      41.235  23.614  27.183  1.00  0.00     0.054 A 
BRANCH  94  95
ATOM     95  S   UNL A   1      40.423  22.074  26.670  1.00  0.00     0.124 S 
ATOM     96  O   UNL A   1      40.403  21.311  27.915  1.00  0.00    -0.237 OA
ATOM     97  O   UNL A   1      39.121  22.540  26.197  1.00  0.00    -0.237 OA
ATOM     98  O   UNL A   1      41.305  21.547  25.630  1.00  0.00    -0.744 OA
ENDBRANCH  94  95
ENDBRANCH  68  89
ENDBRANCH  42  43
ENDBRANCH  35  37
ENDBRANCH  34  35
ENDBRANCH  33  34
ENDBRANCH  32  33
ENDBRANCH  31  32
ENDBRANCH  30  31
ENDBRANCH   1  30
TORSDOF 27
ENDMDL
