MODEL 1
REMARK VINA RESULT:      -9.5      0.000      0.000
REMARK SMILES C[C@H](C(=O)OCCOCCOCCOCCOC(=O)c1ccc(-c2c3nc(c(-c4ccc(S(=O)(=O)[O-])cc4)c4ccc([nH]4)c(-c4ccc(S(=O)(=O)[O-])cc4)c4nc(c(-c5ccc(S(=O)(=O)[O-])cc5)c5ccc2[nH]5)C=C4)C=C3)cc1)c1ccc(C[C@H]2CCC[C@@H]2O)cc1
REMARK SMILES IDX 10 1 9 2 8 3 7 4 6 5 5 6 3 7 4 8 2 9 1 10 80 11 81 12 92 13
REMARK SMILES IDX 82 14 91 15 83 16 84 17 85 18 86 19 89 20 87 21 88 22 90 23
REMARK SMILES IDX 11 25 12 26 13 27 14 28 15 29 16 30 17 31 18 32 19 33 20 34
REMARK SMILES IDX 21 35 79 36 22 37 78 38 23 39 24 40 25 41 72 42 26 43 77 44
REMARK SMILES IDX 71 45 73 46 27 47 76 48 70 49 69 50 28 52 58 53 39 54 57 55
REMARK SMILES IDX 40 56 43 57 56 58 74 59 41 60 42 61 55 63 75 64 44 65 29 66
REMARK SMILES IDX 30 67 38 68 31 69 37 70 32 71 33 72 34 73 35 74 36 75 59 76
REMARK SMILES IDX 60 77 68 78 61 79 67 80 62 81 63 82 64 83 65 84 66 85 45 86
REMARK SMILES IDX 46 87 54 88 47 89 53 90 48 91 49 92 50 93 51 94 52 95
REMARK H PARENT 90 24 73 51 43 62
REMARK Flexibility Score: inf
ROOT
ATOM      1  C   UNL A   1      33.016  26.811  22.367  1.00  0.00     0.188 C 
ENDROOT
BRANCH   1   2
ATOM      2  C   UNL A   1      33.958  27.892  22.914  1.00  0.00     0.188 C 
BRANCH   2   3
ATOM      3  O   UNL A   1      34.010  28.180  24.303  1.00  0.00    -0.376 OA
BRANCH   3   4
ATOM      4  C   UNL A   1      33.479  29.399  24.801  1.00  0.00     0.202 C 
BRANCH   4   5
ATOM      5  C   UNL A   1      32.266  29.387  25.754  1.00  0.00     0.261 C 
BRANCH   5   6
ATOM      6  O   UNL A   1      31.222  28.419  25.497  1.00  0.00    -0.463 OA
BRANCH   6   7
ATOM      7  C   UNL A   1      31.027  27.460  26.437  1.00  0.00     0.313 C 
ATOM      8  O   UNL A   1      31.359  27.589  27.614  1.00  0.00    -0.252 OA
BRANCH   7   9
ATOM      9  C   UNL A   1      30.281  26.206  25.965  1.00  0.00     0.126 C 
ATOM     10  C   UNL A   1      29.609  26.419  24.605  1.00  0.00     0.025 C 
BRANCH   9  11
ATOM     11  C   UNL A   1      30.950  24.841  26.092  1.00  0.00    -0.034 A 
ATOM     12  C   UNL A   1      32.339  24.820  26.285  1.00  0.00     0.005 A 
ATOM     13  C   UNL A   1      30.293  23.603  26.095  1.00  0.00     0.005 A 
ATOM     14  C   UNL A   1      33.040  23.620  26.382  1.00  0.00     0.004 A 
ATOM     15  C   UNL A   1      31.001  22.397  26.118  1.00  0.00     0.004 A 
ATOM     16  C   UNL A   1      32.392  22.398  26.198  1.00  0.00    -0.048 A 
BRANCH  16  17
ATOM     17  C   UNL A   1      33.177  21.125  26.006  1.00  0.00     0.041 C 
BRANCH  17  18
ATOM     18  C   UNL A   1      32.478  20.059  25.136  1.00  0.00     0.022 C 
ATOM     19  C   UNL A   1      32.519  20.303  23.616  1.00  0.00     0.007 C 
ATOM     20  C   UNL A   1      32.979  18.618  25.289  1.00  0.00     0.117 C 
ATOM     21  C   UNL A   1      32.592  18.915  22.966  1.00  0.00     0.003 C 
ATOM     22  C   UNL A   1      32.361  17.917  24.094  1.00  0.00     0.032 C 
BRANCH  20  23
ATOM     23  O   UNL A   1      32.571  18.037  26.512  1.00  0.00    -0.393 OA
ATOM     24  H   UNL A   1      33.082  18.423  27.240  1.00  0.00     0.210 HD
ENDBRANCH  20  23
ENDBRANCH  17  18
ENDBRANCH  16  17
ENDBRANCH   9  11
ENDBRANCH   7   9
ENDBRANCH   6   7
ENDBRANCH   5   6
ENDBRANCH   4   5
ENDBRANCH   3   4
ENDBRANCH   2   3
ENDBRANCH   1   2
BRANCH   1  25
ATOM     25  O   UNL A   1      33.607  25.573  22.039  1.00  0.00    -0.377 OA
BRANCH  25  26
ATOM     26  C   UNL A   1      33.979  24.733  23.117  1.00  0.00     0.188 C 
BRANCH  26  27
ATOM     27  C   UNL A   1      34.482  23.327  22.755  1.00  0.00     0.188 C 
BRANCH  27  28
ATOM     28  O   UNL A   1      35.265  22.729  23.784  1.00  0.00    -0.376 OA
BRANCH  28  29
ATOM     29  C   UNL A   1      36.636  22.458  23.540  1.00  0.00     0.202 C 
BRANCH  29  30
ATOM     30  C   UNL A   1      37.446  21.727  24.626  1.00  0.00     0.261 C 
BRANCH  30  31
ATOM     31  O   UNL A   1      37.748  22.454  25.826  1.00  0.00    -0.460 OA
BRANCH  31  32
ATOM     32  C   UNL A   1      39.038  22.553  26.206  1.00  0.00     0.338 C 
ATOM     33  O   UNL A   1      39.923  21.736  26.010  1.00  0.00    -0.246 OA
BRANCH  32  34
ATOM     34  C   UNL A   1      39.252  23.922  26.724  1.00  0.00     0.060 A 
ATOM     35  C   UNL A   1      39.880  24.867  25.902  1.00  0.00     0.016 A 
ATOM     36  C   UNL A   1      38.823  24.278  28.006  1.00  0.00     0.016 A 
ATOM     37  C   UNL A   1      40.114  26.160  26.371  1.00  0.00     0.010 A 
ATOM     38  C   UNL A   1      39.083  25.565  28.486  1.00  0.00     0.010 A 
ATOM     39  C   UNL A   1      39.762  26.500  27.683  1.00  0.00    -0.014 A 
BRANCH  39  40
ATOM     40  C   UNL A   1      40.290  27.749  28.286  1.00  0.00     0.031 A 
ATOM     41  C   UNL A   1      41.745  27.788  28.675  1.00  0.00     0.074 A 
ATOM     42  C   UNL A   1      39.513  28.831  28.465  1.00  0.00     0.049 A 
ATOM     43  N   UNL A   1      42.426  28.743  29.252  1.00  0.00    -0.248 NA
ATOM     44  C   UNL A   1      42.536  26.582  28.373  1.00  0.00     0.031 C 
ATOM     45  C   UNL A   1      38.107  28.940  28.080  1.00  0.00     0.029 A 
ATOM     46  N   UNL A   1      39.803  30.051  29.026  1.00  0.00    -0.354 N 
ATOM     47  C   UNL A   1      43.718  28.251  29.394  1.00  0.00     0.074 A 
ATOM     48  C   UNL A   1      43.721  26.904  28.868  1.00  0.00     0.031 C 
ATOM     49  C   UNL A   1      37.654  30.160  28.423  1.00  0.00     0.029 A 
ATOM     50  C   UNL A   1      38.726  30.903  29.085  1.00  0.00     0.049 A 
ATOM     51  H   UNL A   1      40.699  30.293  29.355  1.00  0.00     0.167 HD
ATOM     52  C   UNL A   1      44.807  28.866  29.914  1.00  0.00     0.031 A 
ATOM     53  C   UNL A   1      38.613  32.131  29.631  1.00  0.00     0.031 A 
ATOM     54  C   UNL A   1      44.796  30.201  30.451  1.00  0.00     0.049 A 
ATOM     55  C   UNL A   1      39.820  32.763  30.282  1.00  0.00     0.074 A 
ATOM     56  C   UNL A   1      45.850  30.919  30.987  1.00  0.00     0.029 A 
ATOM     57  N   UNL A   1      43.675  31.013  30.531  1.00  0.00    -0.354 N 
ATOM     58  N   UNL A   1      41.042  32.297  30.386  1.00  0.00    -0.248 NA
ATOM     59  C   UNL A   1      39.630  34.092  30.883  1.00  0.00     0.031 C 
ATOM     60  C   UNL A   1      45.353  32.138  31.455  1.00  0.00     0.029 A 
ATOM     61  C   UNL A   1      44.004  32.212  31.140  1.00  0.00     0.049 A 
ATOM     62  H   UNL A   1      42.778  30.773  30.204  1.00  0.00     0.167 HD
ATOM     63  C   UNL A   1      41.774  33.290  31.032  1.00  0.00     0.074 A 
ATOM     64  C   UNL A   1      40.860  34.385  31.283  1.00  0.00     0.031 C 
ATOM     65  C   UNL A   1      43.085  33.296  31.382  1.00  0.00     0.031 A 
BRANCH  52  66
ATOM     66  C   UNL A   1      46.091  28.080  29.970  1.00  0.00    -0.014 A 
ATOM     67  C   UNL A   1      46.441  27.324  31.103  1.00  0.00     0.010 A 
ATOM     68  C   UNL A   1      46.946  28.072  28.853  1.00  0.00     0.010 A 
ATOM     69  C   UNL A   1      47.640  26.606  31.132  1.00  0.00     0.020 A 
ATOM     70  C   UNL A   1      48.130  27.330  28.865  1.00  0.00     0.020 A 
ATOM     71  C   UNL A   1      48.477  26.614  30.012  1.00  0.00     0.054 A 
BRANCH  71  72
ATOM     72  S   UNL A   1      50.013  25.653  30.068  1.00  0.00     0.124 S 
ATOM     73  O   UNL A   1      51.027  26.704  30.011  1.00  0.00    -0.237 OA
ATOM     74  O   UNL A   1      49.906  24.954  31.345  1.00  0.00    -0.237 OA
ATOM     75  O   UNL A   1      49.934  24.800  28.885  1.00  0.00    -0.744 OA
ENDBRANCH  71  72
ENDBRANCH  52  66
BRANCH  53  76
ATOM     76  C   UNL A   1      37.305  32.845  29.603  1.00  0.00    -0.014 A 
ATOM     77  C   UNL A   1      36.722  33.233  28.384  1.00  0.00     0.010 A 
ATOM     78  C   UNL A   1      36.638  33.152  30.805  1.00  0.00     0.010 A 
ATOM     79  C   UNL A   1      35.510  33.928  28.367  1.00  0.00     0.020 A 
ATOM     80  C   UNL A   1      35.410  33.817  30.790  1.00  0.00     0.020 A 
ATOM     81  C   UNL A   1      34.858  34.211  29.571  1.00  0.00     0.054 A 
BRANCH  81  82
ATOM     82  S   UNL A   1      33.260  35.069  29.517  1.00  0.00     0.124 S 
ATOM     83  O   UNL A   1      32.729  34.807  30.851  1.00  0.00    -0.237 OA
ATOM     84  O   UNL A   1      33.656  36.451  29.253  1.00  0.00    -0.237 OA
ATOM     85  O   UNL A   1      32.555  34.411  28.420  1.00  0.00    -0.744 OA
ENDBRANCH  81  82
ENDBRANCH  53  76
BRANCH  65  86
ATOM     86  C   UNL A   1      43.631  34.541  32.036  1.00  0.00    -0.014 A 
ATOM     87  C   UNL A   1      43.506  34.764  33.418  1.00  0.00     0.010 A 
ATOM     88  C   UNL A   1      44.340  35.475  31.255  1.00  0.00     0.010 A 
ATOM     89  C   UNL A   1      44.049  35.912  34.002  1.00  0.00     0.020 A 
ATOM     90  C   UNL A   1      44.914  36.606  31.840  1.00  0.00     0.020 A 
ATOM     91  C   UNL A   1      44.752  36.825  33.208  1.00  0.00     0.054 A 
BRANCH  91  92
ATOM     92  S   UNL A   1      45.487  38.283  33.999  1.00  0.00     0.124 S 
ATOM     93  O   UNL A   1      45.459  37.911  35.410  1.00  0.00    -0.237 OA
ATOM     94  O   UNL A   1      46.814  38.343  33.390  1.00  0.00    -0.237 OA
ATOM     95  O   UNL A   1      44.587  39.372  33.624  1.00  0.00    -0.744 OA
ENDBRANCH  91  92
ENDBRANCH  65  86
ENDBRANCH  39  40
ENDBRANCH  32  34
ENDBRANCH  31  32
ENDBRANCH  30  31
ENDBRANCH  29  30
ENDBRANCH  28  29
ENDBRANCH  27  28
ENDBRANCH  26  27
ENDBRANCH  25  26
ENDBRANCH   1  25
TORSDOF 27
ENDMDL
MODEL 2
REMARK VINA RESULT:      -9.1      1.859      2.444
REMARK SMILES C[C@H](C(=O)OCCOCCOCCOCCOC(=O)c1ccc(-c2c3nc(c(-c4ccc(S(=O)(=O)[O-])cc4)c4ccc([nH]4)c(-c4ccc(S(=O)(=O)[O-])cc4)c4nc(c(-c5ccc(S(=O)(=O)[O-])cc5)c5ccc2[nH]5)C=C4)C=C3)cc1)c1ccc(C[C@H]2CCC[C@@H]2O)cc1
REMARK SMILES IDX 10 1 9 2 8 3 7 4 6 5 5 6 3 7 4 8 2 9 1 10 80 11 81 12 92 13
REMARK SMILES IDX 82 14 91 15 83 16 84 17 85 18 86 19 89 20 87 21 88 22 90 23
REMARK SMILES IDX 11 25 12 26 13 27 14 28 15 29 16 30 17 31 18 32 19 33 20 34
REMARK SMILES IDX 21 35 79 36 22 37 78 38 23 39 24 40 25 41 72 42 26 43 77 44
REMARK SMILES IDX 71 45 73 46 27 47 76 48 70 49 69 50 28 52 58 53 39 54 57 55
REMARK SMILES IDX 40 56 43 57 56 58 74 59 41 60 42 61 55 63 75 64 44 65 29 66
REMARK SMILES IDX 30 67 38 68 31 69 37 70 32 71 33 72 34 73 35 74 36 75 59 76
REMARK SMILES IDX 60 77 68 78 61 79 67 80 62 81 63 82 64 83 65 84 66 85 45 86
REMARK SMILES IDX 46 87 54 88 47 89 53 90 48 91 49 92 50 93 51 94 52 95
REMARK H PARENT 90 24 73 51 43 62
REMARK Flexibility Score: inf
ROOT
ATOM      1  C   UNL A   1      32.356  25.345  22.083  1.00  0.00     0.188 C 
ENDROOT
BRANCH   1   2
ATOM      2  C   UNL A   1      31.798  26.714  21.671  1.00  0.00     0.188 C 
BRANCH   2   3
ATOM      3  O   UNL A   1      31.332  27.635  22.646  1.00  0.00    -0.376 OA
BRANCH   3   4
ATOM      4  C   UNL A   1      29.939  27.798  22.868  1.00  0.00     0.202 C 
BRANCH   4   5
ATOM      5  C   UNL A   1      29.242  27.048  24.022  1.00  0.00     0.261 C 
BRANCH   5   6
ATOM      6  O   UNL A   1      29.632  25.677  24.262  1.00  0.00    -0.463 OA
BRANCH   6   7
ATOM      7  C   UNL A   1      30.158  25.391  25.479  1.00  0.00     0.313 C 
ATOM      8  O   UNL A   1      29.489  25.332  26.510  1.00  0.00    -0.252 OA
BRANCH   7   9
ATOM      9  C   UNL A   1      31.655  25.056  25.496  1.00  0.00     0.126 C 
ATOM     10  C   UNL A   1      32.423  25.926  26.496  1.00  0.00     0.025 C 
BRANCH   9  11
ATOM     11  C   UNL A   1      32.098  23.596  25.513  1.00  0.00    -0.034 A 
ATOM     12  C   UNL A   1      31.641  22.772  24.476  1.00  0.00     0.005 A 
ATOM     13  C   UNL A   1      32.973  23.016  26.442  1.00  0.00     0.005 A 
ATOM     14  C   UNL A   1      31.969  21.419  24.425  1.00  0.00     0.004 A 
ATOM     15  C   UNL A   1      33.245  21.643  26.436  1.00  0.00     0.004 A 
ATOM     16  C   UNL A   1      32.690  20.820  25.458  1.00  0.00    -0.048 A 
BRANCH  16  17
ATOM     17  C   UNL A   1      32.795  19.319  25.564  1.00  0.00     0.041 C 
BRANCH  17  18
ATOM     18  C   UNL A   1      33.527  18.637  24.389  1.00  0.00     0.022 C 
ATOM     19  C   UNL A   1      34.763  17.800  24.767  1.00  0.00     0.007 C 
ATOM     20  C   UNL A   1      32.692  17.687  23.524  1.00  0.00     0.117 C 
ATOM     21  C   UNL A   1      34.803  16.632  23.773  1.00  0.00     0.003 C 
ATOM     22  C   UNL A   1      33.746  16.947  22.722  1.00  0.00     0.032 C 
BRANCH  20  23
ATOM     23  O   UNL A   1      31.785  18.382  22.691  1.00  0.00    -0.393 OA
ATOM     24  H   UNL A   1      31.486  19.188  23.138  1.00  0.00     0.210 HD
ENDBRANCH  20  23
ENDBRANCH  17  18
ENDBRANCH  16  17
ENDBRANCH   9  11
ENDBRANCH   7   9
ENDBRANCH   6   7
ENDBRANCH   5   6
ENDBRANCH   4   5
ENDBRANCH   3   4
ENDBRANCH   2   3
ENDBRANCH   1   2
BRANCH   1  25
ATOM     25  O   UNL A   1      33.754  25.183  21.986  1.00  0.00    -0.377 OA
BRANCH  25  26
ATOM     26  C   UNL A   1      34.420  24.661  23.122  1.00  0.00     0.188 C 
BRANCH  26  27
ATOM     27  C   UNL A   1      34.937  23.218  23.016  1.00  0.00     0.188 C 
BRANCH  27  28
ATOM     28  O   UNL A   1      35.657  22.793  24.169  1.00  0.00    -0.376 OA
BRANCH  28  29
ATOM     29  C   UNL A   1      37.063  22.623  24.082  1.00  0.00     0.202 C 
BRANCH  29  30
ATOM     30  C   UNL A   1      37.741  21.609  25.022  1.00  0.00     0.261 C 
BRANCH  30  31
ATOM     31  O   UNL A   1      38.274  22.108  26.257  1.00  0.00    -0.460 OA
BRANCH  31  32
ATOM     32  C   UNL A   1      39.614  22.156  26.403  1.00  0.00     0.338 C 
ATOM     33  O   UNL A   1      40.424  21.349  25.977  1.00  0.00    -0.246 OA
BRANCH  32  34
ATOM     34  C   UNL A   1      39.958  23.468  26.991  1.00  0.00     0.060 A 
ATOM     35  C   UNL A   1      39.404  24.627  26.430  1.00  0.00     0.016 A 
ATOM     36  C   UNL A   1      40.807  23.558  28.096  1.00  0.00     0.016 A 
ATOM     37  C   UNL A   1      39.726  25.882  26.951  1.00  0.00     0.010 A 
ATOM     38  C   UNL A   1      41.152  24.816  28.600  1.00  0.00     0.010 A 
ATOM     39  C   UNL A   1      40.641  25.985  28.006  1.00  0.00    -0.014 A 
BRANCH  39  40
ATOM     40  C   UNL A   1      41.226  27.306  28.345  1.00  0.00     0.031 A 
ATOM     41  C   UNL A   1      42.713  27.485  28.182  1.00  0.00     0.074 A 
ATOM     42  C   UNL A   1      40.463  28.330  28.765  1.00  0.00     0.049 A 
ATOM     43  N   UNL A   1      43.459  28.525  28.450  1.00  0.00    -0.248 NA
ATOM     44  C   UNL A   1      43.457  26.332  27.646  1.00  0.00     0.031 C 
ATOM     45  C   UNL A   1      39.009  28.301  28.911  1.00  0.00     0.029 A 
ATOM     46  N   UNL A   1      40.815  29.599  29.152  1.00  0.00    -0.354 N 
ATOM     47  C   UNL A   1      44.758  28.148  28.129  1.00  0.00     0.074 A 
ATOM     48  C   UNL A   1      44.704  26.777  27.672  1.00  0.00     0.031 C 
ATOM     49  C   UNL A   1      38.593  29.498  29.363  1.00  0.00     0.029 A 
ATOM     50  C   UNL A   1      39.752  30.363  29.574  1.00  0.00     0.049 A 
ATOM     51  H   UNL A   1      41.742  29.933  29.129  1.00  0.00     0.167 HD
ATOM     52  C   UNL A   1      45.896  28.879  28.205  1.00  0.00     0.031 A 
ATOM     53  C   UNL A   1      39.724  31.608  30.092  1.00  0.00     0.031 A 
ATOM     54  C   UNL A   1      45.948  30.237  28.676  1.00  0.00     0.049 A 
ATOM     55  C   UNL A   1      41.016  32.373  30.248  1.00  0.00     0.074 A 
ATOM     56  C   UNL A   1      47.049  31.069  28.777  1.00  0.00     0.029 A 
ATOM     57  N   UNL A   1      44.857  30.960  29.134  1.00  0.00    -0.354 N 
ATOM     58  N   UNL A   1      42.234  32.015  29.916  1.00  0.00    -0.248 NA
ATOM     59  C   UNL A   1      40.926  33.715  30.843  1.00  0.00     0.031 C 
ATOM     60  C   UNL A   1      46.636  32.269  29.362  1.00  0.00     0.029 A 
ATOM     61  C   UNL A   1      45.264  32.215  29.553  1.00  0.00     0.049 A 
ATOM     62  H   UNL A   1      43.930  30.628  29.159  1.00  0.00     0.167 HD
ATOM     63  C   UNL A   1      43.049  33.100  30.229  1.00  0.00     0.074 A 
ATOM     64  C   UNL A   1      42.183  34.130  30.764  1.00  0.00     0.031 C 
ATOM     65  C   UNL A   1      44.391  33.233  30.083  1.00  0.00     0.031 A 
BRANCH  52  66
ATOM     66  C   UNL A   1      47.185  28.204  27.814  1.00  0.00    -0.014 A 
ATOM     67  C   UNL A   1      48.061  27.678  28.781  1.00  0.00     0.010 A 
ATOM     68  C   UNL A   1      47.507  28.065  26.452  1.00  0.00     0.010 A 
ATOM     69  C   UNL A   1      49.254  27.060  28.393  1.00  0.00     0.020 A 
ATOM     70  C   UNL A   1      48.682  27.419  26.058  1.00  0.00     0.020 A 
ATOM     71  C   UNL A   1      49.556  26.934  27.033  1.00  0.00     0.054 A 
BRANCH  71  72
ATOM     72  S   UNL A   1      51.097  26.105  26.558  1.00  0.00     0.124 S 
ATOM     73  O   UNL A   1      50.804  24.713  26.892  1.00  0.00    -0.237 OA
ATOM     74  O   UNL A   1      51.191  26.400  25.131  1.00  0.00    -0.237 OA
ATOM     75  O   UNL A   1      52.109  26.746  27.393  1.00  0.00    -0.744 OA
ENDBRANCH  71  72
ENDBRANCH  52  66
BRANCH  53  76
ATOM     76  C   UNL A   1      38.430  32.211  30.520  1.00  0.00    -0.014 A 
ATOM     77  C   UNL A   1      37.886  31.925  31.785  1.00  0.00     0.010 A 
ATOM     78  C   UNL A   1      37.725  33.069  29.654  1.00  0.00     0.010 A 
ATOM     79  C   UNL A   1      36.658  32.470  32.169  1.00  0.00     0.020 A 
ATOM     80  C   UNL A   1      36.512  33.641  30.047  1.00  0.00     0.020 A 
ATOM     81  C   UNL A   1      35.981  33.329  31.299  1.00  0.00     0.054 A 
BRANCH  81  82
ATOM     82  S   UNL A   1      34.413  34.063  31.842  1.00  0.00     0.124 S 
ATOM     83  O   UNL A   1      33.872  33.021  32.707  1.00  0.00    -0.237 OA
ATOM     84  O   UNL A   1      34.856  35.281  32.518  1.00  0.00    -0.237 OA
ATOM     85  O   UNL A   1      33.687  34.283  30.593  1.00  0.00    -0.744 OA
ENDBRANCH  81  82
ENDBRANCH  53  76
BRANCH  65  86
ATOM     86  C   UNL A   1      45.011  34.554  30.463  1.00  0.00    -0.014 A 
ATOM     87  C   UNL A   1      45.543  34.777  31.745  1.00  0.00     0.010 A 
ATOM     88  C   UNL A   1      45.119  35.569  29.493  1.00  0.00     0.010 A 
ATOM     89  C   UNL A   1      46.140  36.001  32.060  1.00  0.00     0.020 A 
ATOM     90  C   UNL A   1      45.745  36.781  29.793  1.00  0.00     0.020 A 
ATOM     91  C   UNL A   1      46.239  36.996  31.081  1.00  0.00     0.054 A 
BRANCH  91  92
ATOM     92  S   UNL A   1      47.060  38.557  31.503  1.00  0.00     0.124 S 
ATOM     93  O   UNL A   1      47.107  38.493  32.961  1.00  0.00    -0.237 OA
ATOM     94  O   UNL A   1      48.349  38.434  30.826  1.00  0.00    -0.237 OA
ATOM     95  O   UNL A   1      46.169  39.577  30.953  1.00  0.00    -0.744 OA
ENDBRANCH  91  92
ENDBRANCH  65  86
ENDBRANCH  39  40
ENDBRANCH  32  34
ENDBRANCH  31  32
ENDBRANCH  30  31
ENDBRANCH  29  30
ENDBRANCH  28  29
ENDBRANCH  27  28
ENDBRANCH  26  27
ENDBRANCH  25  26
ENDBRANCH   1  25
TORSDOF 27
ENDMDL
MODEL 3
REMARK VINA RESULT:      -8.2      6.073     11.769
REMARK SMILES C[C@H](C(=O)OCCOCCOCCOCCOC(=O)c1ccc(-c2c3nc(c(-c4ccc(S(=O)(=O)[O-])cc4)c4ccc([nH]4)c(-c4ccc(S(=O)(=O)[O-])cc4)c4nc(c(-c5ccc(S(=O)(=O)[O-])cc5)c5ccc2[nH]5)C=C4)C=C3)cc1)c1ccc(C[C@H]2CCC[C@@H]2O)cc1
REMARK SMILES IDX 10 1 9 2 8 3 7 4 6 5 5 6 3 7 4 8 2 9 1 10 80 11 81 12 92 13
REMARK SMILES IDX 82 14 91 15 83 16 84 17 85 18 86 19 89 20 87 21 88 22 90 23
REMARK SMILES IDX 11 25 12 26 13 27 14 28 15 29 16 30 17 31 18 32 19 33 20 34
REMARK SMILES IDX 21 35 79 36 22 37 78 38 23 39 24 40 25 41 72 42 26 43 77 44
REMARK SMILES IDX 71 45 73 46 27 47 76 48 70 49 69 50 28 52 58 53 39 54 57 55
REMARK SMILES IDX 40 56 43 57 56 58 74 59 41 60 42 61 55 63 75 64 44 65 29 66
REMARK SMILES IDX 30 67 38 68 31 69 37 70 32 71 33 72 34 73 35 74 36 75 59 76
REMARK SMILES IDX 60 77 68 78 61 79 67 80 62 81 63 82 64 83 65 84 66 85 45 86
REMARK SMILES IDX 46 87 54 88 47 89 53 90 48 91 49 92 50 93 51 94 52 95
REMARK H PARENT 90 24 73 51 43 62
REMARK Flexibility Score: inf
ROOT
ATOM      1  C   UNL A   1      37.238  30.669  29.783  1.00  0.00     0.188 C 
ENDROOT
BRANCH   1   2
ATOM      2  C   UNL A   1      38.646  31.120  30.192  1.00  0.00     0.188 C 
BRANCH   2   3
ATOM      3  O   UNL A   1      39.403  30.382  31.139  1.00  0.00    -0.376 OA
BRANCH   3   4
ATOM      4  C   UNL A   1      40.324  29.392  30.703  1.00  0.00     0.202 C 
BRANCH   4   5
ATOM      5  C   UNL A   1      39.824  28.143  29.949  1.00  0.00     0.261 C 
BRANCH   5   6
ATOM      6  O   UNL A   1      40.565  27.727  28.779  1.00  0.00    -0.463 OA
BRANCH   6   7
ATOM      7  C   UNL A   1      40.538  28.557  27.706  1.00  0.00     0.313 C 
ATOM      8  O   UNL A   1      39.518  29.120  27.311  1.00  0.00    -0.252 OA
BRANCH   7   9
ATOM      9  C   UNL A   1      41.892  28.830  27.040  1.00  0.00     0.126 C 
ATOM     10  C   UNL A   1      42.634  29.992  27.710  1.00  0.00     0.025 C 
BRANCH   9  11
ATOM     11  C   UNL A   1      42.808  27.660  26.692  1.00  0.00    -0.034 A 
ATOM     12  C   UNL A   1      43.716  27.238  27.673  1.00  0.00     0.005 A 
ATOM     13  C   UNL A   1      42.781  26.927  25.497  1.00  0.00     0.005 A 
ATOM     14  C   UNL A   1      44.610  26.197  27.433  1.00  0.00     0.004 A 
ATOM     15  C   UNL A   1      43.726  25.931  25.227  1.00  0.00     0.004 A 
ATOM     16  C   UNL A   1      44.693  25.602  26.175  1.00  0.00    -0.048 A 
BRANCH  16  17
ATOM     17  C   UNL A   1      45.844  24.693  25.819  1.00  0.00     0.041 C 
BRANCH  17  18
ATOM     18  C   UNL A   1      45.491  23.192  25.770  1.00  0.00     0.022 C 
ATOM     19  C   UNL A   1      44.161  22.795  26.437  1.00  0.00     0.007 C 
ATOM     20  C   UNL A   1      45.408  22.556  24.378  1.00  0.00     0.117 C 
ATOM     21  C   UNL A   1      43.609  21.623  25.614  1.00  0.00     0.003 C 
ATOM     22  C   UNL A   1      44.724  21.229  24.654  1.00  0.00     0.032 C 
BRANCH  20  23
ATOM     23  O   UNL A   1      46.683  22.382  23.793  1.00  0.00    -0.393 OA
ATOM     24  H   UNL A   1      47.369  22.518  24.464  1.00  0.00     0.210 HD
ENDBRANCH  20  23
ENDBRANCH  17  18
ENDBRANCH  16  17
ENDBRANCH   9  11
ENDBRANCH   7   9
ENDBRANCH   6   7
ENDBRANCH   5   6
ENDBRANCH   4   5
ENDBRANCH   3   4
ENDBRANCH   2   3
ENDBRANCH   1   2
BRANCH   1  25
ATOM     25  O   UNL A   1      36.161  31.370  30.366  1.00  0.00    -0.377 OA
BRANCH  25  26
ATOM     26  C   UNL A   1      35.933  31.161  31.748  1.00  0.00     0.188 C 
BRANCH  26  27
ATOM     27  C   UNL A   1      35.455  32.375  32.560  1.00  0.00     0.188 C 
BRANCH  27  28
ATOM     28  O   UNL A   1      36.098  32.493  33.826  1.00  0.00    -0.376 OA
BRANCH  28  29
ATOM     29  C   UNL A   1      36.247  33.777  34.409  1.00  0.00     0.202 C 
BRANCH  29  30
ATOM     30  C   UNL A   1      36.230  33.895  35.945  1.00  0.00     0.261 C 
BRANCH  30  31
ATOM     31  O   UNL A   1      37.481  33.752  36.631  1.00  0.00    -0.460 OA
BRANCH  31  32
ATOM     32  C   UNL A   1      37.767  32.562  37.199  1.00  0.00     0.338 C 
ATOM     33  O   UNL A   1      37.133  32.001  38.078  1.00  0.00    -0.246 OA
BRANCH  32  34
ATOM     34  C   UNL A   1      38.869  31.947  36.428  1.00  0.00     0.060 A 
ATOM     35  C   UNL A   1      40.182  32.380  36.661  1.00  0.00     0.016 A 
ATOM     36  C   UNL A   1      38.615  30.941  35.492  1.00  0.00     0.016 A 
ATOM     37  C   UNL A   1      41.240  31.833  35.933  1.00  0.00     0.010 A 
ATOM     38  C   UNL A   1      39.672  30.414  34.744  1.00  0.00     0.010 A 
ATOM     39  C   UNL A   1      40.984  30.884  34.936  1.00  0.00    -0.014 A 
BRANCH  39  40
ATOM     40  C   UNL A   1      42.044  30.543  33.956  1.00  0.00     0.031 A 
ATOM     41  C   UNL A   1      42.375  31.554  32.889  1.00  0.00     0.074 A 
ATOM     42  C   UNL A   1      42.717  29.381  34.017  1.00  0.00     0.049 A 
ATOM     43  N   UNL A   1      43.228  31.472  31.902  1.00  0.00    -0.248 NA
ATOM     44  C   UNL A   1      41.639  32.829  32.945  1.00  0.00     0.031 C 
ATOM     45  C   UNL A   1      42.530  28.345  35.032  1.00  0.00     0.029 A 
ATOM     46  N   UNL A   1      43.695  28.875  33.197  1.00  0.00    -0.354 N 
ATOM     47  C   UNL A   1      43.122  32.674  31.212  1.00  0.00     0.074 A 
ATOM     48  C   UNL A   1      42.105  33.458  31.877  1.00  0.00     0.031 C 
ATOM     49  C   UNL A   1      43.365  27.322  34.768  1.00  0.00     0.029 A 
ATOM     50  C   UNL A   1      44.115  27.614  33.548  1.00  0.00     0.049 A 
ATOM     51  H   UNL A   1      44.062  29.370  32.428  1.00  0.00     0.167 HD
ATOM     52  C   UNL A   1      43.812  33.092  30.125  1.00  0.00     0.031 A 
ATOM     53  C   UNL A   1      44.987  26.784  32.940  1.00  0.00     0.031 A 
ATOM     54  C   UNL A   1      44.812  32.303  29.456  1.00  0.00     0.049 A 
ATOM     55  C   UNL A   1      45.682  27.237  31.679  1.00  0.00     0.074 A 
ATOM     56  C   UNL A   1      45.578  32.641  28.355  1.00  0.00     0.029 A 
ATOM     57  N   UNL A   1      45.177  31.015  29.818  1.00  0.00    -0.354 N 
ATOM     58  N   UNL A   1      45.592  28.387  31.053  1.00  0.00    -0.248 NA
ATOM     59  C   UNL A   1      46.602  26.279  31.047  1.00  0.00     0.031 C 
ATOM     60  C   UNL A   1      46.356  31.532  28.008  1.00  0.00     0.029 A 
ATOM     61  C   UNL A   1      46.132  30.530  28.940  1.00  0.00     0.049 A 
ATOM     62  H   UNL A   1      44.811  30.518  30.585  1.00  0.00     0.167 HD
ATOM     63  C   UNL A   1      46.470  28.303  29.975  1.00  0.00     0.074 A 
ATOM     64  C   UNL A   1      47.089  26.996  30.043  1.00  0.00     0.031 C 
ATOM     65  C   UNL A   1      46.742  29.226  29.019  1.00  0.00     0.031 A 
BRANCH  52  66
ATOM     66  C   UNL A   1      43.472  34.447  29.561  1.00  0.00    -0.014 A 
ATOM     67  C   UNL A   1      42.416  34.619  28.647  1.00  0.00     0.010 A 
ATOM     68  C   UNL A   1      44.203  35.573  29.980  1.00  0.00     0.010 A 
ATOM     69  C   UNL A   1      42.123  35.887  28.136  1.00  0.00     0.020 A 
ATOM     70  C   UNL A   1      43.893  36.847  29.496  1.00  0.00     0.020 A 
ATOM     71  C   UNL A   1      42.864  36.993  28.564  1.00  0.00     0.054 A 
BRANCH  71  72
ATOM     72  S   UNL A   1      42.444  38.628  27.903  1.00  0.00     0.124 S 
ATOM     73  O   UNL A   1      41.692  38.282  26.699  1.00  0.00    -0.237 OA
ATOM     74  O   UNL A   1      41.660  39.218  28.984  1.00  0.00    -0.237 OA
ATOM     75  O   UNL A   1      43.744  39.252  27.666  1.00  0.00    -0.744 OA
ENDBRANCH  71  72
ENDBRANCH  52  66
BRANCH  53  76
ATOM     76  C   UNL A   1      45.246  25.429  33.504  1.00  0.00    -0.014 A 
ATOM     77  C   UNL A   1      46.293  25.216  34.418  1.00  0.00     0.010 A 
ATOM     78  C   UNL A   1      44.448  24.335  33.117  1.00  0.00     0.010 A 
ATOM     79  C   UNL A   1      46.548  23.937  34.919  1.00  0.00     0.020 A 
ATOM     80  C   UNL A   1      44.679  23.060  33.642  1.00  0.00     0.020 A 
ATOM     81  C   UNL A   1      45.736  22.868  34.532  1.00  0.00     0.054 A 
BRANCH  81  82
ATOM     82  S   UNL A   1      46.057  21.227  35.238  1.00  0.00     0.124 S 
ATOM     83  O   UNL A   1      47.367  20.907  34.681  1.00  0.00    -0.237 OA
ATOM     84  O   UNL A   1      46.028  21.494  36.674  1.00  0.00    -0.237 OA
ATOM     85  O   UNL A   1      44.948  20.417  34.740  1.00  0.00    -0.744 OA
ENDBRANCH  81  82
ENDBRANCH  53  76
BRANCH  65  86
ATOM     86  C   UNL A   1      47.787  28.882  27.987  1.00  0.00    -0.014 A 
ATOM     87  C   UNL A   1      49.150  29.149  28.201  1.00  0.00     0.010 A 
ATOM     88  C   UNL A   1      47.398  28.218  26.808  1.00  0.00     0.010 A 
ATOM     89  C   UNL A   1      50.101  28.790  27.241  1.00  0.00     0.020 A 
ATOM     90  C   UNL A   1      48.348  27.827  25.861  1.00  0.00     0.020 A 
ATOM     91  C   UNL A   1      49.693  28.129  26.077  1.00  0.00     0.054 A 
BRANCH  91  92
ATOM     92  S   UNL A   1      50.952  27.634  24.869  1.00  0.00     0.124 S 
ATOM     93  O   UNL A   1      50.912  26.177  24.968  1.00  0.00    -0.237 OA
ATOM     94  O   UNL A   1      50.436  28.194  23.621  1.00  0.00    -0.237 OA
ATOM     95  O   UNL A   1      52.176  28.258  25.366  1.00  0.00    -0.744 OA
ENDBRANCH  91  92
ENDBRANCH  65  86
ENDBRANCH  39  40
ENDBRANCH  32  34
ENDBRANCH  31  32
ENDBRANCH  30  31
ENDBRANCH  29  30
ENDBRANCH  28  29
ENDBRANCH  27  28
ENDBRANCH  26  27
ENDBRANCH  25  26
ENDBRANCH   1  25
TORSDOF 27
ENDMDL
