MODEL 1
REMARK VINA RESULT:      -9.2      0.000      0.000
REMARK SMILES C=Cc1cccc(-c2ccc([C@@H](C)C(=O)OCCOCCOCCOCCOC(=O)c3ccc(-c4c5nc(c(-c6ccc(S(=O)(=O)[O-])cc6)c6ccc([nH]6)c(-c6ccc(S(=O)(=O)[O-])cc6)c6nc(c(-c7ccc(S(=O)(=O)[O-])cc7)c7ccc4[nH]7)C=C6)C=C5)cc3)cc2)c1
REMARK SMILES IDX 22 1 21 2 20 3 19 4 18 5 17 6 16 7 14 8 15 9 12 10 13 11
REMARK SMILES IDX 11 12 8 13 9 14 92 15 10 16 91 17 7 18 3 19 4 20 93 21 5 22
REMARK SMILES IDX 6 23 2 24 1 25 23 26 24 27 25 28 26 29 27 30 28 31 29 32
REMARK SMILES IDX 30 33 31 34 32 35 90 36 33 37 89 38 34 39 35 40 36 41 83 42
REMARK SMILES IDX 37 43 88 44 82 45 84 46 38 47 87 48 81 49 80 50 39 52 69 53
REMARK SMILES IDX 50 54 68 55 51 56 54 57 67 58 85 59 52 60 53 61 66 63 86 64
REMARK SMILES IDX 55 65 40 66 41 67 49 68 42 69 48 70 43 71 44 72 45 73 46 74
REMARK SMILES IDX 47 75 70 76 71 77 79 78 72 79 78 80 73 81 74 82 75 83 76 84
REMARK SMILES IDX 77 85 56 86 57 87 65 88 58 89 64 90 59 91 60 92 61 93 62 94
REMARK SMILES IDX 63 95
REMARK H PARENT 84 51 54 62
REMARK Flexibility Score: inf
ROOT
ATOM      1  O   UNL A   1      34.818  28.746  26.475  1.00  0.00    -0.377 OA
ENDROOT
BRANCH   1   2
ATOM      2  C   UNL A   1      33.527  28.525  25.948  1.00  0.00     0.188 C 
BRANCH   2   3
ATOM      3  C   UNL A   1      32.746  27.363  26.578  1.00  0.00     0.188 C 
BRANCH   3   4
ATOM      4  O   UNL A   1      32.869  26.034  26.087  1.00  0.00    -0.376 OA
BRANCH   4   5
ATOM      5  C   UNL A   1      34.096  25.574  25.539  1.00  0.00     0.202 C 
BRANCH   5   6
ATOM      6  C   UNL A   1      34.513  24.097  25.678  1.00  0.00     0.261 C 
BRANCH   6   7
ATOM      7  O   UNL A   1      34.306  23.246  24.530  1.00  0.00    -0.463 OA
BRANCH   7   8
ATOM      8  C   UNL A   1      33.032  22.864  24.287  1.00  0.00     0.313 C 
ATOM      9  O   UNL A   1      32.414  22.072  24.999  1.00  0.00    -0.252 OA
BRANCH   8  10
ATOM     10  C   UNL A   1      32.379  23.452  23.036  1.00  0.00     0.126 C 
ATOM     11  C   UNL A   1      33.410  23.460  21.913  1.00  0.00     0.025 C 
BRANCH  10  12
ATOM     12  C   UNL A   1      31.597  24.767  23.081  1.00  0.00    -0.034 A 
ATOM     13  C   UNL A   1      30.059  27.184  23.270  1.00  0.00    -0.018 A 
ATOM     14  C   UNL A   1      31.177  27.082  22.422  1.00  0.00     0.009 A 
ATOM     15  C   UNL A   1      29.728  26.055  24.029  1.00  0.00     0.009 A 
ATOM     16  C   UNL A   1      31.931  25.895  22.323  1.00  0.00     0.005 A 
ATOM     17  C   UNL A   1      30.473  24.868  23.928  1.00  0.00     0.005 A 
BRANCH  13  18
ATOM     18  C   UNL A   1      29.220  28.402  23.307  1.00  0.00    -0.018 A 
ATOM     19  C   UNL A   1      28.947  30.841  23.449  1.00  0.00    -0.026 A 
ATOM     20  C   UNL A   1      27.559  30.678  23.485  1.00  0.00     0.008 A 
ATOM     21  C   UNL A   1      29.769  29.700  23.370  1.00  0.00     0.016 A 
ATOM     22  C   UNL A   1      26.997  29.406  23.417  1.00  0.00     0.001 A 
ATOM     23  C   UNL A   1      27.820  28.282  23.327  1.00  0.00     0.009 A 
BRANCH  19  24
ATOM     24  C   UNL A   1      29.480  32.206  23.557  1.00  0.00     0.000 C 
ATOM     25  C   UNL A   1      28.811  33.311  23.203  1.00  0.00     0.009 C 
ENDBRANCH  19  24
ENDBRANCH  13  18
ENDBRANCH  10  12
ENDBRANCH   8  10
ENDBRANCH   7   8
ENDBRANCH   6   7
ENDBRANCH   5   6
ENDBRANCH   4   5
ENDBRANCH   3   4
ENDBRANCH   2   3
ENDBRANCH   1   2
BRANCH   1  26
ATOM     26  C   UNL A   1      34.914  29.657  27.556  1.00  0.00     0.188 C 
BRANCH  26  27
ATOM     27  C   UNL A   1      34.131  30.976  27.421  1.00  0.00     0.188 C 
BRANCH  27  28
ATOM     28  O   UNL A   1      34.043  31.724  28.630  1.00  0.00    -0.376 OA
BRANCH  28  29
ATOM     29  C   UNL A   1      35.099  32.619  28.955  1.00  0.00     0.202 C 
BRANCH  29  30
ATOM     30  C   UNL A   1      36.210  32.127  29.902  1.00  0.00     0.261 C 
BRANCH  30  31
ATOM     31  O   UNL A   1      36.102  30.781  30.390  1.00  0.00    -0.460 OA
BRANCH  31  32
ATOM     32  C   UNL A   1      37.043  30.353  31.253  1.00  0.00     0.338 C 
ATOM     33  O   UNL A   1      36.848  29.849  32.350  1.00  0.00    -0.246 OA
BRANCH  32  34
ATOM     34  C   UNL A   1      38.359  30.390  30.581  1.00  0.00     0.060 A 
ATOM     35  C   UNL A   1      38.539  29.609  29.433  1.00  0.00     0.016 A 
ATOM     36  C   UNL A   1      39.415  31.152  31.090  1.00  0.00     0.016 A 
ATOM     37  C   UNL A   1      39.795  29.520  28.837  1.00  0.00     0.010 A 
ATOM     38  C   UNL A   1      40.682  31.043  30.505  1.00  0.00     0.010 A 
ATOM     39  C   UNL A   1      40.889  30.179  29.414  1.00  0.00    -0.014 A 
BRANCH  39  40
ATOM     40  C   UNL A   1      42.255  29.737  29.037  1.00  0.00     0.031 A 
ATOM     41  C   UNL A   1      42.432  28.314  28.565  1.00  0.00     0.074 A 
ATOM     42  C   UNL A   1      43.295  30.589  29.017  1.00  0.00     0.049 A 
ATOM     43  N   UNL A   1      43.505  27.711  28.125  1.00  0.00    -0.248 NA
ATOM     44  C   UNL A   1      41.232  27.460  28.589  1.00  0.00     0.031 C 
ATOM     45  C   UNL A   1      43.242  32.000  29.396  1.00  0.00     0.029 A 
ATOM     46  N   UNL A   1      44.602  30.386  28.647  1.00  0.00    -0.354 N 
ATOM     47  C   UNL A   1      43.111  26.411  27.826  1.00  0.00     0.074 A 
ATOM     48  C   UNL A   1      41.712  26.299  28.172  1.00  0.00     0.031 C 
ATOM     49  C   UNL A   1      44.464  32.539  29.234  1.00  0.00     0.029 A 
ATOM     50  C   UNL A   1      45.389  31.506  28.768  1.00  0.00     0.049 A 
ATOM     51  H   UNL A   1      44.942  29.521  28.327  1.00  0.00     0.167 HD
ATOM     52  C   UNL A   1      43.842  25.400  27.299  1.00  0.00     0.031 A 
ATOM     53  C   UNL A   1      46.707  31.676  28.536  1.00  0.00     0.031 A 
ATOM     54  C   UNL A   1      45.238  25.506  26.968  1.00  0.00     0.049 A 
ATOM     55  C   UNL A   1      47.518  30.514  28.018  1.00  0.00     0.074 A 
ATOM     56  C   UNL A   1      46.069  24.542  26.425  1.00  0.00     0.029 A 
ATOM     57  N   UNL A   1      46.011  26.643  27.155  1.00  0.00    -0.354 N 
ATOM     58  N   UNL A   1      47.127  29.296  27.722  1.00  0.00    -0.248 NA
ATOM     59  C   UNL A   1      48.948  30.760  27.782  1.00  0.00     0.031 C 
ATOM     60  C   UNL A   1      47.360  25.076  26.345  1.00  0.00     0.029 A 
ATOM     61  C   UNL A   1      47.316  26.396  26.763  1.00  0.00     0.049 A 
ATOM     62  H   UNL A   1      45.681  27.497  27.513  1.00  0.00     0.167 HD
ATOM     63  C   UNL A   1      48.255  28.643  27.233  1.00  0.00     0.074 A 
ATOM     64  C   UNL A   1      49.336  29.607  27.254  1.00  0.00     0.031 C 
ATOM     65  C   UNL A   1      48.385  27.363  26.798  1.00  0.00     0.031 A 
BRANCH  52  66
ATOM     66  C   UNL A   1      43.150  24.077  27.090  1.00  0.00    -0.014 A 
ATOM     67  C   UNL A   1      43.046  23.130  28.126  1.00  0.00     0.010 A 
ATOM     68  C   UNL A   1      42.572  23.787  25.841  1.00  0.00     0.010 A 
ATOM     69  C   UNL A   1      42.412  21.904  27.903  1.00  0.00     0.020 A 
ATOM     70  C   UNL A   1      41.908  22.577  25.625  1.00  0.00     0.020 A 
ATOM     71  C   UNL A   1      41.847  21.636  26.653  1.00  0.00     0.054 A 
BRANCH  71  72
ATOM     72  S   UNL A   1      41.009  20.048  26.401  1.00  0.00     0.124 S 
ATOM     73  O   UNL A   1      41.115  19.437  27.724  1.00  0.00    -0.237 OA
ATOM     74  O   UNL A   1      39.664  20.456  26.004  1.00  0.00    -0.237 OA
ATOM     75  O   UNL A   1      41.796  19.402  25.353  1.00  0.00    -0.744 OA
ENDBRANCH  71  72
ENDBRANCH  52  66
BRANCH  53  76
ATOM     76  C   UNL A   1      47.350  32.994  28.799  1.00  0.00    -0.014 A 
ATOM     77  C   UNL A   1      47.844  33.783  27.746  1.00  0.00     0.010 A 
ATOM     78  C   UNL A   1      47.483  33.462  30.120  1.00  0.00     0.010 A 
ATOM     79  C   UNL A   1      48.478  35.002  28.007  1.00  0.00     0.020 A 
ATOM     80  C   UNL A   1      48.086  34.695  30.384  1.00  0.00     0.020 A 
ATOM     81  C   UNL A   1      48.591  35.452  29.327  1.00  0.00     0.054 A 
BRANCH  81  82
ATOM     82  S   UNL A   1      49.372  37.059  29.639  1.00  0.00     0.124 S 
ATOM     83  O   UNL A   1      50.770  36.786  29.324  1.00  0.00    -0.237 OA
ATOM     84  O   UNL A   1      48.670  37.936  28.705  1.00  0.00    -0.237 OA
ATOM     85  O   UNL A   1      49.086  37.310  31.051  1.00  0.00    -0.744 OA
ENDBRANCH  81  82
ENDBRANCH  53  76
BRANCH  65  86
ATOM     86  C   UNL A   1      49.734  26.945  26.265  1.00  0.00    -0.014 A 
ATOM     87  C   UNL A   1      50.149  27.278  24.963  1.00  0.00     0.010 A 
ATOM     88  C   UNL A   1      50.608  26.217  27.095  1.00  0.00     0.010 A 
ATOM     89  C   UNL A   1      51.387  26.840  24.482  1.00  0.00     0.020 A 
ATOM     90  C   UNL A   1      51.861  25.809  26.630  1.00  0.00     0.020 A 
ATOM     91  C   UNL A   1      52.232  26.101  25.317  1.00  0.00     0.054 A 
BRANCH  91  92
ATOM     92  S   UNL A   1      53.829  25.540  24.669  1.00  0.00     0.124 S 
ATOM     93  O   UNL A   1      54.097  26.525  23.626  1.00  0.00    -0.237 OA
ATOM     94  O   UNL A   1      54.696  25.616  25.844  1.00  0.00    -0.237 OA
ATOM     95  O   UNL A   1      53.555  24.187  24.192  1.00  0.00    -0.744 OA
ENDBRANCH  91  92
ENDBRANCH  65  86
ENDBRANCH  39  40
ENDBRANCH  32  34
ENDBRANCH  31  32
ENDBRANCH  30  31
ENDBRANCH  29  30
ENDBRANCH  28  29
ENDBRANCH  27  28
ENDBRANCH  26  27
ENDBRANCH   1  26
TORSDOF 26
ENDMDL
MODEL 2
REMARK VINA RESULT:      -9.0      4.525     12.389
REMARK SMILES C=Cc1cccc(-c2ccc([C@@H](C)C(=O)OCCOCCOCCOCCOC(=O)c3ccc(-c4c5nc(c(-c6ccc(S(=O)(=O)[O-])cc6)c6ccc([nH]6)c(-c6ccc(S(=O)(=O)[O-])cc6)c6nc(c(-c7ccc(S(=O)(=O)[O-])cc7)c7ccc4[nH]7)C=C6)C=C5)cc3)cc2)c1
REMARK SMILES IDX 22 1 21 2 20 3 19 4 18 5 17 6 16 7 14 8 15 9 12 10 13 11
REMARK SMILES IDX 11 12 8 13 9 14 92 15 10 16 91 17 7 18 3 19 4 20 93 21 5 22
REMARK SMILES IDX 6 23 2 24 1 25 23 26 24 27 25 28 26 29 27 30 28 31 29 32
REMARK SMILES IDX 30 33 31 34 32 35 90 36 33 37 89 38 34 39 35 40 36 41 83 42
REMARK SMILES IDX 37 43 88 44 82 45 84 46 38 47 87 48 81 49 80 50 39 52 69 53
REMARK SMILES IDX 50 54 68 55 51 56 54 57 67 58 85 59 52 60 53 61 66 63 86 64
REMARK SMILES IDX 55 65 40 66 41 67 49 68 42 69 48 70 43 71 44 72 45 73 46 74
REMARK SMILES IDX 47 75 70 76 71 77 79 78 72 79 78 80 73 81 74 82 75 83 76 84
REMARK SMILES IDX 77 85 56 86 57 87 65 88 58 89 64 90 59 91 60 92 61 93 62 94
REMARK SMILES IDX 63 95
REMARK H PARENT 84 51 54 62
REMARK Flexibility Score: inf
ROOT
ATOM      1  O   UNL A   1      43.857  23.327  24.335  1.00  0.00    -0.377 OA
ENDROOT
BRANCH   1   2
ATOM      2  C   UNL A   1      43.801  22.137  25.092  1.00  0.00     0.188 C 
BRANCH   2   3
ATOM      3  C   UNL A   1      44.688  20.990  24.587  1.00  0.00     0.188 C 
BRANCH   3   4
ATOM      4  O   UNL A   1      44.772  19.755  25.286  1.00  0.00    -0.376 OA
BRANCH   4   5
ATOM      5  C   UNL A   1      43.769  18.763  25.128  1.00  0.00     0.202 C 
BRANCH   5   6
ATOM      6  C   UNL A   1      42.526  18.750  26.041  1.00  0.00     0.261 C 
BRANCH   6   7
ATOM      7  O   UNL A   1      41.409  19.571  25.640  1.00  0.00    -0.463 OA
BRANCH   7   8
ATOM      8  C   UNL A   1      40.852  20.340  26.603  1.00  0.00     0.313 C 
ATOM      9  O   UNL A   1      40.770  19.996  27.782  1.00  0.00    -0.252 OA
BRANCH   8  10
ATOM     10  C   UNL A   1      40.286  21.685  26.148  1.00  0.00     0.126 C 
ATOM     11  C   UNL A   1      40.778  22.765  27.104  1.00  0.00     0.025 C 
BRANCH  10  12
ATOM     12  C   UNL A   1      38.800  21.862  25.828  1.00  0.00    -0.034 A 
ATOM     13  C   UNL A   1      36.025  22.328  25.257  1.00  0.00    -0.018 A 
ATOM     14  C   UNL A   1      36.642  21.096  24.975  1.00  0.00     0.009 A 
ATOM     15  C   UNL A   1      36.824  23.328  25.825  1.00  0.00     0.009 A 
ATOM     16  C   UNL A   1      38.003  20.862  25.259  1.00  0.00     0.005 A 
ATOM     17  C   UNL A   1      38.179  23.097  26.115  1.00  0.00     0.005 A 
BRANCH  13  18
ATOM     18  C   UNL A   1      34.577  22.541  25.037  1.00  0.00    -0.018 A 
ATOM     19  C   UNL A   1      32.292  22.910  25.866  1.00  0.00    -0.026 A 
ATOM     20  C   UNL A   1      31.810  22.829  24.555  1.00  0.00     0.008 A 
ATOM     21  C   UNL A   1      33.673  22.755  26.099  1.00  0.00     0.016 A 
ATOM     22  C   UNL A   1      32.687  22.625  23.493  1.00  0.00     0.001 A 
ATOM     23  C   UNL A   1      34.055  22.485  23.734  1.00  0.00     0.009 A 
BRANCH  19  24
ATOM     24  C   UNL A   1      31.313  23.094  26.946  1.00  0.00     0.000 C 
ATOM     25  C   UNL A   1      29.989  22.956  26.800  1.00  0.00     0.009 C 
ENDBRANCH  19  24
ENDBRANCH  13  18
ENDBRANCH  10  12
ENDBRANCH   8  10
ENDBRANCH   7   8
ENDBRANCH   6   7
ENDBRANCH   5   6
ENDBRANCH   4   5
ENDBRANCH   3   4
ENDBRANCH   2   3
ENDBRANCH   1   2
BRANCH   1  26
ATOM     26  C   UNL A   1      43.640  24.537  25.040  1.00  0.00     0.188 C 
BRANCH  26  27
ATOM     27  C   UNL A   1      44.810  25.536  25.076  1.00  0.00     0.188 C 
BRANCH  27  28
ATOM     28  O   UNL A   1      45.812  25.220  26.038  1.00  0.00    -0.376 OA
BRANCH  28  29
ATOM     29  C   UNL A   1      46.868  24.346  25.661  1.00  0.00     0.202 C 
BRANCH  29  30
ATOM     30  C   UNL A   1      47.625  24.636  24.351  1.00  0.00     0.261 C 
BRANCH  30  31
ATOM     31  O   UNL A   1      47.791  26.013  23.984  1.00  0.00    -0.460 OA
BRANCH  31  32
ATOM     32  C   UNL A   1      48.679  26.744  24.685  1.00  0.00     0.338 C 
ATOM     33  O   UNL A   1      49.883  26.815  24.481  1.00  0.00    -0.246 OA
BRANCH  32  34
ATOM     34  C   UNL A   1      47.944  27.622  25.619  1.00  0.00     0.060 A 
ATOM     35  C   UNL A   1      46.929  28.437  25.102  1.00  0.00     0.016 A 
ATOM     36  C   UNL A   1      48.268  27.674  26.977  1.00  0.00     0.016 A 
ATOM     37  C   UNL A   1      46.292  29.366  25.921  1.00  0.00     0.010 A 
ATOM     38  C   UNL A   1      47.644  28.624  27.795  1.00  0.00     0.010 A 
ATOM     39  C   UNL A   1      46.698  29.515  27.253  1.00  0.00    -0.014 A 
BRANCH  39  40
ATOM     40  C   UNL A   1      46.329  30.763  27.967  1.00  0.00     0.031 A 
ATOM     41  C   UNL A   1      47.213  31.972  27.778  1.00  0.00     0.074 A 
ATOM     42  C   UNL A   1      45.194  30.861  28.682  1.00  0.00     0.049 A 
ATOM     43  N   UNL A   1      47.070  33.187  28.241  1.00  0.00    -0.248 NA
ATOM     44  C   UNL A   1      48.417  31.783  26.952  1.00  0.00     0.031 C 
ATOM     45  C   UNL A   1      44.229  29.783  28.893  1.00  0.00     0.029 A 
ATOM     46  N   UNL A   1      44.658  31.931  29.355  1.00  0.00    -0.354 N 
ATOM     47  C   UNL A   1      48.165  33.901  27.767  1.00  0.00     0.074 A 
ATOM     48  C   UNL A   1      48.984  32.977  27.015  1.00  0.00     0.031 C 
ATOM     49  C   UNL A   1      43.214  30.249  29.643  1.00  0.00     0.029 A 
ATOM     50  C   UNL A   1      43.471  31.648  29.986  1.00  0.00     0.049 A 
ATOM     51  H   UNL A   1      45.085  32.818  29.383  1.00  0.00     0.167 HD
ATOM     52  C   UNL A   1      48.461  35.213  27.930  1.00  0.00     0.031 A 
ATOM     53  C   UNL A   1      42.686  32.426  30.759  1.00  0.00     0.031 A 
ATOM     54  C   UNL A   1      47.654  36.130  28.689  1.00  0.00     0.049 A 
ATOM     55  C   UNL A   1      43.073  33.866  30.987  1.00  0.00     0.074 A 
ATOM     56  C   UNL A   1      47.863  37.480  28.911  1.00  0.00     0.029 A 
ATOM     57  N   UNL A   1      46.486  35.790  29.356  1.00  0.00    -0.354 N 
ATOM     58  N   UNL A   1      44.102  34.532  30.515  1.00  0.00    -0.248 NA
ATOM     59  C   UNL A   1      42.178  34.665  31.836  1.00  0.00     0.031 C 
ATOM     60  C   UNL A   1      46.856  37.941  29.767  1.00  0.00     0.029 A 
ATOM     61  C   UNL A   1      45.977  36.898  30.013  1.00  0.00     0.049 A 
ATOM     62  H   UNL A   1      46.079  34.894  29.362  1.00  0.00     0.167 HD
ATOM     63  C   UNL A   1      43.957  35.836  30.983  1.00  0.00     0.074 A 
ATOM     64  C   UNL A   1      42.732  35.867  31.756  1.00  0.00     0.031 C 
ATOM     65  C   UNL A   1      44.761  36.913  30.786  1.00  0.00     0.031 A 
BRANCH  52  66
ATOM     66  C   UNL A   1      49.737  35.721  27.306  1.00  0.00    -0.014 A 
ATOM     67  C   UNL A   1      49.753  36.271  26.011  1.00  0.00     0.010 A 
ATOM     68  C   UNL A   1      50.935  35.669  28.040  1.00  0.00     0.010 A 
ATOM     69  C   UNL A   1      50.951  36.722  25.449  1.00  0.00     0.020 A 
ATOM     70  C   UNL A   1      52.128  36.149  27.494  1.00  0.00     0.020 A 
ATOM     71  C   UNL A   1      52.131  36.657  26.195  1.00  0.00     0.054 A 
BRANCH  71  72
ATOM     72  S   UNL A   1      53.665  37.273  25.449  1.00  0.00     0.124 S 
ATOM     73  O   UNL A   1      53.160  38.070  24.333  1.00  0.00    -0.237 OA
ATOM     74  O   UNL A   1      54.269  38.033  26.541  1.00  0.00    -0.237 OA
ATOM     75  O   UNL A   1      54.381  36.057  25.071  1.00  0.00    -0.744 OA
ENDBRANCH  71  72
ENDBRANCH  52  66
BRANCH  53  76
ATOM     76  C   UNL A   1      41.456  31.862  31.385  1.00  0.00    -0.014 A 
ATOM     77  C   UNL A   1      40.216  31.919  30.727  1.00  0.00     0.010 A 
ATOM     78  C   UNL A   1      41.523  31.272  32.661  1.00  0.00     0.010 A 
ATOM     79  C   UNL A   1      39.062  31.419  31.339  1.00  0.00     0.020 A 
ATOM     80  C   UNL A   1      40.380  30.741  33.263  1.00  0.00     0.020 A 
ATOM     81  C   UNL A   1      39.153  30.828  32.604  1.00  0.00     0.054 A 
BRANCH  81  82
ATOM     82  S   UNL A   1      37.654  30.141  33.358  1.00  0.00     0.124 S 
ATOM     83  O   UNL A   1      38.047  30.011  34.757  1.00  0.00    -0.237 OA
ATOM     84  O   UNL A   1      36.658  31.171  33.072  1.00  0.00    -0.237 OA
ATOM     85  O   UNL A   1      37.458  28.881  32.643  1.00  0.00    -0.744 OA
ENDBRANCH  81  82
ENDBRANCH  53  76
BRANCH  65  86
ATOM     86  C   UNL A   1      44.315  38.228  31.377  1.00  0.00    -0.014 A 
ATOM     87  C   UNL A   1      43.678  39.210  30.597  1.00  0.00     0.010 A 
ATOM     88  C   UNL A   1      44.524  38.475  32.747  1.00  0.00     0.010 A 
ATOM     89  C   UNL A   1      43.315  40.437  31.162  1.00  0.00     0.020 A 
ATOM     90  C   UNL A   1      44.129  39.685  33.324  1.00  0.00     0.020 A 
ATOM     91  C   UNL A   1      43.550  40.669  32.521  1.00  0.00     0.054 A 
BRANCH  91  92
ATOM     92  S   UNL A   1      43.075  42.268  33.230  1.00  0.00     0.124 S 
ATOM     93  O   UNL A   1      41.833  41.936  33.922  1.00  0.00    -0.237 OA
ATOM     94  O   UNL A   1      44.210  42.585  34.094  1.00  0.00    -0.237 OA
ATOM     95  O   UNL A   1      42.926  43.135  32.064  1.00  0.00    -0.744 OA
ENDBRANCH  91  92
ENDBRANCH  65  86
ENDBRANCH  39  40
ENDBRANCH  32  34
ENDBRANCH  31  32
ENDBRANCH  30  31
ENDBRANCH  29  30
ENDBRANCH  28  29
ENDBRANCH  27  28
ENDBRANCH  26  27
ENDBRANCH   1  26
TORSDOF 26
ENDMDL
MODEL 3
REMARK VINA RESULT:      -8.8      5.583     13.207
REMARK SMILES C=Cc1cccc(-c2ccc([C@@H](C)C(=O)OCCOCCOCCOCCOC(=O)c3ccc(-c4c5nc(c(-c6ccc(S(=O)(=O)[O-])cc6)c6ccc([nH]6)c(-c6ccc(S(=O)(=O)[O-])cc6)c6nc(c(-c7ccc(S(=O)(=O)[O-])cc7)c7ccc4[nH]7)C=C6)C=C5)cc3)cc2)c1
REMARK SMILES IDX 22 1 21 2 20 3 19 4 18 5 17 6 16 7 14 8 15 9 12 10 13 11
REMARK SMILES IDX 11 12 8 13 9 14 92 15 10 16 91 17 7 18 3 19 4 20 93 21 5 22
REMARK SMILES IDX 6 23 2 24 1 25 23 26 24 27 25 28 26 29 27 30 28 31 29 32
REMARK SMILES IDX 30 33 31 34 32 35 90 36 33 37 89 38 34 39 35 40 36 41 83 42
REMARK SMILES IDX 37 43 88 44 82 45 84 46 38 47 87 48 81 49 80 50 39 52 69 53
REMARK SMILES IDX 50 54 68 55 51 56 54 57 67 58 85 59 52 60 53 61 66 63 86 64
REMARK SMILES IDX 55 65 40 66 41 67 49 68 42 69 48 70 43 71 44 72 45 73 46 74
REMARK SMILES IDX 47 75 70 76 71 77 79 78 72 79 78 80 73 81 74 82 75 83 76 84
REMARK SMILES IDX 77 85 56 86 57 87 65 88 58 89 64 90 59 91 60 92 61 93 62 94
REMARK SMILES IDX 63 95
REMARK H PARENT 84 51 54 62
REMARK Flexibility Score: inf
ROOT
ATOM      1  O   UNL A   1      46.639  24.997  24.715  1.00  0.00    -0.377 OA
ENDROOT
BRANCH   1   2
ATOM      2  C   UNL A   1      46.095  26.197  25.223  1.00  0.00     0.188 C 
BRANCH   2   3
ATOM      3  C   UNL A   1      46.043  26.303  26.753  1.00  0.00     0.188 C 
BRANCH   3   4
ATOM      4  O   UNL A   1      45.342  27.357  27.400  1.00  0.00    -0.376 OA
BRANCH   4   5
ATOM      5  C   UNL A   1      46.038  28.487  27.906  1.00  0.00     0.202 C 
BRANCH   5   6
ATOM      6  C   UNL A   1      46.017  29.828  27.146  1.00  0.00     0.261 C 
BRANCH   6   7
ATOM      7  O   UNL A   1      44.782  30.194  26.494  1.00  0.00    -0.463 OA
BRANCH   7   8
ATOM      8  C   UNL A   1      44.424  31.496  26.570  1.00  0.00     0.313 C 
ATOM      9  O   UNL A   1      43.777  32.073  25.696  1.00  0.00    -0.252 OA
BRANCH   8  10
ATOM     10  C   UNL A   1      44.897  32.253  27.811  1.00  0.00     0.126 C 
ATOM     11  C   UNL A   1      43.777  32.231  28.845  1.00  0.00     0.025 C 
BRANCH  10  12
ATOM     12  C   UNL A   1      45.532  33.642  27.710  1.00  0.00    -0.034 A 
ATOM     13  C   UNL A   1      46.631  36.293  27.612  1.00  0.00    -0.018 A 
ATOM     14  C   UNL A   1      47.264  35.204  26.984  1.00  0.00     0.009 A 
ATOM     15  C   UNL A   1      45.439  36.030  28.296  1.00  0.00     0.009 A 
ATOM     16  C   UNL A   1      46.724  33.903  27.026  1.00  0.00     0.005 A 
ATOM     17  C   UNL A   1      44.894  34.735  28.335  1.00  0.00     0.005 A 
BRANCH  13  18
ATOM     18  C   UNL A   1      47.155  37.671  27.492  1.00  0.00    -0.018 A 
ATOM     19  C   UNL A   1      47.301  39.841  26.346  1.00  0.00    -0.026 A 
ATOM     20  C   UNL A   1      48.277  40.251  27.259  1.00  0.00     0.008 A 
ATOM     21  C   UNL A   1      46.753  38.548  26.463  1.00  0.00     0.016 A 
ATOM     22  C   UNL A   1      48.683  39.403  28.286  1.00  0.00     0.001 A 
ATOM     23  C   UNL A   1      48.125  38.129  28.401  1.00  0.00     0.009 A 
BRANCH  19  24
ATOM     24  C   UNL A   1      46.940  40.769  25.265  1.00  0.00     0.000 C 
ATOM     25  C   UNL A   1      46.779  40.416  23.984  1.00  0.00     0.009 C 
ENDBRANCH  19  24
ENDBRANCH  13  18
ENDBRANCH  10  12
ENDBRANCH   8  10
ENDBRANCH   7   8
ENDBRANCH   6   7
ENDBRANCH   5   6
ENDBRANCH   4   5
ENDBRANCH   3   4
ENDBRANCH   2   3
ENDBRANCH   1   2
BRANCH   1  26
ATOM     26  C   UNL A   1      45.734  23.923  24.520  1.00  0.00     0.188 C 
BRANCH  26  27
ATOM     27  C   UNL A   1      46.350  22.539  24.250  1.00  0.00     0.188 C 
BRANCH  27  28
ATOM     28  O   UNL A   1      46.383  21.687  25.391  1.00  0.00    -0.376 OA
BRANCH  28  29
ATOM     29  C   UNL A   1      46.029  20.319  25.230  1.00  0.00     0.202 C 
BRANCH  29  30
ATOM     30  C   UNL A   1      44.602  19.983  24.756  1.00  0.00     0.261 C 
BRANCH  30  31
ATOM     31  O   UNL A   1      43.605  21.003  24.915  1.00  0.00    -0.460 OA
BRANCH  31  32
ATOM     32  C   UNL A   1      42.599  20.763  25.776  1.00  0.00     0.338 C 
ATOM     33  O   UNL A   1      42.138  19.669  26.070  1.00  0.00    -0.246 OA
BRANCH  32  34
ATOM     34  C   UNL A   1      42.266  22.018  26.482  1.00  0.00     0.060 A 
ATOM     35  C   UNL A   1      42.754  23.222  25.958  1.00  0.00     0.016 A 
ATOM     36  C   UNL A   1      41.517  22.014  27.662  1.00  0.00     0.016 A 
ATOM     37  C   UNL A   1      42.568  24.414  26.654  1.00  0.00     0.010 A 
ATOM     38  C   UNL A   1      41.350  23.209  28.372  1.00  0.00     0.010 A 
ATOM     39  C   UNL A   1      41.929  24.402  27.900  1.00  0.00    -0.014 A 
BRANCH  39  40
ATOM     40  C   UNL A   1      42.119  25.567  28.800  1.00  0.00     0.031 A 
ATOM     41  C   UNL A   1      43.413  25.659  29.573  1.00  0.00     0.074 A 
ATOM     42  C   UNL A   1      41.223  26.568  28.863  1.00  0.00     0.049 A 
ATOM     43  N   UNL A   1      43.840  26.603  30.370  1.00  0.00    -0.248 NA
ATOM     44  C   UNL A   1      44.351  24.534  29.418  1.00  0.00     0.031 C 
ATOM     45  C   UNL A   1      39.962  26.625  28.124  1.00  0.00     0.029 A 
ATOM     46  N   UNL A   1      41.248  27.739  29.579  1.00  0.00    -0.354 N 
ATOM     47  C   UNL A   1      45.090  26.184  30.814  1.00  0.00     0.074 A 
ATOM     48  C   UNL A   1      45.335  24.884  30.231  1.00  0.00     0.031 C 
ATOM     49  C   UNL A   1      39.335  27.776  28.424  1.00  0.00     0.029 A 
ATOM     50  C   UNL A   1      40.135  28.524  29.394  1.00  0.00     0.049 A 
ATOM     51  H   UNL A   1      41.993  27.992  30.171  1.00  0.00     0.167 HD
ATOM     52  C   UNL A   1      45.964  26.825  31.626  1.00  0.00     0.031 A 
ATOM     53  C   UNL A   1      39.799  29.706  29.949  1.00  0.00     0.031 A 
ATOM     54  C   UNL A   1      45.714  28.112  32.218  1.00  0.00     0.049 A 
ATOM     55  C   UNL A   1      40.757  30.369  30.907  1.00  0.00     0.074 A 
ATOM     56  C   UNL A   1      46.537  28.850  33.050  1.00  0.00     0.029 A 
ATOM     57  N   UNL A   1      44.552  28.849  32.046  1.00  0.00    -0.354 N 
ATOM     58  N   UNL A   1      41.944  29.968  31.302  1.00  0.00    -0.248 NA
ATOM     59  C   UNL A   1      40.336  31.655  31.479  1.00  0.00     0.031 C 
ATOM     60  C   UNL A   1      45.845  30.004  33.434  1.00  0.00     0.029 A 
ATOM     61  C   UNL A   1      44.624  30.022  32.778  1.00  0.00     0.049 A 
ATOM     62  H   UNL A   1      43.789  28.579  31.486  1.00  0.00     0.167 HD
ATOM     63  C   UNL A   1      42.424  30.972  32.140  1.00  0.00     0.074 A 
ATOM     64  C   UNL A   1      41.408  32.004  32.177  1.00  0.00     0.031 C 
ATOM     65  C   UNL A   1      43.601  31.038  32.813  1.00  0.00     0.031 A 
BRANCH  52  66
ATOM     66  C   UNL A   1      47.256  26.119  31.953  1.00  0.00    -0.014 A 
ATOM     67  C   UNL A   1      47.422  25.411  33.158  1.00  0.00     0.010 A 
ATOM     68  C   UNL A   1      48.313  26.144  31.025  1.00  0.00     0.010 A 
ATOM     69  C   UNL A   1      48.634  24.777  33.445  1.00  0.00     0.020 A 
ATOM     70  C   UNL A   1      49.514  25.483  31.294  1.00  0.00     0.020 A 
ATOM     71  C   UNL A   1      49.673  24.818  32.510  1.00  0.00     0.054 A 
BRANCH  71  72
ATOM     72  S   UNL A   1      51.225  23.964  32.899  1.00  0.00     0.124 S 
ATOM     73  O   UNL A   1      50.907  22.583  32.542  1.00  0.00    -0.237 OA
ATOM     74  O   UNL A   1      52.185  24.633  32.025  1.00  0.00    -0.237 OA
ATOM     75  O   UNL A   1      51.410  24.211  34.327  1.00  0.00    -0.744 OA
ENDBRANCH  71  72
ENDBRANCH  52  66
BRANCH  53  76
ATOM     76  C   UNL A   1      38.490  30.341  29.622  1.00  0.00    -0.014 A 
ATOM     77  C   UNL A   1      37.280  29.764  30.044  1.00  0.00     0.010 A 
ATOM     78  C   UNL A   1      38.452  31.528  28.868  1.00  0.00     0.010 A 
ATOM     79  C   UNL A   1      36.056  30.349  29.701  1.00  0.00     0.020 A 
ATOM     80  C   UNL A   1      37.234  32.134  28.550  1.00  0.00     0.020 A 
ATOM     81  C   UNL A   1      36.042  31.534  28.959  1.00  0.00     0.054 A 
BRANCH  81  82
ATOM     82  S   UNL A   1      34.446  32.302  28.568  1.00  0.00     0.124 S 
ATOM     83  O   UNL A   1      33.699  31.184  28.002  1.00  0.00    -0.237 OA
ATOM     84  O   UNL A   1      33.994  32.770  29.876  1.00  0.00    -0.237 OA
ATOM     85  O   UNL A   1      34.798  33.362  27.624  1.00  0.00    -0.744 OA
ENDBRANCH  81  82
ENDBRANCH  53  76
BRANCH  65  86
ATOM     86  C   UNL A   1      43.876  32.290  33.609  1.00  0.00    -0.014 A 
ATOM     87  C   UNL A   1      43.498  32.405  34.959  1.00  0.00     0.010 A 
ATOM     88  C   UNL A   1      44.544  33.366  32.994  1.00  0.00     0.010 A 
ATOM     89  C   UNL A   1      43.728  33.594  35.659  1.00  0.00     0.020 A 
ATOM     90  C   UNL A   1      44.808  34.542  33.700  1.00  0.00     0.020 A 
ATOM     91  C   UNL A   1      44.375  34.658  35.022  1.00  0.00     0.054 A 
BRANCH  91  92
ATOM     92  S   UNL A   1      44.657  36.191  35.947  1.00  0.00     0.124 S 
ATOM     93  O   UNL A   1      46.111  36.198  36.087  1.00  0.00    -0.237 OA
ATOM     94  O   UNL A   1      44.106  37.209  35.056  1.00  0.00    -0.237 OA
ATOM     95  O   UNL A   1      43.914  35.989  37.188  1.00  0.00    -0.744 OA
ENDBRANCH  91  92
ENDBRANCH  65  86
ENDBRANCH  39  40
ENDBRANCH  32  34
ENDBRANCH  31  32
ENDBRANCH  30  31
ENDBRANCH  29  30
ENDBRANCH  28  29
ENDBRANCH  27  28
ENDBRANCH  26  27
ENDBRANCH   1  26
TORSDOF 26
ENDMDL
