MODEL 1
REMARK VINA RESULT:      -9.1      0.000      0.000
REMARK SMILES Cc1cc(Cl)cc2c1O[C@H](C(F)(F)F)C(C(=O)OCCOCCOCCOCCOC(=O)c1ccc(-c3c4nc(c(-c5ccc(S(=O)(=O)[O-])cc5)c5ccc([nH]5)c(-c5ccc(S(=O)(=O)[O-])cc5)c5nc(c(-c6ccc(S(=O)(=O)[O-])cc6)c6ccc3[nH]6)C=C5)C=C4)cc1)=C2
REMARK SMILES IDX 25 1 24 2 23 3 22 4 21 5 20 6 19 7 18 8 16 9 17 10 15 11
REMARK SMILES IDX 1 12 2 13 3 14 8 15 4 16 7 17 9 18 5 19 6 20 93 21 10 22
REMARK SMILES IDX 11 23 12 24 13 25 14 26 26 27 27 28 28 29 29 30 30 31 31 32
REMARK SMILES IDX 32 33 33 34 34 35 92 36 35 37 91 38 36 39 37 40 38 41 85 42
REMARK SMILES IDX 39 43 90 44 84 45 86 46 40 47 89 48 83 49 82 50 41 52 71 53
REMARK SMILES IDX 52 54 70 55 53 56 56 57 69 58 87 59 54 60 55 61 68 63 88 64
REMARK SMILES IDX 57 65 42 66 43 67 51 68 44 69 50 70 45 71 46 72 47 73 48 74
REMARK SMILES IDX 49 75 72 76 73 77 81 78 74 79 80 80 75 81 76 82 77 83 78 84
REMARK SMILES IDX 79 85 58 86 59 87 67 88 60 89 66 90 61 91 62 92 63 93 64 94
REMARK SMILES IDX 65 95
REMARK H PARENT 86 51 56 62
REMARK Flexibility Score: inf
ROOT
ATOM      1  C   UNL A   1      33.881  20.718  26.334  1.00  0.00     0.188 C 
ENDROOT
BRANCH   1   2
ATOM      2  O   UNL A   1      33.025  20.547  25.202  1.00  0.00    -0.377 OA
BRANCH   2   3
ATOM      3  C   UNL A   1      31.814  21.281  25.157  1.00  0.00     0.188 C 
BRANCH   3   4
ATOM      4  C   UNL A   1      31.847  22.473  24.184  1.00  0.00     0.188 C 
BRANCH   4   5
ATOM      5  O   UNL A   1      32.294  22.115  22.882  1.00  0.00    -0.376 OA
BRANCH   5   6
ATOM      6  C   UNL A   1      33.013  23.075  22.122  1.00  0.00     0.202 C 
BRANCH   6   7
ATOM      7  C   UNL A   1      33.854  24.141  22.843  1.00  0.00     0.261 C 
BRANCH   7   8
ATOM      8  O   UNL A   1      33.140  25.294  23.312  1.00  0.00    -0.460 OA
BRANCH   8   9
ATOM      9  C   UNL A   1      33.313  26.456  22.658  1.00  0.00     0.338 C 
ATOM     10  O   UNL A   1      33.447  26.609  21.457  1.00  0.00    -0.246 OA
BRANCH   9  11
ATOM     11  C   UNL A   1      33.122  27.554  23.635  1.00  0.00     0.087 C 
ATOM     12  C   UNL A   1      31.364  31.485  26.452  1.00  0.00     0.048 C 
ATOM     13  C   UNL A   1      32.584  30.606  26.452  1.00  0.00    -0.007 A 
ATOM     14  C   UNL A   1      33.495  30.713  27.515  1.00  0.00     0.027 A 
ATOM     15  C   UNL A   1      32.791  29.620  25.471  1.00  0.00     0.131 A 
ATOM     16  C   UNL A   1      34.606  29.877  27.575  1.00  0.00     0.042 A 
ATOM     17  C   UNL A   1      33.886  28.752  25.563  1.00  0.00     0.019 A 
ATOM     18  O   UNL A   1      31.878  29.556  24.459  1.00  0.00    -0.475 OA
ATOM     19  Cl  UNL A   1      35.717  30.025  28.881  1.00  0.00    -0.084 Cl
ATOM     20  C   UNL A   1      34.809  28.900  26.603  1.00  0.00     0.032 A 
ATOM     21  C   UNL A   1      34.034  27.664  24.610  1.00  0.00     0.027 C 
ATOM     22  C   UNL A   1      31.989  28.527  23.437  1.00  0.00     0.316 C 
BRANCH  22  23
ATOM     23  C   UNL A   1      30.629  27.823  23.337  1.00  0.00     0.430 C 
ATOM     24  F   UNL A   1      29.614  28.677  23.607  1.00  0.00    -0.167 F 
ATOM     25  F   UNL A   1      30.405  27.317  22.104  1.00  0.00    -0.167 F 
ATOM     26  F   UNL A   1      30.540  26.797  24.218  1.00  0.00    -0.167 F 
ENDBRANCH  22  23
ENDBRANCH   9  11
ENDBRANCH   8   9
ENDBRANCH   7   8
ENDBRANCH   6   7
ENDBRANCH   5   6
ENDBRANCH   4   5
ENDBRANCH   3   4
ENDBRANCH   2   3
ENDBRANCH   1   2
BRANCH   1  27
ATOM     27  C   UNL A   1      33.584  21.743  27.455  1.00  0.00     0.188 C 
BRANCH  27  28
ATOM     28  O   UNL A   1      34.485  22.845  27.504  1.00  0.00    -0.376 OA
BRANCH  28  29
ATOM     29  C   UNL A   1      34.677  23.570  26.299  1.00  0.00     0.202 C 
BRANCH  29  30
ATOM     30  C   UNL A   1      36.068  23.404  25.674  1.00  0.00     0.261 C 
BRANCH  30  31
ATOM     31  O   UNL A   1      37.153  23.943  26.446  1.00  0.00    -0.460 OA
BRANCH  31  32
ATOM     32  C   UNL A   1      38.369  23.372  26.291  1.00  0.00     0.338 C 
ATOM     33  O   UNL A   1      38.620  22.319  25.734  1.00  0.00    -0.246 OA
BRANCH  32  34
ATOM     34  C   UNL A   1      39.378  24.355  26.735  1.00  0.00     0.060 A 
ATOM     35  C   UNL A   1      39.725  24.407  28.090  1.00  0.00     0.016 A 
ATOM     36  C   UNL A   1      39.993  25.202  25.809  1.00  0.00     0.016 A 
ATOM     37  C   UNL A   1      40.672  25.332  28.529  1.00  0.00     0.010 A 
ATOM     38  C   UNL A   1      40.922  26.144  26.254  1.00  0.00     0.010 A 
ATOM     39  C   UNL A   1      41.241  26.234  27.620  1.00  0.00    -0.014 A 
BRANCH  39  40
ATOM     40  C   UNL A   1      41.980  27.413  28.130  1.00  0.00     0.031 A 
ATOM     41  C   UNL A   1      41.176  28.567  28.665  1.00  0.00     0.074 A 
ATOM     42  C   UNL A   1      43.324  27.452  28.155  1.00  0.00     0.049 A 
ATOM     43  N   UNL A   1      41.588  29.703  29.164  1.00  0.00    -0.248 NA
ATOM     44  C   UNL A   1      39.710  28.415  28.638  1.00  0.00     0.031 C 
ATOM     45  C   UNL A   1      44.213  26.377  27.717  1.00  0.00     0.029 A 
ATOM     46  N   UNL A   1      44.175  28.443  28.577  1.00  0.00    -0.354 N 
ATOM     47  C   UNL A   1      40.436  30.394  29.520  1.00  0.00     0.074 A 
ATOM     48  C   UNL A   1      39.308  29.570  29.145  1.00  0.00     0.031 C 
ATOM     49  C   UNL A   1      45.488  26.766  27.899  1.00  0.00     0.029 A 
ATOM     50  C   UNL A   1      45.505  28.127  28.436  1.00  0.00     0.049 A 
ATOM     51  H   UNL A   1      43.862  29.300  28.946  1.00  0.00     0.167 HD
ATOM     52  C   UNL A   1      40.324  31.603  30.118  1.00  0.00     0.031 A 
ATOM     53  C   UNL A   1      46.608  28.858  28.699  1.00  0.00     0.031 A 
ATOM     54  C   UNL A   1      41.442  32.435  30.465  1.00  0.00     0.049 A 
ATOM     55  C   UNL A   1      46.455  30.252  29.257  1.00  0.00     0.074 A 
ATOM     56  C   UNL A   1      41.431  33.680  31.067  1.00  0.00     0.029 A 
ATOM     57  N   UNL A   1      42.769  32.111  30.231  1.00  0.00    -0.354 N 
ATOM     58  N   UNL A   1      45.360  30.886  29.605  1.00  0.00    -0.248 NA
ATOM     59  C   UNL A   1      47.688  31.030  29.454  1.00  0.00     0.031 C 
ATOM     60  C   UNL A   1      42.751  34.136  31.143  1.00  0.00     0.029 A 
ATOM     61  C   UNL A   1      43.586  33.149  30.645  1.00  0.00     0.049 A 
ATOM     62  H   UNL A   1      43.085  31.269  29.831  1.00  0.00     0.167 HD
ATOM     63  C   UNL A   1      45.773  32.129  30.078  1.00  0.00     0.074 A 
ATOM     64  C   UNL A   1      47.219  32.150  29.989  1.00  0.00     0.031 C 
ATOM     65  C   UNL A   1      45.023  33.159  30.542  1.00  0.00     0.031 A 
BRANCH  52  66
ATOM     66  C   UNL A   1      38.937  32.104  30.410  1.00  0.00    -0.014 A 
ATOM     67  C   UNL A   1      38.264  32.938  29.500  1.00  0.00     0.010 A 
ATOM     68  C   UNL A   1      38.284  31.706  31.590  1.00  0.00     0.010 A 
ATOM     69  C   UNL A   1      36.971  33.389  29.779  1.00  0.00     0.020 A 
ATOM     70  C   UNL A   1      36.981  32.134  31.860  1.00  0.00     0.020 A 
ATOM     71  C   UNL A   1      36.339  32.983  30.957  1.00  0.00     0.054 A 
BRANCH  71  72
ATOM     72  S   UNL A   1      34.650  33.562  31.275  1.00  0.00     0.124 S 
ATOM     73  O   UNL A   1      34.165  32.569  32.229  1.00  0.00    -0.237 OA
ATOM     74  O   UNL A   1      34.869  34.900  31.819  1.00  0.00    -0.237 OA
ATOM     75  O   UNL A   1      34.016  33.523  29.959  1.00  0.00    -0.744 OA
ENDBRANCH  71  72
ENDBRANCH  52  66
BRANCH  53  76
ATOM     76  C   UNL A   1      47.961  28.295  28.430  1.00  0.00    -0.014 A 
ATOM     77  C   UNL A   1      48.640  27.560  29.419  1.00  0.00     0.010 A 
ATOM     78  C   UNL A   1      48.580  28.493  27.182  1.00  0.00     0.010 A 
ATOM     79  C   UNL A   1      49.913  27.040  29.167  1.00  0.00     0.020 A 
ATOM     80  C   UNL A   1      49.843  27.952  26.918  1.00  0.00     0.020 A 
ATOM     81  C   UNL A   1      50.503  27.234  27.915  1.00  0.00     0.054 A 
BRANCH  81  82
ATOM     82  S   UNL A   1      52.131  26.499  27.597  1.00  0.00     0.124 S 
ATOM     83  O   UNL A   1      51.777  25.189  27.060  1.00  0.00    -0.237 OA
ATOM     84  O   UNL A   1      52.715  27.437  26.642  1.00  0.00    -0.237 OA
ATOM     85  O   UNL A   1      52.765  26.485  28.913  1.00  0.00    -0.744 OA
ENDBRANCH  81  82
ENDBRANCH  53  76
BRANCH  65  86
ATOM     86  C   UNL A   1      45.740  34.405  30.994  1.00  0.00    -0.014 A 
ATOM     87  C   UNL A   1      45.956  35.475  30.109  1.00  0.00     0.010 A 
ATOM     88  C   UNL A   1      46.114  34.545  32.344  1.00  0.00     0.010 A 
ATOM     89  C   UNL A   1      46.545  36.659  30.562  1.00  0.00     0.020 A 
ATOM     90  C   UNL A   1      46.677  35.737  32.807  1.00  0.00     0.020 A 
ATOM     91  C   UNL A   1      46.896  36.785  31.910  1.00  0.00     0.054 A 
BRANCH  91  92
ATOM     92  S   UNL A   1      47.595  38.358  32.482  1.00  0.00     0.124 S 
ATOM     93  O   UNL A   1      47.218  39.269  31.404  1.00  0.00    -0.237 OA
ATOM     94  O   UNL A   1      46.907  38.569  33.753  1.00  0.00    -0.237 OA
ATOM     95  O   UNL A   1      49.026  38.083  32.592  1.00  0.00    -0.744 OA
ENDBRANCH  91  92
ENDBRANCH  65  86
ENDBRANCH  39  40
ENDBRANCH  32  34
ENDBRANCH  31  32
ENDBRANCH  30  31
ENDBRANCH  29  30
ENDBRANCH  28  29
ENDBRANCH  27  28
ENDBRANCH   1  27
TORSDOF 24
ENDMDL
MODEL 2
REMARK VINA RESULT:      -8.5      4.686      7.797
REMARK SMILES Cc1cc(Cl)cc2c1O[C@H](C(F)(F)F)C(C(=O)OCCOCCOCCOCCOC(=O)c1ccc(-c3c4nc(c(-c5ccc(S(=O)(=O)[O-])cc5)c5ccc([nH]5)c(-c5ccc(S(=O)(=O)[O-])cc5)c5nc(c(-c6ccc(S(=O)(=O)[O-])cc6)c6ccc3[nH]6)C=C5)C=C4)cc1)=C2
REMARK SMILES IDX 25 1 24 2 23 3 22 4 21 5 20 6 19 7 18 8 16 9 17 10 15 11
REMARK SMILES IDX 1 12 2 13 3 14 8 15 4 16 7 17 9 18 5 19 6 20 93 21 10 22
REMARK SMILES IDX 11 23 12 24 13 25 14 26 26 27 27 28 28 29 29 30 30 31 31 32
REMARK SMILES IDX 32 33 33 34 34 35 92 36 35 37 91 38 36 39 37 40 38 41 85 42
REMARK SMILES IDX 39 43 90 44 84 45 86 46 40 47 89 48 83 49 82 50 41 52 71 53
REMARK SMILES IDX 52 54 70 55 53 56 56 57 69 58 87 59 54 60 55 61 68 63 88 64
REMARK SMILES IDX 57 65 42 66 43 67 51 68 44 69 50 70 45 71 46 72 47 73 48 74
REMARK SMILES IDX 49 75 72 76 73 77 81 78 74 79 80 80 75 81 76 82 77 83 78 84
REMARK SMILES IDX 79 85 58 86 59 87 67 88 60 89 66 90 61 91 62 92 63 93 64 94
REMARK SMILES IDX 65 95
REMARK H PARENT 86 51 56 62
REMARK Flexibility Score: inf
ROOT
ATOM      1  C   UNL A   1      43.896  22.253  26.118  1.00  0.00     0.188 C 
ENDROOT
BRANCH   1   2
ATOM      2  O   UNL A   1      43.562  22.911  27.342  1.00  0.00    -0.377 OA
BRANCH   2   3
ATOM      3  C   UNL A   1      44.617  23.396  28.154  1.00  0.00     0.188 C 
BRANCH   3   4
ATOM      4  C   UNL A   1      45.913  23.690  27.377  1.00  0.00     0.188 C 
BRANCH   4   5
ATOM      5  O   UNL A   1      46.305  25.056  27.447  1.00  0.00    -0.376 OA
BRANCH   5   6
ATOM      6  C   UNL A   1      47.496  25.457  26.786  1.00  0.00     0.202 C 
BRANCH   6   7
ATOM      7  C   UNL A   1      47.710  26.939  26.438  1.00  0.00     0.261 C 
BRANCH   7   8
ATOM      8  O   UNL A   1      46.761  27.860  26.994  1.00  0.00    -0.460 OA
BRANCH   8   9
ATOM      9  C   UNL A   1      46.175  28.743  26.168  1.00  0.00     0.338 C 
ATOM     10  O   UNL A   1      45.861  28.563  25.005  1.00  0.00    -0.246 OA
BRANCH   9  11
ATOM     11  C   UNL A   1      45.797  29.929  26.973  1.00  0.00     0.087 C 
ATOM     12  C   UNL A   1      43.358  33.829  29.280  1.00  0.00     0.048 C 
ATOM     13  C   UNL A   1      44.741  33.240  29.309  1.00  0.00    -0.007 A 
ATOM     14  C   UNL A   1      45.660  33.719  30.257  1.00  0.00     0.027 A 
ATOM     15  C   UNL A   1      45.111  32.165  28.482  1.00  0.00     0.131 A 
ATOM     16  C   UNL A   1      46.931  33.159  30.349  1.00  0.00     0.042 A 
ATOM     17  C   UNL A   1      46.374  31.577  28.611  1.00  0.00     0.019 A 
ATOM     18  O   UNL A   1      44.183  31.736  27.578  1.00  0.00    -0.475 OA
ATOM     19  Cl  UNL A   1      48.048  33.762  31.511  1.00  0.00    -0.084 Cl
ATOM     20  C   UNL A   1      47.295  32.094  29.529  1.00  0.00     0.032 A 
ATOM     21  C   UNL A   1      46.711  30.395  27.833  1.00  0.00     0.027 C 
ATOM     22  C   UNL A   1      44.466  30.592  26.725  1.00  0.00     0.316 C 
BRANCH  22  23
ATOM     23  C   UNL A   1      43.294  29.611  26.859  1.00  0.00     0.430 C 
ATOM     24  F   UNL A   1      42.683  29.412  25.667  1.00  0.00    -0.167 F 
ATOM     25  F   UNL A   1      43.690  28.400  27.309  1.00  0.00    -0.167 F 
ATOM     26  F   UNL A   1      42.358  30.077  27.720  1.00  0.00    -0.167 F 
ENDBRANCH  22  23
ENDBRANCH   9  11
ENDBRANCH   8   9
ENDBRANCH   7   8
ENDBRANCH   6   7
ENDBRANCH   5   6
ENDBRANCH   4   5
ENDBRANCH   3   4
ENDBRANCH   2   3
ENDBRANCH   1   2
BRANCH   1  27
ATOM     27  C   UNL A   1      43.223  20.931  25.673  1.00  0.00     0.188 C 
BRANCH  27  28
ATOM     28  O   UNL A   1      42.304  20.388  26.615  1.00  0.00    -0.376 OA
BRANCH  28  29
ATOM     29  C   UNL A   1      41.090  19.865  26.097  1.00  0.00     0.202 C 
BRANCH  29  30
ATOM     30  C   UNL A   1      39.869  20.768  26.312  1.00  0.00     0.261 C 
BRANCH  30  31
ATOM     31  O   UNL A   1      40.152  22.175  26.381  1.00  0.00    -0.460 OA
BRANCH  31  32
ATOM     32  C   UNL A   1      39.136  23.027  26.116  1.00  0.00     0.338 C 
ATOM     33  O   UNL A   1      38.100  22.775  25.528  1.00  0.00    -0.246 OA
BRANCH  32  34
ATOM     34  C   UNL A   1      39.407  24.279  26.850  1.00  0.00     0.060 A 
ATOM     35  C   UNL A   1      40.222  25.251  26.257  1.00  0.00     0.016 A 
ATOM     36  C   UNL A   1      38.838  24.498  28.107  1.00  0.00     0.016 A 
ATOM     37  C   UNL A   1      40.494  26.439  26.938  1.00  0.00     0.010 A 
ATOM     38  C   UNL A   1      39.131  25.675  28.797  1.00  0.00     0.010 A 
ATOM     39  C   UNL A   1      39.986  26.635  28.229  1.00  0.00    -0.014 A 
BRANCH  39  40
ATOM     40  C   UNL A   1      40.537  27.725  29.069  1.00  0.00     0.031 A 
ATOM     41  C   UNL A   1      39.698  28.961  29.253  1.00  0.00     0.074 A 
ATOM     42  C   UNL A   1      41.727  27.614  29.684  1.00  0.00     0.049 A 
ATOM     43  N   UNL A   1      39.958  30.043  29.937  1.00  0.00    -0.248 NA
ATOM     44  C   UNL A   1      38.389  28.972  28.577  1.00  0.00     0.031 C 
ATOM     45  C   UNL A   1      42.607  26.447  29.629  1.00  0.00     0.029 A 
ATOM     46  N   UNL A   1      42.398  28.504  30.486  1.00  0.00    -0.354 N 
ATOM     47  C   UNL A   1      38.842  30.858  29.785  1.00  0.00     0.074 A 
ATOM     48  C   UNL A   1      37.921  30.165  28.912  1.00  0.00     0.031 C 
ATOM     49  C   UNL A   1      43.701  26.693  30.372  1.00  0.00     0.029 A 
ATOM     50  C   UNL A   1      43.615  28.043  30.928  1.00  0.00     0.049 A 
ATOM     51  H   UNL A   1      42.042  29.391  30.721  1.00  0.00     0.167 HD
ATOM     52  C   UNL A   1      38.598  32.072  30.331  1.00  0.00     0.031 A 
ATOM     53  C   UNL A   1      44.554  28.647  31.685  1.00  0.00     0.031 A 
ATOM     54  C   UNL A   1      39.524  32.774  31.174  1.00  0.00     0.049 A 
ATOM     55  C   UNL A   1      44.310  30.050  32.186  1.00  0.00     0.074 A 
ATOM     56  C   UNL A   1      39.372  34.013  31.771  1.00  0.00     0.029 A 
ATOM     57  N   UNL A   1      40.778  32.306  31.532  1.00  0.00    -0.354 N 
ATOM     58  N   UNL A   1      43.242  30.801  32.049  1.00  0.00    -0.248 NA
ATOM     59  C   UNL A   1      45.399  30.686  32.942  1.00  0.00     0.031 C 
ATOM     60  C   UNL A   1      40.560  34.320  32.441  1.00  0.00     0.029 A 
ATOM     61  C   UNL A   1      41.426  33.246  32.313  1.00  0.00     0.049 A 
ATOM     62  H   UNL A   1      41.153  31.434  31.270  1.00  0.00     0.167 HD
ATOM     63  C   UNL A   1      43.526  31.990  32.715  1.00  0.00     0.074 A 
ATOM     64  C   UNL A   1      44.856  31.851  33.272  1.00  0.00     0.031 C 
ATOM     65  C   UNL A   1      42.755  33.097  32.852  1.00  0.00     0.031 A 
BRANCH  52  66
ATOM     66  C   UNL A   1      37.282  32.723  30.008  1.00  0.00    -0.014 A 
ATOM     67  C   UNL A   1      36.140  32.468  30.787  1.00  0.00     0.010 A 
ATOM     68  C   UNL A   1      37.195  33.630  28.937  1.00  0.00     0.010 A 
ATOM     69  C   UNL A   1      34.925  33.087  30.483  1.00  0.00     0.020 A 
ATOM     70  C   UNL A   1      35.987  34.271  28.646  1.00  0.00     0.020 A 
ATOM     71  C   UNL A   1      34.858  33.985  29.414  1.00  0.00     0.054 A 
BRANCH  71  72
ATOM     72  S   UNL A   1      33.273  34.795  29.064  1.00  0.00     0.124 S 
ATOM     73  O   UNL A   1      32.704  34.934  30.402  1.00  0.00    -0.237 OA
ATOM     74  O   UNL A   1      33.687  36.041  28.425  1.00  0.00    -0.237 OA
ATOM     75  O   UNL A   1      32.584  33.847  28.191  1.00  0.00    -0.744 OA
ENDBRANCH  71  72
ENDBRANCH  52  66
BRANCH  53  76
ATOM     76  C   UNL A   1      45.823  27.937  32.010  1.00  0.00    -0.014 A 
ATOM     77  C   UNL A   1      46.988  28.175  31.259  1.00  0.00     0.010 A 
ATOM     78  C   UNL A   1      45.872  27.015  33.071  1.00  0.00     0.010 A 
ATOM     79  C   UNL A   1      48.176  27.501  31.560  1.00  0.00     0.020 A 
ATOM     80  C   UNL A   1      47.065  26.358  33.391  1.00  0.00     0.020 A 
ATOM     81  C   UNL A   1      48.208  26.601  32.629  1.00  0.00     0.054 A 
BRANCH  81  82
ATOM     82  S   UNL A   1      49.776  25.784  33.034  1.00  0.00     0.124 S 
ATOM     83  O   UNL A   1      49.423  25.013  34.221  1.00  0.00    -0.237 OA
ATOM     84  O   UNL A   1      50.041  25.004  31.828  1.00  0.00    -0.237 OA
ATOM     85  O   UNL A   1      50.695  26.898  33.261  1.00  0.00    -0.744 OA
ENDBRANCH  81  82
ENDBRANCH  53  76
BRANCH  65  86
ATOM     86  C   UNL A   1      43.317  34.256  33.634  1.00  0.00    -0.014 A 
ATOM     87  C   UNL A   1      44.142  35.210  33.016  1.00  0.00     0.010 A 
ATOM     88  C   UNL A   1      42.936  34.443  34.977  1.00  0.00     0.010 A 
ATOM     89  C   UNL A   1      44.588  36.327  33.729  1.00  0.00     0.020 A 
ATOM     90  C   UNL A   1      43.358  35.573  35.684  1.00  0.00     0.020 A 
ATOM     91  C   UNL A   1      44.188  36.504  35.058  1.00  0.00     0.054 A 
BRANCH  91  92
ATOM     92  S   UNL A   1      44.727  37.998  35.935  1.00  0.00     0.124 S 
ATOM     93  O   UNL A   1      46.160  37.762  36.086  1.00  0.00    -0.237 OA
ATOM     94  O   UNL A   1      44.359  39.063  35.005  1.00  0.00    -0.237 OA
ATOM     95  O   UNL A   1      43.956  37.968  37.177  1.00  0.00    -0.744 OA
ENDBRANCH  91  92
ENDBRANCH  65  86
ENDBRANCH  39  40
ENDBRANCH  32  34
ENDBRANCH  31  32
ENDBRANCH  30  31
ENDBRANCH  29  30
ENDBRANCH  28  29
ENDBRANCH  27  28
ENDBRANCH   1  27
TORSDOF 24
ENDMDL
MODEL 3
REMARK VINA RESULT:      -8.3      4.573      6.117
REMARK SMILES Cc1cc(Cl)cc2c1O[C@H](C(F)(F)F)C(C(=O)OCCOCCOCCOCCOC(=O)c1ccc(-c3c4nc(c(-c5ccc(S(=O)(=O)[O-])cc5)c5ccc([nH]5)c(-c5ccc(S(=O)(=O)[O-])cc5)c5nc(c(-c6ccc(S(=O)(=O)[O-])cc6)c6ccc3[nH]6)C=C5)C=C4)cc1)=C2
REMARK SMILES IDX 25 1 24 2 23 3 22 4 21 5 20 6 19 7 18 8 16 9 17 10 15 11
REMARK SMILES IDX 1 12 2 13 3 14 8 15 4 16 7 17 9 18 5 19 6 20 93 21 10 22
REMARK SMILES IDX 11 23 12 24 13 25 14 26 26 27 27 28 28 29 29 30 30 31 31 32
REMARK SMILES IDX 32 33 33 34 34 35 92 36 35 37 91 38 36 39 37 40 38 41 85 42
REMARK SMILES IDX 39 43 90 44 84 45 86 46 40 47 89 48 83 49 82 50 41 52 71 53
REMARK SMILES IDX 52 54 70 55 53 56 56 57 69 58 87 59 54 60 55 61 68 63 88 64
REMARK SMILES IDX 57 65 42 66 43 67 51 68 44 69 50 70 45 71 46 72 47 73 48 74
REMARK SMILES IDX 49 75 72 76 73 77 81 78 74 79 80 80 75 81 76 82 77 83 78 84
REMARK SMILES IDX 79 85 58 86 59 87 67 88 60 89 66 90 61 91 62 92 63 93 64 94
REMARK SMILES IDX 65 95
REMARK H PARENT 86 51 56 62
REMARK Flexibility Score: inf
ROOT
ATOM      1  C   UNL A   1      34.845  20.841  25.548  1.00  0.00     0.188 C 
ENDROOT
BRANCH   1   2
ATOM      2  O   UNL A   1      33.736  20.395  24.766  1.00  0.00    -0.377 OA
BRANCH   2   3
ATOM      3  C   UNL A   1      32.453  20.922  25.056  1.00  0.00     0.188 C 
BRANCH   3   4
ATOM      4  C   UNL A   1      31.964  21.963  24.034  1.00  0.00     0.188 C 
BRANCH   4   5
ATOM      5  O   UNL A   1      32.613  21.851  22.773  1.00  0.00    -0.376 OA
BRANCH   5   6
ATOM      6  C   UNL A   1      33.169  23.018  22.187  1.00  0.00     0.202 C 
BRANCH   6   7
ATOM      7  C   UNL A   1      33.628  24.176  23.088  1.00  0.00     0.261 C 
BRANCH   7   8
ATOM      8  O   UNL A   1      32.755  25.314  23.144  1.00  0.00    -0.460 OA
BRANCH   8   9
ATOM      9  C   UNL A   1      33.168  26.459  22.575  1.00  0.00     0.338 C 
ATOM     10  O   UNL A   1      33.463  26.633  21.407  1.00  0.00    -0.246 OA
BRANCH   9  11
ATOM     11  C   UNL A   1      33.023  27.538  23.581  1.00  0.00     0.087 C 
ATOM     12  C   UNL A   1      31.417  31.447  26.517  1.00  0.00     0.048 C 
ATOM     13  C   UNL A   1      32.612  30.536  26.476  1.00  0.00    -0.007 A 
ATOM     14  C   UNL A   1      33.542  30.593  27.526  1.00  0.00     0.027 A 
ATOM     15  C   UNL A   1      32.777  29.568  25.470  1.00  0.00     0.131 A 
ATOM     16  C   UNL A   1      34.631  29.726  27.549  1.00  0.00     0.042 A 
ATOM     17  C   UNL A   1      33.849  28.670  25.523  1.00  0.00     0.019 A 
ATOM     18  O   UNL A   1      31.847  29.553  24.472  1.00  0.00    -0.475 OA
ATOM     19  Cl  UNL A   1      35.767  29.813  28.840  1.00  0.00    -0.084 Cl
ATOM     20  C   UNL A   1      34.792  28.768  26.551  1.00  0.00     0.032 A 
ATOM     21  C   UNL A   1      33.953  27.600  24.543  1.00  0.00     0.027 C 
ATOM     22  C   UNL A   1      31.913  28.546  23.424  1.00  0.00     0.316 C 
BRANCH  22  23
ATOM     23  C   UNL A   1      30.534  27.881  23.330  1.00  0.00     0.430 C 
ATOM     24  F   UNL A   1      30.396  26.905  24.258  1.00  0.00    -0.167 F 
ATOM     25  F   UNL A   1      29.527  28.762  23.527  1.00  0.00    -0.167 F 
ATOM     26  F   UNL A   1      30.343  27.313  22.114  1.00  0.00    -0.167 F 
ENDBRANCH  22  23
ENDBRANCH   9  11
ENDBRANCH   8   9
ENDBRANCH   7   8
ENDBRANCH   6   7
ENDBRANCH   5   6
ENDBRANCH   4   5
ENDBRANCH   3   4
ENDBRANCH   2   3
ENDBRANCH   1   2
BRANCH   1  27
ATOM     27  C   UNL A   1      34.937  22.276  26.122  1.00  0.00     0.188 C 
BRANCH  27  28
ATOM     28  O   UNL A   1      36.261  22.787  26.230  1.00  0.00    -0.376 OA
BRANCH  28  29
ATOM     29  C   UNL A   1      37.138  22.529  25.144  1.00  0.00     0.202 C 
BRANCH  29  30
ATOM     30  C   UNL A   1      38.234  21.499  25.445  1.00  0.00     0.261 C 
BRANCH  30  31
ATOM     31  O   UNL A   1      39.324  21.981  26.247  1.00  0.00    -0.460 OA
BRANCH  31  32
ATOM     32  C   UNL A   1      40.403  21.178  26.377  1.00  0.00     0.338 C 
ATOM     33  O   UNL A   1      40.440  19.968  26.239  1.00  0.00    -0.246 OA
BRANCH  32  34
ATOM     34  C   UNL A   1      41.588  22.049  26.513  1.00  0.00     0.060 A 
ATOM     35  C   UNL A   1      42.786  21.497  26.982  1.00  0.00     0.016 A 
ATOM     36  C   UNL A   1      41.517  23.398  26.156  1.00  0.00     0.016 A 
ATOM     37  C   UNL A   1      43.915  22.305  27.123  1.00  0.00     0.010 A 
ATOM     38  C   UNL A   1      42.640  24.210  26.321  1.00  0.00     0.010 A 
ATOM     39  C   UNL A   1      43.833  23.674  26.835  1.00  0.00    -0.014 A 
BRANCH  39  40
ATOM     40  C   UNL A   1      44.913  24.579  27.294  1.00  0.00     0.031 A 
ATOM     41  C   UNL A   1      44.933  24.968  28.747  1.00  0.00     0.074 A 
ATOM     42  C   UNL A   1      45.872  25.019  26.459  1.00  0.00     0.049 A 
ATOM     43  N   UNL A   1      45.771  25.741  29.387  1.00  0.00    -0.248 NA
ATOM     44  C   UNL A   1      43.868  24.400  29.593  1.00  0.00     0.031 C 
ATOM     45  C   UNL A   1      45.993  24.670  25.045  1.00  0.00     0.029 A 
ATOM     46  N   UNL A   1      46.935  25.856  26.693  1.00  0.00    -0.354 N 
ATOM     47  C   UNL A   1      45.341  25.744  30.709  1.00  0.00     0.074 A 
ATOM     48  C   UNL A   1      44.148  24.930  30.774  1.00  0.00     0.031 C 
ATOM     49  C   UNL A   1      47.076  25.286  24.537  1.00  0.00     0.029 A 
ATOM     50  C   UNL A   1      47.706  26.095  25.580  1.00  0.00     0.049 A 
ATOM     51  H   UNL A   1      47.128  26.248  27.575  1.00  0.00     0.167 HD
ATOM     52  C   UNL A   1      45.895  26.360  31.778  1.00  0.00     0.031 A 
ATOM     53  C   UNL A   1      48.787  26.887  25.422  1.00  0.00     0.031 A 
ATOM     54  C   UNL A   1      47.064  27.194  31.709  1.00  0.00     0.049 A 
ATOM     55  C   UNL A   1      49.318  27.658  26.605  1.00  0.00     0.074 A 
ATOM     56  C   UNL A   1      47.698  27.868  32.737  1.00  0.00     0.029 A 
ATOM     57  N   UNL A   1      47.766  27.474  30.548  1.00  0.00    -0.354 N 
ATOM     58  N   UNL A   1      48.912  27.638  27.853  1.00  0.00    -0.248 NA
ATOM     59  C   UNL A   1      50.452  28.562  26.357  1.00  0.00     0.031 C 
ATOM     60  C   UNL A   1      48.750  28.606  32.186  1.00  0.00     0.029 A 
ATOM     61  C   UNL A   1      48.808  28.341  30.827  1.00  0.00     0.049 A 
ATOM     62  H   UNL A   1      47.556  27.111  29.657  1.00  0.00     0.167 HD
ATOM     63  C   UNL A   1      49.751  28.511  28.540  1.00  0.00     0.074 A 
ATOM     64  C   UNL A   1      50.698  29.028  27.574  1.00  0.00     0.031 C 
ATOM     65  C   UNL A   1      49.737  28.855  29.852  1.00  0.00     0.031 A 
BRANCH  52  66
ATOM     66  C   UNL A   1      45.224  26.172  33.110  1.00  0.00    -0.014 A 
ATOM     67  C   UNL A   1      45.647  25.165  33.995  1.00  0.00     0.010 A 
ATOM     68  C   UNL A   1      44.183  27.034  33.497  1.00  0.00     0.010 A 
ATOM     69  C   UNL A   1      45.022  25.005  35.234  1.00  0.00     0.020 A 
ATOM     70  C   UNL A   1      43.573  26.895  34.746  1.00  0.00     0.020 A 
ATOM     71  C   UNL A   1      43.988  25.873  35.601  1.00  0.00     0.054 A 
BRANCH  71  72
ATOM     72  S   UNL A   1      43.217  25.658  37.228  1.00  0.00     0.124 S 
ATOM     73  O   UNL A   1      43.050  27.040  37.667  1.00  0.00    -0.237 OA
ATOM     74  O   UNL A   1      41.982  24.948  36.904  1.00  0.00    -0.237 OA
ATOM     75  O   UNL A   1      44.201  24.881  37.979  1.00  0.00    -0.744 OA
ENDBRANCH  71  72
ENDBRANCH  52  66
BRANCH  53  76
ATOM     76  C   UNL A   1      49.439  27.003  24.087  1.00  0.00    -0.014 A 
ATOM     77  C   UNL A   1      48.698  27.404  22.961  1.00  0.00     0.010 A 
ATOM     78  C   UNL A   1      50.806  26.709  23.934  1.00  0.00     0.010 A 
ATOM     79  C   UNL A   1      49.310  27.504  21.708  1.00  0.00     0.020 A 
ATOM     80  C   UNL A   1      51.428  26.832  22.687  1.00  0.00     0.020 A 
ATOM     81  C   UNL A   1      50.673  27.224  21.581  1.00  0.00     0.054 A 
BRANCH  81  82
ATOM     82  S   UNL A   1      51.454  27.417  19.954  1.00  0.00     0.124 S 
ATOM     83  O   UNL A   1      52.375  26.286  19.920  1.00  0.00    -0.237 OA
ATOM     84  O   UNL A   1      50.312  27.332  19.048  1.00  0.00    -0.237 OA
ATOM     85  O   UNL A   1      52.083  28.734  20.031  1.00  0.00    -0.744 OA
ENDBRANCH  81  82
ENDBRANCH  53  76
BRANCH  65  86
ATOM     86  C   UNL A   1      50.773  29.836  30.335  1.00  0.00    -0.014 A 
ATOM     87  C   UNL A   1      52.055  29.403  30.714  1.00  0.00     0.010 A 
ATOM     88  C   UNL A   1      50.492  31.215  30.316  1.00  0.00     0.010 A 
ATOM     89  C   UNL A   1      53.035  30.331  31.078  1.00  0.00     0.020 A 
ATOM     90  C   UNL A   1      51.478  32.147  30.653  1.00  0.00     0.020 A 
ATOM     91  C   UNL A   1      52.742  31.698  31.039  1.00  0.00     0.054 A 
BRANCH  91  92
ATOM     92  S   UNL A   1      54.055  32.880  31.451  1.00  0.00     0.124 S 
ATOM     93  O   UNL A   1      53.433  33.672  32.508  1.00  0.00    -0.237 OA
ATOM     94  O   UNL A   1      55.146  32.007  31.878  1.00  0.00    -0.237 OA
ATOM     95  O   UNL A   1      54.289  33.591  30.196  1.00  0.00    -0.744 OA
ENDBRANCH  91  92
ENDBRANCH  65  86
ENDBRANCH  39  40
ENDBRANCH  32  34
ENDBRANCH  31  32
ENDBRANCH  30  31
ENDBRANCH  29  30
ENDBRANCH  28  29
ENDBRANCH  27  28
ENDBRANCH   1  27
TORSDOF 24
ENDMDL
