MODEL 1
REMARK VINA RESULT:      -8.0      0.000      0.000
REMARK SMILES CC[C@H](C)CN(CC)C(=O)NC[C@@](C)(O)C(=O)OCCOCCOCCOCCOC(=O)c1ccc(-c2c3nc(c(-c4ccc(S(=O)(=O)[O-])cc4)c4ccc([nH]4)c(-c4ccc(S(=O)(=O)[O-])cc4)c4nc(c(-c5ccc(S(=O)(=O)[O-])cc5)c5ccc2[nH]5)C=C4)C=C3)cc1
REMARK SMILES IDX 22 1 21 2 20 3 19 4 18 5 16 6 17 7 13 8 14 9 12 10 11 11
REMARK SMILES IDX 9 12 10 13 6 15 5 16 3 17 4 18 2 19 1 20 7 21 8 22 15 23
REMARK SMILES IDX 23 25 24 26 25 27 26 28 27 29 28 30 29 31 30 32 31 33 32 34
REMARK SMILES IDX 33 35 34 36 92 37 35 38 91 39 36 40 37 41 38 42 85 43 39 44
REMARK SMILES IDX 90 45 84 46 86 47 40 48 89 49 83 50 82 51 41 53 71 54 52 55
REMARK SMILES IDX 70 56 53 57 56 58 69 59 87 60 54 61 55 62 68 64 88 65 57 66
REMARK SMILES IDX 42 67 43 68 51 69 44 70 50 71 45 72 46 73 47 74 48 75 49 76
REMARK SMILES IDX 72 77 73 78 81 79 74 80 80 81 75 82 76 83 77 84 78 85 79 86
REMARK SMILES IDX 58 87 59 88 67 89 60 90 66 91 61 92 62 93 63 94 64 95 65 96
REMARK H PARENT 11 14 15 24 86 52 56 63
REMARK Flexibility Score: inf
ROOT
ATOM      1  C   UNL A   1      36.344  22.337  25.761  1.00  0.00     0.188 C 
ENDROOT
BRANCH   1   2
ATOM      2  O   UNL A   1      35.824  23.563  25.284  1.00  0.00    -0.376 OA
BRANCH   2   3
ATOM      3  C   UNL A   1      35.210  23.579  24.009  1.00  0.00     0.202 C 
BRANCH   3   4
ATOM      4  C   UNL A   1      34.330  24.757  23.554  1.00  0.00     0.261 C 
BRANCH   4   5
ATOM      5  O   UNL A   1      33.579  25.424  24.577  1.00  0.00    -0.461 OA
BRANCH   5   6
ATOM      6  C   UNL A   1      33.121  26.676  24.333  1.00  0.00     0.339 C 
ATOM      7  O   UNL A   1      33.834  27.643  24.088  1.00  0.00    -0.249 OA
BRANCH   6   8
ATOM      8  C   UNL A   1      31.567  26.754  24.407  1.00  0.00     0.176 C 
ATOM      9  C   UNL A   1      31.072  26.768  22.959  1.00  0.00     0.057 C 
BRANCH   8  10
ATOM     10  C   UNL A   1      30.977  25.557  25.224  1.00  0.00     0.164 C 
BRANCH  10  11
ATOM     11  N   UNL A   1      30.660  24.370  24.450  1.00  0.00    -0.334 N 
ATOM     12  C   UNL A   1      31.299  23.192  24.300  1.00  0.00     0.317 C 
ATOM     13  O   UNL A   1      31.350  22.775  23.140  1.00  0.00    -0.249 OA
ATOM     14  H   UNL A   1      29.820  24.438  23.940  1.00  0.00     0.165 HD
BRANCH  12  15
ATOM     15  N   UNL A   1      31.773  22.456  25.357  1.00  0.00    -0.325 N 
BRANCH  15  16
ATOM     16  C   UNL A   1      31.804  20.986  25.166  1.00  0.00     0.124 C 
BRANCH  16  17
ATOM     17  C   UNL A   1      32.910  20.522  24.175  1.00  0.00     0.005 C 
ATOM     18  C   UNL A   1      34.067  19.769  24.849  1.00  0.00     0.009 C 
BRANCH  17  19
ATOM     19  C   UNL A   1      32.293  19.656  23.053  1.00  0.00     0.002 C 
ATOM     20  C   UNL A   1      32.599  18.169  23.199  1.00  0.00     0.004 C 
ENDBRANCH  17  19
ENDBRANCH  16  17
ENDBRANCH  15  16
BRANCH  15  21
ATOM     21  C   UNL A   1      32.090  22.924  26.711  1.00  0.00     0.118 C 
ATOM     22  C   UNL A   1      33.246  22.164  27.346  1.00  0.00     0.027 C 
ENDBRANCH  15  21
ENDBRANCH  12  15
ENDBRANCH  10  11
ENDBRANCH   8  10
BRANCH   8  23
ATOM     23  O   UNL A   1      31.070  27.976  24.973  1.00  0.00    -0.377 OA
ATOM     24  H   UNL A   1      31.430  28.730  24.481  1.00  0.00     0.212 HD
ENDBRANCH   8  23
ENDBRANCH   6   8
ENDBRANCH   5   6
ENDBRANCH   4   5
ENDBRANCH   3   4
ENDBRANCH   2   3
ENDBRANCH   1   2
BRANCH   1  25
ATOM     25  C   UNL A   1      37.759  22.046  25.227  1.00  0.00     0.188 C 
BRANCH  25  26
ATOM     26  O   UNL A   1      38.852  22.218  26.108  1.00  0.00    -0.377 OA
BRANCH  26  27
ATOM     27  C   UNL A   1      39.768  21.145  26.276  1.00  0.00     0.188 C 
BRANCH  27  28
ATOM     28  C   UNL A   1      40.792  21.133  27.438  1.00  0.00     0.188 C 
BRANCH  28  29
ATOM     29  O   UNL A   1      42.111  21.554  27.109  1.00  0.00    -0.376 OA
BRANCH  29  30
ATOM     30  C   UNL A   1      42.383  21.841  25.747  1.00  0.00     0.202 C 
BRANCH  30  31
ATOM     31  C   UNL A   1      43.371  22.988  25.494  1.00  0.00     0.261 C 
BRANCH  31  32
ATOM     32  O   UNL A   1      43.416  23.994  26.516  1.00  0.00    -0.460 OA
BRANCH  32  33
ATOM     33  C   UNL A   1      43.483  25.279  26.102  1.00  0.00     0.338 C 
ATOM     34  O   UNL A   1      43.802  25.680  24.995  1.00  0.00    -0.246 OA
BRANCH  33  35
ATOM     35  C   UNL A   1      42.892  26.122  27.159  1.00  0.00     0.060 A 
ATOM     36  C   UNL A   1      43.293  27.461  27.246  1.00  0.00     0.016 A 
ATOM     37  C   UNL A   1      41.925  25.611  28.029  1.00  0.00     0.016 A 
ATOM     38  C   UNL A   1      42.747  28.286  28.226  1.00  0.00     0.010 A 
ATOM     39  C   UNL A   1      41.400  26.432  29.029  1.00  0.00     0.010 A 
ATOM     40  C   UNL A   1      41.835  27.763  29.151  1.00  0.00    -0.014 A 
BRANCH  40  41
ATOM     41  C   UNL A   1      41.504  28.570  30.349  1.00  0.00     0.031 A 
ATOM     42  C   UNL A   1      42.355  28.396  31.578  1.00  0.00     0.074 A 
ATOM     43  C   UNL A   1      40.517  29.484  30.322  1.00  0.00     0.049 A 
ATOM     44  N   UNL A   1      42.306  29.039  32.715  1.00  0.00    -0.248 NA
ATOM     45  C   UNL A   1      43.406  27.365  31.516  1.00  0.00     0.031 C 
ATOM     46  C   UNL A   1      39.647  29.759  29.178  1.00  0.00     0.029 A 
ATOM     47  N   UNL A   1      40.089  30.359  31.289  1.00  0.00    -0.354 N 
ATOM     48  C   UNL A   1      43.308  28.486  33.504  1.00  0.00     0.074 A 
ATOM     49  C   UNL A   1      43.938  27.442  32.727  1.00  0.00     0.031 C 
ATOM     50  C   UNL A   1      38.785  30.735  29.513  1.00  0.00     0.029 A 
ATOM     51  C   UNL A   1      39.025  31.137  30.899  1.00  0.00     0.049 A 
ATOM     52  H   UNL A   1      40.505  30.422  32.179  1.00  0.00     0.167 HD
ATOM     53  C   UNL A   1      43.672  28.821  34.763  1.00  0.00     0.031 A 
ATOM     54  C   UNL A   1      38.319  32.056  31.587  1.00  0.00     0.031 A 
ATOM     55  C   UNL A   1      43.042  29.860  35.532  1.00  0.00     0.049 A 
ATOM     56  C   UNL A   1      38.721  32.377  33.006  1.00  0.00     0.074 A 
ATOM     57  C   UNL A   1      43.369  30.306  36.800  1.00  0.00     0.029 A 
ATOM     58  N   UNL A   1      41.949  30.604  35.116  1.00  0.00    -0.354 N 
ATOM     59  N   UNL A   1      39.717  31.893  33.713  1.00  0.00    -0.248 NA
ATOM     60  C   UNL A   1      37.914  33.378  33.715  1.00  0.00     0.031 C 
ATOM     61  C   UNL A   1      42.427  31.266  37.180  1.00  0.00     0.029 A 
ATOM     62  C   UNL A   1      41.560  31.475  36.120  1.00  0.00     0.049 A 
ATOM     63  H   UNL A   1      41.513  30.525  34.236  1.00  0.00     0.167 HD
ATOM     64  C   UNL A   1      39.666  32.551  34.939  1.00  0.00     0.074 A 
ATOM     65  C   UNL A   1      38.565  33.488  34.864  1.00  0.00     0.031 C 
ATOM     66  C   UNL A   1      40.456  32.395  36.031  1.00  0.00     0.031 A 
BRANCH  53  67
ATOM     67  C   UNL A   1      44.775  28.031  35.415  1.00  0.00    -0.014 A 
ATOM     68  C   UNL A   1      44.512  26.850  36.130  1.00  0.00     0.010 A 
ATOM     69  C   UNL A   1      46.109  28.439  35.231  1.00  0.00     0.010 A 
ATOM     70  C   UNL A   1      45.564  26.093  36.654  1.00  0.00     0.020 A 
ATOM     71  C   UNL A   1      47.165  27.672  35.730  1.00  0.00     0.020 A 
ATOM     72  C   UNL A   1      46.884  26.506  36.444  1.00  0.00     0.054 A 
BRANCH  72  73
ATOM     73  S   UNL A   1      48.232  25.464  37.067  1.00  0.00     0.124 S 
ATOM     74  O   UNL A   1      48.645  26.189  38.266  1.00  0.00    -0.237 OA
ATOM     75  O   UNL A   1      47.562  24.188  37.306  1.00  0.00    -0.237 OA
ATOM     76  O   UNL A   1      49.203  25.461  35.976  1.00  0.00    -0.744 OA
ENDBRANCH  72  73
ENDBRANCH  53  67
BRANCH  54  77
ATOM     77  C   UNL A   1      37.131  32.714  30.971  1.00  0.00    -0.014 A 
ATOM     78  C   UNL A   1      35.836  32.191  31.138  1.00  0.00     0.010 A 
ATOM     79  C   UNL A   1      37.304  33.851  30.160  1.00  0.00     0.010 A 
ATOM     80  C   UNL A   1      34.746  32.766  30.474  1.00  0.00     0.020 A 
ATOM     81  C   UNL A   1      36.214  34.451  29.524  1.00  0.00     0.020 A 
ATOM     82  C   UNL A   1      34.944  33.891  29.668  1.00  0.00     0.054 A 
BRANCH  82  83
ATOM     83  S   UNL A   1      33.518  34.627  28.822  1.00  0.00     0.124 S 
ATOM     84  O   UNL A   1      32.646  34.969  29.941  1.00  0.00    -0.237 OA
ATOM     85  O   UNL A   1      34.118  35.756  28.116  1.00  0.00    -0.237 OA
ATOM     86  O   UNL A   1      33.037  33.548  27.961  1.00  0.00    -0.744 OA
ENDBRANCH  82  83
ENDBRANCH  54  77
BRANCH  66  87
ATOM     87  C   UNL A   1      40.174  33.276  37.220  1.00  0.00    -0.014 A 
ATOM     88  C   UNL A   1      40.805  34.524  37.374  1.00  0.00     0.010 A 
ATOM     89  C   UNL A   1      39.242  32.859  38.189  1.00  0.00     0.010 A 
ATOM     90  C   UNL A   1      40.553  35.310  38.501  1.00  0.00     0.020 A 
ATOM     91  C   UNL A   1      38.959  33.659  39.299  1.00  0.00     0.020 A 
ATOM     92  C   UNL A   1      39.636  34.869  39.460  1.00  0.00     0.054 A 
BRANCH  92  93
ATOM     93  S   UNL A   1      39.323  35.910  40.912  1.00  0.00     0.124 S 
ATOM     94  O   UNL A   1      40.045  37.133  40.569  1.00  0.00    -0.237 OA
ATOM     95  O   UNL A   1      37.867  36.020  40.921  1.00  0.00    -0.237 OA
ATOM     96  O   UNL A   1      39.892  35.142  42.018  1.00  0.00    -0.744 OA
ENDBRANCH  92  93
ENDBRANCH  66  87
ENDBRANCH  40  41
ENDBRANCH  33  35
ENDBRANCH  32  33
ENDBRANCH  31  32
ENDBRANCH  30  31
ENDBRANCH  29  30
ENDBRANCH  28  29
ENDBRANCH  27  28
ENDBRANCH  26  27
ENDBRANCH  25  26
ENDBRANCH   1  25
TORSDOF 31
ENDMDL
MODEL 2
REMARK VINA RESULT:      -7.0      1.742      3.412
REMARK SMILES CC[C@H](C)CN(CC)C(=O)NC[C@@](C)(O)C(=O)OCCOCCOCCOCCOC(=O)c1ccc(-c2c3nc(c(-c4ccc(S(=O)(=O)[O-])cc4)c4ccc([nH]4)c(-c4ccc(S(=O)(=O)[O-])cc4)c4nc(c(-c5ccc(S(=O)(=O)[O-])cc5)c5ccc2[nH]5)C=C4)C=C3)cc1
REMARK SMILES IDX 22 1 21 2 20 3 19 4 18 5 16 6 17 7 13 8 14 9 12 10 11 11
REMARK SMILES IDX 9 12 10 13 6 15 5 16 3 17 4 18 2 19 1 20 7 21 8 22 15 23
REMARK SMILES IDX 23 25 24 26 25 27 26 28 27 29 28 30 29 31 30 32 31 33 32 34
REMARK SMILES IDX 33 35 34 36 92 37 35 38 91 39 36 40 37 41 38 42 85 43 39 44
REMARK SMILES IDX 90 45 84 46 86 47 40 48 89 49 83 50 82 51 41 53 71 54 52 55
REMARK SMILES IDX 70 56 53 57 56 58 69 59 87 60 54 61 55 62 68 64 88 65 57 66
REMARK SMILES IDX 42 67 43 68 51 69 44 70 50 71 45 72 46 73 47 74 48 75 49 76
REMARK SMILES IDX 72 77 73 78 81 79 74 80 80 81 75 82 76 83 77 84 78 85 79 86
REMARK SMILES IDX 58 87 59 88 67 89 60 90 66 91 61 92 62 93 63 94 64 95 65 96
REMARK H PARENT 11 14 15 24 86 52 56 63
REMARK Flexibility Score: inf
ROOT
ATOM      1  C   UNL A   1      36.882  22.156  26.126  1.00  0.00     0.188 C 
ENDROOT
BRANCH   1   2
ATOM      2  O   UNL A   1      36.460  23.233  25.311  1.00  0.00    -0.376 OA
BRANCH   2   3
ATOM      3  C   UNL A   1      36.784  23.199  23.934  1.00  0.00     0.202 C 
BRANCH   3   4
ATOM      4  C   UNL A   1      35.692  23.144  22.851  1.00  0.00     0.261 C 
BRANCH   4   5
ATOM      5  O   UNL A   1      34.344  22.986  23.313  1.00  0.00    -0.461 OA
BRANCH   5   6
ATOM      6  C   UNL A   1      33.354  22.868  22.395  1.00  0.00     0.339 C 
ATOM      7  O   UNL A   1      33.369  23.388  21.285  1.00  0.00    -0.249 OA
BRANCH   6   8
ATOM      8  C   UNL A   1      32.175  21.993  22.915  1.00  0.00     0.176 C 
ATOM      9  C   UNL A   1      32.793  20.974  23.875  1.00  0.00     0.057 C 
BRANCH   8  10
ATOM     10  C   UNL A   1      31.080  22.871  23.608  1.00  0.00     0.164 C 
BRANCH  10  11
ATOM     11  N   UNL A   1      31.457  23.442  24.889  1.00  0.00    -0.334 N 
ATOM     12  C   UNL A   1      31.918  24.661  25.233  1.00  0.00     0.317 C 
ATOM     13  O   UNL A   1      32.854  24.653  26.036  1.00  0.00    -0.249 OA
ATOM     14  H   UNL A   1      31.355  22.824  25.648  1.00  0.00     0.165 HD
BRANCH  12  15
ATOM     15  N   UNL A   1      31.338  25.831  24.808  1.00  0.00    -0.325 N 
BRANCH  15  16
ATOM     16  C   UNL A   1      31.341  26.950  25.779  1.00  0.00     0.124 C 
BRANCH  16  17
ATOM     17  C   UNL A   1      32.771  27.457  26.124  1.00  0.00     0.005 C 
ATOM     18  C   UNL A   1      33.525  28.045  24.922  1.00  0.00     0.009 C 
BRANCH  17  19
ATOM     19  C   UNL A   1      32.709  28.490  27.272  1.00  0.00     0.002 C 
ATOM     20  C   UNL A   1      32.023  29.794  26.875  1.00  0.00     0.004 C 
ENDBRANCH  17  19
ENDBRANCH  16  17
ENDBRANCH  15  16
BRANCH  15  21
ATOM     21  C   UNL A   1      30.565  26.059  23.582  1.00  0.00     0.118 C 
ATOM     22  C   UNL A   1      30.367  27.536  23.271  1.00  0.00     0.027 C 
ENDBRANCH  15  21
ENDBRANCH  12  15
ENDBRANCH  10  11
ENDBRANCH   8  10
BRANCH   8  23
ATOM     23  O   UNL A   1      31.543  21.200  21.900  1.00  0.00    -0.377 OA
ATOM     24  H   UNL A   1      30.656  21.551  21.723  1.00  0.00     0.212 HD
ENDBRANCH   8  23
ENDBRANCH   6   8
ENDBRANCH   5   6
ENDBRANCH   4   5
ENDBRANCH   3   4
ENDBRANCH   2   3
ENDBRANCH   1   2
BRANCH   1  25
ATOM     25  C   UNL A   1      38.237  21.573  25.680  1.00  0.00     0.188 C 
BRANCH  25  26
ATOM     26  O   UNL A   1      39.390  21.934  26.414  1.00  0.00    -0.377 OA
BRANCH  26  27
ATOM     27  C   UNL A   1      40.493  21.037  26.435  1.00  0.00     0.188 C 
BRANCH  27  28
ATOM     28  C   UNL A   1      41.748  21.323  27.296  1.00  0.00     0.188 C 
BRANCH  28  29
ATOM     29  O   UNL A   1      42.878  21.836  26.599  1.00  0.00    -0.376 OA
BRANCH  29  30
ATOM     30  C   UNL A   1      42.638  22.501  25.369  1.00  0.00     0.202 C 
BRANCH  30  31
ATOM     31  C   UNL A   1      43.865  23.152  24.714  1.00  0.00     0.261 C 
BRANCH  31  32
ATOM     32  O   UNL A   1      44.947  23.454  25.607  1.00  0.00    -0.460 OA
BRANCH  32  33
ATOM     33  C   UNL A   1      45.474  24.695  25.528  1.00  0.00     0.338 C 
ATOM     34  O   UNL A   1      46.202  25.130  24.651  1.00  0.00    -0.246 OA
BRANCH  33  35
ATOM     35  C   UNL A   1      44.844  25.518  26.577  1.00  0.00     0.060 A 
ATOM     36  C   UNL A   1      45.025  26.906  26.534  1.00  0.00     0.016 A 
ATOM     37  C   UNL A   1      44.051  24.935  27.568  1.00  0.00     0.016 A 
ATOM     38  C   UNL A   1      44.436  27.713  27.504  1.00  0.00     0.010 A 
ATOM     39  C   UNL A   1      43.484  25.743  28.557  1.00  0.00     0.010 A 
ATOM     40  C   UNL A   1      43.702  27.131  28.546  1.00  0.00    -0.014 A 
BRANCH  40  41
ATOM     41  C   UNL A   1      43.345  27.971  29.713  1.00  0.00     0.031 A 
ATOM     42  C   UNL A   1      44.279  27.978  30.894  1.00  0.00     0.074 A 
ATOM     43  C   UNL A   1      42.258  28.762  29.695  1.00  0.00     0.049 A 
ATOM     44  N   UNL A   1      44.218  28.684  31.992  1.00  0.00    -0.248 NA
ATOM     45  C   UNL A   1      45.440  27.073  30.826  1.00  0.00     0.031 C 
ATOM     46  C   UNL A   1      41.298  28.859  28.594  1.00  0.00     0.029 A 
ATOM     47  N   UNL A   1      41.783  29.644  30.633  1.00  0.00    -0.354 N 
ATOM     48  C   UNL A   1      45.321  28.303  32.747  1.00  0.00     0.074 A 
ATOM     49  C   UNL A   1      46.025  27.290  31.995  1.00  0.00     0.031 C 
ATOM     50  C   UNL A   1      40.346  29.750  28.924  1.00  0.00     0.029 A 
ATOM     51  C   UNL A   1      40.614  30.266  30.266  1.00  0.00     0.049 A 
ATOM     52  H   UNL A   1      42.238  29.813  31.490  1.00  0.00     0.167 HD
ATOM     53  C   UNL A   1      45.712  28.760  33.958  1.00  0.00     0.031 A 
ATOM     54  C   UNL A   1      39.844  31.141  30.943  1.00  0.00     0.031 A 
ATOM     55  C   UNL A   1      45.007  29.768  34.704  1.00  0.00     0.049 A 
ATOM     56  C   UNL A   1      40.283  31.599  32.312  1.00  0.00     0.074 A 
ATOM     57  C   UNL A   1      45.349  30.332  35.920  1.00  0.00     0.029 A 
ATOM     58  N   UNL A   1      43.812  30.352  34.314  1.00  0.00    -0.354 N 
ATOM     59  N   UNL A   1      41.367  31.281  32.982  1.00  0.00    -0.248 NA
ATOM     60  C   UNL A   1      39.404  32.546  33.010  1.00  0.00     0.031 C 
ATOM     61  C   UNL A   1      44.323  31.199  36.302  1.00  0.00     0.029 A 
ATOM     62  C   UNL A   1      43.379  31.237  35.287  1.00  0.00     0.049 A 
ATOM     63  H   UNL A   1      43.340  30.166  33.470  1.00  0.00     0.167 HD
ATOM     64  C   UNL A   1      41.308  32.008  34.168  1.00  0.00     0.074 A 
ATOM     65  C   UNL A   1      40.100  32.805  34.108  1.00  0.00     0.031 C 
ATOM     66  C   UNL A   1      42.170  32.015  35.215  1.00  0.00     0.031 A 
BRANCH  53  67
ATOM     67  C   UNL A   1      46.935  28.147  34.585  1.00  0.00    -0.014 A 
ATOM     68  C   UNL A   1      48.220  28.670  34.358  1.00  0.00     0.010 A 
ATOM     69  C   UNL A   1      46.779  27.079  35.488  1.00  0.00     0.010 A 
ATOM     70  C   UNL A   1      49.328  28.132  35.019  1.00  0.00     0.020 A 
ATOM     71  C   UNL A   1      47.880  26.555  36.171  1.00  0.00     0.020 A 
ATOM     72  C   UNL A   1      49.149  27.083  35.927  1.00  0.00     0.054 A 
BRANCH  72  73
ATOM     73  S   UNL A   1      50.593  26.456  36.829  1.00  0.00     0.124 S 
ATOM     74  O   UNL A   1      51.155  25.503  35.875  1.00  0.00    -0.237 OA
ATOM     75  O   UNL A   1      51.382  27.666  37.046  1.00  0.00    -0.237 OA
ATOM     76  O   UNL A   1      50.020  25.864  38.035  1.00  0.00    -0.744 OA
ENDBRANCH  72  73
ENDBRANCH  53  67
BRANCH  54  77
ATOM     77  C   UNL A   1      38.553  31.616  30.365  1.00  0.00    -0.014 A 
ATOM     78  C   UNL A   1      37.355  30.909  30.570  1.00  0.00     0.010 A 
ATOM     79  C   UNL A   1      38.532  32.766  29.553  1.00  0.00     0.010 A 
ATOM     80  C   UNL A   1      36.173  31.316  29.942  1.00  0.00     0.020 A 
ATOM     81  C   UNL A   1      37.346  33.198  28.953  1.00  0.00     0.020 A 
ATOM     82  C   UNL A   1      36.178  32.457  29.133  1.00  0.00     0.054 A 
BRANCH  82  83
ATOM     83  S   UNL A   1      34.633  32.974  28.334  1.00  0.00     0.124 S 
ATOM     84  O   UNL A   1      34.513  32.002  27.252  1.00  0.00    -0.237 OA
ATOM     85  O   UNL A   1      33.659  32.844  29.415  1.00  0.00    -0.237 OA
ATOM     86  O   UNL A   1      34.909  34.346  27.915  1.00  0.00    -0.744 OA
ENDBRANCH  82  83
ENDBRANCH  54  77
BRANCH  66  87
ATOM     87  C   UNL A   1      41.853  32.935  36.366  1.00  0.00    -0.014 A 
ATOM     88  C   UNL A   1      41.161  32.477  37.502  1.00  0.00     0.010 A 
ATOM     89  C   UNL A   1      42.277  34.276  36.321  1.00  0.00     0.010 A 
ATOM     90  C   UNL A   1      40.849  33.355  38.542  1.00  0.00     0.020 A 
ATOM     91  C   UNL A   1      42.000  35.149  37.376  1.00  0.00     0.020 A 
ATOM     92  C   UNL A   1      41.266  34.688  38.469  1.00  0.00     0.054 A 
BRANCH  92  93
ATOM     93  S   UNL A   1      40.852  35.807  39.835  1.00  0.00     0.124 S 
ATOM     94  O   UNL A   1      40.766  37.097  39.155  1.00  0.00    -0.237 OA
ATOM     95  O   UNL A   1      39.585  35.266  40.321  1.00  0.00    -0.237 OA
ATOM     96  O   UNL A   1      41.978  35.663  40.755  1.00  0.00    -0.744 OA
ENDBRANCH  92  93
ENDBRANCH  66  87
ENDBRANCH  40  41
ENDBRANCH  33  35
ENDBRANCH  32  33
ENDBRANCH  31  32
ENDBRANCH  30  31
ENDBRANCH  29  30
ENDBRANCH  28  29
ENDBRANCH  27  28
ENDBRANCH  26  27
ENDBRANCH  25  26
ENDBRANCH   1  25
TORSDOF 31
ENDMDL
MODEL 3
REMARK VINA RESULT:      -7.0      8.669     11.536
REMARK SMILES CC[C@H](C)CN(CC)C(=O)NC[C@@](C)(O)C(=O)OCCOCCOCCOCCOC(=O)c1ccc(-c2c3nc(c(-c4ccc(S(=O)(=O)[O-])cc4)c4ccc([nH]4)c(-c4ccc(S(=O)(=O)[O-])cc4)c4nc(c(-c5ccc(S(=O)(=O)[O-])cc5)c5ccc2[nH]5)C=C4)C=C3)cc1
REMARK SMILES IDX 22 1 21 2 20 3 19 4 18 5 16 6 17 7 13 8 14 9 12 10 11 11
REMARK SMILES IDX 9 12 10 13 6 15 5 16 3 17 4 18 2 19 1 20 7 21 8 22 15 23
REMARK SMILES IDX 23 25 24 26 25 27 26 28 27 29 28 30 29 31 30 32 31 33 32 34
REMARK SMILES IDX 33 35 34 36 92 37 35 38 91 39 36 40 37 41 38 42 85 43 39 44
REMARK SMILES IDX 90 45 84 46 86 47 40 48 89 49 83 50 82 51 41 53 71 54 52 55
REMARK SMILES IDX 70 56 53 57 56 58 69 59 87 60 54 61 55 62 68 64 88 65 57 66
REMARK SMILES IDX 42 67 43 68 51 69 44 70 50 71 45 72 46 73 47 74 48 75 49 76
REMARK SMILES IDX 72 77 73 78 81 79 74 80 80 81 75 82 76 83 77 84 78 85 79 86
REMARK SMILES IDX 58 87 59 88 67 89 60 90 66 91 61 92 62 93 63 94 64 95 65 96
REMARK H PARENT 11 14 15 24 86 52 56 63
REMARK Flexibility Score: inf
ROOT
ATOM      1  C   UNL A   1      37.095  19.900  24.995  1.00  0.00     0.188 C 
ENDROOT
BRANCH   1   2
ATOM      2  O   UNL A   1      36.718  21.139  25.567  1.00  0.00    -0.376 OA
BRANCH   2   3
ATOM      3  C   UNL A   1      37.576  22.249  25.386  1.00  0.00     0.202 C 
BRANCH   3   4
ATOM      4  C   UNL A   1      37.023  23.677  25.231  1.00  0.00     0.261 C 
BRANCH   4   5
ATOM      5  O   UNL A   1      35.691  23.792  24.713  1.00  0.00    -0.461 OA
BRANCH   5   6
ATOM      6  C   UNL A   1      35.472  23.472  23.414  1.00  0.00     0.339 C 
ATOM      7  O   UNL A   1      36.339  23.091  22.635  1.00  0.00    -0.249 OA
BRANCH   6   8
ATOM      8  C   UNL A   1      33.978  23.651  23.013  1.00  0.00     0.176 C 
ATOM      9  C   UNL A   1      33.198  22.585  23.785  1.00  0.00     0.057 C 
BRANCH   8  10
ATOM     10  C   UNL A   1      33.475  25.099  23.331  1.00  0.00     0.164 C 
BRANCH  10  11
ATOM     11  N   UNL A   1      32.375  25.184  24.276  1.00  0.00    -0.334 N 
ATOM     12  C   UNL A   1      31.944  26.184  25.070  1.00  0.00     0.317 C 
ATOM     13  O   UNL A   1      31.653  25.843  26.220  1.00  0.00    -0.249 OA
ATOM     14  H   UNL A   1      31.846  24.358  24.349  1.00  0.00     0.165 HD
BRANCH  12  15
ATOM     15  N   UNL A   1      31.744  27.466  24.622  1.00  0.00    -0.325 N 
BRANCH  15  16
ATOM     16  C   UNL A   1      32.887  28.396  24.779  1.00  0.00     0.124 C 
BRANCH  16  17
ATOM     17  C   UNL A   1      33.040  28.939  26.229  1.00  0.00     0.005 C 
ATOM     18  C   UNL A   1      34.354  28.526  26.908  1.00  0.00     0.009 C 
BRANCH  17  19
ATOM     19  C   UNL A   1      32.893  30.477  26.242  1.00  0.00     0.002 C 
ATOM     20  C   UNL A   1      31.442  30.944  26.298  1.00  0.00     0.004 C 
ENDBRANCH  17  19
ENDBRANCH  16  17
ENDBRANCH  15  16
BRANCH  15  21
ATOM     21  C   UNL A   1      30.489  28.077  24.169  1.00  0.00     0.118 C 
ATOM     22  C   UNL A   1      29.539  27.076  23.527  1.00  0.00     0.027 C 
ENDBRANCH  15  21
ENDBRANCH  12  15
ENDBRANCH  10  11
ENDBRANCH   8  10
BRANCH   8  23
ATOM     23  O   UNL A   1      33.706  23.372  21.632  1.00  0.00    -0.377 OA
ATOM     24  H   UNL A   1      32.844  22.933  21.555  1.00  0.00     0.212 HD
ENDBRANCH   8  23
ENDBRANCH   6   8
ENDBRANCH   5   6
ENDBRANCH   4   5
ENDBRANCH   3   4
ENDBRANCH   2   3
ENDBRANCH   1   2
BRANCH   1  25
ATOM     25  C   UNL A   1      38.622  19.751  24.861  1.00  0.00     0.188 C 
BRANCH  25  26
ATOM     26  O   UNL A   1      39.382  19.594  26.043  1.00  0.00    -0.377 OA
BRANCH  26  27
ATOM     27  C   UNL A   1      40.799  19.545  25.941  1.00  0.00     0.188 C 
BRANCH  27  28
ATOM     28  C   UNL A   1      41.706  19.841  27.161  1.00  0.00     0.188 C 
BRANCH  28  29
ATOM     29  O   UNL A   1      42.581  20.956  27.031  1.00  0.00    -0.376 OA
BRANCH  29  30
ATOM     30  C   UNL A   1      42.281  21.905  26.019  1.00  0.00     0.202 C 
BRANCH  30  31
ATOM     31  C   UNL A   1      43.220  23.117  25.946  1.00  0.00     0.261 C 
BRANCH  31  32
ATOM     32  O   UNL A   1      44.352  23.069  26.826  1.00  0.00    -0.460 OA
BRANCH  32  33
ATOM     33  C   UNL A   1      45.530  22.689  26.283  1.00  0.00     0.338 C 
ATOM     34  O   UNL A   1      45.801  21.600  25.804  1.00  0.00    -0.246 OA
BRANCH  33  35
ATOM     35  C   UNL A   1      46.380  23.889  26.169  1.00  0.00     0.060 A 
ATOM     36  C   UNL A   1      47.061  24.333  27.309  1.00  0.00     0.016 A 
ATOM     37  C   UNL A   1      46.536  24.544  24.945  1.00  0.00     0.016 A 
ATOM     38  C   UNL A   1      47.880  25.458  27.233  1.00  0.00     0.010 A 
ATOM     39  C   UNL A   1      47.335  25.689  24.877  1.00  0.00     0.010 A 
ATOM     40  C   UNL A   1      47.983  26.167  26.029  1.00  0.00    -0.014 A 
BRANCH  40  41
ATOM     41  C   UNL A   1      48.610  27.509  26.053  1.00  0.00     0.031 A 
ATOM     42  C   UNL A   1      50.032  27.636  25.575  1.00  0.00     0.074 A 
ATOM     43  C   UNL A   1      47.911  28.598  26.421  1.00  0.00     0.049 A 
ATOM     44  N   UNL A   1      50.764  28.710  25.433  1.00  0.00    -0.248 NA
ATOM     45  C   UNL A   1      50.718  26.387  25.199  1.00  0.00     0.031 C 
ATOM     46  C   UNL A   1      46.520  28.599  26.874  1.00  0.00     0.029 A 
ATOM     47  N   UNL A   1      48.279  29.919  26.462  1.00  0.00    -0.354 N 
ATOM     48  C   UNL A   1      51.995  28.267  24.965  1.00  0.00     0.074 A 
ATOM     49  C   UNL A   1      51.922  26.827  24.863  1.00  0.00     0.031 C 
ATOM     50  C   UNL A   1      46.154  29.863  27.151  1.00  0.00     0.029 A 
ATOM     51  C   UNL A   1      47.289  30.755  26.919  1.00  0.00     0.049 A 
ATOM     52  H   UNL A   1      49.170  30.238  26.190  1.00  0.00     0.167 HD
ATOM     53  C   UNL A   1      53.088  28.997  24.646  1.00  0.00     0.031 A 
ATOM     54  C   UNL A   1      47.305  32.086  27.138  1.00  0.00     0.031 A 
ATOM     55  C   UNL A   1      53.156  30.430  24.750  1.00  0.00     0.049 A 
ATOM     56  C   UNL A   1      48.554  32.868  26.815  1.00  0.00     0.074 A 
ATOM     57  C   UNL A   1      54.204  31.265  24.406  1.00  0.00     0.029 A 
ATOM     58  N   UNL A   1      52.145  31.238  25.246  1.00  0.00    -0.354 N 
ATOM     59  N   UNL A   1      49.688  32.442  26.306  1.00  0.00    -0.248 NA
ATOM     60  C   UNL A   1      48.522  34.312  27.080  1.00  0.00     0.031 C 
ATOM     61  C   UNL A   1      53.856  32.570  24.765  1.00  0.00     0.029 A 
ATOM     62  C   UNL A   1      52.561  32.559  25.260  1.00  0.00     0.049 A 
ATOM     63  H   UNL A   1      51.262  30.921  25.544  1.00  0.00     0.167 HD
ATOM     64  C   UNL A   1      50.490  33.571  26.169  1.00  0.00     0.074 A 
ATOM     65  C   UNL A   1      49.702  34.699  26.618  1.00  0.00     0.031 C 
ATOM     66  C   UNL A   1      51.767  33.669  25.718  1.00  0.00     0.031 A 
BRANCH  53  67
ATOM     67  C   UNL A   1      54.323  28.264  24.195  1.00  0.00    -0.014 A 
ATOM     68  C   UNL A   1      54.631  28.107  22.833  1.00  0.00     0.010 A 
ATOM     69  C   UNL A   1      55.234  27.800  25.162  1.00  0.00     0.010 A 
ATOM     70  C   UNL A   1      55.826  27.494  22.445  1.00  0.00     0.020 A 
ATOM     71  C   UNL A   1      56.442  27.210  24.780  1.00  0.00     0.020 A 
ATOM     72  C   UNL A   1      56.727  27.057  23.422  1.00  0.00     0.054 A 
BRANCH  72  73
ATOM     73  S   UNL A   1      58.305  26.337  22.891  1.00  0.00     0.124 S 
ATOM     74  O   UNL A   1      58.149  24.940  23.289  1.00  0.00    -0.237 OA
ATOM     75  O   UNL A   1      58.298  26.582  21.451  1.00  0.00    -0.237 OA
ATOM     76  O   UNL A   1      59.304  27.091  23.644  1.00  0.00    -0.744 OA
ENDBRANCH  72  73
ENDBRANCH  53  67
BRANCH  54  77
ATOM     77  C   UNL A   1      46.119  32.768  27.734  1.00  0.00    -0.014 A 
ATOM     78  C   UNL A   1      45.901  32.777  29.123  1.00  0.00     0.010 A 
ATOM     79  C   UNL A   1      45.165  33.372  26.893  1.00  0.00     0.010 A 
ATOM     80  C   UNL A   1      44.735  33.338  29.656  1.00  0.00     0.020 A 
ATOM     81  C   UNL A   1      44.017  33.966  27.423  1.00  0.00     0.020 A 
ATOM     82  C   UNL A   1      43.798  33.926  28.801  1.00  0.00     0.054 A 
BRANCH  82  83
ATOM     83  S   UNL A   1      42.297  34.655  29.511  1.00  0.00     0.124 S 
ATOM     84  O   UNL A   1      42.843  35.721  30.344  1.00  0.00    -0.237 OA
ATOM     85  O   UNL A   1      41.565  35.090  28.323  1.00  0.00    -0.237 OA
ATOM     86  O   UNL A   1      41.687  33.543  30.237  1.00  0.00    -0.744 OA
ENDBRANCH  82  83
ENDBRANCH  54  77
BRANCH  66  87
ATOM     87  C   UNL A   1      52.376  35.045  25.660  1.00  0.00    -0.014 A 
ATOM     88  C   UNL A   1      52.032  35.957  24.645  1.00  0.00     0.010 A 
ATOM     89  C   UNL A   1      53.290  35.443  26.653  1.00  0.00     0.010 A 
ATOM     90  C   UNL A   1      52.634  37.217  24.592  1.00  0.00     0.020 A 
ATOM     91  C   UNL A   1      53.866  36.716  26.625  1.00  0.00     0.020 A 
ATOM     92  C   UNL A   1      53.553  37.585  25.580  1.00  0.00     0.054 A 
BRANCH  92  93
ATOM     93  S   UNL A   1      54.317  39.227  25.491  1.00  0.00     0.124 S 
ATOM     94  O   UNL A   1      55.737  38.908  25.617  1.00  0.00    -0.237 OA
ATOM     95  O   UNL A   1      53.895  39.708  24.178  1.00  0.00    -0.237 OA
ATOM     96  O   UNL A   1      53.737  39.942  26.626  1.00  0.00    -0.744 OA
ENDBRANCH  92  93
ENDBRANCH  66  87
ENDBRANCH  40  41
ENDBRANCH  33  35
ENDBRANCH  32  33
ENDBRANCH  31  32
ENDBRANCH  30  31
ENDBRANCH  29  30
ENDBRANCH  28  29
ENDBRANCH  27  28
ENDBRANCH  26  27
ENDBRANCH  25  26
ENDBRANCH   1  25
TORSDOF 31
ENDMDL
