MODEL 1
REMARK VINA RESULT:      -8.0      0.000      0.000
REMARK SMILES C[C@@](COc1ccccc1)(NC(=O)CN1CSCC1=O)C(=O)OCCOCCOCCOCCOC(=O)c1ccc(-c2c3nc(c(-c4ccc(S(=O)(=O)[O-])cc4)c4ccc([nH]4)c(-c4ccc(S(=O)(=O)[O-])cc4)c4nc(c(-c5ccc(S(=O)(=O)[O-])cc5)c5ccc2[nH]5)C=C4)C=C3)cc1
REMARK SMILES IDX 29 1 28 2 27 3 26 4 25 5 24 6 23 7 21 8 22 9 2 10 1 11 3 12
REMARK SMILES IDX 4 13 5 14 6 15 10 16 7 17 9 18 8 19 11 20 12 21 13 23 14 24
REMARK SMILES IDX 15 25 16 26 19 27 17 28 18 29 20 30 30 31 31 32 32 33 33 34
REMARK SMILES IDX 34 35 35 36 36 37 37 38 38 39 39 40 97 41 40 42 96 43 41 44
REMARK SMILES IDX 42 45 43 46 90 47 44 48 95 49 89 50 91 51 45 52 94 53 88 54
REMARK SMILES IDX 87 55 46 57 76 58 57 59 75 60 58 61 61 62 74 63 92 64 59 65
REMARK SMILES IDX 60 66 73 68 93 69 62 70 47 71 48 72 56 73 49 74 55 75 50 76
REMARK SMILES IDX 51 77 52 78 53 79 54 80 77 81 78 82 86 83 79 84 85 85 80 86
REMARK SMILES IDX 81 87 82 88 83 89 84 90 63 91 64 92 72 93 65 94 71 95 66 96
REMARK SMILES IDX 67 97 68 98 69 99 70 100
REMARK H PARENT 11 22 91 56 61 67
REMARK Flexibility Score: inf
ROOT
ATOM      1  O   UNL A   1      38.431  22.011  25.415  1.00  0.00    -0.377 OA
ENDROOT
BRANCH   1   2
ATOM      2  C   UNL A   1      37.314  21.828  24.552  1.00  0.00     0.188 C 
BRANCH   2   3
ATOM      3  C   UNL A   1      36.004  21.778  25.477  1.00  0.00     0.188 C 
BRANCH   3   4
ATOM      4  O   UNL A   1      34.611  21.732  25.091  1.00  0.00    -0.376 OA
BRANCH   4   5
ATOM      5  C   UNL A   1      33.770  22.752  24.473  1.00  0.00     0.202 C 
BRANCH   5   6
ATOM      6  C   UNL A   1      34.080  23.952  23.517  1.00  0.00     0.261 C 
BRANCH   6   7
ATOM      7  O   UNL A   1      33.136  25.013  23.530  1.00  0.00    -0.461 OA
BRANCH   7   8
ATOM      8  C   UNL A   1      33.032  25.695  24.696  1.00  0.00     0.335 C 
ATOM      9  O   UNL A   1      33.985  26.001  25.416  1.00  0.00    -0.249 OA
BRANCH   8  10
ATOM     10  C   UNL A   1      31.690  26.398  24.659  1.00  0.00     0.169 C 
ATOM     11  C   UNL A   1      30.764  25.275  24.135  1.00  0.00     0.051 C 
BRANCH  10  12
ATOM     12  C   UNL A   1      31.657  27.501  23.540  1.00  0.00     0.269 C 
BRANCH  12  13
ATOM     13  O   UNL A   1      30.486  27.395  22.680  1.00  0.00    -0.491 OA
BRANCH  13  14
ATOM     14  C   UNL A   1      29.534  28.383  22.783  1.00  0.00     0.119 A 
ATOM     15  C   UNL A   1      28.175  28.156  23.007  1.00  0.00     0.046 A 
ATOM     16  C   UNL A   1      29.998  29.701  22.685  1.00  0.00     0.046 A 
ATOM     17  C   UNL A   1      27.311  29.240  23.225  1.00  0.00     0.004 A 
ATOM     18  C   UNL A   1      29.141  30.779  22.927  1.00  0.00     0.004 A 
ATOM     19  C   UNL A   1      27.797  30.548  23.208  1.00  0.00     0.000 A 
ENDBRANCH  13  14
ENDBRANCH  12  13
ENDBRANCH  10  12
BRANCH  10  20
ATOM     20  N   UNL A   1      31.386  27.039  26.048  1.00  0.00    -0.336 N 
ATOM     21  C   UNL A   1      31.726  28.012  26.971  1.00  0.00     0.240 C 
ATOM     22  H   UNL A   1      30.629  26.538  26.431  1.00  0.00     0.164 HD
ATOM     23  O   UNL A   1      31.024  27.895  27.999  1.00  0.00    -0.273 OA
BRANCH  21  24
ATOM     24  C   UNL A   1      32.760  29.335  26.912  1.00  0.00     0.220 C 
BRANCH  24  25
ATOM     25  N   UNL A   1      34.137  29.928  27.374  1.00  0.00    -0.323 N 
ATOM     26  C   UNL A   1      35.460  29.327  27.405  1.00  0.00     0.190 C 
ATOM     27  C   UNL A   1      34.197  31.305  27.626  1.00  0.00     0.233 C 
ATOM     28  S   UNL A   1      36.696  30.467  28.012  1.00  0.00    -0.130 SA
ATOM     29  C   UNL A   1      35.606  31.850  27.799  1.00  0.00     0.171 C 
ATOM     30  O   UNL A   1      33.216  32.039  27.630  1.00  0.00    -0.274 OA
ENDBRANCH  24  25
ENDBRANCH  21  24
ENDBRANCH  10  20
ENDBRANCH   8  10
ENDBRANCH   7   8
ENDBRANCH   6   7
ENDBRANCH   5   6
ENDBRANCH   4   5
ENDBRANCH   3   4
ENDBRANCH   2   3
ENDBRANCH   1   2
BRANCH   1  31
ATOM     31  C   UNL A   1      39.282  21.088  26.101  1.00  0.00     0.188 C 
BRANCH  31  32
ATOM     32  C   UNL A   1      40.816  21.146  26.145  1.00  0.00     0.188 C 
BRANCH  32  33
ATOM     33  O   UNL A   1      41.370  22.449  26.124  1.00  0.00    -0.376 OA
BRANCH  33  34
ATOM     34  C   UNL A   1      42.744  22.518  26.496  1.00  0.00     0.202 C 
BRANCH  34  35
ATOM     35  C   UNL A   1      43.745  22.752  25.352  1.00  0.00     0.261 C 
BRANCH  35  36
ATOM     36  O   UNL A   1      44.308  24.086  25.343  1.00  0.00    -0.460 OA
BRANCH  36  37
ATOM     37  C   UNL A   1      45.323  24.310  26.208  1.00  0.00     0.338 C 
ATOM     38  O   UNL A   1      46.070  23.442  26.693  1.00  0.00    -0.246 OA
BRANCH  37  39
ATOM     39  C   UNL A   1      45.563  25.747  26.433  1.00  0.00     0.060 A 
ATOM     40  C   UNL A   1      46.023  26.163  27.692  1.00  0.00     0.016 A 
ATOM     41  C   UNL A   1      45.218  26.699  25.469  1.00  0.00     0.016 A 
ATOM     42  C   UNL A   1      46.073  27.523  28.014  1.00  0.00     0.010 A 
ATOM     43  C   UNL A   1      45.256  28.060  25.798  1.00  0.00     0.010 A 
ATOM     44  C   UNL A   1      45.636  28.477  27.087  1.00  0.00    -0.014 A 
BRANCH  44  45
ATOM     45  C   UNL A   1      45.352  29.870  27.521  1.00  0.00     0.031 A 
ATOM     46  C   UNL A   1      46.410  30.920  27.288  1.00  0.00     0.074 A 
ATOM     47  C   UNL A   1      44.197  30.211  28.119  1.00  0.00     0.049 A 
ATOM     48  N   UNL A   1      46.437  32.173  27.663  1.00  0.00    -0.248 NA
ATOM     49  C   UNL A   1      47.598  30.494  26.529  1.00  0.00     0.031 C 
ATOM     50  C   UNL A   1      43.067  29.315  28.358  1.00  0.00     0.029 A 
ATOM     51  N   UNL A   1      43.794  31.413  28.652  1.00  0.00    -0.354 N 
ATOM     52  C   UNL A   1      47.644  32.682  27.198  1.00  0.00     0.074 A 
ATOM     53  C   UNL A   1      48.329  31.599  26.526  1.00  0.00     0.031 C 
ATOM     54  C   UNL A   1      42.104  29.994  29.008  1.00  0.00     0.029 A 
ATOM     55  C   UNL A   1      42.563  31.360  29.263  1.00  0.00     0.049 A 
ATOM     56  H   UNL A   1      44.334  32.234  28.600  1.00  0.00     0.167 HD
ATOM     57  C   UNL A   1      48.143  33.935  27.317  1.00  0.00     0.031 A 
ATOM     58  C   UNL A   1      41.899  32.295  29.972  1.00  0.00     0.031 A 
ATOM     59  C   UNL A   1      47.480  35.010  28.003  1.00  0.00     0.049 A 
ATOM     60  C   UNL A   1      42.514  33.656  30.176  1.00  0.00     0.074 A 
ATOM     61  C   UNL A   1      47.905  36.317  28.172  1.00  0.00     0.029 A 
ATOM     62  N   UNL A   1      46.256  34.900  28.644  1.00  0.00    -0.354 N 
ATOM     63  N   UNL A   1      43.652  34.125  29.720  1.00  0.00    -0.248 NA
ATOM     64  C   UNL A   1      41.756  34.613  30.995  1.00  0.00     0.031 C 
ATOM     65  C   UNL A   1      46.960  36.984  28.959  1.00  0.00     0.029 A 
ATOM     66  C   UNL A   1      45.924  36.106  29.237  1.00  0.00     0.049 A 
ATOM     67  H   UNL A   1      45.705  34.085  28.674  1.00  0.00     0.167 HD
ATOM     68  C   UNL A   1      43.736  35.435  30.185  1.00  0.00     0.074 A 
ATOM     69  C   UNL A   1      42.530  35.689  30.944  1.00  0.00     0.031 C 
ATOM     70  C   UNL A   1      44.724  36.345  29.998  1.00  0.00     0.031 A 
BRANCH  57  71
ATOM     71  C   UNL A   1      49.501  34.194  26.724  1.00  0.00    -0.014 A 
ATOM     72  C   UNL A   1      49.645  34.569  25.376  1.00  0.00     0.010 A 
ATOM     73  C   UNL A   1      50.647  34.074  27.530  1.00  0.00     0.010 A 
ATOM     74  C   UNL A   1      50.916  34.783  24.835  1.00  0.00     0.020 A 
ATOM     75  C   UNL A   1      51.918  34.307  26.998  1.00  0.00     0.020 A 
ATOM     76  C   UNL A   1      52.045  34.643  25.649  1.00  0.00     0.054 A 
BRANCH  76  77
ATOM     77  S   UNL A   1      53.683  34.932  24.925  1.00  0.00     0.124 S 
ATOM     78  O   UNL A   1      53.813  33.799  24.012  1.00  0.00    -0.237 OA
ATOM     79  O   UNL A   1      53.528  36.237  24.287  1.00  0.00    -0.237 OA
ATOM     80  O   UNL A   1      54.580  34.909  26.078  1.00  0.00    -0.744 OA
ENDBRANCH  76  77
ENDBRANCH  57  71
BRANCH  58  81
ATOM     81  C   UNL A   1      40.582  31.966  30.585  1.00  0.00    -0.014 A 
ATOM     82  C   UNL A   1      39.387  32.445  30.021  1.00  0.00     0.010 A 
ATOM     83  C   UNL A   1      40.520  31.177  31.749  1.00  0.00     0.010 A 
ATOM     84  C   UNL A   1      38.155  32.149  30.614  1.00  0.00     0.020 A 
ATOM     85  C   UNL A   1      39.289  30.860  32.331  1.00  0.00     0.020 A 
ATOM     86  C   UNL A   1      38.114  31.356  31.764  1.00  0.00     0.054 A 
BRANCH  86  87
ATOM     87  S   UNL A   1      36.502  30.933  32.485  1.00  0.00     0.124 S 
ATOM     88  O   UNL A   1      35.588  31.251  31.394  1.00  0.00    -0.237 OA
ATOM     89  O   UNL A   1      36.654  29.513  32.790  1.00  0.00    -0.237 OA
ATOM     90  O   UNL A   1      36.413  31.805  33.654  1.00  0.00    -0.744 OA
ENDBRANCH  86  87
ENDBRANCH  58  81
BRANCH  70  91
ATOM     91  C   UNL A   1      44.543  37.709  30.610  1.00  0.00    -0.014 A 
ATOM     92  C   UNL A   1      44.045  38.782  29.852  1.00  0.00     0.010 A 
ATOM     93  C   UNL A   1      44.814  37.901  31.977  1.00  0.00     0.010 A 
ATOM     94  C   UNL A   1      43.844  40.033  30.445  1.00  0.00     0.020 A 
ATOM     95  C   UNL A   1      44.593  39.143  32.579  1.00  0.00     0.020 A 
ATOM     96  C   UNL A   1      44.121  40.206  31.805  1.00  0.00     0.054 A 
BRANCH  96  97
ATOM     97  S   UNL A   1      43.806  41.823  32.565  1.00  0.00     0.124 S 
ATOM     98  O   UNL A   1      43.273  42.588  31.441  1.00  0.00    -0.237 OA
ATOM     99  O   UNL A   1      42.846  41.503  33.619  1.00  0.00    -0.237 OA
ATOM    100  O   UNL A   1      45.122  42.245  33.039  1.00  0.00    -0.744 OA
ENDBRANCH  96  97
ENDBRANCH  70  91
ENDBRANCH  44  45
ENDBRANCH  37  39
ENDBRANCH  36  37
ENDBRANCH  35  36
ENDBRANCH  34  35
ENDBRANCH  33  34
ENDBRANCH  32  33
ENDBRANCH  31  32
ENDBRANCH   1  31
TORSDOF 29
ENDMDL
MODEL 2
REMARK VINA RESULT:      -7.6      3.292      8.906
REMARK SMILES C[C@@](COc1ccccc1)(NC(=O)CN1CSCC1=O)C(=O)OCCOCCOCCOCCOC(=O)c1ccc(-c2c3nc(c(-c4ccc(S(=O)(=O)[O-])cc4)c4ccc([nH]4)c(-c4ccc(S(=O)(=O)[O-])cc4)c4nc(c(-c5ccc(S(=O)(=O)[O-])cc5)c5ccc2[nH]5)C=C4)C=C3)cc1
REMARK SMILES IDX 29 1 28 2 27 3 26 4 25 5 24 6 23 7 21 8 22 9 2 10 1 11 3 12
REMARK SMILES IDX 4 13 5 14 6 15 10 16 7 17 9 18 8 19 11 20 12 21 13 23 14 24
REMARK SMILES IDX 15 25 16 26 19 27 17 28 18 29 20 30 30 31 31 32 32 33 33 34
REMARK SMILES IDX 34 35 35 36 36 37 37 38 38 39 39 40 97 41 40 42 96 43 41 44
REMARK SMILES IDX 42 45 43 46 90 47 44 48 95 49 89 50 91 51 45 52 94 53 88 54
REMARK SMILES IDX 87 55 46 57 76 58 57 59 75 60 58 61 61 62 74 63 92 64 59 65
REMARK SMILES IDX 60 66 73 68 93 69 62 70 47 71 48 72 56 73 49 74 55 75 50 76
REMARK SMILES IDX 51 77 52 78 53 79 54 80 77 81 78 82 86 83 79 84 85 85 80 86
REMARK SMILES IDX 81 87 82 88 83 89 84 90 63 91 64 92 72 93 65 94 71 95 66 96
REMARK SMILES IDX 67 97 68 98 69 99 70 100
REMARK H PARENT 11 22 91 56 61 67
REMARK Flexibility Score: inf
ROOT
ATOM      1  O   UNL A   1      36.721  22.160  25.289  1.00  0.00    -0.377 OA
ENDROOT
BRANCH   1   2
ATOM      2  C   UNL A   1      36.001  22.224  24.063  1.00  0.00     0.188 C 
BRANCH   2   3
ATOM      3  C   UNL A   1      35.370  23.696  23.961  1.00  0.00     0.188 C 
BRANCH   3   4
ATOM      4  O   UNL A   1      34.450  24.363  24.855  1.00  0.00    -0.376 OA
BRANCH   4   5
ATOM      5  C   UNL A   1      34.422  25.747  25.316  1.00  0.00     0.202 C 
BRANCH   5   6
ATOM      6  C   UNL A   1      33.467  26.531  26.277  1.00  0.00     0.261 C 
BRANCH   6   7
ATOM      7  O   UNL A   1      33.283  27.907  25.980  1.00  0.00    -0.461 OA
BRANCH   7   8
ATOM      8  C   UNL A   1      32.002  28.349  26.003  1.00  0.00     0.335 C 
ATOM      9  O   UNL A   1      31.246  28.252  26.972  1.00  0.00    -0.249 OA
BRANCH   8  10
ATOM     10  C   UNL A   1      31.883  29.366  24.886  1.00  0.00     0.169 C 
ATOM     11  C   UNL A   1      32.048  30.697  25.657  1.00  0.00     0.051 C 
BRANCH  10  12
ATOM     12  C   UNL A   1      30.420  29.412  24.314  1.00  0.00     0.269 C 
BRANCH  12  13
ATOM     13  O   UNL A   1      29.834  30.745  24.372  1.00  0.00    -0.491 OA
BRANCH  13  14
ATOM     14  C   UNL A   1      29.157  31.189  23.260  1.00  0.00     0.119 A 
ATOM     15  C   UNL A   1      28.552  32.441  23.145  1.00  0.00     0.046 A 
ATOM     16  C   UNL A   1      29.120  30.311  22.168  1.00  0.00     0.046 A 
ATOM     17  C   UNL A   1      27.999  32.842  21.919  1.00  0.00     0.004 A 
ATOM     18  C   UNL A   1      28.591  30.721  20.940  1.00  0.00     0.004 A 
ATOM     19  C   UNL A   1      28.040  31.993  20.813  1.00  0.00     0.000 A 
ENDBRANCH  13  14
ENDBRANCH  12  13
ENDBRANCH  10  12
BRANCH  10  20
ATOM     20  N   UNL A   1      32.890  29.026  23.745  1.00  0.00    -0.336 N 
ATOM     21  C   UNL A   1      33.267  28.122  22.768  1.00  0.00     0.240 C 
ATOM     22  H   UNL A   1      33.532  29.772  23.702  1.00  0.00     0.164 HD
ATOM     23  O   UNL A   1      34.319  28.505  22.209  1.00  0.00    -0.273 OA
BRANCH  21  24
ATOM     24  C   UNL A   1      32.537  26.747  22.137  1.00  0.00     0.220 C 
BRANCH  24  25
ATOM     25  N   UNL A   1      32.220  25.226  22.360  1.00  0.00    -0.323 N 
ATOM     26  C   UNL A   1      32.853  24.040  21.806  1.00  0.00     0.190 C 
ATOM     27  C   UNL A   1      31.327  24.895  23.387  1.00  0.00     0.233 C 
ATOM     28  S   UNL A   1      32.102  22.538  22.417  1.00  0.00    -0.130 SA
ATOM     29  C   UNL A   1      31.280  23.413  23.723  1.00  0.00     0.171 C 
ATOM     30  O   UNL A   1      30.689  25.723  24.026  1.00  0.00    -0.274 OA
ENDBRANCH  24  25
ENDBRANCH  21  24
ENDBRANCH  10  20
ENDBRANCH   8  10
ENDBRANCH   7   8
ENDBRANCH   6   7
ENDBRANCH   5   6
ENDBRANCH   4   5
ENDBRANCH   3   4
ENDBRANCH   2   3
ENDBRANCH   1   2
BRANCH   1  31
ATOM     31  C   UNL A   1      37.881  21.425  25.690  1.00  0.00     0.188 C 
BRANCH  31  32
ATOM     32  C   UNL A   1      39.205  22.034  26.175  1.00  0.00     0.188 C 
BRANCH  32  33
ATOM     33  O   UNL A   1      39.187  23.436  26.368  1.00  0.00    -0.376 OA
BRANCH  33  34
ATOM     34  C   UNL A   1      40.379  23.974  26.937  1.00  0.00     0.202 C 
BRANCH  34  35
ATOM     35  C   UNL A   1      40.334  25.463  27.319  1.00  0.00     0.261 C 
BRANCH  35  36
ATOM     36  O   UNL A   1      40.620  25.708  28.717  1.00  0.00    -0.460 OA
BRANCH  36  37
ATOM     37  C   UNL A   1      39.891  26.678  29.313  1.00  0.00     0.338 C 
ATOM     38  O   UNL A   1      38.760  26.536  29.811  1.00  0.00    -0.246 OA
BRANCH  37  39
ATOM     39  C   UNL A   1      40.639  27.940  29.449  1.00  0.00     0.060 A 
ATOM     40  C   UNL A   1      41.911  27.909  30.043  1.00  0.00     0.016 A 
ATOM     41  C   UNL A   1      40.056  29.167  29.119  1.00  0.00     0.016 A 
ATOM     42  C   UNL A   1      42.569  29.098  30.373  1.00  0.00     0.010 A 
ATOM     43  C   UNL A   1      40.710  30.357  29.463  1.00  0.00     0.010 A 
ATOM     44  C   UNL A   1      41.945  30.330  30.135  1.00  0.00    -0.014 A 
BRANCH  44  45
ATOM     45  C   UNL A   1      42.456  31.567  30.783  1.00  0.00     0.031 A 
ATOM     46  C   UNL A   1      41.826  32.006  32.081  1.00  0.00     0.074 A 
ATOM     47  C   UNL A   1      43.445  32.301  30.241  1.00  0.00     0.049 A 
ATOM     48  N   UNL A   1      42.030  33.093  32.780  1.00  0.00    -0.248 NA
ATOM     49  C   UNL A   1      40.829  31.093  32.666  1.00  0.00     0.031 C 
ATOM     50  C   UNL A   1      44.181  31.967  29.024  1.00  0.00     0.029 A 
ATOM     51  N   UNL A   1      43.988  33.497  30.648  1.00  0.00    -0.354 N 
ATOM     52  C   UNL A   1      41.183  33.001  33.878  1.00  0.00     0.074 A 
ATOM     53  C   UNL A   1      40.450  31.760  33.746  1.00  0.00     0.031 C 
ATOM     54  C   UNL A   1      45.068  32.947  28.771  1.00  0.00     0.029 A 
ATOM     55  C   UNL A   1      44.938  33.992  29.786  1.00  0.00     0.049 A 
ATOM     56  H   UNL A   1      43.723  33.954  31.478  1.00  0.00     0.167 HD
ATOM     57  C   UNL A   1      41.023  33.868  34.906  1.00  0.00     0.031 A 
ATOM     58  C   UNL A   1      45.601  35.166  29.798  1.00  0.00     0.031 A 
ATOM     59  C   UNL A   1      41.729  35.114  35.033  1.00  0.00     0.049 A 
ATOM     60  C   UNL A   1      45.339  36.161  30.899  1.00  0.00     0.074 A 
ATOM     61  C   UNL A   1      41.638  36.057  36.042  1.00  0.00     0.029 A 
ATOM     62  N   UNL A   1      42.649  35.596  34.115  1.00  0.00    -0.354 N 
ATOM     63  N   UNL A   1      44.542  36.056  31.938  1.00  0.00    -0.248 NA
ATOM     64  C   UNL A   1      46.064  37.439  30.828  1.00  0.00     0.031 C 
ATOM     65  C   UNL A   1      42.466  37.134  35.709  1.00  0.00     0.029 A 
ATOM     66  C   UNL A   1      43.110  36.838  34.518  1.00  0.00     0.049 A 
ATOM     67  H   UNL A   1      42.932  35.126  33.298  1.00  0.00     0.167 HD
ATOM     68  C   UNL A   1      44.684  37.244  32.648  1.00  0.00     0.074 A 
ATOM     69  C   UNL A   1      45.651  38.049  31.932  1.00  0.00     0.031 C 
ATOM     70  C   UNL A   1      44.067  37.633  33.792  1.00  0.00     0.031 A 
BRANCH  57  71
ATOM     71  C   UNL A   1      40.006  33.511  35.955  1.00  0.00    -0.014 A 
ATOM     72  C   UNL A   1      40.394  32.923  37.172  1.00  0.00     0.010 A 
ATOM     73  C   UNL A   1      38.645  33.782  35.726  1.00  0.00     0.010 A 
ATOM     74  C   UNL A   1      39.434  32.576  38.126  1.00  0.00     0.020 A 
ATOM     75  C   UNL A   1      37.684  33.456  36.686  1.00  0.00     0.020 A 
ATOM     76  C   UNL A   1      38.083  32.839  37.873  1.00  0.00     0.054 A 
BRANCH  76  77
ATOM     77  S   UNL A   1      36.855  32.385  39.129  1.00  0.00     0.124 S 
ATOM     78  O   UNL A   1      37.286  33.183  40.274  1.00  0.00    -0.237 OA
ATOM     79  O   UNL A   1      35.597  32.799  38.514  1.00  0.00    -0.237 OA
ATOM     80  O   UNL A   1      37.028  30.942  39.276  1.00  0.00    -0.744 OA
ENDBRANCH  76  77
ENDBRANCH  57  71
BRANCH  58  81
ATOM     81  C   UNL A   1      46.556  35.492  28.703  1.00  0.00    -0.014 A 
ATOM     82  C   UNL A   1      47.924  35.198  28.832  1.00  0.00     0.010 A 
ATOM     83  C   UNL A   1      46.098  36.110  27.525  1.00  0.00     0.010 A 
ATOM     84  C   UNL A   1      48.819  35.525  27.807  1.00  0.00     0.020 A 
ATOM     85  C   UNL A   1      46.985  36.418  26.489  1.00  0.00     0.020 A 
ATOM     86  C   UNL A   1      48.343  36.131  26.641  1.00  0.00     0.054 A 
BRANCH  86  87
ATOM     87  S   UNL A   1      49.509  36.494  25.298  1.00  0.00     0.124 S 
ATOM     88  O   UNL A   1      48.836  37.580  24.596  1.00  0.00    -0.237 OA
ATOM     89  O   UNL A   1      50.723  36.864  26.022  1.00  0.00    -0.237 OA
ATOM     90  O   UNL A   1      49.591  35.230  24.568  1.00  0.00    -0.744 OA
ENDBRANCH  86  87
ENDBRANCH  58  81
BRANCH  70  91
ATOM     91  C   UNL A   1      44.427  38.983  34.355  1.00  0.00    -0.014 A 
ATOM     92  C   UNL A   1      45.516  39.136  35.229  1.00  0.00     0.010 A 
ATOM     93  C   UNL A   1      43.703  40.120  33.954  1.00  0.00     0.010 A 
ATOM     94  C   UNL A   1      45.862  40.402  35.712  1.00  0.00     0.020 A 
ATOM     95  C   UNL A   1      44.060  41.391  34.416  1.00  0.00     0.020 A 
ATOM     96  C   UNL A   1      45.130  41.522  35.303  1.00  0.00     0.054 A 
BRANCH  96  97
ATOM     97  S   UNL A   1      45.627  43.161  35.903  1.00  0.00     0.124 S 
ATOM     98  O   UNL A   1      45.020  43.195  37.230  1.00  0.00    -0.237 OA
ATOM     99  O   UNL A   1      47.086  43.085  35.881  1.00  0.00    -0.237 OA
ATOM    100  O   UNL A   1      45.044  44.078  34.926  1.00  0.00    -0.744 OA
ENDBRANCH  96  97
ENDBRANCH  70  91
ENDBRANCH  44  45
ENDBRANCH  37  39
ENDBRANCH  36  37
ENDBRANCH  35  36
ENDBRANCH  34  35
ENDBRANCH  33  34
ENDBRANCH  32  33
ENDBRANCH  31  32
ENDBRANCH   1  31
TORSDOF 29
ENDMDL
MODEL 3
REMARK VINA RESULT:      -7.4      5.914      7.811
REMARK SMILES C[C@@](COc1ccccc1)(NC(=O)CN1CSCC1=O)C(=O)OCCOCCOCCOCCOC(=O)c1ccc(-c2c3nc(c(-c4ccc(S(=O)(=O)[O-])cc4)c4ccc([nH]4)c(-c4ccc(S(=O)(=O)[O-])cc4)c4nc(c(-c5ccc(S(=O)(=O)[O-])cc5)c5ccc2[nH]5)C=C4)C=C3)cc1
REMARK SMILES IDX 29 1 28 2 27 3 26 4 25 5 24 6 23 7 21 8 22 9 2 10 1 11 3 12
REMARK SMILES IDX 4 13 5 14 6 15 10 16 7 17 9 18 8 19 11 20 12 21 13 23 14 24
REMARK SMILES IDX 15 25 16 26 19 27 17 28 18 29 20 30 30 31 31 32 32 33 33 34
REMARK SMILES IDX 34 35 35 36 36 37 37 38 38 39 39 40 97 41 40 42 96 43 41 44
REMARK SMILES IDX 42 45 43 46 90 47 44 48 95 49 89 50 91 51 45 52 94 53 88 54
REMARK SMILES IDX 87 55 46 57 76 58 57 59 75 60 58 61 61 62 74 63 92 64 59 65
REMARK SMILES IDX 60 66 73 68 93 69 62 70 47 71 48 72 56 73 49 74 55 75 50 76
REMARK SMILES IDX 51 77 52 78 53 79 54 80 77 81 78 82 86 83 79 84 85 85 80 86
REMARK SMILES IDX 81 87 82 88 83 89 84 90 63 91 64 92 72 93 65 94 71 95 66 96
REMARK SMILES IDX 67 97 68 98 69 99 70 100
REMARK H PARENT 11 22 91 56 61 67
REMARK Flexibility Score: inf
ROOT
ATOM      1  O   UNL A   1      37.400  22.439  24.852  1.00  0.00    -0.377 OA
ENDROOT
BRANCH   1   2
ATOM      2  C   UNL A   1      36.953  22.956  23.604  1.00  0.00     0.188 C 
BRANCH   2   3
ATOM      3  C   UNL A   1      35.352  22.843  23.590  1.00  0.00     0.188 C 
BRANCH   3   4
ATOM      4  O   UNL A   1      34.395  23.486  22.717  1.00  0.00    -0.376 OA
BRANCH   4   5
ATOM      5  C   UNL A   1      33.423  24.537  22.997  1.00  0.00     0.202 C 
BRANCH   5   6
ATOM      6  C   UNL A   1      32.336  25.244  22.120  1.00  0.00     0.261 C 
BRANCH   6   7
ATOM      7  O   UNL A   1      31.865  26.492  22.607  1.00  0.00    -0.461 OA
BRANCH   7   8
ATOM      8  C   UNL A   1      32.815  27.347  23.058  1.00  0.00     0.335 C 
ATOM      9  O   UNL A   1      33.683  27.864  22.350  1.00  0.00    -0.249 OA
BRANCH   8  10
ATOM     10  C   UNL A   1      32.305  27.895  24.375  1.00  0.00     0.169 C 
ATOM     11  C   UNL A   1      32.023  29.372  24.010  1.00  0.00     0.051 C 
BRANCH  10  12
ATOM     12  C   UNL A   1      33.453  27.958  25.446  1.00  0.00     0.269 C 
BRANCH  12  13
ATOM     13  O   UNL A   1      33.077  28.718  26.631  1.00  0.00    -0.491 OA
BRANCH  13  14
ATOM     14  C   UNL A   1      33.953  29.685  27.068  1.00  0.00     0.119 A 
ATOM     15  C   UNL A   1      33.583  30.969  27.470  1.00  0.00     0.046 A 
ATOM     16  C   UNL A   1      35.301  29.312  27.136  1.00  0.00     0.046 A 
ATOM     17  C   UNL A   1      34.541  31.834  28.021  1.00  0.00     0.004 A 
ATOM     18  C   UNL A   1      36.250  30.165  27.708  1.00  0.00     0.004 A 
ATOM     19  C   UNL A   1      35.867  31.424  28.161  1.00  0.00     0.000 A 
ENDBRANCH  13  14
ENDBRANCH  12  13
ENDBRANCH  10  12
BRANCH  10  20
ATOM     20  N   UNL A   1      31.133  27.012  24.902  1.00  0.00    -0.336 N 
ATOM     21  C   UNL A   1      30.767  25.872  25.597  1.00  0.00     0.240 C 
ATOM     22  H   UNL A   1      30.298  27.452  24.620  1.00  0.00     0.164 HD
ATOM     23  O   UNL A   1      29.523  25.738  25.579  1.00  0.00    -0.273 OA
BRANCH  21  24
ATOM     24  C   UNL A   1      31.630  24.769  26.524  1.00  0.00     0.220 C 
BRANCH  24  25
ATOM     25  N   UNL A   1      32.559  23.505  26.507  1.00  0.00    -0.323 N 
ATOM     26  C   UNL A   1      33.676  23.143  27.366  1.00  0.00     0.190 C 
ATOM     27  C   UNL A   1      32.184  22.436  25.683  1.00  0.00     0.233 C 
ATOM     28  S   UNL A   1      34.379  21.564  26.914  1.00  0.00    -0.130 SA
ATOM     29  C   UNL A   1      32.967  21.155  25.921  1.00  0.00     0.171 C 
ATOM     30  O   UNL A   1      31.253  22.486  24.887  1.00  0.00    -0.274 OA
ENDBRANCH  24  25
ENDBRANCH  21  24
ENDBRANCH  10  20
ENDBRANCH   8  10
ENDBRANCH   7   8
ENDBRANCH   6   7
ENDBRANCH   5   6
ENDBRANCH   4   5
ENDBRANCH   3   4
ENDBRANCH   2   3
ENDBRANCH   1   2
BRANCH   1  31
ATOM     31  C   UNL A   1      37.845  21.140  25.255  1.00  0.00     0.188 C 
BRANCH  31  32
ATOM     32  C   UNL A   1      39.239  20.802  25.805  1.00  0.00     0.188 C 
BRANCH  32  33
ATOM     33  O   UNL A   1      40.117  21.903  25.940  1.00  0.00    -0.376 OA
BRANCH  33  34
ATOM     34  C   UNL A   1      41.431  21.567  26.381  1.00  0.00     0.202 C 
BRANCH  34  35
ATOM     35  C   UNL A   1      42.587  22.317  25.697  1.00  0.00     0.261 C 
BRANCH  35  36
ATOM     36  O   UNL A   1      42.409  23.754  25.678  1.00  0.00    -0.460 OA
BRANCH  36  37
ATOM     37  C   UNL A   1      43.535  24.495  25.776  1.00  0.00     0.338 C 
ATOM     38  O   UNL A   1      44.211  24.920  24.822  1.00  0.00    -0.246 OA
BRANCH  37  39
ATOM     39  C   UNL A   1      43.832  24.886  27.165  1.00  0.00     0.060 A 
ATOM     40  C   UNL A   1      42.782  24.907  28.098  1.00  0.00     0.016 A 
ATOM     41  C   UNL A   1      45.097  25.356  27.531  1.00  0.00     0.016 A 
ATOM     42  C   UNL A   1      42.974  25.459  29.368  1.00  0.00     0.010 A 
ATOM     43  C   UNL A   1      45.283  25.922  28.799  1.00  0.00     0.010 A 
ATOM     44  C   UNL A   1      44.212  26.022  29.706  1.00  0.00    -0.014 A 
BRANCH  44  45
ATOM     45  C   UNL A   1      44.334  26.910  30.891  1.00  0.00     0.031 A 
ATOM     46  C   UNL A   1      44.256  28.401  30.678  1.00  0.00     0.074 A 
ATOM     47  C   UNL A   1      44.522  26.424  32.132  1.00  0.00     0.049 A 
ATOM     48  N   UNL A   1      44.432  29.375  31.534  1.00  0.00    -0.248 NA
ATOM     49  C   UNL A   1      43.938  28.850  29.312  1.00  0.00     0.031 C 
ATOM     50  C   UNL A   1      44.562  25.009  32.493  1.00  0.00     0.029 A 
ATOM     51  N   UNL A   1      44.733  27.083  33.320  1.00  0.00    -0.354 N 
ATOM     52  C   UNL A   1      44.257  30.550  30.810  1.00  0.00     0.074 A 
ATOM     53  C   UNL A   1      43.977  30.168  29.443  1.00  0.00     0.031 C 
ATOM     54  C   UNL A   1      44.803  24.904  33.813  1.00  0.00     0.029 A 
ATOM     55  C   UNL A   1      44.970  26.241  34.382  1.00  0.00     0.049 A 
ATOM     56  H   UNL A   1      44.714  28.063  33.404  1.00  0.00     0.167 HD
ATOM     57  C   UNL A   1      44.323  31.833  31.239  1.00  0.00     0.031 A 
ATOM     58  C   UNL A   1      45.313  26.518  35.656  1.00  0.00     0.031 A 
ATOM     59  C   UNL A   1      44.624  32.221  32.590  1.00  0.00     0.049 A 
ATOM     60  C   UNL A   1      45.477  27.952  36.092  1.00  0.00     0.074 A 
ATOM     61  C   UNL A   1      44.709  33.496  33.121  1.00  0.00     0.029 A 
ATOM     62  N   UNL A   1      44.901  31.338  33.621  1.00  0.00    -0.354 N 
ATOM     63  N   UNL A   1      45.298  29.052  35.399  1.00  0.00    -0.248 NA
ATOM     64  C   UNL A   1      45.895  28.181  37.483  1.00  0.00     0.031 C 
ATOM     65  C   UNL A   1      45.087  33.385  34.464  1.00  0.00     0.029 A 
ATOM     66  C   UNL A   1      45.188  32.040  34.780  1.00  0.00     0.049 A 
ATOM     67  H   UNL A   1      44.895  30.357  33.543  1.00  0.00     0.167 HD
ATOM     68  C   UNL A   1      45.565  30.100  36.274  1.00  0.00     0.074 A 
ATOM     69  C   UNL A   1      45.905  29.506  37.550  1.00  0.00     0.031 C 
ATOM     70  C   UNL A   1      45.532  31.437  36.042  1.00  0.00     0.031 A 
BRANCH  57  71
ATOM     71  C   UNL A   1      44.108  32.913  30.215  1.00  0.00    -0.014 A 
ATOM     72  C   UNL A   1      45.177  33.411  29.449  1.00  0.00     0.010 A 
ATOM     73  C   UNL A   1      42.815  33.424  30.005  1.00  0.00     0.010 A 
ATOM     74  C   UNL A   1      44.963  34.432  28.518  1.00  0.00     0.020 A 
ATOM     75  C   UNL A   1      42.593  34.430  29.060  1.00  0.00     0.020 A 
ATOM     76  C   UNL A   1      43.672  34.939  28.335  1.00  0.00     0.054 A 
BRANCH  76  77
ATOM     77  S   UNL A   1      43.418  36.259  27.117  1.00  0.00     0.124 S 
ATOM     78  O   UNL A   1      44.790  36.616  26.768  1.00  0.00    -0.237 OA
ATOM     79  O   UNL A   1      42.658  35.586  26.067  1.00  0.00    -0.237 OA
ATOM     80  O   UNL A   1      42.679  37.278  27.860  1.00  0.00    -0.744 OA
ENDBRANCH  76  77
ENDBRANCH  57  71
BRANCH  58  81
ATOM     81  C   UNL A   1      45.570  25.408  36.615  1.00  0.00    -0.014 A 
ATOM     82  C   UNL A   1      44.566  24.974  37.498  1.00  0.00     0.010 A 
ATOM     83  C   UNL A   1      46.831  24.784  36.654  1.00  0.00     0.010 A 
ATOM     84  C   UNL A   1      44.821  23.944  38.410  1.00  0.00     0.020 A 
ATOM     85  C   UNL A   1      47.082  23.738  37.548  1.00  0.00     0.020 A 
ATOM     86  C   UNL A   1      46.077  23.331  38.427  1.00  0.00     0.054 A 
BRANCH  86  87
ATOM     87  S   UNL A   1      46.370  21.956  39.576  1.00  0.00     0.124 S 
ATOM     88  O   UNL A   1      45.461  22.276  40.670  1.00  0.00    -0.237 OA
ATOM     89  O   UNL A   1      46.009  20.790  38.773  1.00  0.00    -0.237 OA
ATOM     90  O   UNL A   1      47.793  22.070  39.887  1.00  0.00    -0.744 OA
ENDBRANCH  86  87
ENDBRANCH  58  81
BRANCH  70  91
ATOM     91  C   UNL A   1      45.856  32.354  37.191  1.00  0.00    -0.014 A 
ATOM     92  C   UNL A   1      47.150  32.875  37.360  1.00  0.00     0.010 A 
ATOM     93  C   UNL A   1      44.836  32.749  38.076  1.00  0.00     0.010 A 
ATOM     94  C   UNL A   1      47.426  33.757  38.410  1.00  0.00     0.020 A 
ATOM     95  C   UNL A   1      45.102  33.648  39.113  1.00  0.00     0.020 A 
ATOM     96  C   UNL A   1      46.399  34.137  39.281  1.00  0.00     0.054 A 
BRANCH  96  97
ATOM     97  S   UNL A   1      46.767  35.322  40.605  1.00  0.00     0.124 S 
ATOM     98  O   UNL A   1      45.800  36.383  40.340  1.00  0.00    -0.237 OA
ATOM     99  O   UNL A   1      46.524  34.539  41.816  1.00  0.00    -0.237 OA
ATOM    100  O   UNL A   1      48.165  35.678  40.373  1.00  0.00    -0.744 OA
ENDBRANCH  96  97
ENDBRANCH  70  91
ENDBRANCH  44  45
ENDBRANCH  37  39
ENDBRANCH  36  37
ENDBRANCH  35  36
ENDBRANCH  34  35
ENDBRANCH  33  34
ENDBRANCH  32  33
ENDBRANCH  31  32
ENDBRANCH   1  31
TORSDOF 29
ENDMDL
