MODEL 1
REMARK VINA RESULT:      -7.5      0.000      0.000
REMARK SMILES O=C(OCCOCCOCCOCCOC(=O)c1ccc(-c2ccc(Cl)c3ccccc23)o1)c1ccc(-c2c3nc(c(-c4ccc(S(=O)(=O)[O-])cc4)c4ccc([nH]4)c(-c4ccc(S(=O)(=O)[O-])cc4)c4nc(c(-c5ccc(S(=O)(=O)[O-])cc5)c5ccc2[nH]5)C=C4)C=C3)cc1
REMARK SMILES IDX 8 1 7 2 6 3 5 4 4 5 3 6 2 7 1 8 34 9 35 10 93 11 36 12 92 13
REMARK SMILES IDX 37 14 38 15 39 16 86 17 40 18 91 19 85 20 87 21 41 22 90 23
REMARK SMILES IDX 84 24 83 25 42 27 72 28 53 29 71 30 54 31 57 32 70 33 88 34
REMARK SMILES IDX 55 35 56 36 69 38 89 39 58 40 43 41 44 42 52 43 45 44 51 45
REMARK SMILES IDX 46 46 47 47 48 48 49 49 50 50 73 51 74 52 82 53 75 54 81 55
REMARK SMILES IDX 76 56 77 57 78 58 79 59 80 60 59 61 60 62 68 63 61 64 67 65
REMARK SMILES IDX 62 66 63 67 64 68 65 69 66 70 9 71 10 72 11 73 12 74 13 75
REMARK SMILES IDX 14 76 15 77 16 78 17 79 18 80 19 81 33 82 20 83 21 84 22 85
REMARK SMILES IDX 23 86 32 87 24 88 27 89 31 90 25 91 28 92 30 93 26 94 29 95
REMARK H PARENT 87 26 57 37
REMARK Flexibility Score: inf
ROOT
ATOM      1  C   UNL A   1      34.023  33.400  33.300  1.00  0.00     0.188 C 
ENDROOT
BRANCH   1   2
ATOM      2  C   UNL A   1      34.085  34.724  32.536  1.00  0.00     0.188 C 
BRANCH   2   3
ATOM      3  O   UNL A   1      33.757  34.495  31.161  1.00  0.00    -0.376 OA
BRANCH   3   4
ATOM      4  C   UNL A   1      34.424  33.393  30.549  1.00  0.00     0.202 C 
BRANCH   4   5
ATOM      5  C   UNL A   1      34.938  33.698  29.143  1.00  0.00     0.261 C 
BRANCH   5   6
ATOM      6  O   UNL A   1      34.487  32.706  28.211  1.00  0.00    -0.460 OA
BRANCH   6   7
ATOM      7  C   UNL A   1      34.598  31.359  28.325  1.00  0.00     0.338 C 
ATOM      8  O   UNL A   1      33.589  30.674  28.153  1.00  0.00    -0.246 OA
BRANCH   7   9
ATOM      9  C   UNL A   1      35.889  30.648  28.585  1.00  0.00     0.060 A 
ATOM     10  C   UNL A   1      36.343  30.196  29.829  1.00  0.00     0.016 A 
ATOM     11  C   UNL A   1      36.682  30.379  27.458  1.00  0.00     0.016 A 
ATOM     12  C   UNL A   1      37.599  29.610  29.975  1.00  0.00     0.010 A 
ATOM     13  C   UNL A   1      37.926  29.761  27.588  1.00  0.00     0.010 A 
ATOM     14  C   UNL A   1      38.408  29.424  28.858  1.00  0.00    -0.014 A 
BRANCH  14  15
ATOM     15  C   UNL A   1      39.824  29.060  29.038  1.00  0.00     0.031 A 
ATOM     16  C   UNL A   1      40.747  30.110  29.579  1.00  0.00     0.074 A 
ATOM     17  C   UNL A   1      40.260  27.819  28.764  1.00  0.00     0.049 A 
ATOM     18  N   UNL A   1      42.048  30.104  29.673  1.00  0.00    -0.248 NA
ATOM     19  C   UNL A   1      40.108  31.340  30.080  1.00  0.00     0.031 C 
ATOM     20  C   UNL A   1      39.415  26.699  28.346  1.00  0.00     0.029 A 
ATOM     21  N   UNL A   1      41.525  27.297  28.795  1.00  0.00    -0.354 N 
ATOM     22  C   UNL A   1      42.387  31.345  30.198  1.00  0.00     0.074 A 
ATOM     23  C   UNL A   1      41.158  32.074  30.414  1.00  0.00     0.031 C 
ATOM     24  C   UNL A   1      40.191  25.620  28.150  1.00  0.00     0.029 A 
ATOM     25  C   UNL A   1      41.587  25.992  28.366  1.00  0.00     0.049 A 
ATOM     26  H   UNL A   1      42.313  27.805  29.095  1.00  0.00     0.167 HD
ATOM     27  C   UNL A   1      43.622  31.838  30.451  1.00  0.00     0.031 A 
ATOM     28  C   UNL A   1      42.659  25.210  28.132  1.00  0.00     0.031 A 
ATOM     29  C   UNL A   1      44.826  31.098  30.200  1.00  0.00     0.049 A 
ATOM     30  C   UNL A   1      44.028  25.791  28.359  1.00  0.00     0.074 A 
ATOM     31  C   UNL A   1      46.139  31.503  30.339  1.00  0.00     0.029 A 
ATOM     32  N   UNL A   1      44.850  29.783  29.752  1.00  0.00    -0.354 N 
ATOM     33  N   UNL A   1      44.350  26.993  28.783  1.00  0.00    -0.248 NA
ATOM     34  C   UNL A   1      45.178  24.927  28.067  1.00  0.00     0.031 C 
ATOM     35  C   UNL A   1      46.959  30.439  29.945  1.00  0.00     0.029 A 
ATOM     36  C   UNL A   1      46.156  29.359  29.603  1.00  0.00     0.049 A 
ATOM     37  H   UNL A   1      44.054  29.234  29.569  1.00  0.00     0.167 HD
ATOM     38  C   UNL A   1      45.737  27.026  28.821  1.00  0.00     0.074 A 
ATOM     39  C   UNL A   1      46.195  25.719  28.384  1.00  0.00     0.031 C 
ATOM     40  C   UNL A   1      46.562  28.042  29.178  1.00  0.00     0.031 A 
BRANCH  27  41
ATOM     41  C   UNL A   1      43.692  33.265  30.920  1.00  0.00    -0.014 A 
ATOM     42  C   UNL A   1      43.838  34.331  30.013  1.00  0.00     0.010 A 
ATOM     43  C   UNL A   1      43.707  33.533  32.300  1.00  0.00     0.010 A 
ATOM     44  C   UNL A   1      44.074  35.627  30.480  1.00  0.00     0.020 A 
ATOM     45  C   UNL A   1      43.918  34.831  32.771  1.00  0.00     0.020 A 
ATOM     46  C   UNL A   1      44.134  35.864  31.857  1.00  0.00     0.054 A 
BRANCH  46  47
ATOM     47  S   UNL A   1      44.513  37.538  32.445  1.00  0.00     0.124 S 
ATOM     48  O   UNL A   1      45.504  37.272  33.486  1.00  0.00    -0.237 OA
ATOM     49  O   UNL A   1      45.027  38.196  31.245  1.00  0.00    -0.237 OA
ATOM     50  O   UNL A   1      43.227  38.038  32.922  1.00  0.00    -0.744 OA
ENDBRANCH  46  47
ENDBRANCH  27  41
BRANCH  28  51
ATOM     51  C   UNL A   1      42.459  23.832  27.607  1.00  0.00    -0.014 A 
ATOM     52  C   UNL A   1      42.527  23.569  26.228  1.00  0.00     0.010 A 
ATOM     53  C   UNL A   1      42.276  22.757  28.498  1.00  0.00     0.010 A 
ATOM     54  C   UNL A   1      42.430  22.255  25.752  1.00  0.00     0.020 A 
ATOM     55  C   UNL A   1      42.202  21.443  28.029  1.00  0.00     0.020 A 
ATOM     56  C   UNL A   1      42.278  21.199  26.656  1.00  0.00     0.054 A 
BRANCH  56  57
ATOM     57  S   UNL A   1      42.263  19.495  26.029  1.00  0.00     0.124 S 
ATOM     58  O   UNL A   1      43.207  19.572  24.919  1.00  0.00    -0.237 OA
ATOM     59  O   UNL A   1      42.708  18.726  27.188  1.00  0.00    -0.237 OA
ATOM     60  O   UNL A   1      40.867  19.283  25.652  1.00  0.00    -0.744 OA
ENDBRANCH  56  57
ENDBRANCH  28  51
BRANCH  40  61
ATOM     61  C   UNL A   1      48.039  27.776  29.148  1.00  0.00    -0.014 A 
ATOM     62  C   UNL A   1      48.624  26.855  30.032  1.00  0.00     0.010 A 
ATOM     63  C   UNL A   1      48.821  28.362  28.136  1.00  0.00     0.010 A 
ATOM     64  C   UNL A   1      49.972  26.519  29.901  1.00  0.00     0.020 A 
ATOM     65  C   UNL A   1      50.165  28.016  27.992  1.00  0.00     0.020 A 
ATOM     66  C   UNL A   1      50.733  27.097  28.878  1.00  0.00     0.054 A 
BRANCH  66  67
ATOM     67  S   UNL A   1      52.455  26.569  28.662  1.00  0.00     0.124 S 
ATOM     68  O   UNL A   1      52.345  25.620  27.559  1.00  0.00    -0.237 OA
ATOM     69  O   UNL A   1      53.140  27.822  28.349  1.00  0.00    -0.237 OA
ATOM     70  O   UNL A   1      52.803  25.985  29.957  1.00  0.00    -0.744 OA
ENDBRANCH  66  67
ENDBRANCH  40  61
ENDBRANCH  14  15
ENDBRANCH   7   9
ENDBRANCH   6   7
ENDBRANCH   5   6
ENDBRANCH   4   5
ENDBRANCH   3   4
ENDBRANCH   2   3
ENDBRANCH   1   2
BRANCH   1  71
ATOM     71  O   UNL A   1      35.122  33.200  34.192  1.00  0.00    -0.377 OA
BRANCH  71  72
ATOM     72  C   UNL A   1      36.084  34.249  34.240  1.00  0.00     0.188 C 
BRANCH  72  73
ATOM     73  C   UNL A   1      37.445  33.970  34.899  1.00  0.00     0.188 C 
BRANCH  73  74
ATOM     74  O   UNL A   1      37.385  33.818  36.311  1.00  0.00    -0.376 OA
BRANCH  74  75
ATOM     75  C   UNL A   1      38.451  33.069  36.887  1.00  0.00     0.202 C 
BRANCH  75  76
ATOM     76  C   UNL A   1      38.826  31.830  36.064  1.00  0.00     0.261 C 
BRANCH  76  77
ATOM     77  O   UNL A   1      40.229  31.689  35.777  1.00  0.00    -0.457 OA
BRANCH  77  78
ATOM     78  C   UNL A   1      40.683  32.092  34.559  1.00  0.00     0.374 C 
ATOM     79  O   UNL A   1      40.725  33.253  34.176  1.00  0.00    -0.242 OA
BRANCH  78  80
ATOM     80  C   UNL A   1      41.237  30.937  33.885  1.00  0.00     0.212 A 
ATOM     81  C   UNL A   1      40.644  29.783  33.398  1.00  0.00     0.059 A 
ATOM     82  O   UNL A   1      42.605  30.794  33.833  1.00  0.00    -0.449 OA
ATOM     83  C   UNL A   1      41.689  28.879  33.091  1.00  0.00     0.052 A 
ATOM     84  C   UNL A   1      42.865  29.524  33.404  1.00  0.00     0.135 A 
BRANCH  84  85
ATOM     85  C   UNL A   1      44.268  29.129  33.360  1.00  0.00     0.025 A 
ATOM     86  C   UNL A   1      45.208  30.100  33.728  1.00  0.00     0.014 A 
ATOM     87  C   UNL A   1      44.702  27.841  32.914  1.00  0.00    -0.006 A 
ATOM     88  C   UNL A   1      46.569  29.840  33.627  1.00  0.00     0.022 A 
ATOM     89  C   UNL A   1      46.097  27.572  32.821  1.00  0.00     0.001 A 
ATOM     90  C   UNL A   1      43.807  26.799  32.560  1.00  0.00     0.009 A 
ATOM     91  C   UNL A   1      47.010  28.597  33.171  1.00  0.00     0.048 A 
ATOM     92  C   UNL A   1      46.517  26.290  32.381  1.00  0.00     0.010 A 
ATOM     93  C   UNL A   1      44.250  25.542  32.142  1.00  0.00     0.001 A 
ATOM     94  Cl  UNL A   1      48.729  28.390  33.048  1.00  0.00    -0.084 Cl
ATOM     95  C   UNL A   1      45.607  25.287  32.051  1.00  0.00     0.001 A 
ENDBRANCH  84  85
ENDBRANCH  78  80
ENDBRANCH  77  78
ENDBRANCH  76  77
ENDBRANCH  75  76
ENDBRANCH  74  75
ENDBRANCH  73  74
ENDBRANCH  72  73
ENDBRANCH  71  72
ENDBRANCH   1  71
TORSDOF 24
ENDMDL
MODEL 2
REMARK VINA RESULT:      -7.2      5.294     13.212
REMARK SMILES O=C(OCCOCCOCCOCCOC(=O)c1ccc(-c2ccc(Cl)c3ccccc23)o1)c1ccc(-c2c3nc(c(-c4ccc(S(=O)(=O)[O-])cc4)c4ccc([nH]4)c(-c4ccc(S(=O)(=O)[O-])cc4)c4nc(c(-c5ccc(S(=O)(=O)[O-])cc5)c5ccc2[nH]5)C=C4)C=C3)cc1
REMARK SMILES IDX 8 1 7 2 6 3 5 4 4 5 3 6 2 7 1 8 34 9 35 10 93 11 36 12 92 13
REMARK SMILES IDX 37 14 38 15 39 16 86 17 40 18 91 19 85 20 87 21 41 22 90 23
REMARK SMILES IDX 84 24 83 25 42 27 72 28 53 29 71 30 54 31 57 32 70 33 88 34
REMARK SMILES IDX 55 35 56 36 69 38 89 39 58 40 43 41 44 42 52 43 45 44 51 45
REMARK SMILES IDX 46 46 47 47 48 48 49 49 50 50 73 51 74 52 82 53 75 54 81 55
REMARK SMILES IDX 76 56 77 57 78 58 79 59 80 60 59 61 60 62 68 63 61 64 67 65
REMARK SMILES IDX 62 66 63 67 64 68 65 69 66 70 9 71 10 72 11 73 12 74 13 75
REMARK SMILES IDX 14 76 15 77 16 78 17 79 18 80 19 81 33 82 20 83 21 84 22 85
REMARK SMILES IDX 23 86 32 87 24 88 27 89 31 90 25 91 28 92 30 93 26 94 29 95
REMARK H PARENT 87 26 57 37
REMARK Flexibility Score: inf
ROOT
ATOM      1  C   UNL A   1      36.400  20.709  24.749  1.00  0.00     0.188 C 
ENDROOT
BRANCH   1   2
ATOM      2  C   UNL A   1      37.087  21.820  25.543  1.00  0.00     0.188 C 
BRANCH   2   3
ATOM      3  O   UNL A   1      38.442  21.441  25.817  1.00  0.00    -0.376 OA
BRANCH   3   4
ATOM      4  C   UNL A   1      39.312  22.510  26.185  1.00  0.00     0.202 C 
BRANCH   4   5
ATOM      5  C   UNL A   1      40.257  22.156  27.332  1.00  0.00     0.261 C 
BRANCH   5   6
ATOM      6  O   UNL A   1      41.534  22.782  27.148  1.00  0.00    -0.460 OA
BRANCH   6   7
ATOM      7  C   UNL A   1      41.779  24.033  26.683  1.00  0.00     0.338 C 
ATOM      8  O   UNL A   1      42.175  24.157  25.524  1.00  0.00    -0.246 OA
BRANCH   7   9
ATOM      9  C   UNL A   1      41.535  25.279  27.475  1.00  0.00     0.060 A 
ATOM     10  C   UNL A   1      42.240  26.481  27.357  1.00  0.00     0.016 A 
ATOM     11  C   UNL A   1      40.464  25.231  28.383  1.00  0.00     0.016 A 
ATOM     12  C   UNL A   1      41.981  27.562  28.197  1.00  0.00     0.010 A 
ATOM     13  C   UNL A   1      40.173  26.320  29.206  1.00  0.00     0.010 A 
ATOM     14  C   UNL A   1      40.969  27.470  29.149  1.00  0.00    -0.014 A 
BRANCH  14  15
ATOM     15  C   UNL A   1      40.870  28.490  30.207  1.00  0.00     0.031 A 
ATOM     16  C   UNL A   1      41.861  28.424  31.329  1.00  0.00     0.074 A 
ATOM     17  C   UNL A   1      39.949  29.466  30.142  1.00  0.00     0.049 A 
ATOM     18  N   UNL A   1      41.889  29.087  32.452  1.00  0.00    -0.248 NA
ATOM     19  C   UNL A   1      42.974  27.474  31.158  1.00  0.00     0.031 C 
ATOM     20  C   UNL A   1      39.020  29.680  29.031  1.00  0.00     0.029 A 
ATOM     21  N   UNL A   1      39.644  30.458  31.035  1.00  0.00    -0.354 N 
ATOM     22  C   UNL A   1      42.992  28.600  33.143  1.00  0.00     0.074 A 
ATOM     23  C   UNL A   1      43.615  27.596  32.309  1.00  0.00     0.031 C 
ATOM     24  C   UNL A   1      38.241  30.736  29.316  1.00  0.00     0.029 A 
ATOM     25  C   UNL A   1      38.573  31.228  30.651  1.00  0.00     0.049 A 
ATOM     26  H   UNL A   1      40.144  30.606  31.871  1.00  0.00     0.167 HD
ATOM     27  C   UNL A   1      43.427  28.945  34.377  1.00  0.00     0.031 A 
ATOM     28  C   UNL A   1      37.912  32.187  31.327  1.00  0.00     0.031 A 
ATOM     29  C   UNL A   1      42.771  29.928  35.191  1.00  0.00     0.049 A 
ATOM     30  C   UNL A   1      38.368  32.518  32.722  1.00  0.00     0.074 A 
ATOM     31  C   UNL A   1      43.059  30.318  36.483  1.00  0.00     0.029 A 
ATOM     32  N   UNL A   1      41.678  30.678  34.772  1.00  0.00    -0.354 N 
ATOM     33  N   UNL A   1      39.366  32.002  33.404  1.00  0.00    -0.248 NA
ATOM     34  C   UNL A   1      37.611  33.546  33.447  1.00  0.00     0.031 C 
ATOM     35  C   UNL A   1      42.119  31.285  36.859  1.00  0.00     0.029 A 
ATOM     36  C   UNL A   1      41.275  31.528  35.784  1.00  0.00     0.049 A 
ATOM     37  H   UNL A   1      41.256  30.614  33.886  1.00  0.00     0.167 HD
ATOM     38  C   UNL A   1      39.364  32.648  34.633  1.00  0.00     0.074 A 
ATOM     39  C   UNL A   1      38.270  33.602  34.598  1.00  0.00     0.031 C 
ATOM     40  C   UNL A   1      40.186  32.470  35.697  1.00  0.00     0.031 A 
BRANCH  27  41
ATOM     41  C   UNL A   1      44.595  28.168  34.919  1.00  0.00    -0.014 A 
ATOM     42  C   UNL A   1      45.922  28.549  34.645  1.00  0.00     0.010 A 
ATOM     43  C   UNL A   1      44.356  26.983  35.637  1.00  0.00     0.010 A 
ATOM     44  C   UNL A   1      46.984  27.718  35.013  1.00  0.00     0.020 A 
ATOM     45  C   UNL A   1      45.417  26.162  36.028  1.00  0.00     0.020 A 
ATOM     46  C   UNL A   1      46.722  26.518  35.683  1.00  0.00     0.054 A 
BRANCH  46  47
ATOM     47  S   UNL A   1      48.106  25.417  36.088  1.00  0.00     0.124 S 
ATOM     48  O   UNL A   1      47.464  24.440  36.965  1.00  0.00    -0.237 OA
ATOM     49  O   UNL A   1      48.513  24.911  34.779  1.00  0.00    -0.237 OA
ATOM     50  O   UNL A   1      49.071  26.299  36.738  1.00  0.00    -0.744 OA
ENDBRANCH  46  47
ENDBRANCH  27  41
BRANCH  28  51
ATOM     51  C   UNL A   1      36.729  32.840  30.704  1.00  0.00    -0.014 A 
ATOM     52  C   UNL A   1      35.430  32.578  31.171  1.00  0.00     0.010 A 
ATOM     53  C   UNL A   1      36.906  33.794  29.683  1.00  0.00     0.010 A 
ATOM     54  C   UNL A   1      34.333  33.267  30.639  1.00  0.00     0.020 A 
ATOM     55  C   UNL A   1      35.817  34.501  29.166  1.00  0.00     0.020 A 
ATOM     56  C   UNL A   1      34.534  34.232  29.647  1.00  0.00     0.054 A 
BRANCH  56  57
ATOM     57  S   UNL A   1      33.113  35.191  29.047  1.00  0.00     0.124 S 
ATOM     58  O   UNL A   1      33.757  36.394  28.529  1.00  0.00    -0.237 OA
ATOM     59  O   UNL A   1      32.530  34.302  28.046  1.00  0.00    -0.237 OA
ATOM     60  O   UNL A   1      32.300  35.381  30.247  1.00  0.00    -0.744 OA
ENDBRANCH  56  57
ENDBRANCH  28  51
BRANCH  40  61
ATOM     61  C   UNL A   1      39.963  33.344  36.897  1.00  0.00    -0.014 A 
ATOM     62  C   UNL A   1      39.101  32.941  37.931  1.00  0.00     0.010 A 
ATOM     63  C   UNL A   1      40.725  34.516  37.043  1.00  0.00     0.010 A 
ATOM     64  C   UNL A   1      39.009  33.699  39.099  1.00  0.00     0.020 A 
ATOM     65  C   UNL A   1      40.647  35.267  38.217  1.00  0.00     0.020 A 
ATOM     66  C   UNL A   1      39.787  34.854  39.238  1.00  0.00     0.054 A 
BRANCH  66  67
ATOM     67  S   UNL A   1      39.730  35.767  40.804  1.00  0.00     0.124 S 
ATOM     68  O   UNL A   1      40.886  36.650  40.684  1.00  0.00    -0.237 OA
ATOM     69  O   UNL A   1      38.427  36.427  40.746  1.00  0.00    -0.237 OA
ATOM     70  O   UNL A   1      39.844  34.721  41.818  1.00  0.00    -0.744 OA
ENDBRANCH  66  67
ENDBRANCH  40  61
ENDBRANCH  14  15
ENDBRANCH   7   9
ENDBRANCH   6   7
ENDBRANCH   5   6
ENDBRANCH   4   5
ENDBRANCH   3   4
ENDBRANCH   2   3
ENDBRANCH   1   2
BRANCH   1  71
ATOM     71  O   UNL A   1      35.179  20.253  25.336  1.00  0.00    -0.377 OA
BRANCH  71  72
ATOM     72  C   UNL A   1      34.610  19.083  24.757  1.00  0.00     0.188 C 
BRANCH  72  73
ATOM     73  C   UNL A   1      33.238  19.194  24.071  1.00  0.00     0.188 C 
BRANCH  73  74
ATOM     74  O   UNL A   1      32.234  19.795  24.877  1.00  0.00    -0.376 OA
BRANCH  74  75
ATOM     75  C   UNL A   1      32.015  21.183  24.640  1.00  0.00     0.202 C 
BRANCH  75  76
ATOM     76  C   UNL A   1      32.277  21.590  23.185  1.00  0.00     0.261 C 
BRANCH  76  77
ATOM     77  O   UNL A   1      32.571  22.985  22.985  1.00  0.00    -0.457 OA
BRANCH  77  78
ATOM     78  C   UNL A   1      33.869  23.388  23.059  1.00  0.00     0.374 C 
ATOM     79  O   UNL A   1      34.799  22.867  22.458  1.00  0.00    -0.242 OA
BRANCH  78  80
ATOM     80  C   UNL A   1      33.915  24.610  23.833  1.00  0.00     0.212 A 
ATOM     81  C   UNL A   1      34.584  24.934  25.002  1.00  0.00     0.059 A 
ATOM     82  O   UNL A   1      33.033  25.621  23.525  1.00  0.00    -0.449 OA
ATOM     83  C   UNL A   1      34.050  26.163  25.457  1.00  0.00     0.052 A 
ATOM     84  C   UNL A   1      33.084  26.529  24.544  1.00  0.00     0.135 A 
BRANCH  84  85
ATOM     85  C   UNL A   1      32.154  27.649  24.462  1.00  0.00     0.025 A 
ATOM     86  C   UNL A   1      31.214  27.613  23.425  1.00  0.00     0.014 A 
ATOM     87  C   UNL A   1      32.208  28.773  25.346  1.00  0.00    -0.006 A 
ATOM     88  C   UNL A   1      30.352  28.682  23.215  1.00  0.00     0.022 A 
ATOM     89  C   UNL A   1      31.316  29.863  25.137  1.00  0.00     0.001 A 
ATOM     90  C   UNL A   1      33.109  28.861  26.438  1.00  0.00     0.009 A 
ATOM     91  C   UNL A   1      30.406  29.797  24.053  1.00  0.00     0.048 A 
ATOM     92  C   UNL A   1      31.375  30.971  26.020  1.00  0.00     0.010 A 
ATOM     93  C   UNL A   1      33.134  29.960  27.300  1.00  0.00     0.001 A 
ATOM     94  Cl  UNL A   1      29.310  31.090  23.681  1.00  0.00    -0.084 Cl
ATOM     95  C   UNL A   1      32.267  31.018  27.090  1.00  0.00     0.001 A 
ENDBRANCH  84  85
ENDBRANCH  78  80
ENDBRANCH  77  78
ENDBRANCH  76  77
ENDBRANCH  75  76
ENDBRANCH  74  75
ENDBRANCH  73  74
ENDBRANCH  72  73
ENDBRANCH  71  72
ENDBRANCH   1  71
TORSDOF 24
ENDMDL
MODEL 3
REMARK VINA RESULT:      -7.0      1.367      2.360
REMARK SMILES O=C(OCCOCCOCCOCCOC(=O)c1ccc(-c2ccc(Cl)c3ccccc23)o1)c1ccc(-c2c3nc(c(-c4ccc(S(=O)(=O)[O-])cc4)c4ccc([nH]4)c(-c4ccc(S(=O)(=O)[O-])cc4)c4nc(c(-c5ccc(S(=O)(=O)[O-])cc5)c5ccc2[nH]5)C=C4)C=C3)cc1
REMARK SMILES IDX 8 1 7 2 6 3 5 4 4 5 3 6 2 7 1 8 34 9 35 10 93 11 36 12 92 13
REMARK SMILES IDX 37 14 38 15 39 16 86 17 40 18 91 19 85 20 87 21 41 22 90 23
REMARK SMILES IDX 84 24 83 25 42 27 72 28 53 29 71 30 54 31 57 32 70 33 88 34
REMARK SMILES IDX 55 35 56 36 69 38 89 39 58 40 43 41 44 42 52 43 45 44 51 45
REMARK SMILES IDX 46 46 47 47 48 48 49 49 50 50 73 51 74 52 82 53 75 54 81 55
REMARK SMILES IDX 76 56 77 57 78 58 79 59 80 60 59 61 60 62 68 63 61 64 67 65
REMARK SMILES IDX 62 66 63 67 64 68 65 69 66 70 9 71 10 72 11 73 12 74 13 75
REMARK SMILES IDX 14 76 15 77 16 78 17 79 18 80 19 81 33 82 20 83 21 84 22 85
REMARK SMILES IDX 23 86 32 87 24 88 27 89 31 90 25 91 28 92 30 93 26 94 29 95
REMARK H PARENT 87 26 57 37
REMARK Flexibility Score: inf
ROOT
ATOM      1  C   UNL A   1      34.063  33.575  33.034  1.00  0.00     0.188 C 
ENDROOT
BRANCH   1   2
ATOM      2  C   UNL A   1      34.462  34.931  32.451  1.00  0.00     0.188 C 
BRANCH   2   3
ATOM      3  O   UNL A   1      34.165  34.953  31.050  1.00  0.00    -0.376 OA
BRANCH   3   4
ATOM      4  C   UNL A   1      34.513  33.770  30.334  1.00  0.00     0.202 C 
BRANCH   4   5
ATOM      5  C   UNL A   1      35.336  34.042  29.075  1.00  0.00     0.261 C 
BRANCH   5   6
ATOM      6  O   UNL A   1      35.160  32.989  28.117  1.00  0.00    -0.460 OA
BRANCH   6   7
ATOM      7  C   UNL A   1      35.266  31.654  28.332  1.00  0.00     0.338 C 
ATOM      8  O   UNL A   1      34.249  30.967  28.244  1.00  0.00    -0.246 OA
BRANCH   7   9
ATOM      9  C   UNL A   1      36.560  30.955  28.610  1.00  0.00     0.060 A 
ATOM     10  C   UNL A   1      37.143  30.770  29.868  1.00  0.00     0.016 A 
ATOM     11  C   UNL A   1      37.211  30.400  27.496  1.00  0.00     0.016 A 
ATOM     12  C   UNL A   1      38.392  30.169  30.010  1.00  0.00     0.010 A 
ATOM     13  C   UNL A   1      38.446  29.764  27.631  1.00  0.00     0.010 A 
ATOM     14  C   UNL A   1      39.062  29.696  28.885  1.00  0.00    -0.014 A 
BRANCH  14  15
ATOM     15  C   UNL A   1      40.480  29.310  28.992  1.00  0.00     0.031 A 
ATOM     16  C   UNL A   1      41.456  30.366  29.412  1.00  0.00     0.074 A 
ATOM     17  C   UNL A   1      40.872  28.046  28.761  1.00  0.00     0.049 A 
ATOM     18  N   UNL A   1      42.761  30.335  29.421  1.00  0.00    -0.248 NA
ATOM     19  C   UNL A   1      40.877  31.636  29.884  1.00  0.00     0.031 C 
ATOM     20  C   UNL A   1      39.979  26.925  28.463  1.00  0.00     0.029 A 
ATOM     21  N   UNL A   1      42.126  27.497  28.738  1.00  0.00    -0.354 N 
ATOM     22  C   UNL A   1      43.158  31.595  29.852  1.00  0.00     0.074 A 
ATOM     23  C   UNL A   1      41.961  32.363  30.107  1.00  0.00     0.031 C 
ATOM     24  C   UNL A   1      40.719  25.819  28.277  1.00  0.00     0.029 A 
ATOM     25  C   UNL A   1      42.134  26.170  28.381  1.00  0.00     0.049 A 
ATOM     26  H   UNL A   1      42.942  28.002  28.957  1.00  0.00     0.167 HD
ATOM     27  C   UNL A   1      44.416  32.073  29.995  1.00  0.00     0.031 A 
ATOM     28  C   UNL A   1      43.172  25.352  28.121  1.00  0.00     0.031 A 
ATOM     29  C   UNL A   1      45.586  31.293  29.709  1.00  0.00     0.049 A 
ATOM     30  C   UNL A   1      44.564  25.913  28.225  1.00  0.00     0.074 A 
ATOM     31  C   UNL A   1      46.913  31.674  29.738  1.00  0.00     0.029 A 
ATOM     32  N   UNL A   1      45.555  29.954  29.335  1.00  0.00    -0.354 N 
ATOM     33  N   UNL A   1      44.937  27.128  28.559  1.00  0.00    -0.248 NA
ATOM     34  C   UNL A   1      45.676  25.007  27.907  1.00  0.00     0.031 C 
ATOM     35  C   UNL A   1      47.684  30.571  29.351  1.00  0.00     0.029 A 
ATOM     36  C   UNL A   1      46.839  29.493  29.125  1.00  0.00     0.049 A 
ATOM     37  H   UNL A   1      44.738  29.415  29.235  1.00  0.00     0.167 HD
ATOM     38  C   UNL A   1      46.324  27.131  28.503  1.00  0.00     0.074 A 
ATOM     39  C   UNL A   1      46.727  25.792  28.112  1.00  0.00     0.031 C 
ATOM     40  C   UNL A   1      47.191  28.146  28.748  1.00  0.00     0.031 A 
BRANCH  27  41
ATOM     41  C   UNL A   1      44.545  33.521  30.378  1.00  0.00    -0.014 A 
ATOM     42  C   UNL A   1      44.592  33.923  31.726  1.00  0.00     0.010 A 
ATOM     43  C   UNL A   1      44.524  34.502  29.371  1.00  0.00     0.010 A 
ATOM     44  C   UNL A   1      44.538  35.280  32.059  1.00  0.00     0.020 A 
ATOM     45  C   UNL A   1      44.495  35.859  29.699  1.00  0.00     0.020 A 
ATOM     46  C   UNL A   1      44.468  36.238  31.043  1.00  0.00     0.054 A 
BRANCH  46  47
ATOM     47  S   UNL A   1      44.325  37.990  31.494  1.00  0.00     0.124 S 
ATOM     48  O   UNL A   1      43.634  37.911  32.780  1.00  0.00    -0.237 OA
ATOM     49  O   UNL A   1      45.719  38.424  31.557  1.00  0.00    -0.237 OA
ATOM     50  O   UNL A   1      43.546  38.566  30.402  1.00  0.00    -0.744 OA
ENDBRANCH  46  47
ENDBRANCH  27  41
BRANCH  28  51
ATOM     51  C   UNL A   1      42.911  23.952  27.689  1.00  0.00    -0.014 A 
ATOM     52  C   UNL A   1      42.859  22.906  28.625  1.00  0.00     0.010 A 
ATOM     53  C   UNL A   1      42.635  23.671  26.337  1.00  0.00     0.010 A 
ATOM     54  C   UNL A   1      42.522  21.608  28.220  1.00  0.00     0.020 A 
ATOM     55  C   UNL A   1      42.275  22.382  25.932  1.00  0.00     0.020 A 
ATOM     56  C   UNL A   1      42.222  21.356  26.878  1.00  0.00     0.054 A 
BRANCH  56  57
ATOM     57  S   UNL A   1      41.681  19.692  26.391  1.00  0.00     0.124 S 
ATOM     58  O   UNL A   1      40.257  19.895  26.146  1.00  0.00    -0.237 OA
ATOM     59  O   UNL A   1      42.497  19.426  25.209  1.00  0.00    -0.237 OA
ATOM     60  O   UNL A   1      42.006  18.874  27.557  1.00  0.00    -0.744 OA
ENDBRANCH  56  57
ENDBRANCH  28  51
BRANCH  40  61
ATOM     61  C   UNL A   1      48.657  27.845  28.636  1.00  0.00    -0.014 A 
ATOM     62  C   UNL A   1      49.323  27.948  27.403  1.00  0.00     0.010 A 
ATOM     63  C   UNL A   1      49.395  27.584  29.805  1.00  0.00     0.010 A 
ATOM     64  C   UNL A   1      50.709  27.798  27.342  1.00  0.00     0.020 A 
ATOM     65  C   UNL A   1      50.783  27.450  29.749  1.00  0.00     0.020 A 
ATOM     66  C   UNL A   1      51.431  27.556  28.516  1.00  0.00     0.054 A 
BRANCH  66  67
ATOM     67  S   UNL A   1      53.240  27.467  28.429  1.00  0.00     0.124 S 
ATOM     68  O   UNL A   1      53.600  28.855  28.155  1.00  0.00    -0.237 OA
ATOM     69  O   UNL A   1      53.604  26.973  29.755  1.00  0.00    -0.237 OA
ATOM     70  O   UNL A   1      53.488  26.530  27.335  1.00  0.00    -0.744 OA
ENDBRANCH  66  67
ENDBRANCH  40  61
ENDBRANCH  14  15
ENDBRANCH   7   9
ENDBRANCH   6   7
ENDBRANCH   5   6
ENDBRANCH   4   5
ENDBRANCH   3   4
ENDBRANCH   2   3
ENDBRANCH   1   2
BRANCH   1  71
ATOM     71  O   UNL A   1      34.953  33.100  34.047  1.00  0.00    -0.377 OA
BRANCH  71  72
ATOM     72  C   UNL A   1      36.265  33.654  34.032  1.00  0.00     0.188 C 
BRANCH  72  73
ATOM     73  C   UNL A   1      37.194  33.378  35.226  1.00  0.00     0.188 C 
BRANCH  73  74
ATOM     74  O   UNL A   1      36.522  33.281  36.474  1.00  0.00    -0.376 OA
BRANCH  74  75
ATOM     75  C   UNL A   1      37.365  33.303  37.622  1.00  0.00     0.202 C 
BRANCH  75  76
ATOM     76  C   UNL A   1      38.856  33.207  37.271  1.00  0.00     0.261 C 
BRANCH  76  77
ATOM     77  O   UNL A   1      39.539  34.469  37.162  1.00  0.00    -0.457 OA
BRANCH  77  78
ATOM     78  C   UNL A   1      40.900  34.469  37.179  1.00  0.00     0.374 C 
ATOM     79  O   UNL A   1      41.587  34.580  38.185  1.00  0.00    -0.242 OA
BRANCH  78  80
ATOM     80  C   UNL A   1      41.364  34.162  35.843  1.00  0.00     0.212 A 
ATOM     81  C   UNL A   1      41.208  34.830  34.639  1.00  0.00     0.059 A 
ATOM     82  O   UNL A   1      41.913  32.923  35.601  1.00  0.00    -0.449 OA
ATOM     83  C   UNL A   1      41.624  33.943  33.617  1.00  0.00     0.052 A 
ATOM     84  C   UNL A   1      42.014  32.781  34.246  1.00  0.00     0.135 A 
BRANCH  84  85
ATOM     85  C   UNL A   1      42.495  31.492  33.763  1.00  0.00     0.025 A 
ATOM     86  C   UNL A   1      43.882  31.347  33.630  1.00  0.00     0.014 A 
ATOM     87  C   UNL A   1      41.620  30.426  33.382  1.00  0.00    -0.006 A 
ATOM     88  C   UNL A   1      44.422  30.187  33.090  1.00  0.00     0.022 A 
ATOM     89  C   UNL A   1      42.176  29.233  32.839  1.00  0.00     0.001 A 
ATOM     90  C   UNL A   1      40.210  30.489  33.523  1.00  0.00     0.009 A 
ATOM     91  C   UNL A   1      43.583  29.146  32.690  1.00  0.00     0.048 A 
ATOM     92  C   UNL A   1      41.301  28.181  32.467  1.00  0.00     0.010 A 
ATOM     93  C   UNL A   1      39.374  29.431  33.160  1.00  0.00     0.001 A 
ATOM     94  Cl  UNL A   1      44.357  27.758  31.995  1.00  0.00    -0.084 Cl
ATOM     95  C   UNL A   1      39.919  28.275  32.630  1.00  0.00     0.001 A 
ENDBRANCH  84  85
ENDBRANCH  78  80
ENDBRANCH  77  78
ENDBRANCH  76  77
ENDBRANCH  75  76
ENDBRANCH  74  75
ENDBRANCH  73  74
ENDBRANCH  72  73
ENDBRANCH  71  72
ENDBRANCH   1  71
TORSDOF 24
ENDMDL
