MODEL 1
REMARK VINA RESULT:     -11.4      0.000      0.000
REMARK SMILES Cc1c(NC(=O)[C@@H]2CC=CC[C@@H]2C(=O)OCCOCCOCCOCCOC(=O)c2ccc(-c3c4nc(c(-c5ccc(S(=O)(=O)[O-])cc5)c5ccc([nH]5)c(-c5ccc(S(=O)(=O)[O-])cc5)c5nc(c(-c6ccc(S(=O)(=O)[O-])cc6)c6ccc3[nH]6)C=C5)C=C4)cc2)cccc1C(=O)N1CCOCC1
REMARK SMILES IDX 21 1 20 2 19 3 18 4 17 5 16 6 15 7 13 8 14 9 12 10 7 11 8 12
REMARK SMILES IDX 9 13 11 14 10 15 5 16 4 17 6 19 3 20 1 21 2 22 93 23 90 24
REMARK SMILES IDX 92 25 91 26 94 27 95 28 96 29 97 30 101 31 98 32 100 33
REMARK SMILES IDX 99 34 22 35 23 36 24 37 25 38 26 39 27 40 28 41 29 42 30 43
REMARK SMILES IDX 31 44 89 45 32 46 88 47 33 48 34 49 35 50 82 51 36 52 87 53
REMARK SMILES IDX 81 54 83 55 37 56 86 57 80 58 79 59 38 61 68 62 49 63 67 64
REMARK SMILES IDX 50 65 53 66 66 67 84 68 51 69 52 70 65 72 85 73 54 74 39 75
REMARK SMILES IDX 40 76 48 77 41 78 47 79 42 80 43 81 44 82 45 83 46 84 69 85
REMARK SMILES IDX 70 86 78 87 71 88 77 89 72 90 73 91 74 92 75 93 76 94 55 95
REMARK SMILES IDX 56 96 64 97 57 98 63 99 58 100 59 101 60 102 61 103 62 104
REMARK H PARENT 4 18 83 60 53 71
REMARK Flexibility Score: inf
ROOT
ATOM      1  O   UNL A   1      34.035  26.578  25.425  1.00  0.00    -0.377 OA
ENDROOT
BRANCH   1   2
ATOM      2  C   UNL A   1      33.584  25.264  25.160  1.00  0.00     0.188 C 
BRANCH   2   3
ATOM      3  C   UNL A   1      34.400  23.945  25.687  1.00  0.00     0.188 C 
BRANCH   3   4
ATOM      4  O   UNL A   1      35.964  23.481  25.327  1.00  0.00    -0.376 OA
BRANCH   4   5
ATOM      5  C   UNL A   1      37.554  23.866  25.726  1.00  0.00     0.202 C 
BRANCH   5   6
ATOM      6  C   UNL A   1      38.617  24.652  27.000  1.00  0.00     0.261 C 
BRANCH   6   7
ATOM      7  O   UNL A   1      40.032  25.640  27.049  1.00  0.00    -0.463 OA
BRANCH   7   8
ATOM      8  C   UNL A   1      40.944  26.429  26.286  1.00  0.00     0.310 C 
ATOM      9  O   UNL A   1      41.315  26.129  25.143  1.00  0.00    -0.252 OA
BRANCH   8  10
ATOM     10  C   UNL A   1      41.437  28.064  26.627  1.00  0.00     0.116 C 
ATOM     11  C   UNL A   1      42.659  28.852  27.359  1.00  0.00     0.097 C 
ATOM     12  C   UNL A   1      42.540  29.064  28.906  1.00  0.00     0.041 C 
ATOM     13  C   UNL A   1      41.157  29.271  29.421  1.00  0.00    -0.030 C 
ATOM     14  C   UNL A   1      40.127  28.847  27.160  1.00  0.00     0.043 C 
ATOM     15  C   UNL A   1      40.085  29.242  28.625  1.00  0.00    -0.030 C 
BRANCH  11  16
ATOM     16  C   UNL A   1      44.016  28.480  26.755  1.00  0.00     0.228 C 
ATOM     17  N   UNL A   1      44.568  27.244  26.633  1.00  0.00    -0.326 N 
ATOM     18  H   UNL A   1      45.225  27.237  25.900  1.00  0.00     0.169 HD
ATOM     19  O   UNL A   1      44.734  29.397  26.328  1.00  0.00    -0.274 OA
BRANCH  17  20
ATOM     20  C   UNL A   1      44.494  25.966  27.232  1.00  0.00     0.044 A 
ATOM     21  C   UNL A   1      44.538  24.995  24.897  1.00  0.00     0.047 C 
ATOM     22  C   UNL A   1      44.618  24.820  26.392  1.00  0.00    -0.015 A 
ATOM     23  C   UNL A   1      44.746  23.530  26.966  1.00  0.00     0.045 A 
ATOM     24  C   UNL A   1      44.443  25.773  28.612  1.00  0.00     0.026 A 
ATOM     25  C   UNL A   1      44.560  23.374  28.346  1.00  0.00     0.014 A 
ATOM     26  C   UNL A   1      44.396  24.488  29.163  1.00  0.00     0.003 A 
BRANCH  23  27
ATOM     27  C   UNL A   1      44.949  22.261  26.201  1.00  0.00     0.254 C 
ATOM     28  O   UNL A   1      46.113  21.933  25.966  1.00  0.00    -0.269 OA
ATOM     29  N   UNL A   1      43.875  21.501  25.744  1.00  0.00    -0.334 N 
ATOM     30  C   UNL A   1      42.464  21.897  25.641  1.00  0.00     0.148 C 
ATOM     31  C   UNL A   1      44.145  20.181  25.165  1.00  0.00     0.148 C 
ATOM     32  C   UNL A   1      41.542  20.781  26.168  1.00  0.00     0.181 C 
ATOM     33  C   UNL A   1      43.205  19.143  25.783  1.00  0.00     0.181 C 
ATOM     34  O   UNL A   1      41.834  19.513  25.553  1.00  0.00    -0.378 OA
ENDBRANCH  23  27
ENDBRANCH  17  20
ENDBRANCH  11  16
ENDBRANCH   8  10
ENDBRANCH   7   8
ENDBRANCH   6   7
ENDBRANCH   5   6
ENDBRANCH   4   5
ENDBRANCH   3   4
ENDBRANCH   2   3
ENDBRANCH   1   2
BRANCH   1  35
ATOM     35  C   UNL A   1      33.084  27.527  25.821  1.00  0.00     0.188 C 
BRANCH  35  36
ATOM     36  C   UNL A   1      33.436  28.301  27.092  1.00  0.00     0.188 C 
BRANCH  36  37
ATOM     37  O   UNL A   1      32.741  29.535  27.301  1.00  0.00    -0.376 OA
BRANCH  37  38
ATOM     38  C   UNL A   1      33.369  30.731  26.838  1.00  0.00     0.202 C 
BRANCH  38  39
ATOM     39  C   UNL A   1      33.990  31.674  27.897  1.00  0.00     0.261 C 
BRANCH  39  40
ATOM     40  O   UNL A   1      35.352  32.005  27.567  1.00  0.00    -0.460 OA
BRANCH  40  41
ATOM     41  C   UNL A   1      36.354  31.300  28.180  1.00  0.00     0.338 C 
ATOM     42  O   UNL A   1      36.954  30.359  27.711  1.00  0.00    -0.246 OA
BRANCH  41  43
ATOM     43  C   UNL A   1      36.441  31.768  29.611  1.00  0.00     0.060 A 
ATOM     44  C   UNL A   1      36.760  33.091  29.917  1.00  0.00     0.016 A 
ATOM     45  C   UNL A   1      36.523  30.831  30.637  1.00  0.00     0.016 A 
ATOM     46  C   UNL A   1      37.414  33.385  31.143  1.00  0.00     0.010 A 
ATOM     47  C   UNL A   1      37.345  31.094  31.737  1.00  0.00     0.010 A 
ATOM     48  C   UNL A   1      37.965  32.340  31.916  1.00  0.00    -0.014 A 
BRANCH  48  49
ATOM     49  C   UNL A   1      39.277  32.295  32.780  1.00  0.00     0.031 A 
ATOM     50  C   UNL A   1      38.939  33.010  34.146  1.00  0.00     0.074 A 
ATOM     51  C   UNL A   1      40.598  31.866  32.402  1.00  0.00     0.049 A 
ATOM     52  N   UNL A   1      39.570  34.026  34.676  1.00  0.00    -0.248 NA
ATOM     53  C   UNL A   1      37.616  32.879  34.774  1.00  0.00     0.031 C 
ATOM     54  C   UNL A   1      41.631  31.171  33.136  1.00  0.00     0.029 A 
ATOM     55  N   UNL A   1      41.515  32.145  31.319  1.00  0.00    -0.354 N 
ATOM     56  C   UNL A   1      38.966  34.409  35.853  1.00  0.00     0.074 A 
ATOM     57  C   UNL A   1      37.642  33.864  35.677  1.00  0.00     0.031 C 
ATOM     58  C   UNL A   1      42.884  31.551  32.715  1.00  0.00     0.029 A 
ATOM     59  C   UNL A   1      42.854  32.294  31.535  1.00  0.00     0.049 A 
ATOM     60  H   UNL A   1      41.165  32.231  30.404  1.00  0.00     0.167 HD
ATOM     61  C   UNL A   1      39.634  34.956  36.933  1.00  0.00     0.031 A 
ATOM     62  C   UNL A   1      43.743  33.116  30.902  1.00  0.00     0.031 A 
ATOM     63  C   UNL A   1      41.108  35.233  36.727  1.00  0.00     0.049 A 
ATOM     64  C   UNL A   1      44.298  34.309  31.736  1.00  0.00     0.074 A 
ATOM     65  C   UNL A   1      42.250  34.767  37.376  1.00  0.00     0.029 A 
ATOM     66  N   UNL A   1      41.622  35.946  35.623  1.00  0.00    -0.354 N 
ATOM     67  N   UNL A   1      44.139  34.495  33.030  1.00  0.00    -0.248 NA
ATOM     68  C   UNL A   1      44.998  35.459  31.145  1.00  0.00     0.031 C 
ATOM     69  C   UNL A   1      43.407  35.057  36.589  1.00  0.00     0.029 A 
ATOM     70  C   UNL A   1      43.020  35.778  35.472  1.00  0.00     0.049 A 
ATOM     71  H   UNL A   1      41.070  36.498  35.023  1.00  0.00     0.167 HD
ATOM     72  C   UNL A   1      44.350  35.841  33.358  1.00  0.00     0.074 A 
ATOM     73  C   UNL A   1      45.073  36.317  32.182  1.00  0.00     0.031 C 
ATOM     74  C   UNL A   1      43.827  36.519  34.459  1.00  0.00     0.031 A 
BRANCH  61  75
ATOM     75  C   UNL A   1      38.975  34.860  38.361  1.00  0.00    -0.014 A 
ATOM     76  C   UNL A   1      39.084  35.884  39.327  1.00  0.00     0.010 A 
ATOM     77  C   UNL A   1      38.295  33.717  38.841  1.00  0.00     0.010 A 
ATOM     78  C   UNL A   1      38.668  35.716  40.680  1.00  0.00     0.020 A 
ATOM     79  C   UNL A   1      37.917  33.508  40.177  1.00  0.00     0.020 A 
ATOM     80  C   UNL A   1      38.118  34.508  41.104  1.00  0.00     0.054 A 
BRANCH  80  81
ATOM     81  S   UNL A   1      37.626  34.241  42.833  1.00  0.00     0.124 S 
ATOM     82  O   UNL A   1      37.643  35.593  43.384  1.00  0.00    -0.237 OA
ATOM     83  O   UNL A   1      36.309  33.628  42.699  1.00  0.00    -0.237 OA
ATOM     84  O   UNL A   1      38.665  33.353  43.359  1.00  0.00    -0.744 OA
ENDBRANCH  80  81
ENDBRANCH  61  75
BRANCH  62  85
ATOM     85  C   UNL A   1      43.673  32.932  29.389  1.00  0.00    -0.014 A 
ATOM     86  C   UNL A   1      43.151  34.062  28.710  1.00  0.00     0.010 A 
ATOM     87  C   UNL A   1      44.528  32.099  28.640  1.00  0.00     0.010 A 
ATOM     88  C   UNL A   1      43.662  34.490  27.469  1.00  0.00     0.020 A 
ATOM     89  C   UNL A   1      45.069  32.539  27.402  1.00  0.00     0.020 A 
ATOM     90  C   UNL A   1      44.676  33.762  26.851  1.00  0.00     0.054 A 
BRANCH  90  91
ATOM     91  S   UNL A   1      45.639  34.525  25.488  1.00  0.00     0.124 S 
ATOM     92  O   UNL A   1      45.667  35.929  25.883  1.00  0.00    -0.237 OA
ATOM     93  O   UNL A   1      46.931  33.847  25.545  1.00  0.00    -0.237 OA
ATOM     94  O   UNL A   1      44.840  34.222  24.302  1.00  0.00    -0.744 OA
ENDBRANCH  90  91
ENDBRANCH  62  85
BRANCH  74  95
ATOM     95  C   UNL A   1      44.056  38.012  34.821  1.00  0.00    -0.014 A 
ATOM     96  C   UNL A   1      44.863  38.521  35.851  1.00  0.00     0.010 A 
ATOM     97  C   UNL A   1      43.406  39.004  34.028  1.00  0.00     0.010 A 
ATOM     98  C   UNL A   1      44.965  39.906  36.108  1.00  0.00     0.020 A 
ATOM     99  C   UNL A   1      43.530  40.383  34.245  1.00  0.00     0.020 A 
ATOM    100  C   UNL A   1      44.295  40.829  35.306  1.00  0.00     0.054 A 
BRANCH 100 101
ATOM    101  S   UNL A   1      44.481  42.605  35.617  1.00  0.00     0.124 S 
ATOM    102  O   UNL A   1      44.696  42.640  37.060  1.00  0.00    -0.237 OA
ATOM    103  O   UNL A   1      45.642  42.953  34.801  1.00  0.00    -0.237 OA
ATOM    104  O   UNL A   1      43.216  43.173  35.157  1.00  0.00    -0.744 OA
ENDBRANCH 100 101
ENDBRANCH  74  95
ENDBRANCH  48  49
ENDBRANCH  41  43
ENDBRANCH  40  41
ENDBRANCH  39  40
ENDBRANCH  38  39
ENDBRANCH  37  38
ENDBRANCH  36  37
ENDBRANCH  35  36
ENDBRANCH   1  35
TORSDOF 26
ENDMDL
MODEL 2
REMARK VINA RESULT:     -11.2      4.447      9.607
REMARK SMILES Cc1c(NC(=O)[C@@H]2CC=CC[C@@H]2C(=O)OCCOCCOCCOCCOC(=O)c2ccc(-c3c4nc(c(-c5ccc(S(=O)(=O)[O-])cc5)c5ccc([nH]5)c(-c5ccc(S(=O)(=O)[O-])cc5)c5nc(c(-c6ccc(S(=O)(=O)[O-])cc6)c6ccc3[nH]6)C=C5)C=C4)cc2)cccc1C(=O)N1CCOCC1
REMARK SMILES IDX 21 1 20 2 19 3 18 4 17 5 16 6 15 7 13 8 14 9 12 10 7 11 8 12
REMARK SMILES IDX 9 13 11 14 10 15 5 16 4 17 6 19 3 20 1 21 2 22 93 23 90 24
REMARK SMILES IDX 92 25 91 26 94 27 95 28 96 29 97 30 101 31 98 32 100 33
REMARK SMILES IDX 99 34 22 35 23 36 24 37 25 38 26 39 27 40 28 41 29 42 30 43
REMARK SMILES IDX 31 44 89 45 32 46 88 47 33 48 34 49 35 50 82 51 36 52 87 53
REMARK SMILES IDX 81 54 83 55 37 56 86 57 80 58 79 59 38 61 68 62 49 63 67 64
REMARK SMILES IDX 50 65 53 66 66 67 84 68 51 69 52 70 65 72 85 73 54 74 39 75
REMARK SMILES IDX 40 76 48 77 41 78 47 79 42 80 43 81 44 82 45 83 46 84 69 85
REMARK SMILES IDX 70 86 78 87 71 88 77 89 72 90 73 91 74 92 75 93 76 94 55 95
REMARK SMILES IDX 56 96 64 97 57 98 63 99 58 100 59 101 60 102 61 103 62 104
REMARK H PARENT 4 18 83 60 53 71
REMARK Flexibility Score: inf
ROOT
ATOM      1  O   UNL A   1      33.612  27.717  26.628  1.00  0.00    -0.377 OA
ENDROOT
BRANCH   1   2
ATOM      2  C   UNL A   1      33.459  26.826  25.540  1.00  0.00     0.188 C 
BRANCH   2   3
ATOM      3  C   UNL A   1      33.884  25.248  25.646  1.00  0.00     0.188 C 
BRANCH   3   4
ATOM      4  O   UNL A   1      35.348  24.540  25.264  1.00  0.00    -0.376 OA
BRANCH   4   5
ATOM      5  C   UNL A   1      36.644  23.761  26.006  1.00  0.00     0.202 C 
BRANCH   5   6
ATOM      6  C   UNL A   1      38.462  23.812  26.257  1.00  0.00     0.261 C 
BRANCH   6   7
ATOM      7  O   UNL A   1      39.637  24.928  26.853  1.00  0.00    -0.463 OA
BRANCH   7   8
ATOM      8  C   UNL A   1      40.483  26.031  26.531  1.00  0.00     0.310 C 
ATOM      9  O   UNL A   1      41.026  26.174  25.428  1.00  0.00    -0.252 OA
BRANCH   8  10
ATOM     10  C   UNL A   1      40.648  27.509  27.437  1.00  0.00     0.116 C 
ATOM     11  C   UNL A   1      41.672  28.187  28.506  1.00  0.00     0.097 C 
ATOM     12  C   UNL A   1      41.453  27.837  30.017  1.00  0.00     0.041 C 
ATOM     13  C   UNL A   1      40.035  27.631  30.428  1.00  0.00    -0.030 C 
ATOM     14  C   UNL A   1      39.196  27.841  28.061  1.00  0.00     0.043 C 
ATOM     15  C   UNL A   1      39.020  27.701  29.563  1.00  0.00    -0.030 C 
BRANCH  11  16
ATOM     16  C   UNL A   1      43.098  28.266  27.955  1.00  0.00     0.228 C 
ATOM     17  N   UNL A   1      43.936  27.241  27.649  1.00  0.00    -0.326 N 
ATOM     18  H   UNL A   1      44.599  27.532  26.982  1.00  0.00     0.169 HD
ATOM     19  O   UNL A   1      43.587  29.390  27.765  1.00  0.00    -0.274 OA
BRANCH  17  20
ATOM     20  C   UNL A   1      44.153  25.886  27.991  1.00  0.00     0.044 A 
ATOM     21  C   UNL A   1      44.220  25.390  25.511  1.00  0.00     0.047 C 
ATOM     22  C   UNL A   1      44.438  24.964  26.941  1.00  0.00    -0.015 A 
ATOM     23  C   UNL A   1      44.853  23.644  27.249  1.00  0.00     0.045 A 
ATOM     24  C   UNL A   1      44.238  25.438  29.308  1.00  0.00     0.026 A 
ATOM     25  C   UNL A   1      44.798  23.203  28.579  1.00  0.00     0.014 A 
ATOM     26  C   UNL A   1      44.479  24.091  29.601  1.00  0.00     0.003 A 
BRANCH  23  27
ATOM     27  C   UNL A   1      45.243  22.605  26.248  1.00  0.00     0.254 C 
ATOM     28  O   UNL A   1      46.430  22.567  25.917  1.00  0.00    -0.269 OA
ATOM     29  N   UNL A   1      44.307  21.741  25.684  1.00  0.00    -0.334 N 
ATOM     30  C   UNL A   1      42.842  21.856  25.703  1.00  0.00     0.148 C 
ATOM     31  C   UNL A   1      44.785  20.632  24.852  1.00  0.00     0.148 C 
ATOM     32  C   UNL A   1      42.191  20.499  26.031  1.00  0.00     0.181 C 
ATOM     33  C   UNL A   1      44.108  19.330  25.285  1.00  0.00     0.181 C 
ATOM     34  O   UNL A   1      42.678  19.452  25.173  1.00  0.00    -0.378 OA
ENDBRANCH  23  27
ENDBRANCH  17  20
ENDBRANCH  11  16
ENDBRANCH   8  10
ENDBRANCH   7   8
ENDBRANCH   6   7
ENDBRANCH   5   6
ENDBRANCH   4   5
ENDBRANCH   3   4
ENDBRANCH   2   3
ENDBRANCH   1   2
BRANCH   1  35
ATOM     35  C   UNL A   1      34.175  28.972  26.369  1.00  0.00     0.188 C 
BRANCH  35  36
ATOM     36  C   UNL A   1      34.805  29.659  27.583  1.00  0.00     0.188 C 
BRANCH  36  37
ATOM     37  O   UNL A   1      34.591  31.069  27.700  1.00  0.00    -0.376 OA
BRANCH  37  38
ATOM     38  C   UNL A   1      35.743  31.900  27.850  1.00  0.00     0.202 C 
BRANCH  38  39
ATOM     39  C   UNL A   1      36.213  32.226  29.289  1.00  0.00     0.261 C 
BRANCH  39  40
ATOM     40  O   UNL A   1      37.583  32.668  29.303  1.00  0.00    -0.460 OA
BRANCH  40  41
ATOM     41  C   UNL A   1      38.041  33.316  30.418  1.00  0.00     0.338 C 
ATOM     42  O   UNL A   1      37.898  34.492  30.669  1.00  0.00    -0.246 OA
BRANCH  41  43
ATOM     43  C   UNL A   1      38.926  32.360  31.179  1.00  0.00     0.060 A 
ATOM     44  C   UNL A   1      39.276  32.607  32.506  1.00  0.00     0.016 A 
ATOM     45  C   UNL A   1      39.658  31.401  30.486  1.00  0.00     0.016 A 
ATOM     46  C   UNL A   1      40.507  32.105  33.007  1.00  0.00     0.010 A 
ATOM     47  C   UNL A   1      40.952  31.089  30.915  1.00  0.00     0.010 A 
ATOM     48  C   UNL A   1      41.475  31.594  32.115  1.00  0.00    -0.014 A 
BRANCH  48  49
ATOM     49  C   UNL A   1      43.043  31.684  32.153  1.00  0.00     0.031 A 
ATOM     50  C   UNL A   1      43.471  32.581  30.926  1.00  0.00     0.074 A 
ATOM     51  C   UNL A   1      43.973  30.976  32.994  1.00  0.00     0.049 A 
ATOM     52  N   UNL A   1      44.302  32.257  29.970  1.00  0.00    -0.248 NA
ATOM     53  C   UNL A   1      42.658  33.729  30.496  1.00  0.00     0.031 C 
ATOM     54  C   UNL A   1      45.224  31.378  33.595  1.00  0.00     0.029 A 
ATOM     55  N   UNL A   1      44.205  29.597  33.361  1.00  0.00    -0.354 N 
ATOM     56  C   UNL A   1      44.398  33.275  29.048  1.00  0.00     0.074 A 
ATOM     57  C   UNL A   1      43.164  33.983  29.285  1.00  0.00     0.031 C 
ATOM     58  C   UNL A   1      46.087  30.313  33.710  1.00  0.00     0.029 A 
ATOM     59  C   UNL A   1      45.466  29.087  33.470  1.00  0.00     0.049 A 
ATOM     60  H   UNL A   1      43.435  29.011  33.537  1.00  0.00     0.167 HD
ATOM     61  C   UNL A   1      45.537  33.566  28.319  1.00  0.00     0.031 A 
ATOM     62  C   UNL A   1      45.916  27.830  33.177  1.00  0.00     0.031 A 
ATOM     63  C   UNL A   1      46.698  32.611  28.500  1.00  0.00     0.049 A 
ATOM     64  C   UNL A   1      46.842  27.698  31.932  1.00  0.00     0.074 A 
ATOM     65  C   UNL A   1      48.003  32.797  28.953  1.00  0.00     0.029 A 
ATOM     66  N   UNL A   1      46.582  31.210  28.389  1.00  0.00    -0.354 N 
ATOM     67  N   UNL A   1      47.376  28.690  31.250  1.00  0.00    -0.248 NA
ATOM     68  C   UNL A   1      47.157  26.417  31.285  1.00  0.00     0.031 C 
ATOM     69  C   UNL A   1      48.593  31.532  29.260  1.00  0.00     0.029 A 
ATOM     70  C   UNL A   1      47.698  30.528  28.931  1.00  0.00     0.049 A 
ATOM     71  H   UNL A   1      45.810  30.756  27.981  1.00  0.00     0.167 HD
ATOM     72  C   UNL A   1      47.749  28.257  29.971  1.00  0.00     0.074 A 
ATOM     73  C   UNL A   1      47.771  26.808  30.149  1.00  0.00     0.031 C 
ATOM     74  C   UNL A   1      47.880  29.051  28.831  1.00  0.00     0.031 A 
BRANCH  61  75
ATOM     75  C   UNL A   1      45.707  35.014  27.722  1.00  0.00    -0.014 A 
ATOM     76  C   UNL A   1      45.939  35.256  26.350  1.00  0.00     0.010 A 
ATOM     77  C   UNL A   1      45.732  36.192  28.503  1.00  0.00     0.010 A 
ATOM     78  C   UNL A   1      46.295  36.539  25.842  1.00  0.00     0.020 A 
ATOM     79  C   UNL A   1      46.125  37.457  28.037  1.00  0.00     0.020 A 
ATOM     80  C   UNL A   1      46.422  37.628  26.702  1.00  0.00     0.054 A 
BRANCH  80  81
ATOM     81  S   UNL A   1      46.925  39.265  26.097  1.00  0.00     0.124 S 
ATOM     82  O   UNL A   1      46.735  39.147  24.654  1.00  0.00    -0.237 OA
ATOM     83  O   UNL A   1      46.000  40.159  26.787  1.00  0.00    -0.237 OA
ATOM     84  O   UNL A   1      48.321  39.381  26.523  1.00  0.00    -0.744 OA
ENDBRANCH  80  81
ENDBRANCH  61  75
BRANCH  62  85
ATOM     85  C   UNL A   1      45.072  26.772  33.883  1.00  0.00    -0.014 A 
ATOM     86  C   UNL A   1      45.282  26.731  35.284  1.00  0.00     0.010 A 
ATOM     87  C   UNL A   1      43.821  26.309  33.429  1.00  0.00     0.010 A 
ATOM     88  C   UNL A   1      44.227  26.511  36.191  1.00  0.00     0.020 A 
ATOM     89  C   UNL A   1      42.745  26.114  34.337  1.00  0.00     0.020 A 
ATOM     90  C   UNL A   1      42.941  26.274  35.712  1.00  0.00     0.054 A 
BRANCH  90  91
ATOM     91  S   UNL A   1      41.507  26.422  36.848  1.00  0.00     0.124 S 
ATOM     92  O   UNL A   1      40.596  25.411  36.323  1.00  0.00    -0.237 OA
ATOM     93  O   UNL A   1      42.066  26.121  38.163  1.00  0.00    -0.237 OA
ATOM     94  O   UNL A   1      41.078  27.808  36.667  1.00  0.00    -0.744 OA
ENDBRANCH  90  91
ENDBRANCH  62  85
BRANCH  74  95
ATOM     95  C   UNL A   1      48.290  28.570  27.411  1.00  0.00    -0.014 A 
ATOM     96  C   UNL A   1      49.565  28.640  26.827  1.00  0.00     0.010 A 
ATOM     97  C   UNL A   1      47.290  27.971  26.590  1.00  0.00     0.010 A 
ATOM     98  C   UNL A   1      49.809  28.200  25.507  1.00  0.00     0.020 A 
ATOM     99  C   UNL A   1      47.526  27.493  25.293  1.00  0.00     0.020 A 
ATOM    100  C   UNL A   1      48.787  27.634  24.746  1.00  0.00     0.054 A 
BRANCH 100 101
ATOM    101  S   UNL A   1      49.131  27.027  23.074  1.00  0.00     0.124 S 
ATOM    102  O   UNL A   1      48.274  25.847  22.996  1.00  0.00    -0.237 OA
ATOM    103  O   UNL A   1      48.726  28.152  22.235  1.00  0.00    -0.237 OA
ATOM    104  O   UNL A   1      50.567  26.758  23.090  1.00  0.00    -0.744 OA
ENDBRANCH 100 101
ENDBRANCH  74  95
ENDBRANCH  48  49
ENDBRANCH  41  43
ENDBRANCH  40  41
ENDBRANCH  39  40
ENDBRANCH  38  39
ENDBRANCH  37  38
ENDBRANCH  36  37
ENDBRANCH  35  36
ENDBRANCH   1  35
TORSDOF 26
ENDMDL
MODEL 3
REMARK VINA RESULT:     -10.4      4.418     12.452
REMARK SMILES Cc1c(NC(=O)[C@@H]2CC=CC[C@@H]2C(=O)OCCOCCOCCOCCOC(=O)c2ccc(-c3c4nc(c(-c5ccc(S(=O)(=O)[O-])cc5)c5ccc([nH]5)c(-c5ccc(S(=O)(=O)[O-])cc5)c5nc(c(-c6ccc(S(=O)(=O)[O-])cc6)c6ccc3[nH]6)C=C5)C=C4)cc2)cccc1C(=O)N1CCOCC1
REMARK SMILES IDX 21 1 20 2 19 3 18 4 17 5 16 6 15 7 13 8 14 9 12 10 7 11 8 12
REMARK SMILES IDX 9 13 11 14 10 15 5 16 4 17 6 19 3 20 1 21 2 22 93 23 90 24
REMARK SMILES IDX 92 25 91 26 94 27 95 28 96 29 97 30 101 31 98 32 100 33
REMARK SMILES IDX 99 34 22 35 23 36 24 37 25 38 26 39 27 40 28 41 29 42 30 43
REMARK SMILES IDX 31 44 89 45 32 46 88 47 33 48 34 49 35 50 82 51 36 52 87 53
REMARK SMILES IDX 81 54 83 55 37 56 86 57 80 58 79 59 38 61 68 62 49 63 67 64
REMARK SMILES IDX 50 65 53 66 66 67 84 68 51 69 52 70 65 72 85 73 54 74 39 75
REMARK SMILES IDX 40 76 48 77 41 78 47 79 42 80 43 81 44 82 45 83 46 84 69 85
REMARK SMILES IDX 70 86 78 87 71 88 77 89 72 90 73 91 74 92 75 93 76 94 55 95
REMARK SMILES IDX 56 96 64 97 57 98 63 99 58 100 59 101 60 102 61 103 62 104
REMARK H PARENT 4 18 83 60 53 71
REMARK Flexibility Score: inf
ROOT
ATOM      1  O   UNL A   1      43.607  30.204  27.780  1.00  0.00    -0.377 OA
ENDROOT
BRANCH   1   2
ATOM      2  C   UNL A   1      43.001  30.805  28.907  1.00  0.00     0.188 C 
BRANCH   2   3
ATOM      3  C   UNL A   1      41.705  30.136  29.654  1.00  0.00     0.188 C 
BRANCH   3   4
ATOM      4  O   UNL A   1      40.133  30.025  29.100  1.00  0.00    -0.376 OA
BRANCH   4   5
ATOM      5  C   UNL A   1      38.579  29.708  29.667  1.00  0.00     0.202 C 
BRANCH   5   6
ATOM      6  C   UNL A   1      37.466  29.865  31.119  1.00  0.00     0.261 C 
BRANCH   6   7
ATOM      7  O   UNL A   1      36.108  30.822  31.588  1.00  0.00    -0.463 OA
BRANCH   7   8
ATOM      8  C   UNL A   1      35.372  32.021  31.345  1.00  0.00     0.310 C 
ATOM      9  O   UNL A   1      34.266  32.256  31.850  1.00  0.00    -0.252 OA
BRANCH   8  10
ATOM     10  C   UNL A   1      35.979  33.480  30.614  1.00  0.00     0.116 C 
ATOM     11  C   UNL A   1      36.281  34.077  29.130  1.00  0.00     0.097 C 
ATOM     12  C   UNL A   1      37.675  33.740  28.500  1.00  0.00     0.041 C 
ATOM     13  C   UNL A   1      38.807  33.638  29.465  1.00  0.00    -0.030 C 
ATOM     14  C   UNL A   1      37.286  33.918  31.456  1.00  0.00     0.043 C 
ATOM     15  C   UNL A   1      38.640  33.787  30.782  1.00  0.00    -0.030 C 
BRANCH  11  16
ATOM     16  C   UNL A   1      35.033  34.052  28.243  1.00  0.00     0.228 C 
ATOM     17  N   UNL A   1      34.270  32.980  27.901  1.00  0.00    -0.326 N 
ATOM     18  H   UNL A   1      33.360  33.273  27.666  1.00  0.00     0.169 HD
ATOM     19  O   UNL A   1      34.650  35.121  27.745  1.00  0.00    -0.274 OA
BRANCH  17  20
ATOM     20  C   UNL A   1      34.376  31.575  27.776  1.00  0.00     0.044 A 
ATOM     21  C   UNL A   1      31.898  31.548  27.268  1.00  0.00     0.047 C 
ATOM     22  C   UNL A   1      33.234  30.852  27.323  1.00  0.00    -0.015 A 
ATOM     23  C   UNL A   1      33.350  29.477  26.997  1.00  0.00     0.045 A 
ATOM     24  C   UNL A   1      35.576  30.885  27.941  1.00  0.00     0.026 A 
ATOM     25  C   UNL A   1      34.538  28.799  27.301  1.00  0.00     0.014 A 
ATOM     26  C   UNL A   1      35.641  29.497  27.784  1.00  0.00     0.003 A 
BRANCH  23  27
ATOM     27  C   UNL A   1      32.250  28.623  26.450  1.00  0.00     0.254 C 
ATOM     28  O   UNL A   1      31.425  28.193  27.258  1.00  0.00    -0.269 OA
ATOM     29  N   UNL A   1      32.179  28.297  25.098  1.00  0.00    -0.334 N 
ATOM     30  C   UNL A   1      33.225  28.435  24.076  1.00  0.00     0.148 C 
ATOM     31  C   UNL A   1      30.979  27.613  24.604  1.00  0.00     0.148 C 
ATOM     32  C   UNL A   1      32.649  29.037  22.781  1.00  0.00     0.181 C 
ATOM     33  C   UNL A   1      30.468  28.312  23.341  1.00  0.00     0.181 C 
ATOM     34  O   UNL A   1      31.488  28.317  22.327  1.00  0.00    -0.378 OA
ENDBRANCH  23  27
ENDBRANCH  17  20
ENDBRANCH  11  16
ENDBRANCH   8  10
ENDBRANCH   7   8
ENDBRANCH   6   7
ENDBRANCH   5   6
ENDBRANCH   4   5
ENDBRANCH   3   4
ENDBRANCH   2   3
ENDBRANCH   1   2
BRANCH   1  35
ATOM     35  C   UNL A   1      44.510  30.973  27.036  1.00  0.00     0.188 C 
BRANCH  35  36
ATOM     36  C   UNL A   1      43.957  32.308  26.532  1.00  0.00     0.188 C 
BRANCH  36  37
ATOM     37  O   UNL A   1      44.411  32.742  25.246  1.00  0.00    -0.376 OA
BRANCH  37  38
ATOM     38  C   UNL A   1      44.241  34.121  24.918  1.00  0.00     0.202 C 
BRANCH  38  39
ATOM     39  C   UNL A   1      43.074  34.883  25.594  1.00  0.00     0.261 C 
BRANCH  39  40
ATOM     40  O   UNL A   1      43.553  36.014  26.343  1.00  0.00    -0.460 OA
BRANCH  40  41
ATOM     41  C   UNL A   1      42.636  36.791  26.998  1.00  0.00     0.338 C 
ATOM     42  O   UNL A   1      42.052  37.747  26.539  1.00  0.00    -0.246 OA
BRANCH  41  43
ATOM     43  C   UNL A   1      42.628  36.374  28.449  1.00  0.00     0.060 A 
ATOM     44  C   UNL A   1      43.449  37.005  29.382  1.00  0.00     0.016 A 
ATOM     45  C   UNL A   1      42.052  35.160  28.812  1.00  0.00     0.016 A 
ATOM     46  C   UNL A   1      43.893  36.284  30.522  1.00  0.00     0.010 A 
ATOM     47  C   UNL A   1      42.653  34.393  29.815  1.00  0.00     0.010 A 
ATOM     48  C   UNL A   1      43.725  34.882  30.578  1.00  0.00    -0.014 A 
BRANCH  48  49
ATOM     49  C   UNL A   1      44.655  33.768  31.180  1.00  0.00     0.031 A 
ATOM     50  C   UNL A   1      45.857  33.593  30.172  1.00  0.00     0.074 A 
ATOM     51  C   UNL A   1      44.429  32.915  32.317  1.00  0.00     0.049 A 
ATOM     52  N   UNL A   1      46.238  32.485  29.591  1.00  0.00    -0.248 NA
ATOM     53  C   UNL A   1      46.424  34.742  29.449  1.00  0.00     0.031 C 
ATOM     54  C   UNL A   1      45.328  32.394  33.322  1.00  0.00     0.029 A 
ATOM     55  N   UNL A   1      43.367  32.048  32.776  1.00  0.00    -0.354 N 
ATOM     56  C   UNL A   1      47.297  32.725  28.743  1.00  0.00     0.074 A 
ATOM     57  C   UNL A   1      47.145  34.138  28.499  1.00  0.00     0.031 C 
ATOM     58  C   UNL A   1      44.917  31.159  33.768  1.00  0.00     0.029 A 
ATOM     59  C   UNL A   1      43.626  30.836  33.347  1.00  0.00     0.049 A 
ATOM     60  H   UNL A   1      42.432  32.339  32.674  1.00  0.00     0.167 HD
ATOM     61  C   UNL A   1      48.302  31.814  28.470  1.00  0.00     0.031 A 
ATOM     62  C   UNL A   1      42.911  29.674  33.267  1.00  0.00     0.031 A 
ATOM     63  C   UNL A   1      48.132  30.440  29.082  1.00  0.00     0.049 A 
ATOM     64  C   UNL A   1      43.557  28.518  32.446  1.00  0.00     0.074 A 
ATOM     65  C   UNL A   1      48.914  29.708  29.974  1.00  0.00     0.029 A 
ATOM     66  N   UNL A   1      46.952  29.675  28.970  1.00  0.00    -0.354 N 
ATOM     67  N   UNL A   1      44.789  28.487  31.981  1.00  0.00    -0.248 NA
ATOM     68  C   UNL A   1      42.816  27.335  31.987  1.00  0.00     0.031 C 
ATOM     69  C   UNL A   1      48.153  28.620  30.504  1.00  0.00     0.029 A 
ATOM     70  C   UNL A   1      46.909  28.605  29.896  1.00  0.00     0.049 A 
ATOM     71  H   UNL A   1      46.237  29.865  28.320  1.00  0.00     0.167 HD
ATOM     72  C   UNL A   1      44.892  27.561  30.936  1.00  0.00     0.074 A 
ATOM     73  C   UNL A   1      43.693  26.753  31.143  1.00  0.00     0.031 C 
ATOM     74  C   UNL A   1      45.830  27.575  29.903  1.00  0.00     0.031 A 
BRANCH  61  75
ATOM     75  C   UNL A   1      49.686  32.349  27.942  1.00  0.00    -0.014 A 
ATOM     76  C   UNL A   1      50.807  32.538  28.780  1.00  0.00     0.010 A 
ATOM     77  C   UNL A   1      49.914  32.772  26.612  1.00  0.00     0.010 A 
ATOM     78  C   UNL A   1      51.988  33.209  28.351  1.00  0.00     0.020 A 
ATOM     79  C   UNL A   1      51.047  33.476  26.175  1.00  0.00     0.020 A 
ATOM     80  C   UNL A   1      52.084  33.709  27.053  1.00  0.00     0.054 A 
BRANCH  80  81
ATOM     81  S   UNL A   1      53.552  34.616  26.488  1.00  0.00     0.124 S 
ATOM     82  O   UNL A   1      52.974  35.765  25.795  1.00  0.00    -0.237 OA
ATOM     83  O   UNL A   1      54.245  34.913  27.737  1.00  0.00    -0.237 OA
ATOM     84  O   UNL A   1      54.241  33.660  25.618  1.00  0.00    -0.744 OA
ENDBRANCH  80  81
ENDBRANCH  61  75
BRANCH  62  85
ATOM     85  C   UNL A   1      41.451  29.908  33.642  1.00  0.00    -0.014 A 
ATOM     86  C   UNL A   1      41.210  29.825  35.037  1.00  0.00     0.010 A 
ATOM     87  C   UNL A   1      40.547  30.697  32.902  1.00  0.00     0.010 A 
ATOM     88  C   UNL A   1      40.309  30.688  35.691  1.00  0.00     0.020 A 
ATOM     89  C   UNL A   1      39.657  31.590  33.558  1.00  0.00     0.020 A 
ATOM     90  C   UNL A   1      39.586  31.622  34.953  1.00  0.00     0.054 A 
BRANCH  90  91
ATOM     91  S   UNL A   1      38.760  33.016  35.815  1.00  0.00     0.124 S 
ATOM     92  O   UNL A   1      37.514  32.404  36.262  1.00  0.00    -0.237 OA
ATOM     93  O   UNL A   1      39.688  33.370  36.885  1.00  0.00    -0.237 OA
ATOM     94  O   UNL A   1      38.622  34.025  34.765  1.00  0.00    -0.744 OA
ENDBRANCH  90  91
ENDBRANCH  62  85
BRANCH  74  95
ATOM     95  C   UNL A   1      45.941  26.550  28.741  1.00  0.00    -0.014 A 
ATOM     96  C   UNL A   1      46.809  25.449  28.661  1.00  0.00     0.010 A 
ATOM     97  C   UNL A   1      45.069  26.704  27.623  1.00  0.00     0.010 A 
ATOM     98  C   UNL A   1      46.845  24.604  27.530  1.00  0.00     0.020 A 
ATOM     99  C   UNL A   1      45.064  25.850  26.511  1.00  0.00     0.020 A 
ATOM    100  C   UNL A   1      45.976  24.811  26.460  1.00  0.00     0.054 A 
BRANCH 100 101
ATOM    101  S   UNL A   1      45.998  23.685  25.041  1.00  0.00     0.124 S 
ATOM    102  O   UNL A   1      46.982  24.316  24.166  1.00  0.00    -0.237 OA
ATOM    103  O   UNL A   1      46.414  22.420  25.642  1.00  0.00    -0.237 OA
ATOM    104  O   UNL A   1      44.621  23.710  24.555  1.00  0.00    -0.744 OA
ENDBRANCH 100 101
ENDBRANCH  74  95
ENDBRANCH  48  49
ENDBRANCH  41  43
ENDBRANCH  40  41
ENDBRANCH  39  40
ENDBRANCH  38  39
ENDBRANCH  37  38
ENDBRANCH  36  37
ENDBRANCH  35  36
ENDBRANCH   1  35
TORSDOF 26
ENDMDL
