MODEL 1
REMARK VINA RESULT:      -5.9      0.000      0.000
REMARK SMILES O=C(OCCOCCOCCOCCOC(=O)c1cccc(S(=O)(=O)Nc2ccccc2N2CCOCC2)c1)c1ccc(-c2c3nc(c(-c4ccc(S(=O)(=O)[O-])cc4)c4ccc([nH]4)c(-c4ccc(S(=O)(=O)[O-])cc4)c4nc(c(-c5ccc(S(=O)(=O)[O-])cc5)c5ccc2[nH]5)C=C4)C=C3)cc1
REMARK SMILES IDX 10 1 9 2 8 3 7 4 6 5 5 6 4 7 3 8 2 9 1 10 40 11 41 12 99 13
REMARK SMILES IDX 42 14 98 15 43 16 44 17 45 18 92 19 46 20 97 21 91 22 93 23
REMARK SMILES IDX 47 24 96 25 90 26 89 27 48 29 78 30 59 31 77 32 60 33 63 34
REMARK SMILES IDX 76 35 94 36 61 37 62 38 75 40 95 41 64 42 49 43 50 44 58 45
REMARK SMILES IDX 51 46 57 47 52 48 53 49 54 50 55 51 56 52 79 53 80 54 88 55
REMARK SMILES IDX 81 56 87 57 82 58 83 59 84 60 85 61 86 62 65 63 66 64 74 65
REMARK SMILES IDX 67 66 73 67 68 68 69 69 70 70 71 71 72 72 11 73 12 74 13 75
REMARK SMILES IDX 14 76 15 77 16 78 17 79 18 80 19 81 39 82 20 83 22 84 21 85
REMARK SMILES IDX 23 86 24 87 25 88 26 89 27 91 28 92 32 93 29 94 31 95 30 96
REMARK SMILES IDX 33 97 34 98 38 99 35 100 37 101 36 102
REMARK H PARENT 93 28 63 39 26 90
REMARK Flexibility Score: inf
ROOT
ATOM      1  C   UNL A   1      46.031  22.206  24.541  1.00  0.00     0.188 C 
ENDROOT
BRANCH   1   2
ATOM      2  O   UNL A   1      46.138  21.084  25.409  1.00  0.00    -0.377 OA
BRANCH   2   3
ATOM      3  C   UNL A   1      46.176  19.804  24.770  1.00  0.00     0.188 C 
BRANCH   3   4
ATOM      4  C   UNL A   1      44.822  19.343  24.227  1.00  0.00     0.188 C 
BRANCH   4   5
ATOM      5  O   UNL A   1      44.407  18.175  24.939  1.00  0.00    -0.376 OA
BRANCH   5   6
ATOM      6  C   UNL A   1      43.492  18.391  26.011  1.00  0.00     0.202 C 
BRANCH   6   7
ATOM      7  C   UNL A   1      42.471  19.478  25.695  1.00  0.00     0.261 C 
BRANCH   7   8
ATOM      8  O   UNL A   1      42.471  20.499  26.702  1.00  0.00    -0.460 OA
BRANCH   8   9
ATOM      9  C   UNL A   1      42.784  21.808  26.526  1.00  0.00     0.338 C 
ATOM     10  O   UNL A   1      42.700  22.284  25.393  1.00  0.00    -0.246 OA
BRANCH   9  11
ATOM     11  C   UNL A   1      43.129  22.739  27.646  1.00  0.00     0.060 A 
ATOM     12  C   UNL A   1      42.237  23.253  28.593  1.00  0.00     0.016 A 
ATOM     13  C   UNL A   1      44.489  23.063  27.782  1.00  0.00     0.016 A 
ATOM     14  C   UNL A   1      42.654  24.134  29.583  1.00  0.00     0.010 A 
ATOM     15  C   UNL A   1      44.924  23.931  28.787  1.00  0.00     0.010 A 
ATOM     16  C   UNL A   1      43.993  24.503  29.660  1.00  0.00    -0.014 A 
BRANCH  16  17
ATOM     17  C   UNL A   1      44.346  25.661  30.502  1.00  0.00     0.031 A 
ATOM     18  C   UNL A   1      44.727  25.380  31.926  1.00  0.00     0.074 A 
ATOM     19  C   UNL A   1      44.457  26.890  29.970  1.00  0.00     0.049 A 
ATOM     20  N   UNL A   1      45.007  26.212  32.890  1.00  0.00    -0.248 NA
ATOM     21  C   UNL A   1      44.817  23.959  32.309  1.00  0.00     0.031 C 
ATOM     22  C   UNL A   1      44.263  27.221  28.557  1.00  0.00     0.029 A 
ATOM     23  N   UNL A   1      44.794  28.083  30.551  1.00  0.00    -0.354 N 
ATOM     24  C   UNL A   1      45.264  25.417  34.002  1.00  0.00     0.074 A 
ATOM     25  C   UNL A   1      45.117  24.040  33.595  1.00  0.00     0.031 C 
ATOM     26  C   UNL A   1      44.512  28.529  28.377  1.00  0.00     0.029 A 
ATOM     27  C   UNL A   1      44.810  29.138  29.669  1.00  0.00     0.049 A 
ATOM     28  H   UNL A   1      45.006  28.177  31.507  1.00  0.00     0.167 HD
ATOM     29  C   UNL A   1      45.574  25.811  35.258  1.00  0.00     0.031 A 
ATOM     30  C   UNL A   1      45.008  30.450  29.902  1.00  0.00     0.031 A 
ATOM     31  C   UNL A   1      45.689  27.192  35.632  1.00  0.00     0.049 A 
ATOM     32  C   UNL A   1      45.247  30.880  31.325  1.00  0.00     0.074 A 
ATOM     33  C   UNL A   1      45.893  27.742  36.882  1.00  0.00     0.029 A 
ATOM     34  N   UNL A   1      45.607  28.247  34.731  1.00  0.00    -0.354 N 
ATOM     35  N   UNL A   1      45.377  30.133  32.398  1.00  0.00    -0.248 NA
ATOM     36  C   UNL A   1      45.338  32.323  31.578  1.00  0.00     0.031 C 
ATOM     37  C   UNL A   1      45.896  29.135  36.740  1.00  0.00     0.029 A 
ATOM     38  C   UNL A   1      45.743  29.449  35.397  1.00  0.00     0.049 A 
ATOM     39  H   UNL A   1      45.472  28.151  33.761  1.00  0.00     0.167 HD
ATOM     40  C   UNL A   1      45.566  31.013  33.456  1.00  0.00     0.074 A 
ATOM     41  C   UNL A   1      45.558  32.348  32.886  1.00  0.00     0.031 C 
ATOM     42  C   UNL A   1      45.724  30.752  34.778  1.00  0.00     0.031 A 
BRANCH  29  43
ATOM     43  C   UNL A   1      45.691  24.728  36.294  1.00  0.00    -0.014 A 
ATOM     44  C   UNL A   1      44.724  24.567  37.304  1.00  0.00     0.010 A 
ATOM     45  C   UNL A   1      46.841  23.919  36.313  1.00  0.00     0.010 A 
ATOM     46  C   UNL A   1      44.938  23.661  38.349  1.00  0.00     0.020 A 
ATOM     47  C   UNL A   1      47.048  22.997  37.343  1.00  0.00     0.020 A 
ATOM     48  C   UNL A   1      46.107  22.896  38.371  1.00  0.00     0.054 A 
BRANCH  48  49
ATOM     49  S   UNL A   1      46.393  21.770  39.765  1.00  0.00     0.124 S 
ATOM     50  O   UNL A   1      45.436  22.265  40.751  1.00  0.00    -0.237 OA
ATOM     51  O   UNL A   1      46.084  20.462  39.192  1.00  0.00    -0.237 OA
ATOM     52  O   UNL A   1      47.799  21.982  40.099  1.00  0.00    -0.744 OA
ENDBRANCH  48  49
ENDBRANCH  29  43
BRANCH  30  53
ATOM     53  C   UNL A   1      44.922  31.433  28.785  1.00  0.00    -0.014 A 
ATOM     54  C   UNL A   1      45.836  31.401  27.717  1.00  0.00     0.010 A 
ATOM     55  C   UNL A   1      43.896  32.398  28.769  1.00  0.00     0.010 A 
ATOM     56  C   UNL A   1      45.724  32.311  26.657  1.00  0.00     0.020 A 
ATOM     57  C   UNL A   1      43.764  33.290  27.701  1.00  0.00     0.020 A 
ATOM     58  C   UNL A   1      44.684  33.246  26.653  1.00  0.00     0.054 A 
BRANCH  58  59
ATOM     59  S   UNL A   1      44.510  34.367  25.236  1.00  0.00     0.124 S 
ATOM     60  O   UNL A   1      45.723  35.171  25.333  1.00  0.00    -0.237 OA
ATOM     61  O   UNL A   1      44.451  33.442  24.105  1.00  0.00    -0.237 OA
ATOM     62  O   UNL A   1      43.262  35.076  25.512  1.00  0.00    -0.744 OA
ENDBRANCH  58  59
ENDBRANCH  30  53
BRANCH  42  63
ATOM     63  C   UNL A   1      45.917  31.932  35.684  1.00  0.00    -0.014 A 
ATOM     64  C   UNL A   1      44.824  32.716  36.089  1.00  0.00     0.010 A 
ATOM     65  C   UNL A   1      47.199  32.208  36.193  1.00  0.00     0.010 A 
ATOM     66  C   UNL A   1      45.013  33.772  36.980  1.00  0.00     0.020 A 
ATOM     67  C   UNL A   1      47.387  33.249  37.101  1.00  0.00     0.020 A 
ATOM     68  C   UNL A   1      46.294  34.032  37.480  1.00  0.00     0.054 A 
BRANCH  68  69
ATOM     69  S   UNL A   1      46.507  35.370  38.684  1.00  0.00     0.124 S 
ATOM     70  O   UNL A   1      45.883  36.497  37.998  1.00  0.00    -0.237 OA
ATOM     71  O   UNL A   1      45.788  34.869  39.854  1.00  0.00    -0.237 OA
ATOM     72  O   UNL A   1      47.957  35.460  38.845  1.00  0.00    -0.744 OA
ENDBRANCH  68  69
ENDBRANCH  42  63
ENDBRANCH  16  17
ENDBRANCH   9  11
ENDBRANCH   8   9
ENDBRANCH   7   8
ENDBRANCH   6   7
ENDBRANCH   5   6
ENDBRANCH   4   5
ENDBRANCH   3   4
ENDBRANCH   2   3
ENDBRANCH   1   2
BRANCH   1  73
ATOM     73  C   UNL A   1      46.684  23.542  24.959  1.00  0.00     0.188 C 
BRANCH  73  74
ATOM     74  O   UNL A   1      47.129  24.365  23.888  1.00  0.00    -0.376 OA
BRANCH  74  75
ATOM     75  C   UNL A   1      47.520  25.686  24.261  1.00  0.00     0.202 C 
BRANCH  75  76
ATOM     76  C   UNL A   1      46.940  26.137  25.609  1.00  0.00     0.261 C 
BRANCH  76  77
ATOM     77  O   UNL A   1      47.791  26.999  26.379  1.00  0.00    -0.460 OA
BRANCH  77  78
ATOM     78  C   UNL A   1      48.181  26.558  27.590  1.00  0.00     0.338 C 
ATOM     79  O   UNL A   1      48.515  25.424  27.886  1.00  0.00    -0.246 OA
BRANCH  78  80
ATOM     80  C   UNL A   1      48.265  27.699  28.533  1.00  0.00     0.061 A 
ATOM     81  C   UNL A   1      48.460  28.997  28.034  1.00  0.00     0.016 A 
ATOM     82  C   UNL A   1      48.219  27.481  29.903  1.00  0.00     0.038 A 
ATOM     83  C   UNL A   1      48.625  30.070  28.914  1.00  0.00     0.002 A 
ATOM     84  C   UNL A   1      48.606  28.515  30.752  1.00  0.00     0.088 A 
ATOM     85  C   UNL A   1      48.749  29.823  30.279  1.00  0.00     0.022 A 
BRANCH  84  86
ATOM     86  S   UNL A   1      49.152  28.085  32.386  1.00  0.00     0.261 S 
ATOM     87  O   UNL A   1      48.012  28.217  33.269  1.00  0.00    -0.201 OA
ATOM     88  O   UNL A   1      49.898  26.849  32.306  1.00  0.00    -0.201 OA
BRANCH  86  89
ATOM     89  N   UNL A   1      50.187  29.380  32.804  1.00  0.00    -0.278 N 
ATOM     90  H   UNL A   1      50.749  29.809  32.118  1.00  0.00     0.180 HD
BRANCH  89  91
ATOM     91  C   UNL A   1      50.228  29.836  34.174  1.00  0.00     0.072 A 
ATOM     92  C   UNL A   1      50.285  28.870  35.189  1.00  0.00     0.029 A 
ATOM     93  C   UNL A   1      50.386  31.224  34.465  1.00  0.00     0.061 A 
ATOM     94  C   UNL A   1      50.547  29.247  36.505  1.00  0.00     0.002 A 
ATOM     95  C   UNL A   1      50.629  31.563  35.810  1.00  0.00     0.028 A 
ATOM     96  C   UNL A   1      50.723  30.591  36.813  1.00  0.00     0.002 A 
BRANCH  93  97
ATOM     97  N   UNL A   1      50.412  32.195  33.459  1.00  0.00    -0.365 N 
ATOM     98  C   UNL A   1      49.379  33.248  33.453  1.00  0.00     0.145 C 
ATOM     99  C   UNL A   1      51.705  32.732  32.965  1.00  0.00     0.145 C 
ATOM    100  C   UNL A   1      49.241  33.765  32.009  1.00  0.00     0.181 C 
ATOM    101  C   UNL A   1      51.516  33.325  31.558  1.00  0.00     0.181 C 
ATOM    102  O   UNL A   1      50.480  34.320  31.533  1.00  0.00    -0.378 OA
ENDBRANCH  93  97
ENDBRANCH  89  91
ENDBRANCH  86  89
ENDBRANCH  84  86
ENDBRANCH  78  80
ENDBRANCH  77  78
ENDBRANCH  76  77
ENDBRANCH  75  76
ENDBRANCH  74  75
ENDBRANCH  73  74
ENDBRANCH   1  73
TORSDOF 27
ENDMDL
MODEL 2
REMARK VINA RESULT:      -5.3     10.581     17.722
REMARK SMILES O=C(OCCOCCOCCOCCOC(=O)c1cccc(S(=O)(=O)Nc2ccccc2N2CCOCC2)c1)c1ccc(-c2c3nc(c(-c4ccc(S(=O)(=O)[O-])cc4)c4ccc([nH]4)c(-c4ccc(S(=O)(=O)[O-])cc4)c4nc(c(-c5ccc(S(=O)(=O)[O-])cc5)c5ccc2[nH]5)C=C4)C=C3)cc1
REMARK SMILES IDX 10 1 9 2 8 3 7 4 6 5 5 6 4 7 3 8 2 9 1 10 40 11 41 12 99 13
REMARK SMILES IDX 42 14 98 15 43 16 44 17 45 18 92 19 46 20 97 21 91 22 93 23
REMARK SMILES IDX 47 24 96 25 90 26 89 27 48 29 78 30 59 31 77 32 60 33 63 34
REMARK SMILES IDX 76 35 94 36 61 37 62 38 75 40 95 41 64 42 49 43 50 44 58 45
REMARK SMILES IDX 51 46 57 47 52 48 53 49 54 50 55 51 56 52 79 53 80 54 88 55
REMARK SMILES IDX 81 56 87 57 82 58 83 59 84 60 85 61 86 62 65 63 66 64 74 65
REMARK SMILES IDX 67 66 73 67 68 68 69 69 70 70 71 71 72 72 11 73 12 74 13 75
REMARK SMILES IDX 14 76 15 77 16 78 17 79 18 80 19 81 39 82 20 83 22 84 21 85
REMARK SMILES IDX 23 86 24 87 25 88 26 89 27 91 28 92 32 93 29 94 31 95 30 96
REMARK SMILES IDX 33 97 34 98 38 99 35 100 37 101 36 102
REMARK H PARENT 93 28 63 39 26 90
REMARK Flexibility Score: inf
ROOT
ATOM      1  C   UNL A   1      39.786  33.151  32.028  1.00  0.00     0.188 C 
ENDROOT
BRANCH   1   2
ATOM      2  O   UNL A   1      39.269  33.121  33.353  1.00  0.00    -0.377 OA
BRANCH   2   3
ATOM      3  C   UNL A   1      39.794  32.097  34.203  1.00  0.00     0.188 C 
BRANCH   3   4
ATOM      4  C   UNL A   1      40.382  32.623  35.515  1.00  0.00     0.188 C 
BRANCH   4   5
ATOM      5  O   UNL A   1      39.430  33.488  36.138  1.00  0.00    -0.376 OA
BRANCH   5   6
ATOM      6  C   UNL A   1      38.280  32.852  36.693  1.00  0.00     0.202 C 
BRANCH   6   7
ATOM      7  C   UNL A   1      37.731  33.597  37.904  1.00  0.00     0.261 C 
BRANCH   7   8
ATOM      8  O   UNL A   1      38.592  33.447  39.040  1.00  0.00    -0.460 OA
BRANCH   8   9
ATOM      9  C   UNL A   1      38.612  34.230  40.149  1.00  0.00     0.338 C 
ATOM     10  O   UNL A   1      38.148  33.776  41.195  1.00  0.00    -0.246 OA
BRANCH   9  11
ATOM     11  C   UNL A   1      39.256  35.580  40.202  1.00  0.00     0.060 A 
ATOM     12  C   UNL A   1      39.119  36.595  39.250  1.00  0.00     0.016 A 
ATOM     13  C   UNL A   1      40.012  35.858  41.353  1.00  0.00     0.016 A 
ATOM     14  C   UNL A   1      39.782  37.809  39.379  1.00  0.00     0.010 A 
ATOM     15  C   UNL A   1      40.666  37.083  41.504  1.00  0.00     0.010 A 
ATOM     16  C   UNL A   1      40.586  38.042  40.490  1.00  0.00    -0.014 A 
BRANCH  16  17
ATOM     17  C   UNL A   1      41.512  39.189  40.448  1.00  0.00     0.031 A 
ATOM     18  C   UNL A   1      41.032  40.477  41.052  1.00  0.00     0.074 A 
ATOM     19  C   UNL A   1      42.775  39.039  40.016  1.00  0.00     0.049 A 
ATOM     20  N   UNL A   1      41.610  41.645  41.082  1.00  0.00    -0.248 NA
ATOM     21  C   UNL A   1      39.722  40.433  41.727  1.00  0.00     0.031 C 
ATOM     22  C   UNL A   1      43.370  37.779  39.565  1.00  0.00     0.029 A 
ATOM     23  N   UNL A   1      43.796  39.945  39.919  1.00  0.00    -0.354 N 
ATOM     24  C   UNL A   1      40.717  42.483  41.741  1.00  0.00     0.074 A 
ATOM     25  C   UNL A   1      39.565  41.692  42.101  1.00  0.00     0.031 C 
ATOM     26  C   UNL A   1      44.663  37.989  39.265  1.00  0.00     0.029 A 
ATOM     27  C   UNL A   1      44.964  39.408  39.432  1.00  0.00     0.049 A 
ATOM     28  H   UNL A   1      43.704  40.891  40.175  1.00  0.00     0.167 HD
ATOM     29  C   UNL A   1      40.846  43.805  42.000  1.00  0.00     0.031 A 
ATOM     30  C   UNL A   1      46.127  40.013  39.126  1.00  0.00     0.031 A 
ATOM     31  C   UNL A   1      41.997  44.565  41.604  1.00  0.00     0.049 A 
ATOM     32  C   UNL A   1      46.213  41.504  39.322  1.00  0.00     0.074 A 
ATOM     33  C   UNL A   1      42.220  45.923  41.705  1.00  0.00     0.029 A 
ATOM     34  N   UNL A   1      43.131  44.007  41.026  1.00  0.00    -0.354 N 
ATOM     35  N   UNL A   1      45.320  42.317  39.842  1.00  0.00    -0.248 NA
ATOM     36  C   UNL A   1      47.442  42.166  38.869  1.00  0.00     0.031 C 
ATOM     37  C   UNL A   1      43.478  46.191  41.150  1.00  0.00     0.029 A 
ATOM     38  C   UNL A   1      44.055  44.994  40.750  1.00  0.00     0.049 A 
ATOM     39  H   UNL A   1      43.257  43.048  40.841  1.00  0.00     0.167 HD
ATOM     40  C   UNL A   1      45.879  43.587  39.781  1.00  0.00     0.074 A 
ATOM     41  C   UNL A   1      47.198  43.428  39.194  1.00  0.00     0.031 C 
ATOM     42  C   UNL A   1      45.355  44.780  40.162  1.00  0.00     0.031 A 
BRANCH  29  43
ATOM     43  C   UNL A   1      39.664  44.484  42.634  1.00  0.00    -0.014 A 
ATOM     44  C   UNL A   1      39.504  44.533  44.032  1.00  0.00     0.010 A 
ATOM     45  C   UNL A   1      38.646  44.997  41.811  1.00  0.00     0.010 A 
ATOM     46  C   UNL A   1      38.319  45.024  44.590  1.00  0.00     0.020 A 
ATOM     47  C   UNL A   1      37.470  45.509  42.366  1.00  0.00     0.020 A 
ATOM     48  C   UNL A   1      37.303  45.492  43.753  1.00  0.00     0.054 A 
BRANCH  48  49
ATOM     49  S   UNL A   1      35.751  46.070  44.495  1.00  0.00     0.124 S 
ATOM     50  O   UNL A   1      36.228  46.737  45.704  1.00  0.00    -0.237 OA
ATOM     51  O   UNL A   1      35.210  46.953  43.464  1.00  0.00    -0.237 OA
ATOM     52  O   UNL A   1      34.994  44.841  44.717  1.00  0.00    -0.744 OA
ENDBRANCH  48  49
ENDBRANCH  29  43
BRANCH  30  53
ATOM     53  C   UNL A   1      47.256  39.228  38.550  1.00  0.00    -0.014 A 
ATOM     54  C   UNL A   1      47.374  39.037  37.162  1.00  0.00     0.010 A 
ATOM     55  C   UNL A   1      48.245  38.687  39.394  1.00  0.00     0.010 A 
ATOM     56  C   UNL A   1      48.457  38.324  36.631  1.00  0.00     0.020 A 
ATOM     57  C   UNL A   1      49.342  37.998  38.868  1.00  0.00     0.020 A 
ATOM     58  C   UNL A   1      49.438  37.815  37.488  1.00  0.00     0.054 A 
BRANCH  58  59
ATOM     59  S   UNL A   1      50.873  36.960  36.778  1.00  0.00     0.124 S 
ATOM     60  O   UNL A   1      51.782  38.067  36.504  1.00  0.00    -0.237 OA
ATOM     61  O   UNL A   1      51.276  36.062  37.859  1.00  0.00    -0.237 OA
ATOM     62  O   UNL A   1      50.324  36.291  35.600  1.00  0.00    -0.744 OA
ENDBRANCH  58  59
ENDBRANCH  30  53
BRANCH  42  63
ATOM     63  C   UNL A   1      46.219  45.991  39.972  1.00  0.00    -0.014 A 
ATOM     64  C   UNL A   1      47.193  46.337  40.923  1.00  0.00     0.010 A 
ATOM     65  C   UNL A   1      46.103  46.742  38.789  1.00  0.00     0.010 A 
ATOM     66  C   UNL A   1      48.029  47.431  40.701  1.00  0.00     0.020 A 
ATOM     67  C   UNL A   1      46.953  47.822  38.553  1.00  0.00     0.020 A 
ATOM     68  C   UNL A   1      47.903  48.167  39.517  1.00  0.00     0.054 A 
BRANCH  68  69
ATOM     69  S   UNL A   1      49.041  49.546  39.219  1.00  0.00     0.124 S 
ATOM     70  O   UNL A   1      49.943  49.446  40.363  1.00  0.00    -0.237 OA
ATOM     71  O   UNL A   1      49.627  49.208  37.924  1.00  0.00    -0.237 OA
ATOM     72  O   UNL A   1      48.167  50.718  39.213  1.00  0.00    -0.744 OA
ENDBRANCH  68  69
ENDBRANCH  42  63
ENDBRANCH  16  17
ENDBRANCH   9  11
ENDBRANCH   8   9
ENDBRANCH   7   8
ENDBRANCH   6   7
ENDBRANCH   5   6
ENDBRANCH   4   5
ENDBRANCH   3   4
ENDBRANCH   2   3
ENDBRANCH   1   2
BRANCH   1  73
ATOM     73  C   UNL A   1      39.880  31.833  31.229  1.00  0.00     0.188 C 
BRANCH  73  74
ATOM     74  O   UNL A   1      38.658  31.120  31.081  1.00  0.00    -0.376 OA
BRANCH  74  75
ATOM     75  C   UNL A   1      38.792  29.704  30.969  1.00  0.00     0.202 C 
BRANCH  75  76
ATOM     76  C   UNL A   1      37.492  28.997  30.559  1.00  0.00     0.261 C 
BRANCH  76  77
ATOM     77  O   UNL A   1      37.425  28.597  29.182  1.00  0.00    -0.460 OA
BRANCH  77  78
ATOM     78  C   UNL A   1      37.706  29.534  28.255  1.00  0.00     0.338 C 
ATOM     79  O   UNL A   1      38.766  29.699  27.677  1.00  0.00    -0.246 OA
BRANCH  78  80
ATOM     80  C   UNL A   1      36.478  30.298  27.931  1.00  0.00     0.061 A 
ATOM     81  C   UNL A   1      36.344  31.620  28.386  1.00  0.00     0.016 A 
ATOM     82  C   UNL A   1      35.437  29.693  27.240  1.00  0.00     0.038 A 
ATOM     83  C   UNL A   1      35.158  32.323  28.161  1.00  0.00     0.002 A 
ATOM     84  C   UNL A   1      34.197  30.325  27.223  1.00  0.00     0.088 A 
ATOM     85  C   UNL A   1      34.059  31.659  27.621  1.00  0.00     0.022 A 
BRANCH  84  86
ATOM     86  S   UNL A   1      32.760  29.324  26.924  1.00  0.00     0.261 S 
ATOM     87  O   UNL A   1      33.039  28.004  27.449  1.00  0.00    -0.201 OA
ATOM     88  O   UNL A   1      31.592  30.067  27.346  1.00  0.00    -0.201 OA
BRANCH  86  89
ATOM     89  N   UNL A   1      32.764  29.136  25.225  1.00  0.00    -0.278 N 
ATOM     90  H   UNL A   1      33.599  29.246  24.714  1.00  0.00     0.180 HD
BRANCH  89  91
ATOM     91  C   UNL A   1      31.529  28.813  24.549  1.00  0.00     0.072 A 
ATOM     92  C   UNL A   1      30.696  29.871  24.156  1.00  0.00     0.029 A 
ATOM     93  C   UNL A   1      31.261  27.472  24.141  1.00  0.00     0.061 A 
ATOM     94  C   UNL A   1      29.611  29.636  23.313  1.00  0.00     0.002 A 
ATOM     95  C   UNL A   1      30.145  27.276  23.307  1.00  0.00     0.028 A 
ATOM     96  C   UNL A   1      29.340  28.342  22.886  1.00  0.00     0.002 A 
BRANCH  93  97
ATOM     97  N   UNL A   1      32.122  26.415  24.456  1.00  0.00    -0.365 N 
ATOM     98  C   UNL A   1      31.719  25.449  25.494  1.00  0.00     0.145 C 
ATOM     99  C   UNL A   1      32.904  25.738  23.390  1.00  0.00     0.145 C 
ATOM    100  C   UNL A   1      32.999  24.816  26.072  1.00  0.00     0.181 C 
ATOM    101  C   UNL A   1      34.125  25.037  24.009  1.00  0.00     0.181 C 
ATOM    102  O   UNL A   1      33.746  24.126  25.054  1.00  0.00    -0.378 OA
ENDBRANCH  93  97
ENDBRANCH  89  91
ENDBRANCH  86  89
ENDBRANCH  84  86
ENDBRANCH  78  80
ENDBRANCH  77  78
ENDBRANCH  76  77
ENDBRANCH  75  76
ENDBRANCH  74  75
ENDBRANCH  73  74
ENDBRANCH   1  73
TORSDOF 27
ENDMDL
MODEL 3
REMARK VINA RESULT:      -5.3      5.777     11.992
REMARK SMILES O=C(OCCOCCOCCOCCOC(=O)c1cccc(S(=O)(=O)Nc2ccccc2N2CCOCC2)c1)c1ccc(-c2c3nc(c(-c4ccc(S(=O)(=O)[O-])cc4)c4ccc([nH]4)c(-c4ccc(S(=O)(=O)[O-])cc4)c4nc(c(-c5ccc(S(=O)(=O)[O-])cc5)c5ccc2[nH]5)C=C4)C=C3)cc1
REMARK SMILES IDX 10 1 9 2 8 3 7 4 6 5 5 6 4 7 3 8 2 9 1 10 40 11 41 12 99 13
REMARK SMILES IDX 42 14 98 15 43 16 44 17 45 18 92 19 46 20 97 21 91 22 93 23
REMARK SMILES IDX 47 24 96 25 90 26 89 27 48 29 78 30 59 31 77 32 60 33 63 34
REMARK SMILES IDX 76 35 94 36 61 37 62 38 75 40 95 41 64 42 49 43 50 44 58 45
REMARK SMILES IDX 51 46 57 47 52 48 53 49 54 50 55 51 56 52 79 53 80 54 88 55
REMARK SMILES IDX 81 56 87 57 82 58 83 59 84 60 85 61 86 62 65 63 66 64 74 65
REMARK SMILES IDX 67 66 73 67 68 68 69 69 70 70 71 71 72 72 11 73 12 74 13 75
REMARK SMILES IDX 14 76 15 77 16 78 17 79 18 80 19 81 39 82 20 83 22 84 21 85
REMARK SMILES IDX 23 86 24 87 25 88 26 89 27 91 28 92 32 93 29 94 31 95 30 96
REMARK SMILES IDX 33 97 34 98 38 99 35 100 37 101 36 102
REMARK H PARENT 93 28 63 39 26 90
REMARK Flexibility Score: inf
ROOT
ATOM      1  C   UNL A   1      47.138  27.135  29.702  1.00  0.00     0.188 C 
ENDROOT
BRANCH   1   2
ATOM      2  O   UNL A   1      47.171  26.473  30.961  1.00  0.00    -0.377 OA
BRANCH   2   3
ATOM      3  C   UNL A   1      46.317  27.015  31.973  1.00  0.00     0.188 C 
BRANCH   3   4
ATOM      4  C   UNL A   1      44.980  26.282  32.111  1.00  0.00     0.188 C 
BRANCH   4   5
ATOM      5  O   UNL A   1      44.727  26.033  33.495  1.00  0.00    -0.376 OA
BRANCH   5   6
ATOM      6  C   UNL A   1      44.084  24.796  33.799  1.00  0.00     0.202 C 
BRANCH   6   7
ATOM      7  C   UNL A   1      43.287  24.858  35.096  1.00  0.00     0.261 C 
BRANCH   7   8
ATOM      8  O   UNL A   1      42.107  25.659  34.944  1.00  0.00    -0.460 OA
BRANCH   8   9
ATOM      9  C   UNL A   1      41.748  26.722  35.708  1.00  0.00     0.338 C 
ATOM     10  O   UNL A   1      41.136  26.512  36.755  1.00  0.00    -0.246 OA
BRANCH   9  11
ATOM     11  C   UNL A   1      42.141  28.134  35.405  1.00  0.00     0.060 A 
ATOM     12  C   UNL A   1      43.446  28.635  35.367  1.00  0.00     0.016 A 
ATOM     13  C   UNL A   1      41.093  29.007  35.066  1.00  0.00     0.016 A 
ATOM     14  C   UNL A   1      43.704  29.974  35.099  1.00  0.00     0.010 A 
ATOM     15  C   UNL A   1      41.342  30.350  34.774  1.00  0.00     0.010 A 
ATOM     16  C   UNL A   1      42.650  30.843  34.837  1.00  0.00    -0.014 A 
BRANCH  16  17
ATOM     17  C   UNL A   1      42.920  32.291  34.870  1.00  0.00     0.031 A 
ATOM     18  C   UNL A   1      43.123  32.979  33.551  1.00  0.00     0.074 A 
ATOM     19  C   UNL A   1      42.844  32.980  36.021  1.00  0.00     0.049 A 
ATOM     20  N   UNL A   1      43.444  34.218  33.301  1.00  0.00    -0.248 NA
ATOM     21  C   UNL A   1      42.920  32.153  32.346  1.00  0.00     0.031 C 
ATOM     22  C   UNL A   1      42.490  32.412  37.324  1.00  0.00     0.029 A 
ATOM     23  N   UNL A   1      43.025  34.313  36.274  1.00  0.00    -0.354 N 
ATOM     24  C   UNL A   1      43.523  34.308  31.916  1.00  0.00     0.074 A 
ATOM     25  C   UNL A   1      43.209  33.006  31.378  1.00  0.00     0.031 C 
ATOM     26  C   UNL A   1      42.453  33.399  38.235  1.00  0.00     0.029 A 
ATOM     27  C   UNL A   1      42.852  34.650  37.596  1.00  0.00     0.049 A 
ATOM     28  H   UNL A   1      43.256  34.968  35.576  1.00  0.00     0.167 HD
ATOM     29  C   UNL A   1      43.852  35.384  31.165  1.00  0.00     0.031 A 
ATOM     30  C   UNL A   1      43.034  35.833  38.212  1.00  0.00     0.031 A 
ATOM     31  C   UNL A   1      44.182  36.658  31.738  1.00  0.00     0.049 A 
ATOM     32  C   UNL A   1      43.504  36.994  37.375  1.00  0.00     0.074 A 
ATOM     33  C   UNL A   1      44.634  37.803  31.112  1.00  0.00     0.029 A 
ATOM     34  N   UNL A   1      44.087  36.945  33.094  1.00  0.00    -0.354 N 
ATOM     35  N   UNL A   1      43.690  37.047  36.075  1.00  0.00    -0.248 NA
ATOM     36  C   UNL A   1      43.816  38.241  38.081  1.00  0.00     0.031 C 
ATOM     37  C   UNL A   1      44.850  38.772  32.100  1.00  0.00     0.029 A 
ATOM     38  C   UNL A   1      44.485  38.245  33.332  1.00  0.00     0.049 A 
ATOM     39  H   UNL A   1      43.781  36.313  33.785  1.00  0.00     0.167 HD
ATOM     40  C   UNL A   1      44.139  38.332  35.805  1.00  0.00     0.074 A 
ATOM     41  C   UNL A   1      44.174  39.031  37.078  1.00  0.00     0.031 C 
ATOM     42  C   UNL A   1      44.502  38.890  34.622  1.00  0.00     0.031 A 
BRANCH  29  43
ATOM     43  C   UNL A   1      43.968  35.160  29.683  1.00  0.00    -0.014 A 
ATOM     44  C   UNL A   1      42.865  35.325  28.825  1.00  0.00     0.010 A 
ATOM     45  C   UNL A   1      45.181  34.682  29.155  1.00  0.00     0.010 A 
ATOM     46  C   UNL A   1      42.955  34.953  27.479  1.00  0.00     0.020 A 
ATOM     47  C   UNL A   1      45.282  34.331  27.806  1.00  0.00     0.020 A 
ATOM     48  C   UNL A   1      44.158  34.441  26.983  1.00  0.00     0.054 A 
BRANCH  48  49
ATOM     49  S   UNL A   1      44.238  33.911  25.250  1.00  0.00     0.124 S 
ATOM     50  O   UNL A   1      44.242  32.456  25.382  1.00  0.00    -0.237 OA
ATOM     51  O   UNL A   1      43.022  34.485  24.680  1.00  0.00    -0.237 OA
ATOM     52  O   UNL A   1      45.486  34.497  24.765  1.00  0.00    -0.744 OA
ENDBRANCH  48  49
ENDBRANCH  29  43
BRANCH  30  53
ATOM     53  C   UNL A   1      42.838  35.953  39.685  1.00  0.00    -0.014 A 
ATOM     54  C   UNL A   1      41.593  36.318  40.225  1.00  0.00     0.010 A 
ATOM     55  C   UNL A   1      43.900  35.669  40.566  1.00  0.00     0.010 A 
ATOM     56  C   UNL A   1      41.414  36.395  41.613  1.00  0.00     0.020 A 
ATOM     57  C   UNL A   1      43.719  35.718  41.950  1.00  0.00     0.020 A 
ATOM     58  C   UNL A   1      42.477  36.088  42.467  1.00  0.00     0.054 A 
BRANCH  58  59
ATOM     59  S   UNL A   1      42.206  36.119  44.261  1.00  0.00     0.124 S 
ATOM     60  O   UNL A   1      43.478  35.618  44.770  1.00  0.00    -0.237 OA
ATOM     61  O   UNL A   1      41.934  37.532  44.517  1.00  0.00    -0.237 OA
ATOM     62  O   UNL A   1      41.060  35.231  44.449  1.00  0.00    -0.744 OA
ENDBRANCH  58  59
ENDBRANCH  30  53
BRANCH  42  63
ATOM     63  C   UNL A   1      44.944  40.323  34.655  1.00  0.00    -0.014 A 
ATOM     64  C   UNL A   1      44.005  41.367  34.623  1.00  0.00     0.010 A 
ATOM     65  C   UNL A   1      46.311  40.620  34.799  1.00  0.00     0.010 A 
ATOM     66  C   UNL A   1      44.429  42.693  34.717  1.00  0.00     0.020 A 
ATOM     67  C   UNL A   1      46.736  41.943  34.916  1.00  0.00     0.020 A 
ATOM     68  C   UNL A   1      45.793  42.972  34.863  1.00  0.00     0.054 A 
BRANCH  68  69
ATOM     69  S   UNL A   1      46.318  44.697  35.046  1.00  0.00     0.124 S 
ATOM     70  O   UNL A   1      47.606  44.696  34.359  1.00  0.00    -0.237 OA
ATOM     71  O   UNL A   1      45.247  45.433  34.376  1.00  0.00    -0.237 OA
ATOM     72  O   UNL A   1      46.382  44.885  36.494  1.00  0.00    -0.744 OA
ENDBRANCH  68  69
ENDBRANCH  42  63
ENDBRANCH  16  17
ENDBRANCH   9  11
ENDBRANCH   8   9
ENDBRANCH   7   8
ENDBRANCH   6   7
ENDBRANCH   5   6
ENDBRANCH   4   5
ENDBRANCH   3   4
ENDBRANCH   2   3
ENDBRANCH   1   2
BRANCH   1  73
ATOM     73  C   UNL A   1      47.446  26.327  28.422  1.00  0.00     0.188 C 
BRANCH  73  74
ATOM     74  O   UNL A   1      46.351  26.158  27.529  1.00  0.00    -0.376 OA
BRANCH  74  75
ATOM     75  C   UNL A   1      45.081  26.549  28.047  1.00  0.00     0.202 C 
BRANCH  75  76
ATOM     76  C   UNL A   1      44.456  27.738  27.303  1.00  0.00     0.261 C 
BRANCH  76  77
ATOM     77  O   UNL A   1      43.565  28.545  28.086  1.00  0.00    -0.460 OA
BRANCH  77  78
ATOM     78  C   UNL A   1      42.511  29.094  27.450  1.00  0.00     0.338 C 
ATOM     79  O   UNL A   1      42.517  29.651  26.367  1.00  0.00    -0.246 OA
BRANCH  78  80
ATOM     80  C   UNL A   1      41.271  28.823  28.215  1.00  0.00     0.061 A 
ATOM     81  C   UNL A   1      40.486  27.704  27.890  1.00  0.00     0.016 A 
ATOM     82  C   UNL A   1      40.848  29.702  29.202  1.00  0.00     0.038 A 
ATOM     83  C   UNL A   1      39.273  27.483  28.544  1.00  0.00     0.002 A 
ATOM     84  C   UNL A   1      39.544  29.589  29.678  1.00  0.00     0.088 A 
ATOM     85  C   UNL A   1      38.772  28.455  29.408  1.00  0.00     0.022 A 
BRANCH  84  86
ATOM     86  S   UNL A   1      38.805  31.023  30.421  1.00  0.00     0.261 S 
ATOM     87  O   UNL A   1      39.275  31.088  31.789  1.00  0.00    -0.201 OA
ATOM     88  O   UNL A   1      38.972  32.140  29.518  1.00  0.00    -0.201 OA
BRANCH  86  89
ATOM     89  N   UNL A   1      37.155  30.593  30.539  1.00  0.00    -0.278 N 
ATOM     90  H   UNL A   1      36.856  29.949  31.222  1.00  0.00     0.180 HD
BRANCH  89  91
ATOM     91  C   UNL A   1      36.206  31.185  29.626  1.00  0.00     0.072 A 
ATOM     92  C   UNL A   1      35.944  30.516  28.420  1.00  0.00     0.029 A 
ATOM     93  C   UNL A   1      35.433  32.316  30.024  1.00  0.00     0.061 A 
ATOM     94  C   UNL A   1      34.886  30.918  27.608  1.00  0.00     0.002 A 
ATOM     95  C   UNL A   1      34.386  32.701  29.165  1.00  0.00     0.028 A 
ATOM     96  C   UNL A   1      34.107  32.006  27.983  1.00  0.00     0.002 A 
BRANCH  93  97
ATOM     97  N   UNL A   1      35.625  32.949  31.257  1.00  0.00    -0.365 N 
ATOM     98  C   UNL A   1      35.433  32.174  32.497  1.00  0.00     0.145 C 
ATOM     99  C   UNL A   1      36.712  33.946  31.429  1.00  0.00     0.145 C 
ATOM    100  C   UNL A   1      35.092  33.166  33.625  1.00  0.00     0.181 C 
ATOM    101  C   UNL A   1      36.388  34.864  32.621  1.00  0.00     0.181 C 
ATOM    102  O   UNL A   1      36.155  34.115  33.824  1.00  0.00    -0.378 OA
ENDBRANCH  93  97
ENDBRANCH  89  91
ENDBRANCH  86  89
ENDBRANCH  84  86
ENDBRANCH  78  80
ENDBRANCH  77  78
ENDBRANCH  76  77
ENDBRANCH  75  76
ENDBRANCH  74  75
ENDBRANCH  73  74
ENDBRANCH   1  73
TORSDOF 27
ENDMDL
