MODEL 1
REMARK VINA RESULT:      -8.9      0.000      0.000
REMARK SMILES Cc1c(Cl)ccc2c(OCC(=O)OCCOCCOCCOCCOC(=O)c3ccc(-c4c5nc(c(-c6ccc(S(=O)(=O)[O-])cc6)c6ccc([nH]6)c(-c6ccc(S(=O)(=O)[O-])cc6)c6nc(c(-c7ccc(S(=O)(=O)[O-])cc7)c7ccc4[nH]7)C=C6)C=C5)cc3)ccnc12
REMARK SMILES IDX 20 1 19 2 18 3 17 4 16 5 15 6 14 7 13 8 11 9 12 10 10 11
REMARK SMILES IDX 9 12 8 13 1 14 2 15 3 16 91 17 4 18 5 19 7 20 90 21 6 22
REMARK SMILES IDX 89 23 88 24 21 25 22 26 23 27 24 28 25 29 26 30 27 31 28 32
REMARK SMILES IDX 29 33 87 34 30 35 86 36 31 37 32 38 33 39 80 40 34 41 85 42
REMARK SMILES IDX 79 43 81 44 35 45 84 46 78 47 77 48 36 50 66 51 47 52 65 53
REMARK SMILES IDX 48 54 51 55 64 56 82 57 49 58 50 59 63 61 83 62 52 63 37 64
REMARK SMILES IDX 38 65 46 66 39 67 45 68 40 69 41 70 42 71 43 72 44 73 67 74
REMARK SMILES IDX 68 75 76 76 69 77 75 78 70 79 71 80 72 81 73 82 74 83 53 84
REMARK SMILES IDX 54 85 62 86 55 87 61 88 56 89 57 90 58 91 59 92 60 93
REMARK H PARENT 81 49 51 60
REMARK Flexibility Score: inf
ROOT
ATOM      1  C   UNL A   1      34.521  34.681  30.812  1.00  0.00     0.188 C 
ENDROOT
BRANCH   1   2
ATOM      2  O   UNL A   1      33.836  33.500  30.451  1.00  0.00    -0.377 OA
BRANCH   2   3
ATOM      3  C   UNL A   1      34.599  32.561  29.724  1.00  0.00     0.188 C 
BRANCH   3   4
ATOM      4  C   UNL A   1      34.406  32.661  28.196  1.00  0.00     0.188 C 
BRANCH   4   5
ATOM      5  O   UNL A   1      33.276  32.085  27.547  1.00  0.00    -0.376 OA
BRANCH   5   6
ATOM      6  C   UNL A   1      33.256  30.692  27.284  1.00  0.00     0.202 C 
BRANCH   6   7
ATOM      7  C   UNL A   1      32.246  30.136  26.259  1.00  0.00     0.261 C 
BRANCH   7   8
ATOM      8  O   UNL A   1      32.741  29.814  24.942  1.00  0.00    -0.461 OA
BRANCH   8   9
ATOM      9  C   UNL A   1      33.638  28.800  24.848  1.00  0.00     0.344 C 
ATOM     10  O   UNL A   1      34.396  28.460  25.752  1.00  0.00    -0.248 OA
BRANCH   9  11
ATOM     11  C   UNL A   1      33.667  28.120  23.458  1.00  0.00     0.352 C 
BRANCH  11  12
ATOM     12  O   UNL A   1      32.922  26.960  23.116  1.00  0.00    -0.481 OA
BRANCH  12  13
ATOM     13  C   UNL A   1      31.852  26.529  23.868  1.00  0.00     0.131 A 
ATOM     14  C   UNL A   1      30.143  22.949  26.865  1.00  0.00     0.048 C 
ATOM     15  C   UNL A   1      31.283  23.786  26.330  1.00  0.00    -0.006 A 
ATOM     16  C   UNL A   1      32.604  23.467  26.688  1.00  0.00     0.046 A 
ATOM     17  C   UNL A   1      31.033  24.857  25.451  1.00  0.00     0.078 A 
ATOM     18  Cl  UNL A   1      32.965  22.207  27.817  1.00  0.00    -0.084 Cl
ATOM     19  C   UNL A   1      33.674  24.163  26.139  1.00  0.00     0.022 A 
ATOM     20  C   UNL A   1      32.124  25.523  24.836  1.00  0.00     0.043 A 
ATOM     21  N   UNL A   1      29.766  25.226  25.187  1.00  0.00    -0.256 NA
ATOM     22  C   UNL A   1      33.437  25.161  25.199  1.00  0.00     0.016 A 
ATOM     23  C   UNL A   1      29.545  26.255  24.343  1.00  0.00     0.115 A 
ATOM     24  C   UNL A   1      30.541  26.935  23.670  1.00  0.00     0.067 A 
ENDBRANCH  12  13
ENDBRANCH  11  12
ENDBRANCH   9  11
ENDBRANCH   8   9
ENDBRANCH   7   8
ENDBRANCH   6   7
ENDBRANCH   5   6
ENDBRANCH   4   5
ENDBRANCH   3   4
ENDBRANCH   2   3
ENDBRANCH   1   2
BRANCH   1  25
ATOM     25  C   UNL A   1      35.023  34.765  32.262  1.00  0.00     0.188 C 
BRANCH  25  26
ATOM     26  O   UNL A   1      36.427  34.539  32.392  1.00  0.00    -0.376 OA
BRANCH  26  27
ATOM     27  C   UNL A   1      36.837  33.291  32.937  1.00  0.00     0.202 C 
BRANCH  27  28
ATOM     28  C   UNL A   1      37.247  32.239  31.901  1.00  0.00     0.261 C 
BRANCH  28  29
ATOM     29  O   UNL A   1      37.197  30.878  32.348  1.00  0.00    -0.460 OA
BRANCH  29  30
ATOM     30  C   UNL A   1      37.234  29.915  31.401  1.00  0.00     0.338 C 
ATOM     31  O   UNL A   1      36.286  29.343  30.894  1.00  0.00    -0.246 OA
BRANCH  30  32
ATOM     32  C   UNL A   1      38.631  29.844  30.930  1.00  0.00     0.060 A 
ATOM     33  C   UNL A   1      38.877  30.003  29.562  1.00  0.00     0.016 A 
ATOM     34  C   UNL A   1      39.687  29.719  31.837  1.00  0.00     0.016 A 
ATOM     35  C   UNL A   1      40.189  30.057  29.098  1.00  0.00     0.010 A 
ATOM     36  C   UNL A   1      41.003  29.710  31.364  1.00  0.00     0.010 A 
ATOM     37  C   UNL A   1      41.253  29.858  29.990  1.00  0.00    -0.014 A 
BRANCH  37  38
ATOM     38  C   UNL A   1      42.569  29.496  29.418  1.00  0.00     0.031 A 
ATOM     39  C   UNL A   1      42.705  28.095  28.886  1.00  0.00     0.074 A 
ATOM     40  C   UNL A   1      43.575  30.380  29.301  1.00  0.00     0.049 A 
ATOM     41  N   UNL A   1      43.686  27.559  28.213  1.00  0.00    -0.248 NA
ATOM     42  C   UNL A   1      41.566  27.183  29.120  1.00  0.00     0.031 C 
ATOM     43  C   UNL A   1      43.541  31.776  29.734  1.00  0.00     0.029 A 
ATOM     44  N   UNL A   1      44.826  30.229  28.754  1.00  0.00    -0.354 N 
ATOM     45  C   UNL A   1      43.272  26.267  27.921  1.00  0.00     0.074 A 
ATOM     46  C   UNL A   1      41.965  26.083  28.503  1.00  0.00     0.031 C 
ATOM     47  C   UNL A   1      44.714  32.358  29.423  1.00  0.00     0.029 A 
ATOM     48  C   UNL A   1      45.586  31.375  28.782  1.00  0.00     0.049 A 
ATOM     49  H   UNL A   1      45.149  29.380  28.376  1.00  0.00     0.167 HD
ATOM     50  C   UNL A   1      43.922  25.315  27.220  1.00  0.00     0.031 A 
ATOM     51  C   UNL A   1      46.840  31.598  28.333  1.00  0.00     0.031 A 
ATOM     52  C   UNL A   1      45.235  25.484  26.674  1.00  0.00     0.049 A 
ATOM     53  C   UNL A   1      47.593  30.476  27.662  1.00  0.00     0.074 A 
ATOM     54  C   UNL A   1      45.979  24.575  25.944  1.00  0.00     0.029 A 
ATOM     55  N   UNL A   1      46.006  26.624  26.819  1.00  0.00    -0.354 N 
ATOM     56  N   UNL A   1      47.168  29.274  27.348  1.00  0.00    -0.248 NA
ATOM     57  C   UNL A   1      48.993  30.734  27.287  1.00  0.00     0.031 C 
ATOM     58  C   UNL A   1      47.228  25.147  25.697  1.00  0.00     0.029 A 
ATOM     59  C   UNL A   1      47.239  26.429  26.228  1.00  0.00     0.049 A 
ATOM     60  H   UNL A   1      45.719  27.449  27.273  1.00  0.00     0.167 HD
ATOM     61  C   UNL A   1      48.239  28.644  26.724  1.00  0.00     0.074 A 
ATOM     62  C   UNL A   1      49.332  29.593  26.699  1.00  0.00     0.031 C 
ATOM     63  C   UNL A   1      48.310  27.391  26.212  1.00  0.00     0.031 A 
BRANCH  50  64
ATOM     64  C   UNL A   1      43.239  23.996  27.026  1.00  0.00    -0.014 A 
ATOM     65  C   UNL A   1      43.340  22.988  28.000  1.00  0.00     0.010 A 
ATOM     66  C   UNL A   1      42.420  23.796  25.901  1.00  0.00     0.010 A 
ATOM     67  C   UNL A   1      42.622  21.800  27.855  1.00  0.00     0.020 A 
ATOM     68  C   UNL A   1      41.689  22.616  25.761  1.00  0.00     0.020 A 
ATOM     69  C   UNL A   1      41.791  21.628  26.743  1.00  0.00     0.054 A 
BRANCH  69  70
ATOM     70  S   UNL A   1      40.821  20.101  26.620  1.00  0.00     0.124 S 
ATOM     71  O   UNL A   1      40.749  19.671  28.015  1.00  0.00    -0.237 OA
ATOM     72  O   UNL A   1      39.566  20.575  26.043  1.00  0.00    -0.237 OA
ATOM     73  O   UNL A   1      41.624  19.246  25.751  1.00  0.00    -0.744 OA
ENDBRANCH  69  70
ENDBRANCH  50  64
BRANCH  51  74
ATOM     74  C   UNL A   1      47.471  32.936  28.500  1.00  0.00    -0.014 A 
ATOM     75  C   UNL A   1      47.363  33.910  27.492  1.00  0.00     0.010 A 
ATOM     76  C   UNL A   1      48.192  33.243  29.669  1.00  0.00     0.010 A 
ATOM     77  C   UNL A   1      47.966  35.162  27.646  1.00  0.00     0.020 A 
ATOM     78  C   UNL A   1      48.782  34.500  29.837  1.00  0.00     0.020 A 
ATOM     79  C   UNL A   1      48.666  35.453  28.822  1.00  0.00     0.054 A 
BRANCH  79  80
ATOM     80  S   UNL A   1      49.411  37.097  29.008  1.00  0.00     0.124 S 
ATOM     81  O   UNL A   1      48.307  37.876  29.561  1.00  0.00    -0.237 OA
ATOM     82  O   UNL A   1      50.519  36.831  29.922  1.00  0.00    -0.237 OA
ATOM     83  O   UNL A   1      49.803  37.454  27.646  1.00  0.00    -0.744 OA
ENDBRANCH  79  80
ENDBRANCH  51  74
BRANCH  63  84
ATOM     84  C   UNL A   1      49.593  26.942  25.574  1.00  0.00    -0.014 A 
ATOM     85  C   UNL A   1      49.862  27.247  24.229  1.00  0.00     0.010 A 
ATOM     86  C   UNL A   1      50.611  26.395  26.377  1.00  0.00     0.010 A 
ATOM     87  C   UNL A   1      51.137  27.032  23.703  1.00  0.00     0.020 A 
ATOM     88  C   UNL A   1      51.892  26.196  25.860  1.00  0.00     0.020 A 
ATOM     89  C   UNL A   1      52.149  26.526  24.527  1.00  0.00     0.054 A 
BRANCH  89  90
ATOM     90  S   UNL A   1      53.821  26.367  23.843  1.00  0.00     0.124 S 
ATOM     91  O   UNL A   1      54.473  27.577  24.337  1.00  0.00    -0.237 OA
ATOM     92  O   UNL A   1      54.285  25.116  24.437  1.00  0.00    -0.237 OA
ATOM     93  O   UNL A   1      53.605  26.324  22.398  1.00  0.00    -0.744 OA
ENDBRANCH  89  90
ENDBRANCH  63  84
ENDBRANCH  37  38
ENDBRANCH  30  32
ENDBRANCH  29  30
ENDBRANCH  28  29
ENDBRANCH  27  28
ENDBRANCH  26  27
ENDBRANCH  25  26
ENDBRANCH   1  25
TORSDOF 25
ENDMDL
MODEL 2
REMARK VINA RESULT:      -8.8      5.523     10.796
REMARK SMILES Cc1c(Cl)ccc2c(OCC(=O)OCCOCCOCCOCCOC(=O)c3ccc(-c4c5nc(c(-c6ccc(S(=O)(=O)[O-])cc6)c6ccc([nH]6)c(-c6ccc(S(=O)(=O)[O-])cc6)c6nc(c(-c7ccc(S(=O)(=O)[O-])cc7)c7ccc4[nH]7)C=C6)C=C5)cc3)ccnc12
REMARK SMILES IDX 20 1 19 2 18 3 17 4 16 5 15 6 14 7 13 8 11 9 12 10 10 11
REMARK SMILES IDX 9 12 8 13 1 14 2 15 3 16 91 17 4 18 5 19 7 20 90 21 6 22
REMARK SMILES IDX 89 23 88 24 21 25 22 26 23 27 24 28 25 29 26 30 27 31 28 32
REMARK SMILES IDX 29 33 87 34 30 35 86 36 31 37 32 38 33 39 80 40 34 41 85 42
REMARK SMILES IDX 79 43 81 44 35 45 84 46 78 47 77 48 36 50 66 51 47 52 65 53
REMARK SMILES IDX 48 54 51 55 64 56 82 57 49 58 50 59 63 61 83 62 52 63 37 64
REMARK SMILES IDX 38 65 46 66 39 67 45 68 40 69 41 70 42 71 43 72 44 73 67 74
REMARK SMILES IDX 68 75 76 76 69 77 75 78 70 79 71 80 72 81 73 82 74 83 53 84
REMARK SMILES IDX 54 85 62 86 55 87 61 88 56 89 57 90 58 91 59 92 60 93
REMARK H PARENT 81 49 51 60
REMARK Flexibility Score: inf
ROOT
ATOM      1  C   UNL A   1      38.663  22.057  25.912  1.00  0.00     0.188 C 
ENDROOT
BRANCH   1   2
ATOM      2  O   UNL A   1      37.642  23.018  26.073  1.00  0.00    -0.377 OA
BRANCH   2   3
ATOM      3  C   UNL A   1      36.436  22.732  25.399  1.00  0.00     0.188 C 
BRANCH   3   4
ATOM      4  C   UNL A   1      35.182  22.882  26.287  1.00  0.00     0.188 C 
BRANCH   4   5
ATOM      5  O   UNL A   1      34.691  21.801  27.074  1.00  0.00    -0.376 OA
BRANCH   5   6
ATOM      6  C   UNL A   1      33.436  21.221  26.758  1.00  0.00     0.202 C 
BRANCH   6   7
ATOM      7  C   UNL A   1      33.356  20.185  25.618  1.00  0.00     0.261 C 
BRANCH   7   8
ATOM      8  O   UNL A   1      32.121  20.108  24.873  1.00  0.00    -0.461 OA
BRANCH   8   9
ATOM      9  C   UNL A   1      32.205  20.225  23.523  1.00  0.00     0.344 C 
ATOM     10  O   UNL A   1      32.245  19.276  22.746  1.00  0.00    -0.248 OA
BRANCH   9  11
ATOM     11  C   UNL A   1      32.302  21.690  23.030  1.00  0.00     0.352 C 
BRANCH  11  12
ATOM     12  O   UNL A   1      32.227  22.827  23.877  1.00  0.00    -0.481 OA
BRANCH  12  13
ATOM     13  C   UNL A   1      32.561  24.090  23.439  1.00  0.00     0.131 A 
ATOM     14  C   UNL A   1      32.027  28.967  24.245  1.00  0.00     0.048 C 
ATOM     15  C   UNL A   1      32.124  27.550  24.762  1.00  0.00    -0.006 A 
ATOM     16  C   UNL A   1      31.870  27.288  26.119  1.00  0.00     0.046 A 
ATOM     17  C   UNL A   1      32.430  26.488  23.889  1.00  0.00     0.078 A 
ATOM     18  Cl  UNL A   1      31.556  28.560  27.250  1.00  0.00    -0.084 Cl
ATOM     19  C   UNL A   1      31.863  25.985  26.602  1.00  0.00     0.022 A 
ATOM     20  C   UNL A   1      32.355  25.153  24.362  1.00  0.00     0.043 A 
ATOM     21  N   UNL A   1      32.771  26.747  22.612  1.00  0.00    -0.256 NA
ATOM     22  C   UNL A   1      32.073  24.926  25.724  1.00  0.00     0.016 A 
ATOM     23  C   UNL A   1      33.063  25.719  21.790  1.00  0.00     0.115 A 
ATOM     24  C   UNL A   1      32.980  24.388  22.152  1.00  0.00     0.067 A 
ENDBRANCH  12  13
ENDBRANCH  11  12
ENDBRANCH   9  11
ENDBRANCH   8   9
ENDBRANCH   7   8
ENDBRANCH   6   7
ENDBRANCH   5   6
ENDBRANCH   4   5
ENDBRANCH   3   4
ENDBRANCH   2   3
ENDBRANCH   1   2
BRANCH   1  25
ATOM     25  C   UNL A   1      39.852  22.154  26.881  1.00  0.00     0.188 C 
BRANCH  25  26
ATOM     26  O   UNL A   1      40.345  20.883  27.306  1.00  0.00    -0.376 OA
BRANCH  26  27
ATOM     27  C   UNL A   1      40.874  20.022  26.306  1.00  0.00     0.202 C 
BRANCH  27  28
ATOM     28  C   UNL A   1      42.371  20.198  26.030  1.00  0.00     0.261 C 
BRANCH  28  29
ATOM     29  O   UNL A   1      42.780  21.521  25.659  1.00  0.00    -0.460 OA
BRANCH  29  30
ATOM     30  C   UNL A   1      43.997  21.932  26.078  1.00  0.00     0.338 C 
ATOM     31  O   UNL A   1      45.079  21.626  25.612  1.00  0.00    -0.246 OA
BRANCH  30  32
ATOM     32  C   UNL A   1      43.761  23.000  27.068  1.00  0.00     0.060 A 
ATOM     33  C   UNL A   1      44.172  24.300  26.750  1.00  0.00     0.016 A 
ATOM     34  C   UNL A   1      43.057  22.742  28.249  1.00  0.00     0.016 A 
ATOM     35  C   UNL A   1      43.862  25.352  27.608  1.00  0.00     0.010 A 
ATOM     36  C   UNL A   1      42.801  23.788  29.140  1.00  0.00     0.010 A 
ATOM     37  C   UNL A   1      43.223  25.091  28.830  1.00  0.00    -0.014 A 
BRANCH  37  38
ATOM     38  C   UNL A   1      43.298  26.131  29.879  1.00  0.00     0.031 A 
ATOM     39  C   UNL A   1      42.181  27.140  29.904  1.00  0.00     0.074 A 
ATOM     40  C   UNL A   1      44.262  26.145  30.817  1.00  0.00     0.049 A 
ATOM     41  N   UNL A   1      41.922  28.063  30.788  1.00  0.00    -0.248 NA
ATOM     42  C   UNL A   1      41.208  27.077  28.794  1.00  0.00     0.031 C 
ATOM     43  C   UNL A   1      45.364  25.191  30.923  1.00  0.00     0.029 A 
ATOM     44  N   UNL A   1      44.448  26.994  31.881  1.00  0.00    -0.354 N 
ATOM     45  C   UNL A   1      40.748  28.667  30.358  1.00  0.00     0.074 A 
ATOM     46  C   UNL A   1      40.351  28.029  29.127  1.00  0.00     0.031 C 
ATOM     47  C   UNL A   1      46.106  25.501  32.003  1.00  0.00     0.029 A 
ATOM     48  C   UNL A   1      45.540  26.680  32.657  1.00  0.00     0.049 A 
ATOM     49  H   UNL A   1      43.856  27.756  32.071  1.00  0.00     0.167 HD
ATOM     50  C   UNL A   1      40.055  29.666  30.944  1.00  0.00     0.031 A 
ATOM     51  C   UNL A   1      46.018  27.279  33.769  1.00  0.00     0.031 A 
ATOM     52  C   UNL A   1      40.468  30.326  32.146  1.00  0.00     0.049 A 
ATOM     53  C   UNL A   1      45.289  28.473  34.333  1.00  0.00     0.074 A 
ATOM     54  C   UNL A   1      39.829  31.350  32.820  1.00  0.00     0.029 A 
ATOM     55  N   UNL A   1      41.634  30.043  32.837  1.00  0.00    -0.354 N 
ATOM     56  N   UNL A   1      44.152  29.001  33.944  1.00  0.00    -0.248 NA
ATOM     57  C   UNL A   1      45.906  29.157  35.481  1.00  0.00     0.031 C 
ATOM     58  C   UNL A   1      40.642  31.728  33.889  1.00  0.00     0.029 A 
ATOM     59  C   UNL A   1      41.758  30.904  33.909  1.00  0.00     0.049 A 
ATOM     60  H   UNL A   1      42.276  29.336  32.600  1.00  0.00     0.167 HD
ATOM     61  C   UNL A   1      43.910  30.062  34.810  1.00  0.00     0.074 A 
ATOM     62  C   UNL A   1      45.013  30.104  35.746  1.00  0.00     0.031 C 
ATOM     63  C   UNL A   1      42.864  30.923  34.831  1.00  0.00     0.031 A 
BRANCH  50  64
ATOM     64  C   UNL A   1      38.793  30.127  30.281  1.00  0.00    -0.014 A 
ATOM     65  C   UNL A   1      37.554  29.564  30.631  1.00  0.00     0.010 A 
ATOM     66  C   UNL A   1      38.839  31.191  29.364  1.00  0.00     0.010 A 
ATOM     67  C   UNL A   1      36.376  30.067  30.078  1.00  0.00     0.020 A 
ATOM     68  C   UNL A   1      37.662  31.706  28.821  1.00  0.00     0.020 A 
ATOM     69  C   UNL A   1      36.436  31.143  29.186  1.00  0.00     0.054 A 
BRANCH  69  70
ATOM     70  S   UNL A   1      34.882  31.816  28.540  1.00  0.00     0.124 S 
ATOM     71  O   UNL A   1      34.294  30.650  27.884  1.00  0.00    -0.237 OA
ATOM     72  O   UNL A   1      34.205  32.262  29.755  1.00  0.00    -0.237 OA
ATOM     73  O   UNL A   1      35.311  32.881  27.637  1.00  0.00    -0.744 OA
ENDBRANCH  69  70
ENDBRANCH  50  64
BRANCH  51  74
ATOM     74  C   UNL A   1      47.249  26.764  34.429  1.00  0.00    -0.014 A 
ATOM     75  C   UNL A   1      48.519  27.215  34.028  1.00  0.00     0.010 A 
ATOM     76  C   UNL A   1      47.158  25.810  35.460  1.00  0.00     0.010 A 
ATOM     77  C   UNL A   1      49.674  26.721  34.643  1.00  0.00     0.020 A 
ATOM     78  C   UNL A   1      48.310  25.327  36.090  1.00  0.00     0.020 A 
ATOM     79  C   UNL A   1      49.562  25.784  35.676  1.00  0.00     0.054 A 
BRANCH  79  80
ATOM     80  S   UNL A   1      51.077  25.185  36.476  1.00  0.00     0.124 S 
ATOM     81  O   UNL A   1      50.584  24.068  37.275  1.00  0.00    -0.237 OA
ATOM     82  O   UNL A   1      51.908  24.826  35.329  1.00  0.00    -0.237 OA
ATOM     83  O   UNL A   1      51.542  26.340  37.241  1.00  0.00    -0.744 OA
ENDBRANCH  79  80
ENDBRANCH  51  74
BRANCH  63  84
ATOM     84  C   UNL A   1      42.828  31.993  35.885  1.00  0.00    -0.014 A 
ATOM     85  C   UNL A   1      43.322  33.278  35.608  1.00  0.00     0.010 A 
ATOM     86  C   UNL A   1      42.118  31.765  37.078  1.00  0.00     0.010 A 
ATOM     87  C   UNL A   1      43.085  34.326  36.499  1.00  0.00     0.020 A 
ATOM     88  C   UNL A   1      41.863  32.815  37.962  1.00  0.00     0.020 A 
ATOM     89  C   UNL A   1      42.341  34.092  37.661  1.00  0.00     0.054 A 
BRANCH  89  90
ATOM     90  S   UNL A   1      41.955  35.499  38.738  1.00  0.00     0.124 S 
ATOM     91  O   UNL A   1      40.657  35.932  38.227  1.00  0.00    -0.237 OA
ATOM     92  O   UNL A   1      41.935  34.884  40.063  1.00  0.00    -0.237 OA
ATOM     93  O   UNL A   1      43.056  36.432  38.504  1.00  0.00    -0.744 OA
ENDBRANCH  89  90
ENDBRANCH  63  84
ENDBRANCH  37  38
ENDBRANCH  30  32
ENDBRANCH  29  30
ENDBRANCH  28  29
ENDBRANCH  27  28
ENDBRANCH  26  27
ENDBRANCH  25  26
ENDBRANCH   1  25
TORSDOF 25
ENDMDL
MODEL 3
REMARK VINA RESULT:      -8.7      6.005     12.087
REMARK SMILES Cc1c(Cl)ccc2c(OCC(=O)OCCOCCOCCOCCOC(=O)c3ccc(-c4c5nc(c(-c6ccc(S(=O)(=O)[O-])cc6)c6ccc([nH]6)c(-c6ccc(S(=O)(=O)[O-])cc6)c6nc(c(-c7ccc(S(=O)(=O)[O-])cc7)c7ccc4[nH]7)C=C6)C=C5)cc3)ccnc12
REMARK SMILES IDX 20 1 19 2 18 3 17 4 16 5 15 6 14 7 13 8 11 9 12 10 10 11
REMARK SMILES IDX 9 12 8 13 1 14 2 15 3 16 91 17 4 18 5 19 7 20 90 21 6 22
REMARK SMILES IDX 89 23 88 24 21 25 22 26 23 27 24 28 25 29 26 30 27 31 28 32
REMARK SMILES IDX 29 33 87 34 30 35 86 36 31 37 32 38 33 39 80 40 34 41 85 42
REMARK SMILES IDX 79 43 81 44 35 45 84 46 78 47 77 48 36 50 66 51 47 52 65 53
REMARK SMILES IDX 48 54 51 55 64 56 82 57 49 58 50 59 63 61 83 62 52 63 37 64
REMARK SMILES IDX 38 65 46 66 39 67 45 68 40 69 41 70 42 71 43 72 44 73 67 74
REMARK SMILES IDX 68 75 76 76 69 77 75 78 70 79 71 80 72 81 73 82 74 83 53 84
REMARK SMILES IDX 54 85 62 86 55 87 61 88 56 89 57 90 58 91 59 92 60 93
REMARK H PARENT 81 49 51 60
REMARK Flexibility Score: inf
ROOT
ATOM      1  C   UNL A   1      38.905  22.877  26.349  1.00  0.00     0.188 C 
ENDROOT
BRANCH   1   2
ATOM      2  O   UNL A   1      37.848  23.036  25.427  1.00  0.00    -0.377 OA
BRANCH   2   3
ATOM      3  C   UNL A   1      37.383  21.843  24.833  1.00  0.00     0.188 C 
BRANCH   3   4
ATOM      4  C   UNL A   1      35.851  21.801  24.652  1.00  0.00     0.188 C 
BRANCH   4   5
ATOM      5  O   UNL A   1      35.051  20.803  25.281  1.00  0.00    -0.376 OA
BRANCH   5   6
ATOM      6  C   UNL A   1      33.794  21.160  25.831  1.00  0.00     0.202 C 
BRANCH   6   7
ATOM      7  C   UNL A   1      32.517  20.925  24.998  1.00  0.00     0.261 C 
BRANCH   7   8
ATOM      8  O   UNL A   1      31.990  22.044  24.254  1.00  0.00    -0.461 OA
BRANCH   8   9
ATOM      9  C   UNL A   1      32.305  22.112  22.935  1.00  0.00     0.344 C 
ATOM     10  O   UNL A   1      32.040  21.240  22.113  1.00  0.00    -0.248 OA
BRANCH   9  11
ATOM     11  C   UNL A   1      33.092  23.388  22.547  1.00  0.00     0.352 C 
BRANCH  11  12
ATOM     12  O   UNL A   1      32.554  24.702  22.577  1.00  0.00    -0.481 OA
BRANCH  12  13
ATOM     13  C   UNL A   1      32.654  25.510  23.688  1.00  0.00     0.131 A 
ATOM     14  C   UNL A   1      31.758  30.037  25.540  1.00  0.00     0.048 C 
ATOM     15  C   UNL A   1      31.394  28.895  24.618  1.00  0.00    -0.006 A 
ATOM     16  C   UNL A   1      30.361  29.065  23.680  1.00  0.00     0.046 A 
ATOM     17  C   UNL A   1      32.103  27.680  24.668  1.00  0.00     0.078 A 
ATOM     18  Cl  UNL A   1      29.412  30.510  23.620  1.00  0.00    -0.084 Cl
ATOM     19  C   UNL A   1      30.066  28.065  22.761  1.00  0.00     0.022 A 
ATOM     20  C   UNL A   1      31.853  26.686  23.687  1.00  0.00     0.043 A 
ATOM     21  N   UNL A   1      33.023  27.480  25.630  1.00  0.00    -0.256 NA
ATOM     22  C   UNL A   1      30.826  26.899  22.745  1.00  0.00     0.016 A 
ATOM     23  C   UNL A   1      33.693  26.309  25.664  1.00  0.00     0.115 A 
ATOM     24  C   UNL A   1      33.543  25.302  24.731  1.00  0.00     0.067 A 
ENDBRANCH  12  13
ENDBRANCH  11  12
ENDBRANCH   9  11
ENDBRANCH   8   9
ENDBRANCH   7   8
ENDBRANCH   6   7
ENDBRANCH   5   6
ENDBRANCH   4   5
ENDBRANCH   3   4
ENDBRANCH   2   3
ENDBRANCH   1   2
BRANCH   1  25
ATOM     25  C   UNL A   1      39.281  24.114  27.178  1.00  0.00     0.188 C 
BRANCH  25  26
ATOM     26  O   UNL A   1      40.682  24.227  27.430  1.00  0.00    -0.376 OA
BRANCH  26  27
ATOM     27  C   UNL A   1      41.563  23.908  26.361  1.00  0.00     0.202 C 
BRANCH  27  28
ATOM     28  C   UNL A   1      42.004  25.105  25.510  1.00  0.00     0.261 C 
BRANCH  28  29
ATOM     29  O   UNL A   1      41.308  26.332  25.760  1.00  0.00    -0.460 OA
BRANCH  29  30
ATOM     30  C   UNL A   1      42.019  27.476  25.661  1.00  0.00     0.338 C 
ATOM     31  O   UNL A   1      42.395  28.025  24.641  1.00  0.00    -0.246 OA
BRANCH  30  32
ATOM     32  C   UNL A   1      42.063  28.061  27.015  1.00  0.00     0.060 A 
ATOM     33  C   UNL A   1      41.241  27.506  28.003  1.00  0.00     0.016 A 
ATOM     34  C   UNL A   1      42.971  29.077  27.329  1.00  0.00     0.016 A 
ATOM     35  C   UNL A   1      41.341  27.955  29.317  1.00  0.00     0.010 A 
ATOM     36  C   UNL A   1      43.026  29.571  28.635  1.00  0.00     0.010 A 
ATOM     37  C   UNL A   1      42.195  29.025  29.626  1.00  0.00    -0.014 A 
BRANCH  37  38
ATOM     38  C   UNL A   1      41.962  29.743  30.898  1.00  0.00     0.031 A 
ATOM     39  C   UNL A   1      40.775  30.667  30.938  1.00  0.00     0.074 A 
ATOM     40  C   UNL A   1      42.713  29.536  31.995  1.00  0.00     0.049 A 
ATOM     41  N   UNL A   1      40.260  31.307  31.952  1.00  0.00    -0.248 NA
ATOM     42  C   UNL A   1      40.053  30.875  29.665  1.00  0.00     0.031 C 
ATOM     43  C   UNL A   1      43.854  28.629  32.089  1.00  0.00     0.029 A 
ATOM     44  N   UNL A   1      42.603  30.071  33.255  1.00  0.00    -0.354 N 
ATOM     45  C   UNL A   1      39.145  31.964  31.447  1.00  0.00     0.074 A 
ATOM     46  C   UNL A   1      39.063  31.670  30.038  1.00  0.00     0.031 C 
ATOM     47  C   UNL A   1      44.334  28.660  33.347  1.00  0.00     0.029 A 
ATOM     48  C   UNL A   1      43.542  29.597  34.142  1.00  0.00     0.049 A 
ATOM     49  H   UNL A   1      41.917  30.732  33.502  1.00  0.00     0.167 HD
ATOM     50  C   UNL A   1      38.259  32.741  32.105  1.00  0.00     0.031 A 
ATOM     51  C   UNL A   1      43.730  29.888  35.447  1.00  0.00     0.031 A 
ATOM     52  C   UNL A   1      38.361  33.064  33.496  1.00  0.00     0.049 A 
ATOM     53  C   UNL A   1      42.796  30.858  36.128  1.00  0.00     0.074 A 
ATOM     54  C   UNL A   1      37.509  33.844  34.255  1.00  0.00     0.029 A 
ATOM     55  N   UNL A   1      39.386  32.646  34.328  1.00  0.00    -0.354 N 
ATOM     56  N   UNL A   1      41.716  31.432  35.650  1.00  0.00    -0.248 NA
ATOM     57  C   UNL A   1      43.104  31.226  37.519  1.00  0.00     0.031 C 
ATOM     58  C   UNL A   1      38.052  33.947  35.536  1.00  0.00     0.029 A 
ATOM     59  C   UNL A   1      39.213  33.187  35.586  1.00  0.00     0.049 A 
ATOM     60  H   UNL A   1      40.125  32.053  34.062  1.00  0.00     0.167 HD
ATOM     61  C   UNL A   1      41.209  32.209  36.686  1.00  0.00     0.074 A 
ATOM     62  C   UNL A   1      42.094  32.034  37.818  1.00  0.00     0.031 C 
ATOM     63  C   UNL A   1      40.105  32.994  36.699  1.00  0.00     0.031 A 
BRANCH  50  64
ATOM     64  C   UNL A   1      37.119  33.320  31.325  1.00  0.00    -0.014 A 
ATOM     65  C   UNL A   1      37.346  33.959  30.094  1.00  0.00     0.010 A 
ATOM     66  C   UNL A   1      35.803  33.146  31.787  1.00  0.00     0.010 A 
ATOM     67  C   UNL A   1      36.267  34.409  29.331  1.00  0.00     0.020 A 
ATOM     68  C   UNL A   1      34.722  33.581  31.018  1.00  0.00     0.020 A 
ATOM     69  C   UNL A   1      34.962  34.205  29.792  1.00  0.00     0.054 A 
BRANCH  69  70
ATOM     70  S   UNL A   1      33.584  34.741  28.744  1.00  0.00     0.124 S 
ATOM     71  O   UNL A   1      33.468  33.632  27.799  1.00  0.00    -0.237 OA
ATOM     72  O   UNL A   1      32.491  34.866  29.704  1.00  0.00    -0.237 OA
ATOM     73  O   UNL A   1      34.054  35.998  28.166  1.00  0.00    -0.744 OA
ENDBRANCH  69  70
ENDBRANCH  50  64
BRANCH  51  74
ATOM     74  C   UNL A   1      44.846  29.257  36.204  1.00  0.00    -0.014 A 
ATOM     75  C   UNL A   1      46.144  29.792  36.145  1.00  0.00     0.010 A 
ATOM     76  C   UNL A   1      44.617  28.108  36.985  1.00  0.00     0.010 A 
ATOM     77  C   UNL A   1      47.193  29.190  36.848  1.00  0.00     0.020 A 
ATOM     78  C   UNL A   1      45.658  27.513  37.704  1.00  0.00     0.020 A 
ATOM     79  C   UNL A   1      46.942  28.058  37.630  1.00  0.00     0.054 A 
BRANCH  79  80
ATOM     80  S   UNL A   1      48.316  27.317  38.557  1.00  0.00     0.124 S 
ATOM     81  O   UNL A   1      48.823  28.454  39.319  1.00  0.00    -0.237 OA
ATOM     82  O   UNL A   1      47.640  26.283  39.335  1.00  0.00    -0.237 OA
ATOM     83  O   UNL A   1      49.209  26.822  37.511  1.00  0.00    -0.744 OA
ENDBRANCH  79  80
ENDBRANCH  51  74
BRANCH  63  84
ATOM     84  C   UNL A   1      39.761  33.736  37.959  1.00  0.00    -0.014 A 
ATOM     85  C   UNL A   1      38.969  33.128  38.947  1.00  0.00     0.010 A 
ATOM     86  C   UNL A   1      40.398  34.960  38.237  1.00  0.00     0.010 A 
ATOM     87  C   UNL A   1      38.839  33.722  40.204  1.00  0.00     0.020 A 
ATOM     88  C   UNL A   1      40.285  35.547  39.499  1.00  0.00     0.020 A 
ATOM     89  C   UNL A   1      39.513  34.917  40.478  1.00  0.00     0.054 A 
BRANCH  89  90
ATOM     90  S   UNL A   1      39.413  35.601  42.155  1.00  0.00     0.124 S 
ATOM     91  O   UNL A   1      38.287  34.863  42.722  1.00  0.00    -0.237 OA
ATOM     92  O   UNL A   1      40.724  35.269  42.708  1.00  0.00    -0.237 OA
ATOM     93  O   UNL A   1      39.174  37.026  41.938  1.00  0.00    -0.744 OA
ENDBRANCH  89  90
ENDBRANCH  63  84
ENDBRANCH  37  38
ENDBRANCH  30  32
ENDBRANCH  29  30
ENDBRANCH  28  29
ENDBRANCH  27  28
ENDBRANCH  26  27
ENDBRANCH  25  26
ENDBRANCH   1  25
TORSDOF 25
ENDMDL
