MODEL 1
REMARK VINA RESULT:      -7.9      0.000      0.000
REMARK SMILES Cc1ccc2c(c1)c(-c1ccnc3c(C)cccc13)c(C)n2CC(=O)OCCOCCOCCOCCOC(=O)c1ccc(-c2c3nc(c(-c4ccc(S(=O)(=O)[O-])cc4)c4ccc([nH]4)c(-c4ccc(S(=O)(=O)[O-])cc4)c4nc(c(-c5ccc(S(=O)(=O)[O-])cc5)c5ccc2[nH]5)C=C4)C=C3)cc1
REMARK SMILES IDX 33 1 32 2 31 3 30 4 29 5 28 6 27 7 26 8 24 9 25 10 23 11
REMARK SMILES IDX 22 12 1 13 2 14 3 15 7 16 4 17 6 18 5 19 8 20 20 21 21 22
REMARK SMILES IDX 9 23 10 24 19 25 11 26 13 27 18 28 12 29 14 30 17 31 15 32
REMARK SMILES IDX 16 33 34 34 35 35 36 36 37 37 38 38 39 39 40 40 41 41 42 42
REMARK SMILES IDX 100 43 43 44 99 45 44 46 45 47 46 48 93 49 47 50 98 51 92 52
REMARK SMILES IDX 94 53 48 54 97 55 91 56 90 57 49 59 79 60 60 61 78 62 61 63
REMARK SMILES IDX 64 64 77 65 95 66 62 67 63 68 76 70 96 71 65 72 50 73 51 74
REMARK SMILES IDX 59 75 52 76 58 77 53 78 54 79 55 80 56 81 57 82 80 83 81 84
REMARK SMILES IDX 89 85 82 86 88 87 83 88 84 89 85 90 86 91 87 92 66 93 67 94
REMARK SMILES IDX 75 95 68 96 74 97 69 98 70 99 71 100 72 101 73 102
REMARK H PARENT 94 58 64 69
REMARK Flexibility Score: inf
ROOT
ATOM      1  C   UNL A   1      47.181  36.319  31.126  1.00  0.00     0.188 C 
ENDROOT
BRANCH   1   2
ATOM      2  O   UNL A   1      47.327  35.274  30.184  1.00  0.00    -0.377 OA
BRANCH   2   3
ATOM      3  C   UNL A   1      46.624  35.347  28.969  1.00  0.00     0.188 C 
BRANCH   3   4
ATOM      4  C   UNL A   1      45.726  34.178  28.562  1.00  0.00     0.188 C 
BRANCH   4   5
ATOM      5  O   UNL A   1      46.210  33.176  27.698  1.00  0.00    -0.376 OA
BRANCH   5   6
ATOM      6  C   UNL A   1      46.585  31.914  28.236  1.00  0.00     0.202 C 
BRANCH   6   7
ATOM      7  C   UNL A   1      46.372  30.596  27.466  1.00  0.00     0.261 C 
BRANCH   7   8
ATOM      8  O   UNL A   1      45.012  30.332  27.025  1.00  0.00    -0.462 OA
BRANCH   8   9
ATOM      9  C   UNL A   1      44.701  29.044  26.761  1.00  0.00     0.326 C 
ATOM     10  O   UNL A   1      45.426  28.099  27.077  1.00  0.00    -0.250 OA
BRANCH   9  11
ATOM     11  C   UNL A   1      43.342  28.741  26.167  1.00  0.00     0.244 C 
BRANCH  11  12
ATOM     12  N   UNL A   1      42.221  28.188  26.946  1.00  0.00    -0.333 N 
ATOM     13  C   UNL A   1      40.623  22.816  27.719  1.00  0.00     0.044 C 
ATOM     14  C   UNL A   1      40.987  24.229  27.375  1.00  0.00    -0.050 A 
ATOM     15  C   UNL A   1      41.874  24.498  26.329  1.00  0.00     0.005 A 
ATOM     16  C   UNL A   1      40.480  25.289  28.132  1.00  0.00     0.014 A 
ATOM     17  C   UNL A   1      42.308  25.802  26.050  1.00  0.00     0.027 A 
ATOM     18  C   UNL A   1      40.946  26.600  27.905  1.00  0.00     0.008 A 
ATOM     19  C   UNL A   1      41.868  26.839  26.886  1.00  0.00     0.049 A 
ATOM     20  C   UNL A   1      40.676  27.841  28.535  1.00  0.00     0.011 A 
ATOM     21  C   UNL A   1      41.659  28.729  28.114  1.00  0.00     0.024 A 
ATOM     22  C   UNL A   1      42.045  30.016  28.774  1.00  0.00     0.065 C 
BRANCH  20  23
ATOM     23  C   UNL A   1      39.639  28.142  29.521  1.00  0.00    -0.005 A 
ATOM     24  C   UNL A   1      39.737  27.640  30.813  1.00  0.00     0.029 A 
ATOM     25  C   UNL A   1      38.511  28.925  29.158  1.00  0.00     0.008 A 
ATOM     26  C   UNL A   1      38.757  27.996  31.715  1.00  0.00     0.112 A 
ATOM     27  C   UNL A   1      37.581  29.270  30.168  1.00  0.00     0.074 A 
ATOM     28  C   UNL A   1      38.277  29.355  27.835  1.00  0.00     0.011 A 
ATOM     29  N   UNL A   1      37.724  28.822  31.431  1.00  0.00    -0.256 NA
ATOM     30  C   UNL A   1      36.489  30.089  29.826  1.00  0.00    -0.025 A 
ATOM     31  C   UNL A   1      37.137  30.066  27.498  1.00  0.00     0.001 A 
ATOM     32  C   UNL A   1      35.577  30.665  30.880  1.00  0.00     0.047 C 
ATOM     33  C   UNL A   1      36.261  30.465  28.493  1.00  0.00     0.005 A 
ENDBRANCH  20  23
ENDBRANCH  11  12
ENDBRANCH   9  11
ENDBRANCH   8   9
ENDBRANCH   7   8
ENDBRANCH   6   7
ENDBRANCH   5   6
ENDBRANCH   4   5
ENDBRANCH   3   4
ENDBRANCH   2   3
ENDBRANCH   1   2
BRANCH   1  34
ATOM     34  C   UNL A   1      47.922  36.173  32.456  1.00  0.00     0.188 C 
BRANCH  34  35
ATOM     35  O   UNL A   1      47.208  36.558  33.634  1.00  0.00    -0.376 OA
BRANCH  35  36
ATOM     36  C   UNL A   1      47.991  36.972  34.760  1.00  0.00     0.202 C 
BRANCH  36  37
ATOM     37  C   UNL A   1      47.804  38.439  35.149  1.00  0.00     0.261 C 
BRANCH  37  38
ATOM     38  O   UNL A   1      46.654  38.563  35.997  1.00  0.00    -0.460 OA
BRANCH  38  39
ATOM     39  C   UNL A   1      45.653  39.352  35.543  1.00  0.00     0.338 C 
ATOM     40  O   UNL A   1      45.753  40.402  34.934  1.00  0.00    -0.246 OA
BRANCH  39  41
ATOM     41  C   UNL A   1      44.450  38.501  35.598  1.00  0.00     0.060 A 
ATOM     42  C   UNL A   1      44.257  37.589  36.640  1.00  0.00     0.016 A 
ATOM     43  C   UNL A   1      43.690  38.425  34.428  1.00  0.00     0.016 A 
ATOM     44  C   UNL A   1      43.382  36.524  36.463  1.00  0.00     0.010 A 
ATOM     45  C   UNL A   1      42.822  37.356  34.248  1.00  0.00     0.010 A 
ATOM     46  C   UNL A   1      42.694  36.383  35.247  1.00  0.00    -0.014 A 
BRANCH  46  47
ATOM     47  C   UNL A   1      41.619  35.383  35.150  1.00  0.00     0.031 A 
ATOM     48  C   UNL A   1      41.963  34.254  34.237  1.00  0.00     0.074 A 
ATOM     49  C   UNL A   1      40.548  35.354  35.976  1.00  0.00     0.049 A 
ATOM     50  N   UNL A   1      41.222  33.675  33.350  1.00  0.00    -0.248 NA
ATOM     51  C   UNL A   1      43.369  33.791  34.239  1.00  0.00     0.031 C 
ATOM     52  C   UNL A   1      40.258  36.319  37.037  1.00  0.00     0.029 A 
ATOM     53  N   UNL A   1      39.572  34.403  36.156  1.00  0.00    -0.354 N 
ATOM     54  C   UNL A   1      42.006  32.648  32.832  1.00  0.00     0.074 A 
ATOM     55  C   UNL A   1      43.355  32.881  33.272  1.00  0.00     0.031 C 
ATOM     56  C   UNL A   1      39.337  35.807  37.876  1.00  0.00     0.029 A 
ATOM     57  C   UNL A   1      38.941  34.496  37.402  1.00  0.00     0.049 A 
ATOM     58  H   UNL A   1      39.341  33.727  35.479  1.00  0.00     0.167 HD
ATOM     59  C   UNL A   1      41.467  31.525  32.293  1.00  0.00     0.031 A 
ATOM     60  C   UNL A   1      38.246  33.540  38.078  1.00  0.00     0.031 A 
ATOM     61  C   UNL A   1      40.119  31.725  31.849  1.00  0.00     0.049 A 
ATOM     62  C   UNL A   1      37.845  32.502  37.105  1.00  0.00     0.074 A 
ATOM     63  C   UNL A   1      39.537  32.563  30.921  1.00  0.00     0.029 A 
ATOM     64  N   UNL A   1      39.104  31.259  32.648  1.00  0.00    -0.354 N 
ATOM     65  N   UNL A   1      36.968  32.698  36.163  1.00  0.00    -0.248 NA
ATOM     66  C   UNL A   1      38.730  31.364  36.909  1.00  0.00     0.031 C 
ATOM     67  C   UNL A   1      38.274  32.905  31.470  1.00  0.00     0.029 A 
ATOM     68  C   UNL A   1      38.115  32.209  32.670  1.00  0.00     0.049 A 
ATOM     69  H   UNL A   1      39.089  30.396  33.120  1.00  0.00     0.167 HD
ATOM     70  C   UNL A   1      37.482  32.024  35.068  1.00  0.00     0.074 A 
ATOM     71  C   UNL A   1      38.502  31.132  35.614  1.00  0.00     0.031 C 
ATOM     72  C   UNL A   1      37.238  32.461  33.799  1.00  0.00     0.031 A 
BRANCH  59  73
ATOM     73  C   UNL A   1      42.089  30.170  32.499  1.00  0.00    -0.014 A 
ATOM     74  C   UNL A   1      43.132  29.685  31.678  1.00  0.00     0.010 A 
ATOM     75  C   UNL A   1      41.803  29.437  33.665  1.00  0.00     0.010 A 
ATOM     76  C   UNL A   1      43.817  28.506  31.958  1.00  0.00     0.020 A 
ATOM     77  C   UNL A   1      42.522  28.276  33.985  1.00  0.00     0.020 A 
ATOM     78  C   UNL A   1      43.512  27.811  33.119  1.00  0.00     0.054 A 
BRANCH  78  79
ATOM     79  S   UNL A   1      44.490  26.339  33.497  1.00  0.00     0.124 S 
ATOM     80  O   UNL A   1      45.088  26.036  32.199  1.00  0.00    -0.237 OA
ATOM     81  O   UNL A   1      45.414  26.830  34.517  1.00  0.00    -0.237 OA
ATOM     82  O   UNL A   1      43.495  25.379  33.968  1.00  0.00    -0.744 OA
ENDBRANCH  78  79
ENDBRANCH  59  73
BRANCH  60  83
ATOM     83  C   UNL A   1      38.251  33.289  39.552  1.00  0.00    -0.014 A 
ATOM     84  C   UNL A   1      39.465  33.039  40.224  1.00  0.00     0.010 A 
ATOM     85  C   UNL A   1      37.059  33.004  40.250  1.00  0.00     0.010 A 
ATOM     86  C   UNL A   1      39.501  32.441  41.487  1.00  0.00     0.020 A 
ATOM     87  C   UNL A   1      37.085  32.390  41.517  1.00  0.00     0.020 A 
ATOM     88  C   UNL A   1      38.310  32.070  42.104  1.00  0.00     0.054 A 
BRANCH  88  89
ATOM     89  S   UNL A   1      38.414  31.057  43.607  1.00  0.00     0.124 S 
ATOM     90  O   UNL A   1      38.138  29.720  43.085  1.00  0.00    -0.237 OA
ATOM     91  O   UNL A   1      39.787  31.283  44.050  1.00  0.00    -0.237 OA
ATOM     92  O   UNL A   1      37.381  31.614  44.475  1.00  0.00    -0.744 OA
ENDBRANCH  88  89
ENDBRANCH  60  83
BRANCH  72  93
ATOM     93  C   UNL A   1      36.154  33.496  33.571  1.00  0.00    -0.014 A 
ATOM     94  C   UNL A   1      34.821  33.045  33.597  1.00  0.00     0.010 A 
ATOM     95  C   UNL A   1      36.405  34.811  33.129  1.00  0.00     0.010 A 
ATOM     96  C   UNL A   1      33.776  33.853  33.147  1.00  0.00     0.020 A 
ATOM     97  C   UNL A   1      35.355  35.641  32.703  1.00  0.00     0.020 A 
ATOM     98  C   UNL A   1      34.050  35.142  32.687  1.00  0.00     0.054 A 
BRANCH  98  99
ATOM     99  S   UNL A   1      32.671  36.126  32.039  1.00  0.00     0.124 S 
ATOM    100  O   UNL A   1      32.989  36.203  30.614  1.00  0.00    -0.237 OA
ATOM    101  O   UNL A   1      31.506  35.307  32.371  1.00  0.00    -0.237 OA
ATOM    102  O   UNL A   1      32.765  37.389  32.764  1.00  0.00    -0.744 OA
ENDBRANCH  98  99
ENDBRANCH  72  93
ENDBRANCH  46  47
ENDBRANCH  39  41
ENDBRANCH  38  39
ENDBRANCH  37  38
ENDBRANCH  36  37
ENDBRANCH  35  36
ENDBRANCH  34  35
ENDBRANCH   1  34
TORSDOF 25
ENDMDL
MODEL 2
REMARK VINA RESULT:      -7.4      4.268     11.268
REMARK SMILES Cc1ccc2c(c1)c(-c1ccnc3c(C)cccc13)c(C)n2CC(=O)OCCOCCOCCOCCOC(=O)c1ccc(-c2c3nc(c(-c4ccc(S(=O)(=O)[O-])cc4)c4ccc([nH]4)c(-c4ccc(S(=O)(=O)[O-])cc4)c4nc(c(-c5ccc(S(=O)(=O)[O-])cc5)c5ccc2[nH]5)C=C4)C=C3)cc1
REMARK SMILES IDX 33 1 32 2 31 3 30 4 29 5 28 6 27 7 26 8 24 9 25 10 23 11
REMARK SMILES IDX 22 12 1 13 2 14 3 15 7 16 4 17 6 18 5 19 8 20 20 21 21 22
REMARK SMILES IDX 9 23 10 24 19 25 11 26 13 27 18 28 12 29 14 30 17 31 15 32
REMARK SMILES IDX 16 33 34 34 35 35 36 36 37 37 38 38 39 39 40 40 41 41 42 42
REMARK SMILES IDX 100 43 43 44 99 45 44 46 45 47 46 48 93 49 47 50 98 51 92 52
REMARK SMILES IDX 94 53 48 54 97 55 91 56 90 57 49 59 79 60 60 61 78 62 61 63
REMARK SMILES IDX 64 64 77 65 95 66 62 67 63 68 76 70 96 71 65 72 50 73 51 74
REMARK SMILES IDX 59 75 52 76 58 77 53 78 54 79 55 80 56 81 57 82 80 83 81 84
REMARK SMILES IDX 89 85 82 86 88 87 83 88 84 89 85 90 86 91 87 92 66 93 67 94
REMARK SMILES IDX 75 95 68 96 74 97 69 98 70 99 71 100 72 101 73 102
REMARK H PARENT 94 58 64 69
REMARK Flexibility Score: inf
ROOT
ATOM      1  C   UNL A   1      44.491  32.399  39.650  1.00  0.00     0.188 C 
ENDROOT
BRANCH   1   2
ATOM      2  O   UNL A   1      44.854  33.135  38.499  1.00  0.00    -0.377 OA
BRANCH   2   3
ATOM      3  C   UNL A   1      44.751  34.536  38.524  1.00  0.00     0.188 C 
BRANCH   3   4
ATOM      4  C   UNL A   1      44.479  35.283  37.217  1.00  0.00     0.188 C 
BRANCH   4   5
ATOM      5  O   UNL A   1      44.575  34.613  35.982  1.00  0.00    -0.376 OA
BRANCH   5   6
ATOM      6  C   UNL A   1      43.391  34.131  35.357  1.00  0.00     0.202 C 
BRANCH   6   7
ATOM      7  C   UNL A   1      42.250  35.071  34.923  1.00  0.00     0.261 C 
BRANCH   7   8
ATOM      8  O   UNL A   1      40.903  34.624  35.245  1.00  0.00    -0.462 OA
BRANCH   8   9
ATOM      9  C   UNL A   1      40.772  33.835  36.333  1.00  0.00     0.326 C 
ATOM     10  O   UNL A   1      41.217  34.138  37.441  1.00  0.00    -0.250 OA
BRANCH   9  11
ATOM     11  C   UNL A   1      39.930  32.582  36.213  1.00  0.00     0.244 C 
BRANCH  11  12
ATOM     12  N   UNL A   1      39.111  32.265  35.030  1.00  0.00    -0.333 N 
ATOM     13  C   UNL A   1      38.604  27.428  32.140  1.00  0.00     0.044 C 
ATOM     14  C   UNL A   1      38.873  28.727  32.839  1.00  0.00    -0.050 A 
ATOM     15  C   UNL A   1      39.960  28.852  33.708  1.00  0.00     0.005 A 
ATOM     16  C   UNL A   1      38.007  29.811  32.665  1.00  0.00     0.014 A 
ATOM     17  C   UNL A   1      40.177  30.023  34.450  1.00  0.00     0.027 A 
ATOM     18  C   UNL A   1      38.175  30.976  33.441  1.00  0.00     0.008 A 
ATOM     19  C   UNL A   1      39.240  31.060  34.338  1.00  0.00     0.049 A 
ATOM     20  C   UNL A   1      37.441  32.184  33.535  1.00  0.00     0.011 A 
ATOM     21  C   UNL A   1      37.869  32.827  34.690  1.00  0.00     0.024 A 
ATOM     22  C   UNL A   1      37.150  33.911  35.431  1.00  0.00     0.065 C 
BRANCH  20  23
ATOM     23  C   UNL A   1      36.362  32.651  32.665  1.00  0.00    -0.005 A 
ATOM     24  C   UNL A   1      35.061  32.730  33.147  1.00  0.00     0.029 A 
ATOM     25  C   UNL A   1      36.632  33.000  31.315  1.00  0.00     0.008 A 
ATOM     26  C   UNL A   1      34.092  33.224  32.298  1.00  0.00     0.112 A 
ATOM     27  C   UNL A   1      35.576  33.537  30.538  1.00  0.00     0.074 A 
ATOM     28  C   UNL A   1      37.898  32.820  30.720  1.00  0.00     0.011 A 
ATOM     29  N   UNL A   1      34.332  33.660  31.041  1.00  0.00    -0.256 NA
ATOM     30  C   UNL A   1      35.848  33.933  29.216  1.00  0.00    -0.025 A 
ATOM     31  C   UNL A   1      38.116  33.113  29.384  1.00  0.00     0.001 A 
ATOM     32  C   UNL A   1      34.837  34.697  28.399  1.00  0.00     0.047 C 
ATOM     33  C   UNL A   1      37.107  33.701  28.639  1.00  0.00     0.005 A 
ENDBRANCH  20  23
ENDBRANCH  11  12
ENDBRANCH   9  11
ENDBRANCH   8   9
ENDBRANCH   7   8
ENDBRANCH   6   7
ENDBRANCH   5   6
ENDBRANCH   4   5
ENDBRANCH   3   4
ENDBRANCH   2   3
ENDBRANCH   1   2
BRANCH   1  34
ATOM     34  C   UNL A   1      45.581  32.144  40.693  1.00  0.00     0.188 C 
BRANCH  34  35
ATOM     35  O   UNL A   1      46.278  30.898  40.602  1.00  0.00    -0.376 OA
BRANCH  35  36
ATOM     36  C   UNL A   1      45.482  29.707  40.628  1.00  0.00     0.202 C 
BRANCH  36  37
ATOM     37  C   UNL A   1      45.943  28.623  39.653  1.00  0.00     0.261 C 
BRANCH  37  38
ATOM     38  O   UNL A   1      44.974  28.482  38.606  1.00  0.00    -0.460 OA
BRANCH  38  39
ATOM     39  C   UNL A   1      44.516  27.230  38.374  1.00  0.00     0.338 C 
ATOM     40  O   UNL A   1      43.965  26.482  39.163  1.00  0.00    -0.246 OA
BRANCH  39  41
ATOM     41  C   UNL A   1      44.472  27.112  36.905  1.00  0.00     0.060 A 
ATOM     42  C   UNL A   1      45.553  27.516  36.116  1.00  0.00     0.016 A 
ATOM     43  C   UNL A   1      43.217  26.879  36.337  1.00  0.00     0.016 A 
ATOM     44  C   UNL A   1      45.348  27.805  34.771  1.00  0.00     0.010 A 
ATOM     45  C   UNL A   1      43.010  27.175  34.997  1.00  0.00     0.010 A 
ATOM     46  C   UNL A   1      44.063  27.674  34.220  1.00  0.00    -0.014 A 
BRANCH  46  47
ATOM     47  C   UNL A   1      43.902  27.775  32.761  1.00  0.00     0.031 A 
ATOM     48  C   UNL A   1      43.326  29.084  32.334  1.00  0.00     0.074 A 
ATOM     49  C   UNL A   1      44.439  26.892  31.887  1.00  0.00     0.049 A 
ATOM     50  N   UNL A   1      42.413  29.315  31.448  1.00  0.00    -0.248 NA
ATOM     51  C   UNL A   1      43.749  30.284  33.087  1.00  0.00     0.031 C 
ATOM     52  C   UNL A   1      45.200  25.694  32.240  1.00  0.00     0.029 A 
ATOM     53  N   UNL A   1      44.556  26.935  30.518  1.00  0.00    -0.354 N 
ATOM     54  C   UNL A   1      42.299  30.702  31.396  1.00  0.00     0.074 A 
ATOM     55  C   UNL A   1      42.996  31.228  32.537  1.00  0.00     0.031 C 
ATOM     56  C   UNL A   1      45.876  25.253  31.161  1.00  0.00     0.029 A 
ATOM     57  C   UNL A   1      45.575  26.109  30.031  1.00  0.00     0.049 A 
ATOM     58  H   UNL A   1      43.983  27.489  29.942  1.00  0.00     0.167 HD
ATOM     59  C   UNL A   1      41.867  31.353  30.285  1.00  0.00     0.031 A 
ATOM     60  C   UNL A   1      46.234  26.180  28.841  1.00  0.00     0.031 A 
ATOM     61  C   UNL A   1      41.085  30.511  29.428  1.00  0.00     0.049 A 
ATOM     62  C   UNL A   1      45.406  26.983  27.916  1.00  0.00     0.074 A 
ATOM     63  C   UNL A   1      39.905  29.817  29.595  1.00  0.00     0.029 A 
ATOM     64  N   UNL A   1      41.692  29.990  28.312  1.00  0.00    -0.354 N 
ATOM     65  N   UNL A   1      44.262  26.581  27.440  1.00  0.00    -0.248 NA
ATOM     66  C   UNL A   1      45.643  28.416  27.848  1.00  0.00     0.031 C 
ATOM     67  C   UNL A   1      40.063  28.628  28.836  1.00  0.00     0.029 A 
ATOM     68  C   UNL A   1      41.300  28.682  28.188  1.00  0.00     0.049 A 
ATOM     69  H   UNL A   1      42.301  30.472  27.706  1.00  0.00     0.167 HD
ATOM     70  C   UNL A   1      43.468  27.716  27.450  1.00  0.00     0.074 A 
ATOM     71  C   UNL A   1      44.399  28.832  27.600  1.00  0.00     0.031 C 
ATOM     72  C   UNL A   1      42.119  27.624  27.628  1.00  0.00     0.031 A 
BRANCH  59  73
ATOM     73  C   UNL A   1      42.466  32.663  29.852  1.00  0.00    -0.014 A 
ATOM     74  C   UNL A   1      43.692  32.738  29.153  1.00  0.00     0.010 A 
ATOM     75  C   UNL A   1      41.705  33.843  29.932  1.00  0.00     0.010 A 
ATOM     76  C   UNL A   1      44.173  33.928  28.613  1.00  0.00     0.020 A 
ATOM     77  C   UNL A   1      42.154  35.036  29.346  1.00  0.00     0.020 A 
ATOM     78  C   UNL A   1      43.393  35.072  28.706  1.00  0.00     0.054 A 
BRANCH  78  79
ATOM     79  S   UNL A   1      44.007  36.573  27.907  1.00  0.00     0.124 S 
ATOM     80  O   UNL A   1      43.001  36.793  26.871  1.00  0.00    -0.237 OA
ATOM     81  O   UNL A   1      44.002  37.535  29.006  1.00  0.00    -0.237 OA
ATOM     82  O   UNL A   1      45.330  36.186  27.424  1.00  0.00    -0.744 OA
ENDBRANCH  78  79
ENDBRANCH  59  73
BRANCH  60  83
ATOM     83  C   UNL A   1      47.686  25.928  28.593  1.00  0.00    -0.014 A 
ATOM     84  C   UNL A   1      48.657  26.812  29.108  1.00  0.00     0.010 A 
ATOM     85  C   UNL A   1      48.112  25.002  27.618  1.00  0.00     0.010 A 
ATOM     86  C   UNL A   1      49.963  26.847  28.610  1.00  0.00     0.020 A 
ATOM     87  C   UNL A   1      49.423  25.038  27.103  1.00  0.00     0.020 A 
ATOM     88  C   UNL A   1      50.323  25.995  27.572  1.00  0.00     0.054 A 
BRANCH  88  89
ATOM     89  S   UNL A   1      51.934  26.261  26.778  1.00  0.00     0.124 S 
ATOM     90  O   UNL A   1      52.344  24.893  26.467  1.00  0.00    -0.237 OA
ATOM     91  O   UNL A   1      51.589  27.087  25.624  1.00  0.00    -0.237 OA
ATOM     92  O   UNL A   1      52.725  26.931  27.807  1.00  0.00    -0.744 OA
ENDBRANCH  88  89
ENDBRANCH  60  83
BRANCH  72  93
ATOM     93  C   UNL A   1      41.449  26.269  27.504  1.00  0.00    -0.014 A 
ATOM     94  C   UNL A   1      41.937  25.235  28.324  1.00  0.00     0.010 A 
ATOM     95  C   UNL A   1      40.534  25.937  26.483  1.00  0.00     0.010 A 
ATOM     96  C   UNL A   1      41.572  23.906  28.104  1.00  0.00     0.020 A 
ATOM     97  C   UNL A   1      40.138  24.605  26.276  1.00  0.00     0.020 A 
ATOM     98  C   UNL A   1      40.687  23.595  27.070  1.00  0.00     0.054 A 
BRANCH  98  99
ATOM     99  S   UNL A   1      40.303  21.848  26.774  1.00  0.00     0.124 S 
ATOM    100  O   UNL A   1      40.628  21.237  28.062  1.00  0.00    -0.237 OA
ATOM    101  O   UNL A   1      38.879  21.882  26.444  1.00  0.00    -0.237 OA
ATOM    102  O   UNL A   1      41.184  21.473  25.672  1.00  0.00    -0.744 OA
ENDBRANCH  98  99
ENDBRANCH  72  93
ENDBRANCH  46  47
ENDBRANCH  39  41
ENDBRANCH  38  39
ENDBRANCH  37  38
ENDBRANCH  36  37
ENDBRANCH  35  36
ENDBRANCH  34  35
ENDBRANCH   1  34
TORSDOF 25
ENDMDL
MODEL 3
REMARK VINA RESULT:      -7.3      2.998      6.154
REMARK SMILES Cc1ccc2c(c1)c(-c1ccnc3c(C)cccc13)c(C)n2CC(=O)OCCOCCOCCOCCOC(=O)c1ccc(-c2c3nc(c(-c4ccc(S(=O)(=O)[O-])cc4)c4ccc([nH]4)c(-c4ccc(S(=O)(=O)[O-])cc4)c4nc(c(-c5ccc(S(=O)(=O)[O-])cc5)c5ccc2[nH]5)C=C4)C=C3)cc1
REMARK SMILES IDX 33 1 32 2 31 3 30 4 29 5 28 6 27 7 26 8 24 9 25 10 23 11
REMARK SMILES IDX 22 12 1 13 2 14 3 15 7 16 4 17 6 18 5 19 8 20 20 21 21 22
REMARK SMILES IDX 9 23 10 24 19 25 11 26 13 27 18 28 12 29 14 30 17 31 15 32
REMARK SMILES IDX 16 33 34 34 35 35 36 36 37 37 38 38 39 39 40 40 41 41 42 42
REMARK SMILES IDX 100 43 43 44 99 45 44 46 45 47 46 48 93 49 47 50 98 51 92 52
REMARK SMILES IDX 94 53 48 54 97 55 91 56 90 57 49 59 79 60 60 61 78 62 61 63
REMARK SMILES IDX 64 64 77 65 95 66 62 67 63 68 76 70 96 71 65 72 50 73 51 74
REMARK SMILES IDX 59 75 52 76 58 77 53 78 54 79 55 80 56 81 57 82 80 83 81 84
REMARK SMILES IDX 89 85 82 86 88 87 83 88 84 89 85 90 86 91 87 92 66 93 67 94
REMARK SMILES IDX 75 95 68 96 74 97 69 98 70 99 71 100 72 101 73 102
REMARK H PARENT 94 58 64 69
REMARK Flexibility Score: inf
ROOT
ATOM      1  C   UNL A   1      47.235  40.336  29.836  1.00  0.00     0.188 C 
ENDROOT
BRANCH   1   2
ATOM      2  O   UNL A   1      47.388  39.033  29.311  1.00  0.00    -0.377 OA
BRANCH   2   3
ATOM      3  C   UNL A   1      48.519  38.740  28.528  1.00  0.00     0.188 C 
BRANCH   3   4
ATOM      4  C   UNL A   1      49.907  38.852  29.160  1.00  0.00     0.188 C 
BRANCH   4   5
ATOM      5  O   UNL A   1      50.269  38.016  30.236  1.00  0.00    -0.376 OA
BRANCH   5   6
ATOM      6  C   UNL A   1      50.071  36.612  30.123  1.00  0.00     0.202 C 
BRANCH   6   7
ATOM      7  C   UNL A   1      48.965  35.872  30.900  1.00  0.00     0.261 C 
BRANCH   7   8
ATOM      8  O   UNL A   1      47.667  35.806  30.246  1.00  0.00    -0.462 OA
BRANCH   8   9
ATOM      9  C   UNL A   1      46.651  35.286  30.969  1.00  0.00     0.326 C 
ATOM     10  O   UNL A   1      46.822  34.476  31.882  1.00  0.00    -0.250 OA
BRANCH   9  11
ATOM     11  C   UNL A   1      45.255  35.822  30.733  1.00  0.00     0.244 C 
BRANCH  11  12
ATOM     12  N   UNL A   1      44.790  36.327  29.430  1.00  0.00    -0.333 N 
ATOM     13  C   UNL A   1      43.593  33.532  24.658  1.00  0.00     0.044 C 
ATOM     14  C   UNL A   1      44.057  34.251  25.890  1.00  0.00    -0.050 A 
ATOM     15  C   UNL A   1      44.792  33.577  26.868  1.00  0.00     0.005 A 
ATOM     16  C   UNL A   1      43.712  35.591  26.092  1.00  0.00     0.014 A 
ATOM     17  C   UNL A   1      45.153  34.198  28.074  1.00  0.00     0.027 A 
ATOM     18  C   UNL A   1      44.015  36.216  27.319  1.00  0.00     0.008 A 
ATOM     19  C   UNL A   1      44.709  35.509  28.301  1.00  0.00     0.049 A 
ATOM     20  C   UNL A   1      43.747  37.509  27.833  1.00  0.00     0.011 A 
ATOM     21  C   UNL A   1      43.985  37.456  29.202  1.00  0.00     0.024 A 
ATOM     22  C   UNL A   1      43.486  38.416  30.235  1.00  0.00     0.065 C 
BRANCH  20  23
ATOM     23  C   UNL A   1      43.220  38.669  27.117  1.00  0.00    -0.005 A 
ATOM     24  C   UNL A   1      41.847  38.858  27.006  1.00  0.00     0.029 A 
ATOM     25  C   UNL A   1      44.106  39.597  26.507  1.00  0.00     0.008 A 
ATOM     26  C   UNL A   1      41.407  39.996  26.363  1.00  0.00     0.112 A 
ATOM     27  C   UNL A   1      43.556  40.755  25.906  1.00  0.00     0.074 A 
ATOM     28  C   UNL A   1      45.502  39.400  26.464  1.00  0.00     0.011 A 
ATOM     29  N   UNL A   1      42.222  40.950  25.859  1.00  0.00    -0.256 NA
ATOM     30  C   UNL A   1      44.430  41.703  25.346  1.00  0.00    -0.025 A 
ATOM     31  C   UNL A   1      46.337  40.291  25.809  1.00  0.00     0.001 A 
ATOM     32  C   UNL A   1      43.937  43.048  24.876  1.00  0.00     0.047 C 
ATOM     33  C   UNL A   1      45.812  41.458  25.281  1.00  0.00     0.005 A 
ENDBRANCH  20  23
ENDBRANCH  11  12
ENDBRANCH   9  11
ENDBRANCH   8   9
ENDBRANCH   7   8
ENDBRANCH   6   7
ENDBRANCH   5   6
ENDBRANCH   4   5
ENDBRANCH   3   4
ENDBRANCH   2   3
ENDBRANCH   1   2
BRANCH   1  34
ATOM     34  C   UNL A   1      45.809  40.827  30.090  1.00  0.00     0.188 C 
BRANCH  34  35
ATOM     35  O   UNL A   1      45.419  40.987  31.457  1.00  0.00    -0.376 OA
BRANCH  35  36
ATOM     36  C   UNL A   1      46.471  41.108  32.421  1.00  0.00     0.202 C 
BRANCH  36  37
ATOM     37  C   UNL A   1      46.011  41.604  33.792  1.00  0.00     0.261 C 
BRANCH  37  38
ATOM     38  O   UNL A   1      44.987  40.734  34.294  1.00  0.00    -0.460 OA
BRANCH  38  39
ATOM     39  C   UNL A   1      45.378  39.795  35.186  1.00  0.00     0.338 C 
ATOM     40  O   UNL A   1      46.280  39.875  36.002  1.00  0.00    -0.246 OA
BRANCH  39  41
ATOM     41  C   UNL A   1      44.264  38.830  35.228  1.00  0.00     0.060 A 
ATOM     42  C   UNL A   1      44.173  37.875  36.245  1.00  0.00     0.016 A 
ATOM     43  C   UNL A   1      43.499  38.714  34.065  1.00  0.00     0.016 A 
ATOM     44  C   UNL A   1      43.403  36.735  36.046  1.00  0.00     0.010 A 
ATOM     45  C   UNL A   1      42.737  37.572  33.862  1.00  0.00     0.010 A 
ATOM     46  C   UNL A   1      42.716  36.563  34.834  1.00  0.00    -0.014 A 
BRANCH  46  47
ATOM     47  C   UNL A   1      41.742  35.466  34.719  1.00  0.00     0.031 A 
ATOM     48  C   UNL A   1      42.195  34.387  33.792  1.00  0.00     0.074 A 
ATOM     49  C   UNL A   1      40.676  35.324  35.539  1.00  0.00     0.049 A 
ATOM     50  N   UNL A   1      41.515  33.753  32.894  1.00  0.00    -0.248 NA
ATOM     51  C   UNL A   1      43.638  34.060  33.794  1.00  0.00     0.031 C 
ATOM     52  C   UNL A   1      40.292  36.243  36.611  1.00  0.00     0.029 A 
ATOM     53  N   UNL A   1      39.794  34.282  35.702  1.00  0.00    -0.354 N 
ATOM     54  C   UNL A   1      42.395  32.813  32.366  1.00  0.00     0.074 A 
ATOM     55  C   UNL A   1      43.714  33.167  32.815  1.00  0.00     0.031 C 
ATOM     56  C   UNL A   1      39.421  35.634  37.439  1.00  0.00     0.029 A 
ATOM     57  C   UNL A   1      39.153  34.297  36.946  1.00  0.00     0.049 A 
ATOM     58  H   UNL A   1      39.631  33.597  35.015  1.00  0.00     0.167 HD
ATOM     59  C   UNL A   1      41.967  31.651  31.809  1.00  0.00     0.031 A 
ATOM     60  C   UNL A   1      38.550  33.271  37.606  1.00  0.00     0.031 A 
ATOM     61  C   UNL A   1      40.608  31.728  31.362  1.00  0.00     0.049 A 
ATOM     62  C   UNL A   1      38.253  32.212  36.617  1.00  0.00     0.074 A 
ATOM     63  C   UNL A   1      39.952  32.520  30.443  1.00  0.00     0.029 A 
ATOM     64  N   UNL A   1      39.639  31.157  32.150  1.00  0.00    -0.354 N 
ATOM     65  N   UNL A   1      37.364  32.337  35.674  1.00  0.00    -0.248 NA
ATOM     66  C   UNL A   1      39.243  31.167  36.410  1.00  0.00     0.031 C 
ATOM     67  C   UNL A   1      38.660  32.732  30.991  1.00  0.00     0.029 A 
ATOM     68  C   UNL A   1      38.564  32.007  32.181  1.00  0.00     0.049 A 
ATOM     69  H   UNL A   1      39.705  30.289  32.611  1.00  0.00     0.167 HD
ATOM     70  C   UNL A   1      37.944  31.730  34.572  1.00  0.00     0.074 A 
ATOM     71  C   UNL A   1      39.043  30.932  35.111  1.00  0.00     0.031 C 
ATOM     72  C   UNL A   1      37.664  32.159  33.309  1.00  0.00     0.031 A 
BRANCH  59  73
ATOM     73  C   UNL A   1      42.715  30.359  32.000  1.00  0.00    -0.014 A 
ATOM     74  C   UNL A   1      42.615  29.598  33.187  1.00  0.00     0.010 A 
ATOM     75  C   UNL A   1      43.359  29.752  30.907  1.00  0.00     0.010 A 
ATOM     76  C   UNL A   1      43.175  28.330  33.311  1.00  0.00     0.020 A 
ATOM     77  C   UNL A   1      43.881  28.454  31.003  1.00  0.00     0.020 A 
ATOM     78  C   UNL A   1      43.799  27.760  32.211  1.00  0.00     0.054 A 
BRANCH  78  79
ATOM     79  S   UNL A   1      44.427  26.073  32.382  1.00  0.00     0.124 S 
ATOM     80  O   UNL A   1      43.762  25.629  33.604  1.00  0.00    -0.237 OA
ATOM     81  O   UNL A   1      43.967  25.442  31.148  1.00  0.00    -0.237 OA
ATOM     82  O   UNL A   1      45.872  26.256  32.487  1.00  0.00    -0.744 OA
ENDBRANCH  78  79
ENDBRANCH  59  73
BRANCH  60  83
ATOM     83  C   UNL A   1      38.574  33.001  39.076  1.00  0.00    -0.014 A 
ATOM     84  C   UNL A   1      39.789  33.069  39.790  1.00  0.00     0.010 A 
ATOM     85  C   UNL A   1      37.479  32.396  39.728  1.00  0.00     0.010 A 
ATOM     86  C   UNL A   1      39.942  32.477  41.047  1.00  0.00     0.020 A 
ATOM     87  C   UNL A   1      37.627  31.787  40.989  1.00  0.00     0.020 A 
ATOM     88  C   UNL A   1      38.874  31.792  41.616  1.00  0.00     0.054 A 
BRANCH  88  89
ATOM     89  S   UNL A   1      39.195  30.813  43.111  1.00  0.00     0.124 S 
ATOM     90  O   UNL A   1      38.478  31.579  44.129  1.00  0.00    -0.237 OA
ATOM     91  O   UNL A   1      38.610  29.518  42.777  1.00  0.00    -0.237 OA
ATOM     92  O   UNL A   1      40.650  30.825  43.231  1.00  0.00    -0.744 OA
ENDBRANCH  88  89
ENDBRANCH  60  83
BRANCH  72  93
ATOM     93  C   UNL A   1      36.486  33.089  33.090  1.00  0.00    -0.014 A 
ATOM     94  C   UNL A   1      35.307  32.520  32.575  1.00  0.00     0.010 A 
ATOM     95  C   UNL A   1      36.573  34.495  33.164  1.00  0.00     0.010 A 
ATOM     96  C   UNL A   1      34.268  33.320  32.098  1.00  0.00     0.020 A 
ATOM     97  C   UNL A   1      35.518  35.306  32.715  1.00  0.00     0.020 A 
ATOM     98  C   UNL A   1      34.384  34.710  32.155  1.00  0.00     0.054 A 
BRANCH  98  99
ATOM     99  S   UNL A   1      33.043  35.708  31.453  1.00  0.00     0.124 S 
ATOM    100  O   UNL A   1      32.912  35.147  30.108  1.00  0.00    -0.237 OA
ATOM    101  O   UNL A   1      31.926  35.427  32.354  1.00  0.00    -0.237 OA
ATOM    102  O   UNL A   1      33.552  37.075  31.506  1.00  0.00    -0.744 OA
ENDBRANCH  98  99
ENDBRANCH  72  93
ENDBRANCH  46  47
ENDBRANCH  39  41
ENDBRANCH  38  39
ENDBRANCH  37  38
ENDBRANCH  36  37
ENDBRANCH  35  36
ENDBRANCH  34  35
ENDBRANCH   1  34
TORSDOF 25
ENDMDL
