MODEL 1
REMARK VINA RESULT:      -9.4      0.000      0.000
REMARK SMILES COc1cc(Cl)c(C)cc1N1C(=O)C[C@H](Nc2cc(C(=O)OCCOCCOCCOCCOC(=O)c3ccc(-c4c5nc(c(-c6ccc(S(=O)(=O)[O-])cc6)c6ccc([nH]6)c(-c6ccc(S(=O)(=O)[O-])cc6)c6nc(c(-c7ccc(S(=O)(=O)[O-])cc7)c7ccc4[nH]7)C=C6)C=C5)cc3)ccc2C)C1=O
REMARK SMILES IDX 27 1 26 2 25 3 24 4 23 5 22 6 20 7 21 8 19 9 17 10 18 11
REMARK SMILES IDX 99 12 98 13 100 14 97 15 16 16 15 18 11 19 12 20 101 21
REMARK SMILES IDX 13 22 14 23 102 24 10 25 3 26 4 27 5 28 9 29 6 30 7 31 8 32
REMARK SMILES IDX 2 33 1 34 28 35 29 36 30 37 31 38 32 39 33 40 34 41 35 42
REMARK SMILES IDX 36 43 37 44 38 45 96 46 39 47 95 48 40 49 41 50 42 51 89 52
REMARK SMILES IDX 43 53 94 54 88 55 90 56 44 57 93 58 87 59 86 60 45 62 75 63
REMARK SMILES IDX 56 64 74 65 57 66 60 67 73 68 91 69 58 70 59 71 72 73 92 74
REMARK SMILES IDX 61 75 46 76 47 77 55 78 48 79 54 80 49 81 50 82 51 83 52 84
REMARK SMILES IDX 53 85 76 86 77 87 85 88 78 89 84 90 79 91 80 92 81 93 82 94
REMARK SMILES IDX 83 95 62 96 63 97 71 98 64 99 70 100 65 101 66 102 67 103
REMARK SMILES IDX 68 104 69 105
REMARK H PARENT 16 17 90 61 60 72
REMARK Flexibility Score: inf
ROOT
ATOM      1  C   UNL A   1      40.726  22.075  26.506  1.00  0.00     0.188 C 
ENDROOT
BRANCH   1   2
ATOM      2  C   UNL A   1      39.302  21.886  25.952  1.00  0.00     0.188 C 
BRANCH   2   3
ATOM      3  O   UNL A   1      38.221  22.656  26.462  1.00  0.00    -0.376 OA
BRANCH   3   4
ATOM      4  C   UNL A   1      37.145  22.935  25.583  1.00  0.00     0.202 C 
BRANCH   4   5
ATOM      5  C   UNL A   1      36.392  24.259  25.646  1.00  0.00     0.261 C 
BRANCH   5   6
ATOM      6  O   UNL A   1      34.986  24.253  25.445  1.00  0.00    -0.460 OA
BRANCH   6   7
ATOM      7  C   UNL A   1      34.484  25.083  24.525  1.00  0.00     0.338 C 
ATOM      8  O   UNL A   1      34.482  24.971  23.306  1.00  0.00    -0.246 OA
BRANCH   7   9
ATOM      9  C   UNL A   1      33.637  26.025  25.269  1.00  0.00     0.062 A 
ATOM     10  C   UNL A   1      33.337  27.792  26.919  1.00  0.00     0.038 A 
ATOM     11  C   UNL A   1      34.172  27.043  26.078  1.00  0.00     0.041 A 
ATOM     12  C   UNL A   1      31.969  27.450  26.976  1.00  0.00    -0.028 A 
ATOM     13  C   UNL A   1      31.452  26.426  26.161  1.00  0.00     0.006 A 
ATOM     14  C   UNL A   1      30.989  28.156  27.873  1.00  0.00     0.046 C 
ATOM     15  C   UNL A   1      32.278  25.728  25.296  1.00  0.00     0.016 A 
BRANCH  10  16
ATOM     16  N   UNL A   1      33.858  28.736  27.801  1.00  0.00    -0.373 N 
ATOM     17  H   UNL A   1      33.630  28.685  28.757  1.00  0.00     0.161 HD
BRANCH  16  18
ATOM     18  C   UNL A   1      34.742  29.803  27.324  1.00  0.00     0.179 C 
ATOM     19  N   UNL A   1      35.601  31.560  28.632  1.00  0.00    -0.245 N 
ATOM     20  C   UNL A   1      34.480  32.072  28.041  1.00  0.00     0.236 C 
ATOM     21  C   UNL A   1      35.774  30.221  28.365  1.00  0.00     0.256 C 
ATOM     22  O   UNL A   1      34.006  33.192  28.176  1.00  0.00    -0.274 OA
ATOM     23  C   UNL A   1      33.916  31.059  27.093  1.00  0.00     0.136 C 
ATOM     24  O   UNL A   1      36.541  29.449  28.925  1.00  0.00    -0.272 OA
BRANCH  19  25
ATOM     25  C   UNL A   1      36.456  32.313  29.466  1.00  0.00     0.094 A 
ATOM     26  C   UNL A   1      36.234  32.405  30.850  1.00  0.00     0.144 A 
ATOM     27  C   UNL A   1      37.087  33.162  31.658  1.00  0.00     0.069 A 
ATOM     28  C   UNL A   1      38.182  33.821  31.096  1.00  0.00     0.047 A 
ATOM     29  C   UNL A   1      37.575  32.963  28.919  1.00  0.00     0.035 A 
ATOM     30  Cl  UNL A   1      39.226  34.707  32.152  1.00  0.00    -0.084 Cl
ATOM     31  C   UNL A   1      38.432  33.742  29.718  1.00  0.00    -0.030 A 
ATOM     32  C   UNL A   1      39.574  34.482  29.077  1.00  0.00     0.046 C 
BRANCH  26  33
ATOM     33  O   UNL A   1      35.210  31.756  31.492  1.00  0.00    -0.495 OA
ATOM     34  C   UNL A   1      34.571  32.582  32.464  1.00  0.00     0.278 C 
ENDBRANCH  26  33
ENDBRANCH  19  25
ENDBRANCH  16  18
ENDBRANCH  10  16
ENDBRANCH   7   9
ENDBRANCH   6   7
ENDBRANCH   5   6
ENDBRANCH   4   5
ENDBRANCH   3   4
ENDBRANCH   2   3
ENDBRANCH   1   2
BRANCH   1  35
ATOM     35  O   UNL A   1      41.319  20.899  27.033  1.00  0.00    -0.377 OA
BRANCH  35  36
ATOM     36  C   UNL A   1      41.375  19.811  26.109  1.00  0.00     0.188 C 
BRANCH  36  37
ATOM     37  C   UNL A   1      42.229  18.617  26.578  1.00  0.00     0.188 C 
BRANCH  37  38
ATOM     38  O   UNL A   1      43.595  18.707  26.183  1.00  0.00    -0.376 OA
BRANCH  38  39
ATOM     39  C   UNL A   1      43.861  18.908  24.802  1.00  0.00     0.202 C 
BRANCH  39  40
ATOM     40  C   UNL A   1      44.774  20.101  24.509  1.00  0.00     0.261 C 
BRANCH  40  41
ATOM     41  O   UNL A   1      44.589  21.126  25.500  1.00  0.00    -0.460 OA
BRANCH  41  42
ATOM     42  C   UNL A   1      44.179  22.318  24.982  1.00  0.00     0.338 C 
ATOM     43  O   UNL A   1      43.560  22.431  23.939  1.00  0.00    -0.246 OA
BRANCH  42  44
ATOM     44  C   UNL A   1      44.661  23.430  25.846  1.00  0.00     0.060 A 
ATOM     45  C   UNL A   1      45.943  23.392  26.411  1.00  0.00     0.016 A 
ATOM     46  C   UNL A   1      43.758  24.403  26.263  1.00  0.00     0.016 A 
ATOM     47  C   UNL A   1      46.271  24.243  27.485  1.00  0.00     0.010 A 
ATOM     48  C   UNL A   1      44.065  25.184  27.361  1.00  0.00     0.010 A 
ATOM     49  C   UNL A   1      45.309  25.106  28.017  1.00  0.00    -0.014 A 
BRANCH  49  50
ATOM     50  C   UNL A   1      45.399  25.830  29.310  1.00  0.00     0.031 A 
ATOM     51  C   UNL A   1      44.915  25.157  30.583  1.00  0.00     0.074 A 
ATOM     52  C   UNL A   1      46.240  26.899  29.431  1.00  0.00     0.049 A 
ATOM     53  N   UNL A   1      45.116  25.628  31.768  1.00  0.00    -0.248 NA
ATOM     54  C   UNL A   1      44.191  23.880  30.660  1.00  0.00     0.031 C 
ATOM     55  C   UNL A   1      46.909  27.306  30.678  1.00  0.00     0.029 A 
ATOM     56  N   UNL A   1      46.780  27.813  28.525  1.00  0.00    -0.354 N 
ATOM     57  C   UNL A   1      44.974  24.617  32.686  1.00  0.00     0.074 A 
ATOM     58  C   UNL A   1      44.285  23.578  31.965  1.00  0.00     0.031 C 
ATOM     59  C   UNL A   1      47.678  28.382  30.489  1.00  0.00     0.029 A 
ATOM     60  C   UNL A   1      47.247  28.931  29.236  1.00  0.00     0.049 A 
ATOM     61  H   UNL A   1      46.825  27.694  27.549  1.00  0.00     0.167 HD
ATOM     62  C   UNL A   1      45.563  24.751  33.912  1.00  0.00     0.031 A 
ATOM     63  C   UNL A   1      46.720  30.193  29.166  1.00  0.00     0.031 A 
ATOM     64  C   UNL A   1      46.088  26.108  34.131  1.00  0.00     0.049 A 
ATOM     65  C   UNL A   1      46.117  30.612  30.504  1.00  0.00     0.074 A 
ATOM     66  C   UNL A   1      47.328  26.633  34.457  1.00  0.00     0.029 A 
ATOM     67  N   UNL A   1      45.270  27.202  33.851  1.00  0.00    -0.354 N 
ATOM     68  N   UNL A   1      45.723  29.737  31.396  1.00  0.00    -0.248 NA
ATOM     69  C   UNL A   1      46.004  31.977  31.015  1.00  0.00     0.031 C 
ATOM     70  C   UNL A   1      47.266  28.046  34.277  1.00  0.00     0.029 A 
ATOM     71  C   UNL A   1      45.978  28.384  33.891  1.00  0.00     0.049 A 
ATOM     72  H   UNL A   1      44.309  27.138  33.650  1.00  0.00     0.167 HD
ATOM     73  C   UNL A   1      45.474  30.352  32.586  1.00  0.00     0.074 A 
ATOM     74  C   UNL A   1      45.568  31.768  32.277  1.00  0.00     0.031 C 
ATOM     75  C   UNL A   1      45.293  29.664  33.751  1.00  0.00     0.031 A 
BRANCH  62  76
ATOM     76  C   UNL A   1      45.791  23.627  34.915  1.00  0.00    -0.014 A 
ATOM     77  C   UNL A   1      45.676  22.281  34.496  1.00  0.00     0.010 A 
ATOM     78  C   UNL A   1      46.044  23.818  36.289  1.00  0.00     0.010 A 
ATOM     79  C   UNL A   1      45.824  21.197  35.379  1.00  0.00     0.020 A 
ATOM     80  C   UNL A   1      46.231  22.742  37.178  1.00  0.00     0.020 A 
ATOM     81  C   UNL A   1      46.115  21.434  36.720  1.00  0.00     0.054 A 
BRANCH  81  82
ATOM     82  S   UNL A   1      46.350  20.026  37.842  1.00  0.00     0.124 S 
ATOM     83  O   UNL A   1      47.776  19.741  37.700  1.00  0.00    -0.237 OA
ATOM     84  O   UNL A   1      45.945  20.572  39.134  1.00  0.00    -0.237 OA
ATOM     85  O   UNL A   1      45.459  18.999  37.303  1.00  0.00    -0.744 OA
ENDBRANCH  81  82
ENDBRANCH  62  76
BRANCH  63  86
ATOM     86  C   UNL A   1      46.391  30.605  27.778  1.00  0.00    -0.014 A 
ATOM     87  C   UNL A   1      45.004  30.608  27.495  1.00  0.00     0.010 A 
ATOM     88  C   UNL A   1      47.221  31.536  27.125  1.00  0.00     0.010 A 
ATOM     89  C   UNL A   1      44.427  31.690  26.828  1.00  0.00     0.020 A 
ATOM     90  C   UNL A   1      46.639  32.617  26.442  1.00  0.00     0.020 A 
ATOM     91  C   UNL A   1      45.245  32.727  26.382  1.00  0.00     0.054 A 
BRANCH  91  92
ATOM     92  S   UNL A   1      44.455  34.329  26.021  1.00  0.00     0.124 S 
ATOM     93  O   UNL A   1      45.582  35.143  25.579  1.00  0.00    -0.237 OA
ATOM     94  O   UNL A   1      43.488  33.967  24.986  1.00  0.00    -0.237 OA
ATOM     95  O   UNL A   1      43.866  34.706  27.303  1.00  0.00    -0.744 OA
ENDBRANCH  91  92
ENDBRANCH  63  86
BRANCH  75  96
ATOM     96  C   UNL A   1      44.490  30.150  34.933  1.00  0.00    -0.014 A 
ATOM     97  C   UNL A   1      45.067  30.790  36.037  1.00  0.00     0.010 A 
ATOM     98  C   UNL A   1      43.074  30.182  34.833  1.00  0.00     0.010 A 
ATOM     99  C   UNL A   1      44.270  31.406  37.011  1.00  0.00     0.020 A 
ATOM    100  C   UNL A   1      42.274  30.830  35.775  1.00  0.00     0.020 A 
ATOM    101  C   UNL A   1      42.880  31.425  36.872  1.00  0.00     0.054 A 
BRANCH 101 102
ATOM    102  S   UNL A   1      41.882  32.300  38.100  1.00  0.00     0.124 S 
ATOM    103  O   UNL A   1      40.526  32.019  37.635  1.00  0.00    -0.237 OA
ATOM    104  O   UNL A   1      42.264  31.648  39.350  1.00  0.00    -0.237 OA
ATOM    105  O   UNL A   1      42.313  33.689  37.974  1.00  0.00    -0.744 OA
ENDBRANCH 101 102
ENDBRANCH  75  96
ENDBRANCH  49  50
ENDBRANCH  42  44
ENDBRANCH  41  42
ENDBRANCH  40  41
ENDBRANCH  39  40
ENDBRANCH  38  39
ENDBRANCH  37  38
ENDBRANCH  36  37
ENDBRANCH  35  36
ENDBRANCH   1  35
TORSDOF 27
ENDMDL
MODEL 2
REMARK VINA RESULT:      -8.6      5.848     10.468
REMARK SMILES COc1cc(Cl)c(C)cc1N1C(=O)C[C@H](Nc2cc(C(=O)OCCOCCOCCOCCOC(=O)c3ccc(-c4c5nc(c(-c6ccc(S(=O)(=O)[O-])cc6)c6ccc([nH]6)c(-c6ccc(S(=O)(=O)[O-])cc6)c6nc(c(-c7ccc(S(=O)(=O)[O-])cc7)c7ccc4[nH]7)C=C6)C=C5)cc3)ccc2C)C1=O
REMARK SMILES IDX 27 1 26 2 25 3 24 4 23 5 22 6 20 7 21 8 19 9 17 10 18 11
REMARK SMILES IDX 99 12 98 13 100 14 97 15 16 16 15 18 11 19 12 20 101 21
REMARK SMILES IDX 13 22 14 23 102 24 10 25 3 26 4 27 5 28 9 29 6 30 7 31 8 32
REMARK SMILES IDX 2 33 1 34 28 35 29 36 30 37 31 38 32 39 33 40 34 41 35 42
REMARK SMILES IDX 36 43 37 44 38 45 96 46 39 47 95 48 40 49 41 50 42 51 89 52
REMARK SMILES IDX 43 53 94 54 88 55 90 56 44 57 93 58 87 59 86 60 45 62 75 63
REMARK SMILES IDX 56 64 74 65 57 66 60 67 73 68 91 69 58 70 59 71 72 73 92 74
REMARK SMILES IDX 61 75 46 76 47 77 55 78 48 79 54 80 49 81 50 82 51 83 52 84
REMARK SMILES IDX 53 85 76 86 77 87 85 88 78 89 84 90 79 91 80 92 81 93 82 94
REMARK SMILES IDX 83 95 62 96 63 97 71 98 64 99 70 100 65 101 66 102 67 103
REMARK SMILES IDX 68 104 69 105
REMARK H PARENT 16 17 90 61 60 72
REMARK Flexibility Score: inf
ROOT
ATOM      1  C   UNL A   1      43.055  27.954  26.561  1.00  0.00     0.188 C 
ENDROOT
BRANCH   1   2
ATOM      2  C   UNL A   1      41.635  27.767  25.996  1.00  0.00     0.188 C 
BRANCH   2   3
ATOM      3  O   UNL A   1      40.504  27.815  26.857  1.00  0.00    -0.376 OA
BRANCH   3   4
ATOM      4  C   UNL A   1      39.736  29.006  26.862  1.00  0.00     0.202 C 
BRANCH   4   5
ATOM      5  C   UNL A   1      38.722  29.291  27.965  1.00  0.00     0.261 C 
BRANCH   5   6
ATOM      6  O   UNL A   1      37.635  30.160  27.682  1.00  0.00    -0.460 OA
BRANCH   6   7
ATOM      7  C   UNL A   1      37.429  31.190  28.508  1.00  0.00     0.338 C 
ATOM      8  O   UNL A   1      38.250  31.884  29.095  1.00  0.00    -0.246 OA
BRANCH   7   9
ATOM      9  C   UNL A   1      36.014  31.550  28.339  1.00  0.00     0.062 A 
ATOM     10  C   UNL A   1      33.739  31.025  27.646  1.00  0.00     0.038 A 
ATOM     11  C   UNL A   1      35.033  30.608  27.986  1.00  0.00     0.041 A 
ATOM     12  C   UNL A   1      33.475  32.412  27.605  1.00  0.00    -0.028 A 
ATOM     13  C   UNL A   1      34.471  33.341  27.960  1.00  0.00     0.006 A 
ATOM     14  C   UNL A   1      32.138  32.976  27.214  1.00  0.00     0.046 C 
ATOM     15  C   UNL A   1      35.731  32.913  28.345  1.00  0.00     0.016 A 
BRANCH  10  16
ATOM     16  N   UNL A   1      32.781  30.120  27.197  1.00  0.00    -0.373 N 
ATOM     17  H   UNL A   1      31.970  30.453  26.748  1.00  0.00     0.161 HD
BRANCH  16  18
ATOM     18  C   UNL A   1      32.964  28.678  27.382  1.00  0.00     0.179 C 
ATOM     19  N   UNL A   1      32.484  27.017  25.786  1.00  0.00    -0.245 N 
ATOM     20  C   UNL A   1      31.367  27.090  26.571  1.00  0.00     0.236 C 
ATOM     21  C   UNL A   1      33.419  27.973  26.109  1.00  0.00     0.256 C 
ATOM     22  O   UNL A   1      30.330  26.449  26.460  1.00  0.00    -0.274 OA
ATOM     23  C   UNL A   1      31.616  28.048  27.695  1.00  0.00     0.136 C 
ATOM     24  O   UNL A   1      34.399  28.300  25.452  1.00  0.00    -0.272 OA
BRANCH  19  25
ATOM     25  C   UNL A   1      32.635  26.094  24.728  1.00  0.00     0.094 A 
ATOM     26  C   UNL A   1      32.196  26.393  23.428  1.00  0.00     0.144 A 
ATOM     27  C   UNL A   1      32.347  25.463  22.395  1.00  0.00     0.069 A 
ATOM     28  C   UNL A   1      32.954  24.232  22.645  1.00  0.00     0.047 A 
ATOM     29  C   UNL A   1      33.265  24.860  24.959  1.00  0.00     0.035 A 
ATOM     30  Cl  UNL A   1      33.151  23.140  21.319  1.00  0.00    -0.084 Cl
ATOM     31  C   UNL A   1      33.409  23.908  23.932  1.00  0.00    -0.030 A 
ATOM     32  C   UNL A   1      34.021  22.570  24.243  1.00  0.00     0.046 C 
BRANCH  26  33
ATOM     33  O   UNL A   1      31.629  27.594  23.084  1.00  0.00    -0.495 OA
ATOM     34  C   UNL A   1      30.207  27.510  22.977  1.00  0.00     0.278 C 
ENDBRANCH  26  33
ENDBRANCH  19  25
ENDBRANCH  16  18
ENDBRANCH  10  16
ENDBRANCH   7   9
ENDBRANCH   6   7
ENDBRANCH   5   6
ENDBRANCH   4   5
ENDBRANCH   3   4
ENDBRANCH   2   3
ENDBRANCH   1   2
BRANCH   1  35
ATOM     35  O   UNL A   1      43.135  28.798  27.699  1.00  0.00    -0.377 OA
BRANCH  35  36
ATOM     36  C   UNL A   1      43.479  28.117  28.906  1.00  0.00     0.188 C 
BRANCH  36  37
ATOM     37  C   UNL A   1      42.817  28.690  30.174  1.00  0.00     0.188 C 
BRANCH  37  38
ATOM     38  O   UNL A   1      41.393  28.692  30.119  1.00  0.00    -0.376 OA
BRANCH  38  39
ATOM     39  C   UNL A   1      40.696  28.357  31.311  1.00  0.00     0.202 C 
BRANCH  39  40
ATOM     40  C   UNL A   1      39.252  27.902  31.082  1.00  0.00     0.261 C 
BRANCH  40  41
ATOM     41  O   UNL A   1      38.340  28.982  31.346  1.00  0.00    -0.460 OA
BRANCH  41  42
ATOM     42  C   UNL A   1      37.937  29.051  32.646  1.00  0.00     0.338 C 
ATOM     43  O   UNL A   1      37.301  28.178  33.209  1.00  0.00    -0.246 OA
BRANCH  42  44
ATOM     44  C   UNL A   1      38.335  30.364  33.223  1.00  0.00     0.060 A 
ATOM     45  C   UNL A   1      38.066  31.557  32.539  1.00  0.00     0.016 A 
ATOM     46  C   UNL A   1      39.165  30.388  34.340  1.00  0.00     0.016 A 
ATOM     47  C   UNL A   1      38.731  32.746  32.895  1.00  0.00     0.010 A 
ATOM     48  C   UNL A   1      39.865  31.542  34.637  1.00  0.00     0.010 A 
ATOM     49  C   UNL A   1      39.692  32.736  33.911  1.00  0.00    -0.014 A 
BRANCH  49  50
ATOM     50  C   UNL A   1      40.678  33.809  34.196  1.00  0.00     0.031 A 
ATOM     51  C   UNL A   1      40.375  34.843  35.266  1.00  0.00     0.074 A 
ATOM     52  C   UNL A   1      41.976  33.660  33.799  1.00  0.00     0.049 A 
ATOM     53  N   UNL A   1      41.236  35.698  35.707  1.00  0.00    -0.248 NA
ATOM     54  C   UNL A   1      39.095  35.002  35.972  1.00  0.00     0.031 C 
ATOM     55  C   UNL A   1      43.138  34.243  34.490  1.00  0.00     0.029 A 
ATOM     56  N   UNL A   1      42.602  32.921  32.794  1.00  0.00    -0.354 N 
ATOM     57  C   UNL A   1      40.824  36.164  36.932  1.00  0.00     0.074 A 
ATOM     58  C   UNL A   1      39.434  35.794  37.002  1.00  0.00     0.031 C 
ATOM     59  C   UNL A   1      44.281  33.919  33.877  1.00  0.00     0.029 A 
ATOM     60  C   UNL A   1      43.888  33.448  32.582  1.00  0.00     0.049 A 
ATOM     61  H   UNL A   1      42.207  32.159  32.313  1.00  0.00     0.167 HD
ATOM     62  C   UNL A   1      41.751  36.706  37.777  1.00  0.00     0.031 A 
ATOM     63  C   UNL A   1      44.305  34.087  31.446  1.00  0.00     0.031 A 
ATOM     64  C   UNL A   1      43.051  36.909  37.120  1.00  0.00     0.049 A 
ATOM     65  C   UNL A   1      44.639  35.549  31.728  1.00  0.00     0.074 A 
ATOM     66  C   UNL A   1      44.349  36.501  37.378  1.00  0.00     0.029 A 
ATOM     67  N   UNL A   1      43.089  37.536  35.874  1.00  0.00    -0.354 N 
ATOM     68  N   UNL A   1      44.132  36.196  32.749  1.00  0.00    -0.248 NA
ATOM     69  C   UNL A   1      45.613  36.370  31.012  1.00  0.00     0.031 C 
ATOM     70  C   UNL A   1      45.142  36.807  36.234  1.00  0.00     0.029 A 
ATOM     71  C   UNL A   1      44.338  37.445  35.301  1.00  0.00     0.049 A 
ATOM     72  H   UNL A   1      42.319  37.986  35.457  1.00  0.00     0.167 HD
ATOM     73  C   UNL A   1      44.779  37.381  32.928  1.00  0.00     0.074 A 
ATOM     74  C   UNL A   1      45.634  37.496  31.760  1.00  0.00     0.031 C 
ATOM     75  C   UNL A   1      44.635  38.140  34.054  1.00  0.00     0.031 A 
BRANCH  62  76
ATOM     76  C   UNL A   1      41.550  36.966  39.265  1.00  0.00    -0.014 A 
ATOM     77  C   UNL A   1      42.338  37.941  39.917  1.00  0.00     0.010 A 
ATOM     78  C   UNL A   1      40.666  36.242  40.092  1.00  0.00     0.010 A 
ATOM     79  C   UNL A   1      42.239  38.196  41.297  1.00  0.00     0.020 A 
ATOM     80  C   UNL A   1      40.530  36.511  41.468  1.00  0.00     0.020 A 
ATOM     81  C   UNL A   1      41.322  37.485  42.067  1.00  0.00     0.054 A 
BRANCH  81  82
ATOM     82  S   UNL A   1      41.170  37.855  43.838  1.00  0.00     0.124 S 
ATOM     83  O   UNL A   1      41.571  39.258  43.905  1.00  0.00    -0.237 OA
ATOM     84  O   UNL A   1      39.759  37.591  44.102  1.00  0.00    -0.237 OA
ATOM     85  O   UNL A   1      42.098  36.917  44.470  1.00  0.00    -0.744 OA
ENDBRANCH  81  82
ENDBRANCH  62  76
BRANCH  63  86
ATOM     86  C   UNL A   1      43.845  33.416  30.203  1.00  0.00    -0.014 A 
ATOM     87  C   UNL A   1      43.304  34.300  29.241  1.00  0.00     0.010 A 
ATOM     88  C   UNL A   1      44.514  32.258  29.764  1.00  0.00     0.010 A 
ATOM     89  C   UNL A   1      43.681  34.196  27.901  1.00  0.00     0.020 A 
ATOM     90  C   UNL A   1      44.881  32.146  28.412  1.00  0.00     0.020 A 
ATOM     91  C   UNL A   1      44.537  33.165  27.515  1.00  0.00     0.054 A 
BRANCH  91  92
ATOM     92  S   UNL A   1      45.430  33.354  25.939  1.00  0.00     0.124 S 
ATOM     93  O   UNL A   1      44.556  32.665  24.996  1.00  0.00    -0.237 OA
ATOM     94  O   UNL A   1      45.498  34.807  25.798  1.00  0.00    -0.237 OA
ATOM     95  O   UNL A   1      46.712  32.705  26.202  1.00  0.00    -0.744 OA
ENDBRANCH  91  92
ENDBRANCH  63  86
BRANCH  75  96
ATOM     96  C   UNL A   1      44.819  39.636  34.124  1.00  0.00    -0.014 A 
ATOM     97  C   UNL A   1      46.069  40.245  34.292  1.00  0.00     0.010 A 
ATOM     98  C   UNL A   1      43.731  40.478  33.772  1.00  0.00     0.010 A 
ATOM     99  C   UNL A   1      46.222  41.630  34.146  1.00  0.00     0.020 A 
ATOM    100  C   UNL A   1      43.882  41.852  33.581  1.00  0.00     0.020 A 
ATOM    101  C   UNL A   1      45.129  42.423  33.788  1.00  0.00     0.054 A 
BRANCH 101 102
ATOM    102  S   UNL A   1      45.373  44.195  33.523  1.00  0.00     0.124 S 
ATOM    103  O   UNL A   1      44.617  44.767  34.634  1.00  0.00    -0.237 OA
ATOM    104  O   UNL A   1      46.824  44.338  33.613  1.00  0.00    -0.237 OA
ATOM    105  O   UNL A   1      44.813  44.430  32.196  1.00  0.00    -0.744 OA
ENDBRANCH 101 102
ENDBRANCH  75  96
ENDBRANCH  49  50
ENDBRANCH  42  44
ENDBRANCH  41  42
ENDBRANCH  40  41
ENDBRANCH  39  40
ENDBRANCH  38  39
ENDBRANCH  37  38
ENDBRANCH  36  37
ENDBRANCH  35  36
ENDBRANCH   1  35
TORSDOF 27
ENDMDL
MODEL 3
REMARK VINA RESULT:      -8.6      4.184      6.577
REMARK SMILES COc1cc(Cl)c(C)cc1N1C(=O)C[C@H](Nc2cc(C(=O)OCCOCCOCCOCCOC(=O)c3ccc(-c4c5nc(c(-c6ccc(S(=O)(=O)[O-])cc6)c6ccc([nH]6)c(-c6ccc(S(=O)(=O)[O-])cc6)c6nc(c(-c7ccc(S(=O)(=O)[O-])cc7)c7ccc4[nH]7)C=C6)C=C5)cc3)ccc2C)C1=O
REMARK SMILES IDX 27 1 26 2 25 3 24 4 23 5 22 6 20 7 21 8 19 9 17 10 18 11
REMARK SMILES IDX 99 12 98 13 100 14 97 15 16 16 15 18 11 19 12 20 101 21
REMARK SMILES IDX 13 22 14 23 102 24 10 25 3 26 4 27 5 28 9 29 6 30 7 31 8 32
REMARK SMILES IDX 2 33 1 34 28 35 29 36 30 37 31 38 32 39 33 40 34 41 35 42
REMARK SMILES IDX 36 43 37 44 38 45 96 46 39 47 95 48 40 49 41 50 42 51 89 52
REMARK SMILES IDX 43 53 94 54 88 55 90 56 44 57 93 58 87 59 86 60 45 62 75 63
REMARK SMILES IDX 56 64 74 65 57 66 60 67 73 68 91 69 58 70 59 71 72 73 92 74
REMARK SMILES IDX 61 75 46 76 47 77 55 78 48 79 54 80 49 81 50 82 51 83 52 84
REMARK SMILES IDX 53 85 76 86 77 87 85 88 78 89 84 90 79 91 80 92 81 93 82 94
REMARK SMILES IDX 83 95 62 96 63 97 71 98 64 99 70 100 65 101 66 102 67 103
REMARK SMILES IDX 68 104 69 105
REMARK H PARENT 16 17 90 61 60 72
REMARK Flexibility Score: inf
ROOT
ATOM      1  C   UNL A   1      40.203  23.037  26.432  1.00  0.00     0.188 C 
ENDROOT
BRANCH   1   2
ATOM      2  C   UNL A   1      38.825  22.503  25.998  1.00  0.00     0.188 C 
BRANCH   2   3
ATOM      3  O   UNL A   1      37.634  23.164  26.405  1.00  0.00    -0.376 OA
BRANCH   3   4
ATOM      4  C   UNL A   1      36.527  23.120  25.522  1.00  0.00     0.202 C 
BRANCH   4   5
ATOM      5  C   UNL A   1      35.545  24.283  25.422  1.00  0.00     0.261 C 
BRANCH   5   6
ATOM      6  O   UNL A   1      34.437  24.164  24.543  1.00  0.00    -0.460 OA
BRANCH   6   7
ATOM      7  C   UNL A   1      34.127  25.220  23.784  1.00  0.00     0.338 C 
ATOM      8  O   UNL A   1      34.143  25.322  22.563  1.00  0.00    -0.246 OA
BRANCH   7   9
ATOM      9  C   UNL A   1      33.446  26.162  24.682  1.00  0.00     0.062 A 
ATOM     10  C   UNL A   1      33.415  27.614  26.638  1.00  0.00     0.038 A 
ATOM     11  C   UNL A   1      34.128  26.878  25.681  1.00  0.00     0.041 A 
ATOM     12  C   UNL A   1      32.005  27.558  26.606  1.00  0.00    -0.028 A 
ATOM     13  C   UNL A   1      31.340  26.834  25.600  1.00  0.00     0.006 A 
ATOM     14  C   UNL A   1      31.139  28.272  27.606  1.00  0.00     0.046 C 
ATOM     15  C   UNL A   1      32.055  26.153  24.629  1.00  0.00     0.016 A 
BRANCH  10  16
ATOM     16  N   UNL A   1      34.065  28.248  27.694  1.00  0.00    -0.373 N 
ATOM     17  H   UNL A   1      33.950  27.908  28.610  1.00  0.00     0.161 HD
BRANCH  16  18
ATOM     18  C   UNL A   1      34.920  29.415  27.458  1.00  0.00     0.179 C 
ATOM     19  N   UNL A   1      35.118  31.279  28.879  1.00  0.00    -0.245 N 
ATOM     20  C   UNL A   1      34.181  31.638  27.951  1.00  0.00     0.236 C 
ATOM     21  C   UNL A   1      35.523  29.972  28.743  1.00  0.00     0.256 C 
ATOM     22  O   UNL A   1      33.559  32.691  27.881  1.00  0.00    -0.274 OA
ATOM     23  C   UNL A   1      34.062  30.553  26.926  1.00  0.00     0.136 C 
ATOM     24  O   UNL A   1      36.166  29.309  29.547  1.00  0.00    -0.272 OA
BRANCH  19  25
ATOM     25  C   UNL A   1      35.579  32.144  29.897  1.00  0.00     0.094 A 
ATOM     26  C   UNL A   1      36.859  32.718  29.846  1.00  0.00     0.144 A 
ATOM     27  C   UNL A   1      37.300  33.564  30.868  1.00  0.00     0.069 A 
ATOM     28  C   UNL A   1      36.460  33.862  31.941  1.00  0.00     0.047 A 
ATOM     29  C   UNL A   1      34.736  32.471  30.972  1.00  0.00     0.035 A 
ATOM     30  Cl  UNL A   1      37.044  34.949  33.153  1.00  0.00    -0.084 Cl
ATOM     31  C   UNL A   1      35.173  33.309  32.016  1.00  0.00    -0.030 A 
ATOM     32  C   UNL A   1      34.264  33.571  33.185  1.00  0.00     0.046 C 
BRANCH  26  33
ATOM     33  O   UNL A   1      37.734  32.514  28.809  1.00  0.00    -0.495 OA
ATOM     34  C   UNL A   1      38.746  31.562  29.133  1.00  0.00     0.278 C 
ENDBRANCH  26  33
ENDBRANCH  19  25
ENDBRANCH  16  18
ENDBRANCH  10  16
ENDBRANCH   7   9
ENDBRANCH   6   7
ENDBRANCH   5   6
ENDBRANCH   4   5
ENDBRANCH   3   4
ENDBRANCH   2   3
ENDBRANCH   1   2
BRANCH   1  35
ATOM     35  O   UNL A   1      41.081  22.053  26.955  1.00  0.00    -0.377 OA
BRANCH  35  36
ATOM     36  C   UNL A   1      40.904  20.754  26.391  1.00  0.00     0.188 C 
BRANCH  36  37
ATOM     37  C   UNL A   1      41.254  19.591  27.339  1.00  0.00     0.188 C 
BRANCH  37  38
ATOM     38  O   UNL A   1      42.453  18.908  26.981  1.00  0.00    -0.376 OA
BRANCH  38  39
ATOM     39  C   UNL A   1      42.797  18.879  25.603  1.00  0.00     0.202 C 
BRANCH  39  40
ATOM     40  C   UNL A   1      44.189  19.439  25.296  1.00  0.00     0.261 C 
BRANCH  40  41
ATOM     41  O   UNL A   1      44.266  20.822  25.683  1.00  0.00    -0.460 OA
BRANCH  41  42
ATOM     42  C   UNL A   1      44.759  21.635  24.707  1.00  0.00     0.338 C 
ATOM     43  O   UNL A   1      44.710  21.378  23.517  1.00  0.00    -0.246 OA
BRANCH  42  44
ATOM     44  C   UNL A   1      45.408  22.823  25.327  1.00  0.00     0.060 A 
ATOM     45  C   UNL A   1      45.574  22.903  26.716  1.00  0.00     0.016 A 
ATOM     46  C   UNL A   1      45.655  23.944  24.542  1.00  0.00     0.016 A 
ATOM     47  C   UNL A   1      45.857  24.140  27.327  1.00  0.00     0.010 A 
ATOM     48  C   UNL A   1      45.864  25.166  25.155  1.00  0.00     0.010 A 
ATOM     49  C   UNL A   1      45.941  25.302  26.554  1.00  0.00    -0.014 A 
BRANCH  49  50
ATOM     50  C   UNL A   1      45.931  26.697  27.065  1.00  0.00     0.031 A 
ATOM     51  C   UNL A   1      44.609  27.362  27.407  1.00  0.00     0.074 A 
ATOM     52  C   UNL A   1      47.073  27.236  27.584  1.00  0.00     0.049 A 
ATOM     53  N   UNL A   1      44.510  28.494  28.021  1.00  0.00    -0.248 NA
ATOM     54  C   UNL A   1      43.273  26.816  27.130  1.00  0.00     0.031 C 
ATOM     55  C   UNL A   1      47.114  28.261  28.640  1.00  0.00     0.029 A 
ATOM     56  N   UNL A   1      48.433  26.980  27.403  1.00  0.00    -0.354 N 
ATOM     57  C   UNL A   1      43.256  28.602  28.570  1.00  0.00     0.074 A 
ATOM     58  C   UNL A   1      42.485  27.591  27.892  1.00  0.00     0.031 C 
ATOM     59  C   UNL A   1      48.371  28.589  28.951  1.00  0.00     0.029 A 
ATOM     60  C   UNL A   1      49.166  28.086  27.869  1.00  0.00     0.049 A 
ATOM     61  H   UNL A   1      48.815  26.162  27.013  1.00  0.00     0.167 HD
ATOM     62  C   UNL A   1      43.063  29.463  29.613  1.00  0.00     0.031 A 
ATOM     63  C   UNL A   1      49.906  28.933  27.088  1.00  0.00     0.031 A 
ATOM     64  C   UNL A   1      44.231  30.329  29.841  1.00  0.00     0.049 A 
ATOM     65  C   UNL A   1      49.323  30.343  27.100  1.00  0.00     0.074 A 
ATOM     66  C   UNL A   1      45.052  30.594  30.923  1.00  0.00     0.029 A 
ATOM     67  N   UNL A   1      44.807  30.987  28.753  1.00  0.00    -0.354 N 
ATOM     68  N   UNL A   1      48.067  30.576  27.390  1.00  0.00    -0.248 NA
ATOM     69  C   UNL A   1      50.065  31.590  26.920  1.00  0.00     0.031 C 
ATOM     70  C   UNL A   1      46.174  31.337  30.452  1.00  0.00     0.029 A 
ATOM     71  C   UNL A   1      46.009  31.566  29.094  1.00  0.00     0.049 A 
ATOM     72  H   UNL A   1      44.405  31.030  27.856  1.00  0.00     0.167 HD
ATOM     73  C   UNL A   1      47.865  31.909  27.588  1.00  0.00     0.074 A 
ATOM     74  C   UNL A   1      49.121  32.518  27.188  1.00  0.00     0.031 C 
ATOM     75  C   UNL A   1      46.723  32.410  28.142  1.00  0.00     0.031 A 
BRANCH  62  76
ATOM     76  C   UNL A   1      41.856  29.476  30.542  1.00  0.00    -0.014 A 
ATOM     77  C   UNL A   1      41.580  30.627  31.315  1.00  0.00     0.010 A 
ATOM     78  C   UNL A   1      41.003  28.375  30.762  1.00  0.00     0.010 A 
ATOM     79  C   UNL A   1      40.512  30.689  32.228  1.00  0.00     0.020 A 
ATOM     80  C   UNL A   1      39.908  28.434  31.646  1.00  0.00     0.020 A 
ATOM     81  C   UNL A   1      39.670  29.591  32.381  1.00  0.00     0.054 A 
BRANCH  81  82
ATOM     82  S   UNL A   1      38.268  29.697  33.529  1.00  0.00     0.124 S 
ATOM     83  O   UNL A   1      37.580  30.904  33.079  1.00  0.00    -0.237 OA
ATOM     84  O   UNL A   1      37.559  28.444  33.289  1.00  0.00    -0.237 OA
ATOM     85  O   UNL A   1      38.902  29.801  34.843  1.00  0.00    -0.744 OA
ENDBRANCH  81  82
ENDBRANCH  62  76
BRANCH  63  86
ATOM     86  C   UNL A   1      50.706  28.219  26.061  1.00  0.00    -0.014 A 
ATOM     87  C   UNL A   1      51.819  28.955  25.588  1.00  0.00     0.010 A 
ATOM     88  C   UNL A   1      50.791  26.815  26.113  1.00  0.00     0.010 A 
ATOM     89  C   UNL A   1      53.066  28.340  25.467  1.00  0.00     0.020 A 
ATOM     90  C   UNL A   1      52.045  26.195  25.977  1.00  0.00     0.020 A 
ATOM     91  C   UNL A   1      53.182  26.979  25.747  1.00  0.00     0.054 A 
BRANCH  91  92
ATOM     92  S   UNL A   1      54.845  26.330  26.110  1.00  0.00     0.124 S 
ATOM     93  O   UNL A   1      55.699  27.483  25.847  1.00  0.00    -0.237 OA
ATOM     94  O   UNL A   1      54.721  25.938  27.513  1.00  0.00    -0.237 OA
ATOM     95  O   UNL A   1      54.980  25.216  25.174  1.00  0.00    -0.744 OA
ENDBRANCH  91  92
ENDBRANCH  63  86
BRANCH  75  96
ATOM     96  C   UNL A   1      46.170  33.793  27.896  1.00  0.00    -0.014 A 
ATOM     97  C   UNL A   1      45.899  34.290  26.615  1.00  0.00     0.010 A 
ATOM     98  C   UNL A   1      45.681  34.542  28.998  1.00  0.00     0.010 A 
ATOM     99  C   UNL A   1      45.199  35.491  26.441  1.00  0.00     0.020 A 
ATOM    100  C   UNL A   1      44.945  35.716  28.834  1.00  0.00     0.020 A 
ATOM    101  C   UNL A   1      44.723  36.193  27.551  1.00  0.00     0.054 A 
BRANCH 101 102
ATOM    102  S   UNL A   1      43.751  37.696  27.294  1.00  0.00     0.124 S 
ATOM    103  O   UNL A   1      42.607  37.184  26.544  1.00  0.00    -0.237 OA
ATOM    104  O   UNL A   1      43.461  38.130  28.659  1.00  0.00    -0.237 OA
ATOM    105  O   UNL A   1      44.650  38.571  26.548  1.00  0.00    -0.744 OA
ENDBRANCH 101 102
ENDBRANCH  75  96
ENDBRANCH  49  50
ENDBRANCH  42  44
ENDBRANCH  41  42
ENDBRANCH  40  41
ENDBRANCH  39  40
ENDBRANCH  38  39
ENDBRANCH  37  38
ENDBRANCH  36  37
ENDBRANCH  35  36
ENDBRANCH   1  35
TORSDOF 27
ENDMDL
