MODEL 1
REMARK VINA RESULT:      -9.9      0.000      0.000
REMARK SMILES CCC(=O)N1CCc2cc(C(=O)NC3(C(=O)OCCOCCOCCOCCOC(=O)c4ccc(-c5c6nc(c(-c7ccc(S(=O)(=O)[O-])cc7)c7ccc([nH]7)c(-c7ccc(S(=O)(=O)[O-])cc7)c7nc(c(-c8ccc(S(=O)(=O)[O-])cc8)c8ccc5[nH]8)C=C7)C=C6)cc4)CCCC3)ccc21
REMARK SMILES IDX 22 1 21 2 20 3 19 4 18 5 17 6 15 7 16 8 14 9 92 10 95 11
REMARK SMILES IDX 93 12 94 13 13 14 11 15 12 16 10 18 5 19 6 20 98 21 7 22
REMARK SMILES IDX 8 23 97 24 9 25 96 26 3 27 4 28 2 29 1 30 23 31 24 32 25 33
REMARK SMILES IDX 26 34 27 35 28 36 29 37 30 38 31 39 32 40 33 41 91 42 34 43
REMARK SMILES IDX 90 44 35 45 36 46 37 47 84 48 38 49 89 50 83 51 85 52 39 53
REMARK SMILES IDX 88 54 82 55 81 56 40 58 70 59 51 60 69 61 52 62 55 63 68 64
REMARK SMILES IDX 86 65 53 66 54 67 67 69 87 70 56 71 41 72 42 73 50 74 43 75
REMARK SMILES IDX 49 76 44 77 45 78 46 79 47 80 48 81 71 82 72 83 80 84 73 85
REMARK SMILES IDX 79 86 74 87 75 88 76 89 77 90 78 91 57 92 58 93 66 94 59 95
REMARK SMILES IDX 65 96 60 97 61 98 62 99 63 100 64 101
REMARK H PARENT 13 17 85 57 55 68
REMARK Flexibility Score: inf
ROOT
ATOM      1  C   UNL A   1      33.702  30.356  27.259  1.00  0.00     0.188 C 
ENDROOT
BRANCH   1   2
ATOM      2  C   UNL A   1      32.279  29.791  27.166  1.00  0.00     0.188 C 
BRANCH   2   3
ATOM      3  O   UNL A   1      31.715  29.358  25.935  1.00  0.00    -0.376 OA
BRANCH   3   4
ATOM      4  C   UNL A   1      31.254  30.260  24.937  1.00  0.00     0.202 C 
BRANCH   4   5
ATOM      5  C   UNL A   1      30.120  29.874  23.976  1.00  0.00     0.261 C 
BRANCH   5   6
ATOM      6  O   UNL A   1      29.932  28.471  23.773  1.00  0.00    -0.461 OA
BRANCH   6   7
ATOM      7  C   UNL A   1      30.682  27.875  22.815  1.00  0.00     0.331 C 
ATOM      8  O   UNL A   1      30.647  28.163  21.622  1.00  0.00    -0.249 OA
BRANCH   7   9
ATOM      9  C   UNL A   1      31.608  26.753  23.382  1.00  0.00     0.138 C 
ATOM     10  C   UNL A   1      33.033  27.327  23.367  1.00  0.00     0.040 C 
ATOM     11  C   UNL A   1      31.642  25.518  22.430  1.00  0.00     0.040 C 
ATOM     12  C   UNL A   1      33.658  26.828  22.065  1.00  0.00     0.003 C 
ATOM     13  C   UNL A   1      33.015  25.487  21.758  1.00  0.00     0.003 C 
BRANCH   9  14
ATOM     14  N   UNL A   1      31.081  26.516  24.796  1.00  0.00    -0.336 N 
ATOM     15  C   UNL A   1      31.186  25.617  25.847  1.00  0.00     0.252 C 
ATOM     16  O   UNL A   1      30.643  25.918  26.913  1.00  0.00    -0.269 OA
ATOM     17  H   UNL A   1      30.464  27.242  25.043  1.00  0.00     0.165 HD
BRANCH  15  18
ATOM     18  C   UNL A   1      31.902  24.312  25.789  1.00  0.00     0.040 A 
ATOM     19  N   UNL A   1      33.666  20.595  25.275  1.00  0.00    -0.312 N 
ATOM     20  C   UNL A   1      35.102  20.883  25.380  1.00  0.00     0.130 C 
ATOM     21  C   UNL A   1      32.989  21.766  25.558  1.00  0.00     0.047 A 
ATOM     22  C   UNL A   1      35.246  22.379  25.768  1.00  0.00     0.059 C 
ATOM     23  C   UNL A   1      33.830  22.866  25.702  1.00  0.00    -0.022 A 
ATOM     24  C   UNL A   1      31.664  21.888  25.767  1.00  0.00     0.027 A 
ATOM     25  C   UNL A   1      33.300  24.159  25.840  1.00  0.00     0.019 A 
ATOM     26  C   UNL A   1      31.154  23.157  25.776  1.00  0.00     0.016 A 
BRANCH  19  27
ATOM     27  C   UNL A   1      33.167  19.373  24.870  1.00  0.00     0.226 C 
ATOM     28  O   UNL A   1      32.147  18.920  25.405  1.00  0.00    -0.275 OA
BRANCH  27  29
ATOM     29  C   UNL A   1      34.025  18.423  23.994  1.00  0.00     0.097 C 
ATOM     30  C   UNL A   1      33.506  17.184  23.280  1.00  0.00     0.014 C 
ENDBRANCH  27  29
ENDBRANCH  19  27
ENDBRANCH  15  18
ENDBRANCH   9  14
ENDBRANCH   7   9
ENDBRANCH   6   7
ENDBRANCH   5   6
ENDBRANCH   4   5
ENDBRANCH   3   4
ENDBRANCH   2   3
ENDBRANCH   1   2
BRANCH   1  31
ATOM     31  O   UNL A   1      33.779  31.610  27.903  1.00  0.00    -0.377 OA
BRANCH  31  32
ATOM     32  C   UNL A   1      32.950  32.654  27.414  1.00  0.00     0.188 C 
BRANCH  32  33
ATOM     33  C   UNL A   1      33.469  34.087  27.608  1.00  0.00     0.188 C 
BRANCH  33  34
ATOM     34  O   UNL A   1      32.596  34.903  28.379  1.00  0.00    -0.376 OA
BRANCH  34  35
ATOM     35  C   UNL A   1      33.150  35.736  29.388  1.00  0.00     0.202 C 
BRANCH  35  36
ATOM     36  C   UNL A   1      33.500  35.118  30.756  1.00  0.00     0.261 C 
BRANCH  36  37
ATOM     37  O   UNL A   1      33.689  33.692  30.814  1.00  0.00    -0.460 OA
BRANCH  37  38
ATOM     38  C   UNL A   1      34.295  33.163  31.894  1.00  0.00     0.338 C 
ATOM     39  O   UNL A   1      33.836  33.076  33.023  1.00  0.00    -0.246 OA
BRANCH  38  40
ATOM     40  C   UNL A   1      35.539  32.505  31.443  1.00  0.00     0.060 A 
ATOM     41  C   UNL A   1      36.296  31.777  32.371  1.00  0.00     0.016 A 
ATOM     42  C   UNL A   1      35.969  32.617  30.119  1.00  0.00     0.016 A 
ATOM     43  C   UNL A   1      37.509  31.201  31.991  1.00  0.00     0.010 A 
ATOM     44  C   UNL A   1      37.195  32.059  29.744  1.00  0.00     0.010 A 
ATOM     45  C   UNL A   1      37.990  31.385  30.689  1.00  0.00    -0.014 A 
BRANCH  45  46
ATOM     46  C   UNL A   1      39.406  31.060  30.381  1.00  0.00     0.031 A 
ATOM     47  C   UNL A   1      40.442  32.137  30.575  1.00  0.00     0.074 A 
ATOM     48  C   UNL A   1      39.775  29.836  29.967  1.00  0.00     0.049 A 
ATOM     49  N   UNL A   1      41.726  32.106  30.335  1.00  0.00    -0.248 NA
ATOM     50  C   UNL A   1      39.960  33.420  31.114  1.00  0.00     0.031 C 
ATOM     51  C   UNL A   1      38.878  28.695  29.789  1.00  0.00     0.029 A 
ATOM     52  N   UNL A   1      41.011  29.352  29.613  1.00  0.00    -0.354 N 
ATOM     53  C   UNL A   1      42.205  33.365  30.681  1.00  0.00     0.074 A 
ATOM     54  C   UNL A   1      41.067  34.145  31.115  1.00  0.00     0.031 C 
ATOM     55  C   UNL A   1      39.593  27.647  29.343  1.00  0.00     0.029 A 
ATOM     56  C   UNL A   1      40.987  28.052  29.168  1.00  0.00     0.049 A 
ATOM     57  H   UNL A   1      41.835  29.886  29.672  1.00  0.00     0.167 HD
ATOM     58  C   UNL A   1      43.476  33.830  30.647  1.00  0.00     0.031 A 
ATOM     59  C   UNL A   1      41.970  27.287  28.653  1.00  0.00     0.031 A 
ATOM     60  C   UNL A   1      44.602  33.058  30.192  1.00  0.00     0.049 A 
ATOM     61  C   UNL A   1      43.364  27.850  28.543  1.00  0.00     0.074 A 
ATOM     62  C   UNL A   1      45.932  33.435  30.123  1.00  0.00     0.029 A 
ATOM     63  N   UNL A   1      44.530  31.756  29.717  1.00  0.00    -0.354 N 
ATOM     64  N   UNL A   1      43.806  29.034  28.894  1.00  0.00    -0.248 NA
ATOM     65  C   UNL A   1      44.396  26.968  27.976  1.00  0.00     0.031 C 
ATOM     66  C   UNL A   1      46.652  32.385  29.543  1.00  0.00     0.029 A 
ATOM     67  C   UNL A   1      45.785  31.326  29.324  1.00  0.00     0.049 A 
ATOM     68  H   UNL A   1      43.707  31.219  29.667  1.00  0.00     0.167 HD
ATOM     69  C   UNL A   1      45.171  29.030  28.617  1.00  0.00     0.074 A 
ATOM     70  C   UNL A   1      45.484  27.719  28.086  1.00  0.00     0.031 C 
ATOM     71  C   UNL A   1      46.083  30.019  28.791  1.00  0.00     0.031 A 
BRANCH  58  72
ATOM     72  C   UNL A   1      43.703  35.258  31.072  1.00  0.00    -0.014 A 
ATOM     73  C   UNL A   1      43.675  36.315  30.143  1.00  0.00     0.010 A 
ATOM     74  C   UNL A   1      43.934  35.550  32.430  1.00  0.00     0.010 A 
ATOM     75  C   UNL A   1      43.921  37.627  30.555  1.00  0.00     0.020 A 
ATOM     76  C   UNL A   1      44.146  36.866  32.851  1.00  0.00     0.020 A 
ATOM     77  C   UNL A   1      44.159  37.893  31.906  1.00  0.00     0.054 A 
BRANCH  77  78
ATOM     78  S   UNL A   1      44.469  39.607  32.413  1.00  0.00     0.124 S 
ATOM     79  O   UNL A   1      43.473  40.336  31.631  1.00  0.00    -0.237 OA
ATOM     80  O   UNL A   1      44.229  39.562  33.852  1.00  0.00    -0.237 OA
ATOM     81  O   UNL A   1      45.858  39.839  32.023  1.00  0.00    -0.744 OA
ENDBRANCH  77  78
ENDBRANCH  58  72
BRANCH  59  82
ATOM     82  C   UNL A   1      41.661  25.911  28.171  1.00  0.00    -0.014 A 
ATOM     83  C   UNL A   1      42.139  24.778  28.851  1.00  0.00     0.010 A 
ATOM     84  C   UNL A   1      40.872  25.730  27.017  1.00  0.00     0.010 A 
ATOM     85  C   UNL A   1      41.842  23.493  28.385  1.00  0.00     0.020 A 
ATOM     86  C   UNL A   1      40.547  24.449  26.567  1.00  0.00     0.020 A 
ATOM     87  C   UNL A   1      41.040  23.336  27.251  1.00  0.00     0.054 A 
BRANCH  87  88
ATOM     88  S   UNL A   1      40.609  21.660  26.707  1.00  0.00     0.124 S 
ATOM     89  O   UNL A   1      40.701  20.903  27.951  1.00  0.00    -0.237 OA
ATOM     90  O   UNL A   1      39.262  21.842  26.173  1.00  0.00    -0.237 OA
ATOM     91  O   UNL A   1      41.630  21.352  25.708  1.00  0.00    -0.744 OA
ENDBRANCH  87  88
ENDBRANCH  59  82
BRANCH  71  92
ATOM     92  C   UNL A   1      47.520  29.716  28.443  1.00  0.00    -0.014 A 
ATOM     93  C   UNL A   1      48.316  28.893  29.258  1.00  0.00     0.010 A 
ATOM     94  C   UNL A   1      48.061  30.220  27.245  1.00  0.00     0.010 A 
ATOM     95  C   UNL A   1      49.637  28.609  28.899  1.00  0.00     0.020 A 
ATOM     96  C   UNL A   1      49.370  29.911  26.866  1.00  0.00     0.020 A 
ATOM     97  C   UNL A   1      50.156  29.119  27.704  1.00  0.00     0.054 A 
BRANCH  97  98
ATOM     98  S   UNL A   1      51.860  28.701  27.244  1.00  0.00     0.124 S 
ATOM     99  O   UNL A   1      51.658  27.809  26.106  1.00  0.00    -0.237 OA
ATOM    100  O   UNL A   1      52.434  30.007  26.927  1.00  0.00    -0.237 OA
ATOM    101  O   UNL A   1      52.398  28.065  28.445  1.00  0.00    -0.744 OA
ENDBRANCH  97  98
ENDBRANCH  71  92
ENDBRANCH  45  46
ENDBRANCH  38  40
ENDBRANCH  37  38
ENDBRANCH  36  37
ENDBRANCH  35  36
ENDBRANCH  34  35
ENDBRANCH  33  34
ENDBRANCH  32  33
ENDBRANCH  31  32
ENDBRANCH   1  31
TORSDOF 27
ENDMDL
MODEL 2
REMARK VINA RESULT:      -9.7      4.714      5.577
REMARK SMILES CCC(=O)N1CCc2cc(C(=O)NC3(C(=O)OCCOCCOCCOCCOC(=O)c4ccc(-c5c6nc(c(-c7ccc(S(=O)(=O)[O-])cc7)c7ccc([nH]7)c(-c7ccc(S(=O)(=O)[O-])cc7)c7nc(c(-c8ccc(S(=O)(=O)[O-])cc8)c8ccc5[nH]8)C=C7)C=C6)cc4)CCCC3)ccc21
REMARK SMILES IDX 22 1 21 2 20 3 19 4 18 5 17 6 15 7 16 8 14 9 92 10 95 11
REMARK SMILES IDX 93 12 94 13 13 14 11 15 12 16 10 18 5 19 6 20 98 21 7 22
REMARK SMILES IDX 8 23 97 24 9 25 96 26 3 27 4 28 2 29 1 30 23 31 24 32 25 33
REMARK SMILES IDX 26 34 27 35 28 36 29 37 30 38 31 39 32 40 33 41 91 42 34 43
REMARK SMILES IDX 90 44 35 45 36 46 37 47 84 48 38 49 89 50 83 51 85 52 39 53
REMARK SMILES IDX 88 54 82 55 81 56 40 58 70 59 51 60 69 61 52 62 55 63 68 64
REMARK SMILES IDX 86 65 53 66 54 67 67 69 87 70 56 71 41 72 42 73 50 74 43 75
REMARK SMILES IDX 49 76 44 77 45 78 46 79 47 80 48 81 71 82 72 83 80 84 73 85
REMARK SMILES IDX 79 86 74 87 75 88 76 89 77 90 78 91 57 92 58 93 66 94 59 95
REMARK SMILES IDX 65 96 60 97 61 98 62 99 63 100 64 101
REMARK H PARENT 13 17 85 57 55 68
REMARK Flexibility Score: inf
ROOT
ATOM      1  C   UNL A   1      33.983  29.825  27.558  1.00  0.00     0.188 C 
ENDROOT
BRANCH   1   2
ATOM      2  C   UNL A   1      33.131  30.555  26.513  1.00  0.00     0.188 C 
BRANCH   2   3
ATOM      3  O   UNL A   1      31.977  29.963  25.928  1.00  0.00    -0.376 OA
BRANCH   3   4
ATOM      4  C   UNL A   1      31.003  30.712  25.213  1.00  0.00     0.202 C 
BRANCH   4   5
ATOM      5  C   UNL A   1      30.286  30.125  23.989  1.00  0.00     0.261 C 
BRANCH   5   6
ATOM      6  O   UNL A   1      30.114  28.705  23.995  1.00  0.00    -0.461 OA
BRANCH   6   7
ATOM      7  C   UNL A   1      30.667  28.007  22.974  1.00  0.00     0.331 C 
ATOM      8  O   UNL A   1      30.419  28.194  21.786  1.00  0.00    -0.249 OA
BRANCH   7   9
ATOM      9  C   UNL A   1      31.665  26.909  23.461  1.00  0.00     0.138 C 
ATOM     10  C   UNL A   1      33.072  27.446  23.161  1.00  0.00     0.040 C 
ATOM     11  C   UNL A   1      31.522  25.606  22.617  1.00  0.00     0.040 C 
ATOM     12  C   UNL A   1      33.460  26.836  21.816  1.00  0.00     0.003 C 
ATOM     13  C   UNL A   1      32.760  25.492  21.727  1.00  0.00     0.003 C 
BRANCH   9  14
ATOM     14  N   UNL A   1      31.384  26.791  24.958  1.00  0.00    -0.336 N 
ATOM     15  C   UNL A   1      31.592  25.934  26.029  1.00  0.00     0.252 C 
ATOM     16  O   UNL A   1      31.284  26.337  27.153  1.00  0.00    -0.269 OA
ATOM     17  H   UNL A   1      30.894  27.588  25.266  1.00  0.00     0.165 HD
BRANCH  15  18
ATOM     18  C   UNL A   1      32.158  24.559  25.926  1.00  0.00     0.040 A 
ATOM     19  N   UNL A   1      33.486  20.683  25.292  1.00  0.00    -0.312 N 
ATOM     20  C   UNL A   1      34.947  20.809  25.369  1.00  0.00     0.130 C 
ATOM     21  C   UNL A   1      32.950  21.914  25.615  1.00  0.00     0.047 A 
ATOM     22  C   UNL A   1      35.265  22.269  25.785  1.00  0.00     0.059 C 
ATOM     23  C   UNL A   1      33.911  22.911  25.763  1.00  0.00    -0.022 A 
ATOM     24  C   UNL A   1      31.651  22.177  25.859  1.00  0.00     0.027 A 
ATOM     25  C   UNL A   1      33.531  24.252  25.940  1.00  0.00     0.019 A 
ATOM     26  C   UNL A   1      31.286  23.495  25.907  1.00  0.00     0.016 A 
BRANCH  19  27
ATOM     27  C   UNL A   1      32.847  19.534  24.874  1.00  0.00     0.226 C 
ATOM     28  O   UNL A   1      32.384  18.749  25.712  1.00  0.00    -0.275 OA
BRANCH  27  29
ATOM     29  C   UNL A   1      32.972  19.051  23.405  1.00  0.00     0.097 C 
ATOM     30  C   UNL A   1      32.237  17.861  22.808  1.00  0.00     0.014 C 
ENDBRANCH  27  29
ENDBRANCH  19  27
ENDBRANCH  15  18
ENDBRANCH   9  14
ENDBRANCH   7   9
ENDBRANCH   6   7
ENDBRANCH   5   6
ENDBRANCH   4   5
ENDBRANCH   3   4
ENDBRANCH   2   3
ENDBRANCH   1   2
BRANCH   1  31
ATOM     31  O   UNL A   1      35.101  30.565  28.003  1.00  0.00    -0.377 OA
BRANCH  31  32
ATOM     32  C   UNL A   1      35.062  31.975  27.843  1.00  0.00     0.188 C 
BRANCH  32  33
ATOM     33  C   UNL A   1      34.772  32.798  29.108  1.00  0.00     0.188 C 
BRANCH  33  34
ATOM     34  O   UNL A   1      33.477  33.386  29.112  1.00  0.00    -0.376 OA
BRANCH  34  35
ATOM     35  C   UNL A   1      33.349  34.761  28.775  1.00  0.00     0.202 C 
BRANCH  35  36
ATOM     36  C   UNL A   1      32.790  35.737  29.828  1.00  0.00     0.261 C 
BRANCH  36  37
ATOM     37  O   UNL A   1      32.369  35.188  31.089  1.00  0.00    -0.460 OA
BRANCH  37  38
ATOM     38  C   UNL A   1      33.042  35.536  32.203  1.00  0.00     0.338 C 
ATOM     39  O   UNL A   1      32.635  36.238  33.117  1.00  0.00    -0.246 OA
BRANCH  38  40
ATOM     40  C   UNL A   1      34.294  34.750  32.245  1.00  0.00     0.060 A 
ATOM     41  C   UNL A   1      34.251  33.432  32.718  1.00  0.00     0.016 A 
ATOM     42  C   UNL A   1      35.505  35.313  31.839  1.00  0.00     0.016 A 
ATOM     43  C   UNL A   1      35.426  32.688  32.833  1.00  0.00     0.010 A 
ATOM     44  C   UNL A   1      36.686  34.575  31.976  1.00  0.00     0.010 A 
ATOM     45  C   UNL A   1      36.656  33.275  32.512  1.00  0.00    -0.014 A 
BRANCH  45  46
ATOM     46  C   UNL A   1      37.914  32.612  32.937  1.00  0.00     0.031 A 
ATOM     47  C   UNL A   1      38.435  32.892  34.323  1.00  0.00     0.074 A 
ATOM     48  C   UNL A   1      38.570  31.758  32.131  1.00  0.00     0.049 A 
ATOM     49  N   UNL A   1      39.527  32.467  34.902  1.00  0.00    -0.248 NA
ATOM     50  C   UNL A   1      37.608  33.771  35.168  1.00  0.00     0.031 C 
ATOM     51  C   UNL A   1      38.143  31.365  30.789  1.00  0.00     0.029 A 
ATOM     52  N   UNL A   1      39.744  31.074  32.327  1.00  0.00    -0.354 N 
ATOM     53  C   UNL A   1      39.526  33.035  36.172  1.00  0.00     0.074 A 
ATOM     54  C   UNL A   1      38.342  33.860  36.265  1.00  0.00     0.031 C 
ATOM     55  C   UNL A   1      39.054  30.518  30.276  1.00  0.00     0.029 A 
ATOM     56  C   UNL A   1      40.143  30.341  31.236  1.00  0.00     0.049 A 
ATOM     57  H   UNL A   1      40.251  31.105  33.170  1.00  0.00     0.167 HD
ATOM     58  C   UNL A   1      40.425  32.879  37.172  1.00  0.00     0.031 A 
ATOM     59  C   UNL A   1      41.271  29.633  31.024  1.00  0.00     0.031 A 
ATOM     60  C   UNL A   1      41.614  32.076  37.067  1.00  0.00     0.049 A 
ATOM     61  C   UNL A   1      42.302  29.540  32.120  1.00  0.00     0.074 A 
ATOM     62  C   UNL A   1      42.586  31.849  38.025  1.00  0.00     0.029 A 
ATOM     63  N   UNL A   1      42.000  31.377  35.932  1.00  0.00    -0.354 N 
ATOM     64  N   UNL A   1      42.278  30.063  33.323  1.00  0.00    -0.248 NA
ATOM     65  C   UNL A   1      43.510  28.751  31.833  1.00  0.00     0.031 C 
ATOM     66  C   UNL A   1      43.593  31.069  37.447  1.00  0.00     0.029 A 
ATOM     67  C   UNL A   1      43.211  30.745  36.155  1.00  0.00     0.049 A 
ATOM     68  H   UNL A   1      41.488  31.338  35.092  1.00  0.00     0.167 HD
ATOM     69  C   UNL A   1      43.451  29.645  33.945  1.00  0.00     0.074 A 
ATOM     70  C   UNL A   1      44.153  28.811  32.992  1.00  0.00     0.031 C 
ATOM     71  C   UNL A   1      43.903  29.921  35.194  1.00  0.00     0.031 A 
BRANCH  58  72
ATOM     72  C   UNL A   1      40.174  33.634  38.453  1.00  0.00    -0.014 A 
ATOM     73  C   UNL A   1      40.805  34.865  38.716  1.00  0.00     0.010 A 
ATOM     74  C   UNL A   1      39.277  33.111  39.403  1.00  0.00     0.010 A 
ATOM     75  C   UNL A   1      40.582  35.531  39.923  1.00  0.00     0.020 A 
ATOM     76  C   UNL A   1      39.026  33.792  40.598  1.00  0.00     0.020 A 
ATOM     77  C   UNL A   1      39.697  34.988  40.859  1.00  0.00     0.054 A 
BRANCH  77  78
ATOM     78  S   UNL A   1      39.423  35.878  42.415  1.00  0.00     0.124 S 
ATOM     79  O   UNL A   1      39.515  37.271  41.984  1.00  0.00    -0.237 OA
ATOM     80  O   UNL A   1      38.091  35.428  42.809  1.00  0.00    -0.237 OA
ATOM     81  O   UNL A   1      40.512  35.420  43.274  1.00  0.00    -0.744 OA
ENDBRANCH  77  78
ENDBRANCH  58  72
BRANCH  59  82
ATOM     82  C   UNL A   1      41.498  28.979  29.704  1.00  0.00    -0.014 A 
ATOM     83  C   UNL A   1      42.046  29.693  28.625  1.00  0.00     0.010 A 
ATOM     84  C   UNL A   1      41.166  27.622  29.525  1.00  0.00     0.010 A 
ATOM     85  C   UNL A   1      42.252  29.066  27.391  1.00  0.00     0.020 A 
ATOM     86  C   UNL A   1      41.400  26.984  28.306  1.00  0.00     0.020 A 
ATOM     87  C   UNL A   1      41.935  27.712  27.242  1.00  0.00     0.054 A 
BRANCH  87  88
ATOM     88  S   UNL A   1      42.277  26.902  25.655  1.00  0.00     0.124 S 
ATOM     89  O   UNL A   1      42.445  28.043  24.761  1.00  0.00    -0.237 OA
ATOM     90  O   UNL A   1      43.489  26.142  25.947  1.00  0.00    -0.237 OA
ATOM     91  O   UNL A   1      41.084  26.092  25.421  1.00  0.00    -0.744 OA
ENDBRANCH  87  88
ENDBRANCH  59  82
BRANCH  71  92
ATOM     92  C   UNL A   1      45.203  29.287  35.625  1.00  0.00    -0.014 A 
ATOM     93  C   UNL A   1      45.238  28.010  36.214  1.00  0.00     0.010 A 
ATOM     94  C   UNL A   1      46.414  29.959  35.381  1.00  0.00     0.010 A 
ATOM     95  C   UNL A   1      46.458  27.435  36.582  1.00  0.00     0.020 A 
ATOM     96  C   UNL A   1      47.638  29.374  35.716  1.00  0.00     0.020 A 
ATOM     97  C   UNL A   1      47.652  28.120  36.329  1.00  0.00     0.054 A 
BRANCH  97  98
ATOM     98  S   UNL A   1      49.222  27.333  36.780  1.00  0.00     0.124 S 
ATOM     99  O   UNL A   1      49.524  26.549  35.586  1.00  0.00    -0.237 OA
ATOM    100  O   UNL A   1      50.096  28.479  37.019  1.00  0.00    -0.237 OA
ATOM    101  O   UNL A   1      48.889  26.551  37.970  1.00  0.00    -0.744 OA
ENDBRANCH  97  98
ENDBRANCH  71  92
ENDBRANCH  45  46
ENDBRANCH  38  40
ENDBRANCH  37  38
ENDBRANCH  36  37
ENDBRANCH  35  36
ENDBRANCH  34  35
ENDBRANCH  33  34
ENDBRANCH  32  33
ENDBRANCH  31  32
ENDBRANCH   1  31
TORSDOF 27
ENDMDL
MODEL 3
REMARK VINA RESULT:      -9.6      5.158     10.610
REMARK SMILES CCC(=O)N1CCc2cc(C(=O)NC3(C(=O)OCCOCCOCCOCCOC(=O)c4ccc(-c5c6nc(c(-c7ccc(S(=O)(=O)[O-])cc7)c7ccc([nH]7)c(-c7ccc(S(=O)(=O)[O-])cc7)c7nc(c(-c8ccc(S(=O)(=O)[O-])cc8)c8ccc5[nH]8)C=C7)C=C6)cc4)CCCC3)ccc21
REMARK SMILES IDX 22 1 21 2 20 3 19 4 18 5 17 6 15 7 16 8 14 9 92 10 95 11
REMARK SMILES IDX 93 12 94 13 13 14 11 15 12 16 10 18 5 19 6 20 98 21 7 22
REMARK SMILES IDX 8 23 97 24 9 25 96 26 3 27 4 28 2 29 1 30 23 31 24 32 25 33
REMARK SMILES IDX 26 34 27 35 28 36 29 37 30 38 31 39 32 40 33 41 91 42 34 43
REMARK SMILES IDX 90 44 35 45 36 46 37 47 84 48 38 49 89 50 83 51 85 52 39 53
REMARK SMILES IDX 88 54 82 55 81 56 40 58 70 59 51 60 69 61 52 62 55 63 68 64
REMARK SMILES IDX 86 65 53 66 54 67 67 69 87 70 56 71 41 72 42 73 50 74 43 75
REMARK SMILES IDX 49 76 44 77 45 78 46 79 47 80 48 81 71 82 72 83 80 84 73 85
REMARK SMILES IDX 79 86 74 87 75 88 76 89 77 90 78 91 57 92 58 93 66 94 59 95
REMARK SMILES IDX 65 96 60 97 61 98 62 99 63 100 64 101
REMARK H PARENT 13 17 85 57 55 68
REMARK Flexibility Score: inf
ROOT
ATOM      1  C   UNL A   1      38.461  19.542  25.335  1.00  0.00     0.188 C 
ENDROOT
BRANCH   1   2
ATOM      2  C   UNL A   1      38.074  20.961  24.902  1.00  0.00     0.188 C 
BRANCH   2   3
ATOM      3  O   UNL A   1      37.752  21.978  25.842  1.00  0.00    -0.376 OA
BRANCH   3   4
ATOM      4  C   UNL A   1      36.724  22.936  25.621  1.00  0.00     0.202 C 
BRANCH   4   5
ATOM      5  C   UNL A   1      35.668  22.733  24.525  1.00  0.00     0.261 C 
BRANCH   5   6
ATOM      6  O   UNL A   1      34.445  23.451  24.703  1.00  0.00    -0.461 OA
BRANCH   6   7
ATOM      7  C   UNL A   1      33.635  23.059  25.716  1.00  0.00     0.331 C 
ATOM      8  O   UNL A   1      33.915  23.151  26.908  1.00  0.00    -0.249 OA
BRANCH   7   9
ATOM      9  C   UNL A   1      32.286  22.455  25.214  1.00  0.00     0.138 C 
ATOM     10  C   UNL A   1      32.393  20.937  25.425  1.00  0.00     0.040 C 
ATOM     11  C   UNL A   1      32.117  22.656  23.677  1.00  0.00     0.040 C 
ATOM     12  C   UNL A   1      32.848  20.372  24.081  1.00  0.00     0.003 C 
ATOM     13  C   UNL A   1      32.291  21.291  23.008  1.00  0.00     0.003 C 
BRANCH   9  14
ATOM     14  N   UNL A   1      31.233  23.103  26.110  1.00  0.00    -0.336 N 
ATOM     15  C   UNL A   1      30.440  24.239  26.193  1.00  0.00     0.252 C 
ATOM     16  O   UNL A   1      29.589  24.279  27.084  1.00  0.00    -0.269 OA
ATOM     17  H   UNL A   1      31.057  22.522  26.886  1.00  0.00     0.165 HD
BRANCH  15  18
ATOM     18  C   UNL A   1      30.539  25.418  25.288  1.00  0.00     0.040 A 
ATOM     19  N   UNL A   1      30.509  28.884  23.012  1.00  0.00    -0.312 N 
ATOM     20  C   UNL A   1      31.931  29.237  22.913  1.00  0.00     0.130 C 
ATOM     21  C   UNL A   1      30.432  27.664  23.655  1.00  0.00     0.047 A 
ATOM     22  C   UNL A   1      32.740  28.088  23.571  1.00  0.00     0.059 C 
ATOM     23  C   UNL A   1      31.659  27.219  24.139  1.00  0.00    -0.022 A 
ATOM     24  C   UNL A   1      29.333  26.892  23.768  1.00  0.00     0.027 A 
ATOM     25  C   UNL A   1      31.737  26.075  24.950  1.00  0.00     0.019 A 
ATOM     26  C   UNL A   1      29.396  25.855  24.657  1.00  0.00     0.016 A 
BRANCH  19  27
ATOM     27  C   UNL A   1      29.492  29.719  22.595  1.00  0.00     0.226 C 
ATOM     28  O   UNL A   1      29.115  29.684  21.416  1.00  0.00    -0.275 OA
BRANCH  27  29
ATOM     29  C   UNL A   1      29.033  30.906  23.481  1.00  0.00     0.097 C 
ATOM     30  C   UNL A   1      27.702  31.630  23.353  1.00  0.00     0.014 C 
ENDBRANCH  27  29
ENDBRANCH  19  27
ENDBRANCH  15  18
ENDBRANCH   9  14
ENDBRANCH   7   9
ENDBRANCH   6   7
ENDBRANCH   5   6
ENDBRANCH   4   5
ENDBRANCH   3   4
ENDBRANCH   2   3
ENDBRANCH   1   2
BRANCH   1  31
ATOM     31  O   UNL A   1      39.855  19.326  25.410  1.00  0.00    -0.377 OA
BRANCH  31  32
ATOM     32  C   UNL A   1      40.554  19.914  26.496  1.00  0.00     0.188 C 
BRANCH  32  33
ATOM     33  C   UNL A   1      41.814  20.720  26.141  1.00  0.00     0.188 C 
BRANCH  33  34
ATOM     34  O   UNL A   1      41.907  21.956  26.838  1.00  0.00    -0.376 OA
BRANCH  34  35
ATOM     35  C   UNL A   1      40.728  22.515  27.401  1.00  0.00     0.202 C 
BRANCH  35  36
ATOM     36  C   UNL A   1      40.317  23.945  27.002  1.00  0.00     0.261 C 
BRANCH  36  37
ATOM     37  O   UNL A   1      41.181  25.023  27.405  1.00  0.00    -0.460 OA
BRANCH  37  38
ATOM     38  C   UNL A   1      40.910  26.268  26.967  1.00  0.00     0.338 C 
ATOM     39  O   UNL A   1      40.726  26.614  25.809  1.00  0.00    -0.246 OA
BRANCH  38  40
ATOM     40  C   UNL A   1      40.658  27.123  28.146  1.00  0.00     0.060 A 
ATOM     41  C   UNL A   1      41.274  28.379  28.216  1.00  0.00     0.016 A 
ATOM     42  C   UNL A   1      39.835  26.684  29.185  1.00  0.00     0.016 A 
ATOM     43  C   UNL A   1      41.109  29.180  29.347  1.00  0.00     0.010 A 
ATOM     44  C   UNL A   1      39.688  27.477  30.328  1.00  0.00     0.010 A 
ATOM     45  C   UNL A   1      40.358  28.709  30.430  1.00  0.00    -0.014 A 
BRANCH  45  46
ATOM     46  C   UNL A   1      40.451  29.404  31.740  1.00  0.00     0.031 A 
ATOM     47  C   UNL A   1      39.401  30.431  32.078  1.00  0.00     0.074 A 
ATOM     48  C   UNL A   1      41.421  29.115  32.625  1.00  0.00     0.049 A 
ATOM     49  N   UNL A   1      39.295  31.193  33.134  1.00  0.00    -0.248 NA
ATOM     50  C   UNL A   1      38.328  30.620  31.087  1.00  0.00     0.031 C 
ATOM     51  C   UNL A   1      42.464  28.107  32.439  1.00  0.00     0.029 A 
ATOM     52  N   UNL A   1      41.688  29.655  33.858  1.00  0.00    -0.354 N 
ATOM     53  C   UNL A   1      38.153  31.961  32.931  1.00  0.00     0.074 A 
ATOM     54  C   UNL A   1      37.622  31.595  31.637  1.00  0.00     0.031 C 
ATOM     55  C   UNL A   1      43.269  28.113  33.517  1.00  0.00     0.029 A 
ATOM     56  C   UNL A   1      42.821  29.148  34.448  1.00  0.00     0.049 A 
ATOM     57  H   UNL A   1      41.122  30.340  34.280  1.00  0.00     0.167 HD
ATOM     58  C   UNL A   1      37.593  32.882  33.750  1.00  0.00     0.031 A 
ATOM     59  C   UNL A   1      43.443  29.499  35.592  1.00  0.00     0.031 A 
ATOM     60  C   UNL A   1      38.139  33.260  35.027  1.00  0.00     0.049 A 
ATOM     61  C   UNL A   1      42.850  30.588  36.451  1.00  0.00     0.074 A 
ATOM     62  C   UNL A   1      37.644  34.180  35.935  1.00  0.00     0.029 A 
ATOM     63  N   UNL A   1      39.307  32.748  35.572  1.00  0.00    -0.354 N 
ATOM     64  N   UNL A   1      41.759  31.289  36.258  1.00  0.00    -0.248 NA
ATOM     65  C   UNL A   1      43.570  30.925  37.689  1.00  0.00     0.031 C 
ATOM     66  C   UNL A   1      38.549  34.273  36.997  1.00  0.00     0.029 A 
ATOM     67  C   UNL A   1      39.567  33.355  36.789  1.00  0.00     0.049 A 
ATOM     68  H   UNL A   1      39.868  32.056  35.155  1.00  0.00     0.167 HD
ATOM     69  C   UNL A   1      41.646  32.130  37.362  1.00  0.00     0.074 A 
ATOM     70  C   UNL A   1      42.771  31.837  38.226  1.00  0.00     0.031 C 
ATOM     71  C   UNL A   1      40.694  33.058  37.638  1.00  0.00     0.031 A 
BRANCH  58  72
ATOM     72  C   UNL A   1      36.348  33.577  33.262  1.00  0.00    -0.014 A 
ATOM     73  C   UNL A   1      36.415  34.787  32.545  1.00  0.00     0.010 A 
ATOM     74  C   UNL A   1      35.088  33.001  33.510  1.00  0.00     0.010 A 
ATOM     75  C   UNL A   1      35.246  35.430  32.130  1.00  0.00     0.020 A 
ATOM     76  C   UNL A   1      33.918  33.625  33.067  1.00  0.00     0.020 A 
ATOM     77  C   UNL A   1      34.004  34.846  32.398  1.00  0.00     0.054 A 
BRANCH  77  78
ATOM     78  S   UNL A   1      32.504  35.701  31.842  1.00  0.00     0.124 S 
ATOM     79  O   UNL A   1      32.819  37.093  32.154  1.00  0.00    -0.237 OA
ATOM     80  O   UNL A   1      32.458  35.371  30.420  1.00  0.00    -0.237 OA
ATOM     81  O   UNL A   1      31.444  35.106  32.652  1.00  0.00    -0.744 OA
ENDBRANCH  77  78
ENDBRANCH  58  72
BRANCH  59  82
ATOM     82  C   UNL A   1      44.719  28.831  35.976  1.00  0.00    -0.014 A 
ATOM     83  C   UNL A   1      44.719  27.639  36.720  1.00  0.00     0.010 A 
ATOM     84  C   UNL A   1      45.951  29.392  35.587  1.00  0.00     0.010 A 
ATOM     85  C   UNL A   1      45.925  27.025  37.075  1.00  0.00     0.020 A 
ATOM     86  C   UNL A   1      47.156  28.766  35.911  1.00  0.00     0.020 A 
ATOM     87  C   UNL A   1      47.136  27.588  36.661  1.00  0.00     0.054 A 
BRANCH  87  88
ATOM     88  S   UNL A   1      48.684  26.736  37.071  1.00  0.00     0.124 S 
ATOM     89  O   UNL A   1      48.238  25.356  37.237  1.00  0.00    -0.237 OA
ATOM     90  O   UNL A   1      49.507  26.999  35.893  1.00  0.00    -0.237 OA
ATOM     91  O   UNL A   1      49.128  27.403  38.293  1.00  0.00    -0.744 OA
ENDBRANCH  87  88
ENDBRANCH  59  82
BRANCH  71  92
ATOM     92  C   UNL A   1      40.799  33.801  38.947  1.00  0.00    -0.014 A 
ATOM     93  C   UNL A   1      40.164  33.333  40.111  1.00  0.00     0.010 A 
ATOM     94  C   UNL A   1      41.598  34.957  39.023  1.00  0.00     0.010 A 
ATOM     95  C   UNL A   1      40.297  34.028  41.317  1.00  0.00     0.020 A 
ATOM     96  C   UNL A   1      41.761  35.635  40.234  1.00  0.00     0.020 A 
ATOM     97  C   UNL A   1      41.097  35.174  41.372  1.00  0.00     0.054 A 
BRANCH  97  98
ATOM     98  S   UNL A   1      41.284  36.033  42.957  1.00  0.00     0.124 S 
ATOM     99  O   UNL A   1      39.897  36.301  43.325  1.00  0.00    -0.237 OA
ATOM    100  O   UNL A   1      41.973  35.040  43.779  1.00  0.00    -0.237 OA
ATOM    101  O   UNL A   1      42.077  37.214  42.621  1.00  0.00    -0.744 OA
ENDBRANCH  97  98
ENDBRANCH  71  92
ENDBRANCH  45  46
ENDBRANCH  38  40
ENDBRANCH  37  38
ENDBRANCH  36  37
ENDBRANCH  35  36
ENDBRANCH  34  35
ENDBRANCH  33  34
ENDBRANCH  32  33
ENDBRANCH  31  32
ENDBRANCH   1  31
TORSDOF 27
ENDMDL
