MODEL 1
REMARK VINA RESULT:      -7.5      0.000      0.000
REMARK SMILES CC(C)[C@@H](C[NH+](C)C)C(=O)OCCOCCOCCOCCOC(=O)c1ccc(-c2c3nc(c(-c4ccc(S(=O)(=O)[O-])cc4)c4ccc([nH]4)c(-c4ccc(S(=O)(=O)[O-])cc4)c4nc(c(-c5ccc(S(=O)(=O)[O-])cc5)c5ccc2[nH]5)C=C4)C=C3)cc1
REMARK SMILES IDX 18 1 17 2 16 3 15 4 14 5 13 6 12 7 11 8 9 9 10 10 4 11 2 12
REMARK SMILES IDX 1 13 3 14 5 15 6 16 7 17 8 18 19 20 20 21 21 22 22 23 23 24
REMARK SMILES IDX 24 25 25 26 26 27 27 28 85 29 28 30 84 31 29 32 30 33 31 34
REMARK SMILES IDX 78 35 32 36 83 37 77 38 79 39 33 40 82 41 76 42 75 43 34 45
REMARK SMILES IDX 64 46 45 47 63 48 46 49 49 50 62 51 80 52 47 53 48 54 61 56
REMARK SMILES IDX 81 57 50 58 35 59 36 60 44 61 37 62 43 63 38 64 39 65 40 66
REMARK SMILES IDX 41 67 42 68 65 69 66 70 74 71 67 72 73 73 68 74 69 75 70 76
REMARK SMILES IDX 71 77 72 78 51 79 52 80 60 81 53 82 59 83 54 84 55 85 56 86
REMARK SMILES IDX 57 87 58 88
REMARK H PARENT 6 19 79 44 49 55
REMARK Flexibility Score: inf
ROOT
ATOM      1  C   UNL A   1      40.649  23.316  27.373  1.00  0.00     0.188 C 
ENDROOT
BRANCH   1   2
ATOM      2  O   UNL A   1      39.242  23.469  27.492  1.00  0.00    -0.377 OA
BRANCH   2   3
ATOM      3  C   UNL A   1      38.444  23.798  26.373  1.00  0.00     0.188 C 
BRANCH   3   4
ATOM      4  C   UNL A   1      37.510  22.694  25.891  1.00  0.00     0.188 C 
BRANCH   4   5
ATOM      5  O   UNL A   1      37.629  22.311  24.538  1.00  0.00    -0.376 OA
BRANCH   5   6
ATOM      6  C   UNL A   1      36.484  22.406  23.689  1.00  0.00     0.202 C 
BRANCH   6   7
ATOM      7  C   UNL A   1      35.442  23.546  23.792  1.00  0.00     0.261 C 
BRANCH   7   8
ATOM      8  O   UNL A   1      34.078  23.183  24.142  1.00  0.00    -0.463 OA
BRANCH   8   9
ATOM      9  C   UNL A   1      33.105  23.659  23.325  1.00  0.00     0.315 C 
ATOM     10  O   UNL A   1      32.917  23.236  22.180  1.00  0.00    -0.252 OA
BRANCH   9  11
ATOM     11  C   UNL A   1      32.328  24.892  23.786  1.00  0.00     0.156 C 
BRANCH  11  12
ATOM     12  C   UNL A   1      32.421  26.327  23.177  1.00  0.00     0.003 C 
ATOM     13  C   UNL A   1      33.550  26.380  22.120  1.00  0.00     0.008 C 
ATOM     14  C   UNL A   1      31.178  26.829  22.433  1.00  0.00     0.008 C 
ENDBRANCH  11  12
BRANCH  11  15
ATOM     15  C   UNL A   1      30.888  24.352  24.004  1.00  0.00     0.277 C 
BRANCH  15  16
ATOM     16  N   UNL A   1      30.313  24.435  25.358  1.00  0.00    -0.339 N 
ATOM     17  C   UNL A   1      31.277  23.927  26.336  1.00  0.00     0.332 C 
ATOM     18  C   UNL A   1      29.862  25.766  25.752  1.00  0.00     0.332 C 
ATOM     19  H   UNL A   1      29.473  23.857  25.339  1.00  0.00     0.347 HD
ENDBRANCH  15  16
ENDBRANCH  11  15
ENDBRANCH   9  11
ENDBRANCH   8   9
ENDBRANCH   7   8
ENDBRANCH   6   7
ENDBRANCH   5   6
ENDBRANCH   4   5
ENDBRANCH   3   4
ENDBRANCH   2   3
ENDBRANCH   1   2
BRANCH   1  20
ATOM     20  C   UNL A   1      41.257  23.308  25.972  1.00  0.00     0.188 C 
BRANCH  20  21
ATOM     21  O   UNL A   1      42.496  22.619  25.776  1.00  0.00    -0.376 OA
BRANCH  21  22
ATOM     22  C   UNL A   1      43.681  23.374  25.548  1.00  0.00     0.202 C 
BRANCH  22  23
ATOM     23  C   UNL A   1      43.499  24.717  24.845  1.00  0.00     0.261 C 
BRANCH  23  24
ATOM     24  O   UNL A   1      43.770  25.835  25.696  1.00  0.00    -0.460 OA
BRANCH  24  25
ATOM     25  C   UNL A   1      42.739  26.692  25.870  1.00  0.00     0.338 C 
ATOM     26  O   UNL A   1      41.888  27.011  25.052  1.00  0.00    -0.246 OA
BRANCH  25  27
ATOM     27  C   UNL A   1      42.719  27.122  27.274  1.00  0.00     0.060 A 
ATOM     28  C   UNL A   1      42.064  26.331  28.228  1.00  0.00     0.016 A 
ATOM     29  C   UNL A   1      43.278  28.352  27.624  1.00  0.00     0.016 A 
ATOM     30  C   UNL A   1      41.922  26.796  29.535  1.00  0.00     0.010 A 
ATOM     31  C   UNL A   1      43.124  28.820  28.924  1.00  0.00     0.010 A 
ATOM     32  C   UNL A   1      42.408  28.064  29.869  1.00  0.00    -0.014 A 
BRANCH  32  33
ATOM     33  C   UNL A   1      42.002  28.733  31.122  1.00  0.00     0.031 A 
ATOM     34  C   UNL A   1      40.805  29.643  31.068  1.00  0.00     0.074 A 
ATOM     35  C   UNL A   1      42.718  28.595  32.249  1.00  0.00     0.049 A 
ATOM     36  N   UNL A   1      40.386  30.511  31.949  1.00  0.00    -0.248 NA
ATOM     37  C   UNL A   1      39.986  29.577  29.844  1.00  0.00     0.031 C 
ATOM     38  C   UNL A   1      43.855  27.692  32.427  1.00  0.00     0.029 A 
ATOM     39  N   UNL A   1      42.607  29.243  33.451  1.00  0.00    -0.354 N 
ATOM     40  C   UNL A   1      39.269  31.110  31.378  1.00  0.00     0.074 A 
ATOM     41  C   UNL A   1      39.091  30.528  30.066  1.00  0.00     0.031 C 
ATOM     42  C   UNL A   1      44.353  27.863  33.664  1.00  0.00     0.029 A 
ATOM     43  C   UNL A   1      43.606  28.924  34.338  1.00  0.00     0.049 A 
ATOM     44  H   UNL A   1      41.882  29.876  33.659  1.00  0.00     0.167 HD
ATOM     45  C   UNL A   1      38.463  32.061  31.904  1.00  0.00     0.031 A 
ATOM     46  C   UNL A   1      43.903  29.460  35.539  1.00  0.00     0.031 A 
ATOM     47  C   UNL A   1      38.666  32.642  33.202  1.00  0.00     0.049 A 
ATOM     48  C   UNL A   1      43.051  30.590  36.064  1.00  0.00     0.074 A 
ATOM     49  C   UNL A   1      37.918  33.619  33.835  1.00  0.00     0.029 A 
ATOM     50  N   UNL A   1      39.695  32.299  34.067  1.00  0.00    -0.354 N 
ATOM     51  N   UNL A   1      42.002  31.158  35.516  1.00  0.00    -0.248 NA
ATOM     52  C   UNL A   1      43.423  31.152  37.371  1.00  0.00     0.031 C 
ATOM     53  C   UNL A   1      38.528  33.905  35.059  1.00  0.00     0.029 A 
ATOM     54  C   UNL A   1      39.610  33.053  35.222  1.00  0.00     0.049 A 
ATOM     55  H   UNL A   1      40.384  31.618  33.884  1.00  0.00     0.167 HD
ATOM     56  C   UNL A   1      41.557  32.103  36.436  1.00  0.00     0.074 A 
ATOM     57  C   UNL A   1      42.454  32.036  37.571  1.00  0.00     0.031 C 
ATOM     58  C   UNL A   1      40.496  32.944  36.354  1.00  0.00     0.031 A 
BRANCH  45  59
ATOM     59  C   UNL A   1      37.313  32.547  31.064  1.00  0.00    -0.014 A 
ATOM     60  C   UNL A   1      35.996  32.121  31.316  1.00  0.00     0.010 A 
ATOM     61  C   UNL A   1      37.544  33.477  30.034  1.00  0.00     0.010 A 
ATOM     62  C   UNL A   1      34.938  32.589  30.533  1.00  0.00     0.020 A 
ATOM     63  C   UNL A   1      36.485  33.971  29.269  1.00  0.00     0.020 A 
ATOM     64  C   UNL A   1      35.190  33.513  29.515  1.00  0.00     0.054 A 
BRANCH  64  65
ATOM     65  S   UNL A   1      33.790  34.129  28.539  1.00  0.00     0.124 S 
ATOM     66  O   UNL A   1      34.409  35.204  27.768  1.00  0.00    -0.237 OA
ATOM     67  O   UNL A   1      33.396  32.951  27.770  1.00  0.00    -0.237 OA
ATOM     68  O   UNL A   1      32.827  34.563  29.549  1.00  0.00    -0.744 OA
ENDBRANCH  64  65
ENDBRANCH  45  59
BRANCH  46  69
ATOM     69  C   UNL A   1      45.066  28.957  36.322  1.00  0.00    -0.014 A 
ATOM     70  C   UNL A   1      46.340  29.524  36.144  1.00  0.00     0.010 A 
ATOM     71  C   UNL A   1      44.912  27.897  37.234  1.00  0.00     0.010 A 
ATOM     72  C   UNL A   1      47.444  29.019  36.837  1.00  0.00     0.020 A 
ATOM     73  C   UNL A   1      46.008  27.411  37.954  1.00  0.00     0.020 A 
ATOM     74  C   UNL A   1      47.271  27.966  37.738  1.00  0.00     0.054 A 
BRANCH  74  75
ATOM     75  S   UNL A   1      48.715  27.343  38.641  1.00  0.00     0.124 S 
ATOM     76  O   UNL A   1      48.826  25.980  38.134  1.00  0.00    -0.237 OA
ATOM     77  O   UNL A   1      49.768  28.264  38.222  1.00  0.00    -0.237 OA
ATOM     78  O   UNL A   1      48.319  27.459  40.044  1.00  0.00    -0.744 OA
ENDBRANCH  74  75
ENDBRANCH  46  69
BRANCH  58  79
ATOM     79  C   UNL A   1      40.179  33.800  37.552  1.00  0.00    -0.014 A 
ATOM     80  C   UNL A   1      40.617  35.131  37.647  1.00  0.00     0.010 A 
ATOM     81  C   UNL A   1      39.332  33.282  38.551  1.00  0.00     0.010 A 
ATOM     82  C   UNL A   1      40.221  35.927  38.726  1.00  0.00     0.020 A 
ATOM     83  C   UNL A   1      38.909  34.083  39.614  1.00  0.00     0.020 A 
ATOM     84  C   UNL A   1      39.362  35.399  39.697  1.00  0.00     0.054 A 
BRANCH  84  85
ATOM     85  S   UNL A   1      38.793  36.481  41.039  1.00  0.00     0.124 S 
ATOM     86  O   UNL A   1      37.755  35.667  41.666  1.00  0.00    -0.237 OA
ATOM     87  O   UNL A   1      40.007  36.671  41.829  1.00  0.00    -0.237 OA
ATOM     88  O   UNL A   1      38.315  37.673  40.344  1.00  0.00    -0.744 OA
ENDBRANCH  84  85
ENDBRANCH  58  79
ENDBRANCH  32  33
ENDBRANCH  25  27
ENDBRANCH  24  25
ENDBRANCH  23  24
ENDBRANCH  22  23
ENDBRANCH  21  22
ENDBRANCH  20  21
ENDBRANCH   1  20
TORSDOF 26
ENDMDL
MODEL 2
REMARK VINA RESULT:      -7.1      3.864      7.013
REMARK SMILES CC(C)[C@@H](C[NH+](C)C)C(=O)OCCOCCOCCOCCOC(=O)c1ccc(-c2c3nc(c(-c4ccc(S(=O)(=O)[O-])cc4)c4ccc([nH]4)c(-c4ccc(S(=O)(=O)[O-])cc4)c4nc(c(-c5ccc(S(=O)(=O)[O-])cc5)c5ccc2[nH]5)C=C4)C=C3)cc1
REMARK SMILES IDX 18 1 17 2 16 3 15 4 14 5 13 6 12 7 11 8 9 9 10 10 4 11 2 12
REMARK SMILES IDX 1 13 3 14 5 15 6 16 7 17 8 18 19 20 20 21 21 22 22 23 23 24
REMARK SMILES IDX 24 25 25 26 26 27 27 28 85 29 28 30 84 31 29 32 30 33 31 34
REMARK SMILES IDX 78 35 32 36 83 37 77 38 79 39 33 40 82 41 76 42 75 43 34 45
REMARK SMILES IDX 64 46 45 47 63 48 46 49 49 50 62 51 80 52 47 53 48 54 61 56
REMARK SMILES IDX 81 57 50 58 35 59 36 60 44 61 37 62 43 63 38 64 39 65 40 66
REMARK SMILES IDX 41 67 42 68 65 69 66 70 74 71 67 72 73 73 68 74 69 75 70 76
REMARK SMILES IDX 71 77 72 78 51 79 52 80 60 81 53 82 59 83 54 84 55 85 56 86
REMARK SMILES IDX 57 87 58 88
REMARK H PARENT 6 19 79 44 49 55
REMARK Flexibility Score: inf
ROOT
ATOM      1  C   UNL A   1      42.104  22.014  27.218  1.00  0.00     0.188 C 
ENDROOT
BRANCH   1   2
ATOM      2  O   UNL A   1      42.087  23.161  28.056  1.00  0.00    -0.377 OA
BRANCH   2   3
ATOM      3  C   UNL A   1      42.987  23.290  29.139  1.00  0.00     0.188 C 
BRANCH   3   4
ATOM      4  C   UNL A   1      44.170  24.220  28.895  1.00  0.00     0.188 C 
BRANCH   4   5
ATOM      5  O   UNL A   1      45.402  23.606  28.583  1.00  0.00    -0.376 OA
BRANCH   5   6
ATOM      6  C   UNL A   1      46.488  24.422  28.142  1.00  0.00     0.202 C 
BRANCH   6   7
ATOM      7  C   UNL A   1      46.437  25.969  28.122  1.00  0.00     0.261 C 
BRANCH   7   8
ATOM      8  O   UNL A   1      46.681  26.636  26.853  1.00  0.00    -0.463 OA
BRANCH   8   9
ATOM      9  C   UNL A   1      47.840  26.316  26.224  1.00  0.00     0.315 C 
ATOM     10  O   UNL A   1      47.938  25.384  25.420  1.00  0.00    -0.252 OA
BRANCH   9  11
ATOM     11  C   UNL A   1      49.113  27.036  26.670  1.00  0.00     0.156 C 
BRANCH  11  12
ATOM     12  C   UNL A   1      50.223  26.460  27.607  1.00  0.00     0.003 C 
ATOM     13  C   UNL A   1      50.078  27.057  29.026  1.00  0.00     0.008 C 
ATOM     14  C   UNL A   1      50.201  24.942  27.827  1.00  0.00     0.008 C 
ENDBRANCH  11  12
BRANCH  11  15
ATOM     15  C   UNL A   1      49.624  27.709  25.367  1.00  0.00     0.277 C 
BRANCH  15  16
ATOM     16  N   UNL A   1      50.237  26.852  24.337  1.00  0.00    -0.339 N 
ATOM     17  C   UNL A   1      49.649  27.151  23.031  1.00  0.00     0.332 C 
ATOM     18  C   UNL A   1      51.692  26.935  24.258  1.00  0.00     0.332 C 
ATOM     19  H   UNL A   1      50.034  25.892  24.619  1.00  0.00     0.347 HD
ENDBRANCH  15  16
ENDBRANCH  11  15
ENDBRANCH   9  11
ENDBRANCH   8   9
ENDBRANCH   7   8
ENDBRANCH   6   7
ENDBRANCH   5   6
ENDBRANCH   4   5
ENDBRANCH   3   4
ENDBRANCH   2   3
ENDBRANCH   1   2
BRANCH   1  20
ATOM     20  C   UNL A   1      42.904  22.083  25.918  1.00  0.00     0.188 C 
BRANCH  20  21
ATOM     21  O   UNL A   1      43.828  23.163  25.750  1.00  0.00    -0.376 OA
BRANCH  21  22
ATOM     22  C   UNL A   1      43.475  24.254  24.907  1.00  0.00     0.202 C 
BRANCH  22  23
ATOM     23  C   UNL A   1      43.795  25.648  25.439  1.00  0.00     0.261 C 
BRANCH  23  24
ATOM     24  O   UNL A   1      42.751  26.596  25.189  1.00  0.00    -0.460 OA
BRANCH  24  25
ATOM     25  C   UNL A   1      41.563  26.312  25.768  1.00  0.00     0.338 C 
ATOM     26  O   UNL A   1      40.616  25.715  25.276  1.00  0.00    -0.246 OA
BRANCH  25  27
ATOM     27  C   UNL A   1      41.610  26.745  27.171  1.00  0.00     0.060 A 
ATOM     28  C   UNL A   1      40.805  26.098  28.119  1.00  0.00     0.016 A 
ATOM     29  C   UNL A   1      42.389  27.848  27.524  1.00  0.00     0.016 A 
ATOM     30  C   UNL A   1      40.740  26.588  29.423  1.00  0.00     0.010 A 
ATOM     31  C   UNL A   1      42.312  28.343  28.820  1.00  0.00     0.010 A 
ATOM     32  C   UNL A   1      41.455  27.742  29.759  1.00  0.00    -0.014 A 
BRANCH  32  33
ATOM     33  C   UNL A   1      41.169  28.483  31.005  1.00  0.00     0.031 A 
ATOM     34  C   UNL A   1      40.071  29.509  30.968  1.00  0.00     0.074 A 
ATOM     35  C   UNL A   1      41.911  28.301  32.109  1.00  0.00     0.049 A 
ATOM     36  N   UNL A   1      39.777  30.439  31.836  1.00  0.00    -0.248 NA
ATOM     37  C   UNL A   1      39.201  29.496  29.778  1.00  0.00     0.031 C 
ATOM     38  C   UNL A   1      42.956  27.291  32.272  1.00  0.00     0.029 A 
ATOM     39  N   UNL A   1      41.915  28.989  33.294  1.00  0.00    -0.354 N 
ATOM     40  C   UNL A   1      38.705  31.134  31.289  1.00  0.00     0.074 A 
ATOM     41  C   UNL A   1      38.417  30.539  30.003  1.00  0.00     0.031 C 
ATOM     42  C   UNL A   1      43.519  27.442  33.484  1.00  0.00     0.029 A 
ATOM     43  C   UNL A   1      42.911  28.592  34.153  1.00  0.00     0.049 A 
ATOM     44  H   UNL A   1      41.268  29.699  33.509  1.00  0.00     0.167 HD
ATOM     45  C   UNL A   1      38.022  32.177  31.815  1.00  0.00     0.031 A 
ATOM     46  C   UNL A   1      43.309  29.126  35.324  1.00  0.00     0.031 A 
ATOM     47  C   UNL A   1      38.335  32.769  33.086  1.00  0.00     0.049 A 
ATOM     48  C   UNL A   1      42.598  30.352  35.846  1.00  0.00     0.074 A 
ATOM     49  C   UNL A   1      37.717  33.834  33.717  1.00  0.00     0.029 A 
ATOM     50  N   UNL A   1      39.358  32.344  33.923  1.00  0.00    -0.354 N 
ATOM     51  N   UNL A   1      41.591  31.010  35.320  1.00  0.00    -0.248 NA
ATOM     52  C   UNL A   1      43.077  30.907  37.121  1.00  0.00     0.031 C 
ATOM     53  C   UNL A   1      38.401  34.088  34.908  1.00  0.00     0.029 A 
ATOM     54  C   UNL A   1      39.396  33.133  35.057  1.00  0.00     0.049 A 
ATOM     55  H   UNL A   1      39.965  31.591  33.736  1.00  0.00     0.167 HD
ATOM     56  C   UNL A   1      41.282  32.020  36.226  1.00  0.00     0.074 A 
ATOM     57  C   UNL A   1      42.212  31.891  37.329  1.00  0.00     0.031 C 
ATOM     58  C   UNL A   1      40.311  32.963  36.158  1.00  0.00     0.031 A 
BRANCH  45  59
ATOM     59  C   UNL A   1      36.895  32.757  31.004  1.00  0.00    -0.014 A 
ATOM     60  C   UNL A   1      35.561  32.379  31.237  1.00  0.00     0.010 A 
ATOM     61  C   UNL A   1      37.168  33.727  30.021  1.00  0.00     0.010 A 
ATOM     62  C   UNL A   1      34.525  32.934  30.481  1.00  0.00     0.020 A 
ATOM     63  C   UNL A   1      36.133  34.307  29.285  1.00  0.00     0.020 A 
ATOM     64  C   UNL A   1      34.818  33.896  29.511  1.00  0.00     0.054 A 
BRANCH  64  65
ATOM     65  S   UNL A   1      33.448  34.623  28.571  1.00  0.00     0.124 S 
ATOM     66  O   UNL A   1      32.512  34.987  29.632  1.00  0.00    -0.237 OA
ATOM     67  O   UNL A   1      34.090  35.745  27.889  1.00  0.00    -0.237 OA
ATOM     68  O   UNL A   1      33.008  33.536  27.699  1.00  0.00    -0.744 OA
ENDBRANCH  64  65
ENDBRANCH  45  59
BRANCH  46  69
ATOM     69  C   UNL A   1      44.445  28.527  36.079  1.00  0.00    -0.014 A 
ATOM     70  C   UNL A   1      44.209  27.538  37.050  1.00  0.00     0.010 A 
ATOM     71  C   UNL A   1      45.765  28.955  35.849  1.00  0.00     0.010 A 
ATOM     72  C   UNL A   1      45.265  27.012  37.798  1.00  0.00     0.020 A 
ATOM     73  C   UNL A   1      46.829  28.407  36.571  1.00  0.00     0.020 A 
ATOM     74  C   UNL A   1      46.569  27.450  37.554  1.00  0.00     0.054 A 
BRANCH  74  75
ATOM     75  S   UNL A   1      47.926  26.736  38.524  1.00  0.00     0.124 S 
ATOM     76  O   UNL A   1      48.289  27.846  39.399  1.00  0.00    -0.237 OA
ATOM     77  O   UNL A   1      47.281  25.600  39.175  1.00  0.00    -0.237 OA
ATOM     78  O   UNL A   1      48.921  26.383  37.513  1.00  0.00    -0.744 OA
ENDBRANCH  74  75
ENDBRANCH  46  69
BRANCH  58  79
ATOM     79  C   UNL A   1      40.131  33.879  37.340  1.00  0.00    -0.014 A 
ATOM     80  C   UNL A   1      40.727  35.150  37.389  1.00  0.00     0.010 A 
ATOM     81  C   UNL A   1      39.254  33.491  38.373  1.00  0.00     0.010 A 
ATOM     82  C   UNL A   1      40.458  36.012  38.457  1.00  0.00     0.020 A 
ATOM     83  C   UNL A   1      38.959  34.361  39.423  1.00  0.00     0.020 A 
ATOM     84  C   UNL A   1      39.568  35.615  39.462  1.00  0.00     0.054 A 
BRANCH  84  85
ATOM     85  S   UNL A   1      39.169  36.788  40.787  1.00  0.00     0.124 S 
ATOM     86  O   UNL A   1      40.460  36.950  41.449  1.00  0.00    -0.237 OA
ATOM     87  O   UNL A   1      38.691  37.953  40.047  1.00  0.00    -0.237 OA
ATOM     88  O   UNL A   1      38.150  36.093  41.571  1.00  0.00    -0.744 OA
ENDBRANCH  84  85
ENDBRANCH  58  79
ENDBRANCH  32  33
ENDBRANCH  25  27
ENDBRANCH  24  25
ENDBRANCH  23  24
ENDBRANCH  22  23
ENDBRANCH  21  22
ENDBRANCH  20  21
ENDBRANCH   1  20
TORSDOF 26
ENDMDL
MODEL 3
REMARK VINA RESULT:      -7.0      3.934      7.153
REMARK SMILES CC(C)[C@@H](C[NH+](C)C)C(=O)OCCOCCOCCOCCOC(=O)c1ccc(-c2c3nc(c(-c4ccc(S(=O)(=O)[O-])cc4)c4ccc([nH]4)c(-c4ccc(S(=O)(=O)[O-])cc4)c4nc(c(-c5ccc(S(=O)(=O)[O-])cc5)c5ccc2[nH]5)C=C4)C=C3)cc1
REMARK SMILES IDX 18 1 17 2 16 3 15 4 14 5 13 6 12 7 11 8 9 9 10 10 4 11 2 12
REMARK SMILES IDX 1 13 3 14 5 15 6 16 7 17 8 18 19 20 20 21 21 22 22 23 23 24
REMARK SMILES IDX 24 25 25 26 26 27 27 28 85 29 28 30 84 31 29 32 30 33 31 34
REMARK SMILES IDX 78 35 32 36 83 37 77 38 79 39 33 40 82 41 76 42 75 43 34 45
REMARK SMILES IDX 64 46 45 47 63 48 46 49 49 50 62 51 80 52 47 53 48 54 61 56
REMARK SMILES IDX 81 57 50 58 35 59 36 60 44 61 37 62 43 63 38 64 39 65 40 66
REMARK SMILES IDX 41 67 42 68 65 69 66 70 74 71 67 72 73 73 68 74 69 75 70 76
REMARK SMILES IDX 71 77 72 78 51 79 52 80 60 81 53 82 59 83 54 84 55 85 56 86
REMARK SMILES IDX 57 87 58 88
REMARK H PARENT 6 19 79 44 49 55
REMARK Flexibility Score: inf
ROOT
ATOM      1  C   UNL A   1      41.566  22.305  26.994  1.00  0.00     0.188 C 
ENDROOT
BRANCH   1   2
ATOM      2  O   UNL A   1      42.085  22.594  28.285  1.00  0.00    -0.377 OA
BRANCH   2   3
ATOM      3  C   UNL A   1      43.357  22.126  28.684  1.00  0.00     0.188 C 
BRANCH   3   4
ATOM      4  C   UNL A   1      44.330  23.202  29.154  1.00  0.00     0.188 C 
BRANCH   4   5
ATOM      5  O   UNL A   1      43.789  24.243  29.938  1.00  0.00    -0.376 OA
BRANCH   5   6
ATOM      6  C   UNL A   1      44.261  24.417  31.275  1.00  0.00     0.202 C 
BRANCH   6   7
ATOM      7  C   UNL A   1      44.183  23.311  32.356  1.00  0.00     0.261 C 
BRANCH   7   8
ATOM      8  O   UNL A   1      45.270  23.232  33.319  1.00  0.00    -0.463 OA
BRANCH   8   9
ATOM      9  C   UNL A   1      44.931  22.834  34.570  1.00  0.00     0.315 C 
ATOM     10  O   UNL A   1      43.778  22.892  35.009  1.00  0.00    -0.252 OA
BRANCH   9  11
ATOM     11  C   UNL A   1      46.061  22.463  35.531  1.00  0.00     0.156 C 
BRANCH  11  12
ATOM     12  C   UNL A   1      46.705  23.394  36.607  1.00  0.00     0.003 C 
ATOM     13  C   UNL A   1      46.645  24.866  36.135  1.00  0.00     0.008 C 
ATOM     14  C   UNL A   1      46.028  23.407  37.983  1.00  0.00     0.008 C 
ENDBRANCH  11  12
BRANCH  11  15
ATOM     15  C   UNL A   1      45.665  21.045  36.027  1.00  0.00     0.277 C 
BRANCH  15  16
ATOM     16  N   UNL A   1      45.721  19.932  35.062  1.00  0.00    -0.339 N 
ATOM     17  C   UNL A   1      47.066  19.838  34.494  1.00  0.00     0.332 C 
ATOM     18  C   UNL A   1      45.316  18.637  35.597  1.00  0.00     0.332 C 
ATOM     19  H   UNL A   1      45.034  20.157  34.341  1.00  0.00     0.347 HD
ENDBRANCH  15  16
ENDBRANCH  11  15
ENDBRANCH   9  11
ENDBRANCH   8   9
ENDBRANCH   7   8
ENDBRANCH   6   7
ENDBRANCH   5   6
ENDBRANCH   4   5
ENDBRANCH   3   4
ENDBRANCH   2   3
ENDBRANCH   1   2
BRANCH   1  20
ATOM     20  C   UNL A   1      42.397  22.706  25.777  1.00  0.00     0.188 C 
BRANCH  20  21
ATOM     21  O   UNL A   1      43.555  23.521  25.987  1.00  0.00    -0.376 OA
BRANCH  21  22
ATOM     22  C   UNL A   1      43.922  24.472  24.995  1.00  0.00     0.202 C 
BRANCH  22  23
ATOM     23  C   UNL A   1      44.513  25.784  25.505  1.00  0.00     0.261 C 
BRANCH  23  24
ATOM     24  O   UNL A   1      43.655  26.908  25.282  1.00  0.00    -0.460 OA
BRANCH  24  25
ATOM     25  C   UNL A   1      42.398  26.778  25.761  1.00  0.00     0.338 C 
ATOM     26  O   UNL A   1      41.427  26.305  25.189  1.00  0.00    -0.246 OA
BRANCH  25  27
ATOM     27  C   UNL A   1      42.385  27.206  27.166  1.00  0.00     0.060 A 
ATOM     28  C   UNL A   1      41.744  26.406  28.123  1.00  0.00     0.016 A 
ATOM     29  C   UNL A   1      42.934  28.441  27.514  1.00  0.00     0.016 A 
ATOM     30  C   UNL A   1      41.607  26.868  29.432  1.00  0.00     0.010 A 
ATOM     31  C   UNL A   1      42.785  28.905  28.816  1.00  0.00     0.010 A 
ATOM     32  C   UNL A   1      42.084  28.140  29.765  1.00  0.00    -0.014 A 
BRANCH  32  33
ATOM     33  C   UNL A   1      41.680  28.803  31.022  1.00  0.00     0.031 A 
ATOM     34  C   UNL A   1      40.494  29.725  30.973  1.00  0.00     0.074 A 
ATOM     35  C   UNL A   1      42.392  28.647  32.150  1.00  0.00     0.049 A 
ATOM     36  N   UNL A   1      40.080  30.590  31.859  1.00  0.00    -0.248 NA
ATOM     37  C   UNL A   1      39.678  29.678  29.746  1.00  0.00     0.031 C 
ATOM     38  C   UNL A   1      43.519  27.731  32.324  1.00  0.00     0.029 A 
ATOM     39  N   UNL A   1      42.284  29.287  33.357  1.00  0.00    -0.354 N 
ATOM     40  C   UNL A   1      38.971  31.205  31.290  1.00  0.00     0.074 A 
ATOM     41  C   UNL A   1      38.792  30.636  29.973  1.00  0.00     0.031 C 
ATOM     42  C   UNL A   1      44.015  27.887  33.564  1.00  0.00     0.029 A 
ATOM     43  C   UNL A   1      43.277  28.950  34.245  1.00  0.00     0.049 A 
ATOM     44  H   UNL A   1      41.565  29.926  33.568  1.00  0.00     0.167 HD
ATOM     45  C   UNL A   1      38.173  32.160  31.821  1.00  0.00     0.031 A 
ATOM     46  C   UNL A   1      43.576  29.473  35.450  1.00  0.00     0.031 A 
ATOM     47  C   UNL A   1      38.379  32.728  33.125  1.00  0.00     0.049 A 
ATOM     48  C   UNL A   1      42.734  30.607  35.982  1.00  0.00     0.074 A 
ATOM     49  C   UNL A   1      37.639  33.707  33.764  1.00  0.00     0.029 A 
ATOM     50  N   UNL A   1      39.402  32.367  33.990  1.00  0.00    -0.354 N 
ATOM     51  N   UNL A   1      41.692  31.190  35.436  1.00  0.00    -0.248 NA
ATOM     52  C   UNL A   1      43.107  31.154  37.295  1.00  0.00     0.031 C 
ATOM     53  C   UNL A   1      38.248  33.976  34.992  1.00  0.00     0.029 A 
ATOM     54  C   UNL A   1      39.320  33.112  35.151  1.00  0.00     0.049 A 
ATOM     55  H   UNL A   1      40.084  31.681  33.804  1.00  0.00     0.167 HD
ATOM     56  C   UNL A   1      41.254  32.132  36.363  1.00  0.00     0.074 A 
ATOM     57  C   UNL A   1      42.147  32.046  37.500  1.00  0.00     0.031 C 
ATOM     58  C   UNL A   1      40.202  32.984  36.285  1.00  0.00     0.031 A 
BRANCH  45  59
ATOM     59  C   UNL A   1      37.031  32.665  30.982  1.00  0.00    -0.014 A 
ATOM     60  C   UNL A   1      37.248  33.569  29.927  1.00  0.00     0.010 A 
ATOM     61  C   UNL A   1      35.726  32.197  31.223  1.00  0.00     0.010 A 
ATOM     62  C   UNL A   1      36.177  34.021  29.151  1.00  0.00     0.020 A 
ATOM     63  C   UNL A   1      34.658  32.622  30.430  1.00  0.00     0.020 A 
ATOM     64  C   UNL A   1      34.889  33.543  29.407  1.00  0.00     0.054 A 
BRANCH  64  65
ATOM     65  S   UNL A   1      33.526  34.122  28.359  1.00  0.00     0.124 S 
ATOM     66  O   UNL A   1      33.080  32.881  27.730  1.00  0.00    -0.237 OA
ATOM     67  O   UNL A   1      32.602  34.701  29.331  1.00  0.00    -0.237 OA
ATOM     68  O   UNL A   1      34.163  35.081  27.459  1.00  0.00    -0.744 OA
ENDBRANCH  64  65
ENDBRANCH  45  59
BRANCH  46  69
ATOM     69  C   UNL A   1      44.731  28.952  36.233  1.00  0.00    -0.014 A 
ATOM     70  C   UNL A   1      44.522  28.056  37.296  1.00  0.00     0.010 A 
ATOM     71  C   UNL A   1      46.043  29.363  35.935  1.00  0.00     0.010 A 
ATOM     72  C   UNL A   1      45.597  27.606  38.067  1.00  0.00     0.020 A 
ATOM     73  C   UNL A   1      47.126  28.889  36.683  1.00  0.00     0.020 A 
ATOM     74  C   UNL A   1      46.894  28.026  37.755  1.00  0.00     0.054 A 
BRANCH  74  75
ATOM     75  S   UNL A   1      48.274  27.411  38.757  1.00  0.00     0.124 S 
ATOM     76  O   UNL A   1      49.389  27.492  37.820  1.00  0.00    -0.237 OA
ATOM     77  O   UNL A   1      48.307  28.363  39.864  1.00  0.00    -0.237 OA
ATOM     78  O   UNL A   1      47.859  26.058  39.121  1.00  0.00    -0.744 OA
ENDBRANCH  74  75
ENDBRANCH  46  69
BRANCH  58  79
ATOM     79  C   UNL A   1      39.890  33.834  37.489  1.00  0.00    -0.014 A 
ATOM     80  C   UNL A   1      39.083  33.363  38.537  1.00  0.00     0.010 A 
ATOM     81  C   UNL A   1      40.514  35.091  37.613  1.00  0.00     0.010 A 
ATOM     82  C   UNL A   1      38.896  34.140  39.685  1.00  0.00     0.020 A 
ATOM     83  C   UNL A   1      40.355  35.856  38.770  1.00  0.00     0.020 A 
ATOM     84  C   UNL A   1      39.542  35.377  39.796  1.00  0.00     0.054 A 
BRANCH  84  85
ATOM     85  S   UNL A   1      39.352  36.324  41.333  1.00  0.00     0.124 S 
ATOM     86  O   UNL A   1      40.425  35.779  42.160  1.00  0.00    -0.237 OA
ATOM     87  O   UNL A   1      39.543  37.701  40.883  1.00  0.00    -0.237 OA
ATOM     88  O   UNL A   1      37.998  36.001  41.775  1.00  0.00    -0.744 OA
ENDBRANCH  84  85
ENDBRANCH  58  79
ENDBRANCH  32  33
ENDBRANCH  25  27
ENDBRANCH  24  25
ENDBRANCH  23  24
ENDBRANCH  22  23
ENDBRANCH  21  22
ENDBRANCH  20  21
ENDBRANCH   1  20
TORSDOF 26
ENDMDL
