MODEL 1
REMARK VINA RESULT:      -9.8      0.000      0.000
REMARK SMILES O=C(OCCOCCOCCOCCOC(=O)c1ccc(-c2c3nc(c(-c4ccc(S(=O)(=O)[O-])cc4)c4ccc([nH]4)c(-c4ccc(S(=O)(=O)[O-])cc4)c4nc(c(-c5ccc(S(=O)(=O)[O-])cc5)c5ccc2[nH]5)C=C4)C=C3)cc1)c1ccc(-c2ccc3ccccc3n2)cc1
REMARK SMILES IDX 10 1 9 2 8 3 7 4 6 5 5 6 4 7 3 8 2 9 1 10 78 11 79 12 93 13
REMARK SMILES IDX 80 14 92 15 81 16 82 17 83 18 91 19 84 20 90 21 85 22 89 23
REMARK SMILES IDX 86 24 88 25 87 26 11 27 12 28 13 29 14 30 15 31 16 32 17 33
REMARK SMILES IDX 18 34 19 35 77 36 20 37 76 38 21 39 22 40 23 41 70 42 24 43
REMARK SMILES IDX 75 44 69 45 71 46 25 47 74 48 68 49 67 50 26 52 56 53 37 54
REMARK SMILES IDX 55 55 38 56 41 57 54 58 72 59 39 60 40 61 53 63 73 64 42 65
REMARK SMILES IDX 27 66 28 67 36 68 29 69 35 70 30 71 31 72 32 73 33 74 34 75
REMARK SMILES IDX 57 76 58 77 66 78 59 79 65 80 60 81 61 82 62 83 63 84 64 85
REMARK SMILES IDX 43 86 44 87 52 88 45 89 51 90 46 91 47 92 48 93 49 94 50 95
REMARK H PARENT 71 51 41 62
REMARK Flexibility Score: inf
ROOT
ATOM      1  C   UNL A   1      39.136  21.306  25.817  1.00  0.00     0.188 C 
ENDROOT
BRANCH   1   2
ATOM      2  O   UNL A   1      37.875  21.581  25.222  1.00  0.00    -0.377 OA
BRANCH   2   3
ATOM      3  C   UNL A   1      37.346  22.886  25.443  1.00  0.00     0.188 C 
BRANCH   3   4
ATOM      4  C   UNL A   1      35.821  23.038  25.378  1.00  0.00     0.188 C 
BRANCH   4   5
ATOM      5  O   UNL A   1      35.139  21.835  25.015  1.00  0.00    -0.376 OA
BRANCH   5   6
ATOM      6  C   UNL A   1      34.102  21.926  24.030  1.00  0.00     0.202 C 
BRANCH   6   7
ATOM      7  C   UNL A   1      32.689  21.626  24.522  1.00  0.00     0.261 C 
BRANCH   7   8
ATOM      8  O   UNL A   1      32.337  22.554  25.549  1.00  0.00    -0.460 OA
BRANCH   8   9
ATOM      9  C   UNL A   1      31.008  22.775  25.681  1.00  0.00     0.338 C 
ATOM     10  O   UNL A   1      30.180  22.005  26.136  1.00  0.00    -0.246 OA
BRANCH   9  11
ATOM     11  C   UNL A   1      30.744  24.146  25.189  1.00  0.00     0.060 A 
ATOM     12  C   UNL A   1      30.648  24.406  23.811  1.00  0.00     0.016 A 
ATOM     13  C   UNL A   1      30.676  25.189  26.097  1.00  0.00     0.016 A 
ATOM     14  C   UNL A   1      30.675  25.702  23.317  1.00  0.00     0.011 A 
ATOM     15  C   UNL A   1      30.720  26.491  25.604  1.00  0.00     0.011 A 
ATOM     16  C   UNL A   1      30.846  26.755  24.210  1.00  0.00     0.000 A 
BRANCH  16  17
ATOM     17  C   UNL A   1      31.623  27.960  23.786  1.00  0.00     0.071 A 
ATOM     18  C   UNL A   1      32.881  27.603  23.298  1.00  0.00     0.029 A 
ATOM     19  N   UNL A   1      31.482  29.022  24.610  1.00  0.00    -0.248 NA
ATOM     20  C   UNL A   1      33.934  27.786  24.181  1.00  0.00     0.012 A 
ATOM     21  C   UNL A   1      32.538  29.326  25.377  1.00  0.00     0.071 A 
ATOM     22  C   UNL A   1      33.739  28.593  25.304  1.00  0.00     0.000 A 
ATOM     23  C   UNL A   1      32.420  30.307  26.345  1.00  0.00     0.029 A 
ATOM     24  C   UNL A   1      34.671  28.670  26.347  1.00  0.00     0.010 A 
ATOM     25  C   UNL A   1      33.395  30.459  27.332  1.00  0.00     0.002 A 
ATOM     26  C   UNL A   1      34.485  29.594  27.371  1.00  0.00     0.001 A 
ENDBRANCH  16  17
ENDBRANCH   9  11
ENDBRANCH   8   9
ENDBRANCH   7   8
ENDBRANCH   6   7
ENDBRANCH   5   6
ENDBRANCH   4   5
ENDBRANCH   3   4
ENDBRANCH   2   3
ENDBRANCH   1   2
BRANCH   1  27
ATOM     27  C   UNL A   1      39.664  22.285  26.890  1.00  0.00     0.188 C 
BRANCH  27  28
ATOM     28  O   UNL A   1      40.771  21.786  27.618  1.00  0.00    -0.376 OA
BRANCH  28  29
ATOM     29  C   UNL A   1      41.989  21.594  26.913  1.00  0.00     0.202 C 
BRANCH  29  30
ATOM     30  C   UNL A   1      42.902  22.785  26.552  1.00  0.00     0.261 C 
BRANCH  30  31
ATOM     31  O   UNL A   1      42.277  24.049  26.284  1.00  0.00    -0.460 OA
BRANCH  31  32
ATOM     32  C   UNL A   1      43.059  25.157  26.212  1.00  0.00     0.338 C 
ATOM     33  O   UNL A   1      43.827  25.445  25.331  1.00  0.00    -0.246 OA
BRANCH  32  34
ATOM     34  C   UNL A   1      42.591  26.080  27.290  1.00  0.00     0.060 A 
ATOM     35  C   UNL A   1      43.060  27.402  27.280  1.00  0.00     0.016 A 
ATOM     36  C   UNL A   1      41.607  25.695  28.207  1.00  0.00     0.016 A 
ATOM     37  C   UNL A   1      42.555  28.336  28.190  1.00  0.00     0.010 A 
ATOM     38  C   UNL A   1      41.127  26.623  29.140  1.00  0.00     0.010 A 
ATOM     39  C   UNL A   1      41.614  27.943  29.152  1.00  0.00    -0.014 A 
BRANCH  39  40
ATOM     40  C   UNL A   1      41.324  28.834  30.306  1.00  0.00     0.031 A 
ATOM     41  C   UNL A   1      42.188  28.681  31.531  1.00  0.00     0.074 A 
ATOM     42  C   UNL A   1      40.347  29.760  30.281  1.00  0.00     0.049 A 
ATOM     43  N   UNL A   1      42.120  29.302  32.678  1.00  0.00    -0.248 NA
ATOM     44  C   UNL A   1      43.278  27.692  31.445  1.00  0.00     0.031 C 
ATOM     45  C   UNL A   1      39.472  30.045  29.146  1.00  0.00     0.029 A 
ATOM     46  N   UNL A   1      39.926  30.633  31.256  1.00  0.00    -0.354 N 
ATOM     47  C   UNL A   1      43.148  28.774  33.452  1.00  0.00     0.074 A 
ATOM     48  C   UNL A   1      43.811  27.769  32.654  1.00  0.00     0.031 C 
ATOM     49  C   UNL A   1      38.608  31.017  29.495  1.00  0.00     0.029 A 
ATOM     50  C   UNL A   1      38.843  31.399  30.886  1.00  0.00     0.049 A 
ATOM     51  H   UNL A   1      40.357  30.704  32.137  1.00  0.00     0.167 HD
ATOM     52  C   UNL A   1      43.510  29.097  34.715  1.00  0.00     0.031 A 
ATOM     53  C   UNL A   1      38.114  32.285  31.599  1.00  0.00     0.031 A 
ATOM     54  C   UNL A   1      42.840  30.082  35.518  1.00  0.00     0.049 A 
ATOM     55  C   UNL A   1      38.486  32.564  33.036  1.00  0.00     0.074 A 
ATOM     56  C   UNL A   1      43.143  30.489  36.805  1.00  0.00     0.029 A 
ATOM     57  N   UNL A   1      41.727  30.806  35.120  1.00  0.00    -0.354 N 
ATOM     58  N   UNL A   1      39.483  32.083  33.742  1.00  0.00    -0.248 NA
ATOM     59  C   UNL A   1      37.634  33.511  33.774  1.00  0.00     0.031 C 
ATOM     60  C   UNL A   1      42.173  31.410  37.210  1.00  0.00     0.029 A 
ATOM     61  C   UNL A   1      41.311  31.632  36.149  1.00  0.00     0.049 A 
ATOM     62  H   UNL A   1      41.297  30.742  34.237  1.00  0.00     0.167 HD
ATOM     63  C   UNL A   1      39.395  32.693  34.991  1.00  0.00     0.074 A 
ATOM     64  C   UNL A   1      38.260  33.591  34.940  1.00  0.00     0.031 C 
ATOM     65  C   UNL A   1      40.183  32.526  36.083  1.00  0.00     0.031 A 
BRANCH  52  66
ATOM     66  C   UNL A   1      44.664  28.347  35.324  1.00  0.00    -0.014 A 
ATOM     67  C   UNL A   1      45.876  28.993  35.627  1.00  0.00     0.010 A 
ATOM     68  C   UNL A   1      44.509  26.988  35.651  1.00  0.00     0.010 A 
ATOM     69  C   UNL A   1      46.919  28.286  36.230  1.00  0.00     0.020 A 
ATOM     70  C   UNL A   1      45.540  26.285  36.279  1.00  0.00     0.020 A 
ATOM     71  C   UNL A   1      46.743  26.937  36.557  1.00  0.00     0.054 A 
BRANCH  71  72
ATOM     72  S   UNL A   1      48.094  26.061  37.390  1.00  0.00     0.124 S 
ATOM     73  O   UNL A   1      47.678  26.125  38.788  1.00  0.00    -0.237 OA
ATOM     74  O   UNL A   1      48.038  24.736  36.778  1.00  0.00    -0.237 OA
ATOM     75  O   UNL A   1      49.278  26.850  37.057  1.00  0.00    -0.744 OA
ENDBRANCH  71  72
ENDBRANCH  52  66
BRANCH  53  76
ATOM     76  C   UNL A   1      36.927  32.953  30.989  1.00  0.00    -0.014 A 
ATOM     77  C   UNL A   1      35.624  32.660  31.432  1.00  0.00     0.010 A 
ATOM     78  C   UNL A   1      37.092  33.858  29.924  1.00  0.00     0.010 A 
ATOM     79  C   UNL A   1      34.513  33.235  30.805  1.00  0.00     0.020 A 
ATOM     80  C   UNL A   1      35.987  34.461  29.316  1.00  0.00     0.020 A 
ATOM     81  C   UNL A   1      34.702  34.134  29.751  1.00  0.00     0.054 A 
BRANCH  81  82
ATOM     82  S   UNL A   1      33.247  34.893  28.975  1.00  0.00     0.124 S 
ATOM     83  O   UNL A   1      32.840  33.867  28.022  1.00  0.00    -0.237 OA
ATOM     84  O   UNL A   1      32.353  35.092  30.114  1.00  0.00    -0.237 OA
ATOM     85  O   UNL A   1      33.777  36.121  28.387  1.00  0.00    -0.744 OA
ENDBRANCH  81  82
ENDBRANCH  53  76
BRANCH  65  86
ATOM     86  C   UNL A   1      39.880  33.360  37.302  1.00  0.00    -0.014 A 
ATOM     87  C   UNL A   1      40.419  34.649  37.462  1.00  0.00     0.010 A 
ATOM     88  C   UNL A   1      38.987  32.869  38.272  1.00  0.00     0.010 A 
ATOM     89  C   UNL A   1      40.099  35.415  38.587  1.00  0.00     0.020 A 
ATOM     90  C   UNL A   1      38.638  33.644  39.380  1.00  0.00     0.020 A 
ATOM     91  C   UNL A   1      39.208  34.908  39.538  1.00  0.00     0.054 A 
BRANCH  91  92
ATOM     92  S   UNL A   1      38.777  35.938  40.967  1.00  0.00     0.124 S 
ATOM     93  O   UNL A   1      38.502  37.229  40.341  1.00  0.00    -0.237 OA
ATOM     94  O   UNL A   1      37.613  35.248  41.520  1.00  0.00    -0.237 OA
ATOM     95  O   UNL A   1      39.975  35.895  41.802  1.00  0.00    -0.744 OA
ENDBRANCH  91  92
ENDBRANCH  65  86
ENDBRANCH  39  40
ENDBRANCH  32  34
ENDBRANCH  31  32
ENDBRANCH  30  31
ENDBRANCH  29  30
ENDBRANCH  28  29
ENDBRANCH  27  28
ENDBRANCH   1  27
TORSDOF 24
ENDMDL
MODEL 2
REMARK VINA RESULT:      -9.5      1.283      8.100
REMARK SMILES O=C(OCCOCCOCCOCCOC(=O)c1ccc(-c2c3nc(c(-c4ccc(S(=O)(=O)[O-])cc4)c4ccc([nH]4)c(-c4ccc(S(=O)(=O)[O-])cc4)c4nc(c(-c5ccc(S(=O)(=O)[O-])cc5)c5ccc2[nH]5)C=C4)C=C3)cc1)c1ccc(-c2ccc3ccccc3n2)cc1
REMARK SMILES IDX 10 1 9 2 8 3 7 4 6 5 5 6 4 7 3 8 2 9 1 10 78 11 79 12 93 13
REMARK SMILES IDX 80 14 92 15 81 16 82 17 83 18 91 19 84 20 90 21 85 22 89 23
REMARK SMILES IDX 86 24 88 25 87 26 11 27 12 28 13 29 14 30 15 31 16 32 17 33
REMARK SMILES IDX 18 34 19 35 77 36 20 37 76 38 21 39 22 40 23 41 70 42 24 43
REMARK SMILES IDX 75 44 69 45 71 46 25 47 74 48 68 49 67 50 26 52 56 53 37 54
REMARK SMILES IDX 55 55 38 56 41 57 54 58 72 59 39 60 40 61 53 63 73 64 42 65
REMARK SMILES IDX 27 66 28 67 36 68 29 69 35 70 30 71 31 72 32 73 33 74 34 75
REMARK SMILES IDX 57 76 58 77 66 78 59 79 65 80 60 81 61 82 62 83 63 84 64 85
REMARK SMILES IDX 43 86 44 87 52 88 45 89 51 90 46 91 47 92 48 93 49 94 50 95
REMARK H PARENT 71 51 41 62
REMARK Flexibility Score: inf
ROOT
ATOM      1  C   UNL A   1      39.024  21.497  25.793  1.00  0.00     0.188 C 
ENDROOT
BRANCH   1   2
ATOM      2  O   UNL A   1      37.676  21.761  25.428  1.00  0.00    -0.377 OA
BRANCH   2   3
ATOM      3  C   UNL A   1      37.252  23.118  25.527  1.00  0.00     0.188 C 
BRANCH   3   4
ATOM      4  C   UNL A   1      35.741  23.379  25.488  1.00  0.00     0.188 C 
BRANCH   4   5
ATOM      5  O   UNL A   1      34.970  22.236  25.108  1.00  0.00    -0.376 OA
BRANCH   5   6
ATOM      6  C   UNL A   1      34.155  22.338  23.934  1.00  0.00     0.202 C 
BRANCH   6   7
ATOM      7  C   UNL A   1      32.650  22.407  24.173  1.00  0.00     0.261 C 
BRANCH   7   8
ATOM      8  O   UNL A   1      32.396  23.075  25.410  1.00  0.00    -0.460 OA
BRANCH   8   9
ATOM      9  C   UNL A   1      31.085  23.243  25.704  1.00  0.00     0.338 C 
ATOM     10  O   UNL A   1      30.314  22.395  26.117  1.00  0.00    -0.246 OA
BRANCH   9  11
ATOM     11  C   UNL A   1      30.763  24.667  25.454  1.00  0.00     0.060 A 
ATOM     12  C   UNL A   1      30.009  25.043  24.329  1.00  0.00     0.016 A 
ATOM     13  C   UNL A   1      31.283  25.636  26.296  1.00  0.00     0.016 A 
ATOM     14  C   UNL A   1      29.925  26.367  23.926  1.00  0.00     0.011 A 
ATOM     15  C   UNL A   1      31.215  26.964  25.884  1.00  0.00     0.011 A 
ATOM     16  C   UNL A   1      30.643  27.328  24.631  1.00  0.00     0.000 A 
BRANCH  16  17
ATOM     17  C   UNL A   1      31.225  28.495  23.901  1.00  0.00     0.071 A 
ATOM     18  C   UNL A   1      31.527  29.539  24.778  1.00  0.00     0.029 A 
ATOM     19  N   UNL A   1      30.637  28.748  22.711  1.00  0.00    -0.248 NA
ATOM     20  C   UNL A   1      30.611  30.578  24.801  1.00  0.00     0.012 A 
ATOM     21  C   UNL A   1      29.857  29.835  22.650  1.00  0.00     0.071 A 
ATOM     22  C   UNL A   1      29.685  30.684  23.761  1.00  0.00     0.000 A 
ATOM     23  C   UNL A   1      29.110  30.078  21.511  1.00  0.00     0.029 A 
ATOM     24  C   UNL A   1      28.603  31.572  23.804  1.00  0.00     0.010 A 
ATOM     25  C   UNL A   1      28.093  31.033  21.512  1.00  0.00     0.002 A 
ATOM     26  C   UNL A   1      27.796  31.730  22.681  1.00  0.00     0.001 A 
ENDBRANCH  16  17
ENDBRANCH   9  11
ENDBRANCH   8   9
ENDBRANCH   7   8
ENDBRANCH   6   7
ENDBRANCH   5   6
ENDBRANCH   4   5
ENDBRANCH   3   4
ENDBRANCH   2   3
ENDBRANCH   1   2
BRANCH   1  27
ATOM     27  C   UNL A   1      39.711  22.459  26.788  1.00  0.00     0.188 C 
BRANCH  27  28
ATOM     28  O   UNL A   1      40.919  21.953  27.326  1.00  0.00    -0.376 OA
BRANCH  28  29
ATOM     29  C   UNL A   1      42.006  21.759  26.432  1.00  0.00     0.202 C 
BRANCH  29  30
ATOM     30  C   UNL A   1      42.818  22.954  25.887  1.00  0.00     0.261 C 
BRANCH  30  31
ATOM     31  O   UNL A   1      42.265  24.268  26.051  1.00  0.00    -0.460 OA
BRANCH  31  32
ATOM     32  C   UNL A   1      43.115  25.324  26.127  1.00  0.00     0.338 C 
ATOM     33  O   UNL A   1      43.914  25.672  25.297  1.00  0.00    -0.246 OA
BRANCH  32  34
ATOM     34  C   UNL A   1      42.687  26.132  27.309  1.00  0.00     0.060 A 
ATOM     35  C   UNL A   1      43.223  27.419  27.461  1.00  0.00     0.016 A 
ATOM     36  C   UNL A   1      41.678  25.689  28.171  1.00  0.00     0.016 A 
ATOM     37  C   UNL A   1      42.760  28.260  28.478  1.00  0.00     0.010 A 
ATOM     38  C   UNL A   1      41.238  26.521  29.209  1.00  0.00     0.010 A 
ATOM     39  C   UNL A   1      41.793  27.802  29.383  1.00  0.00    -0.014 A 
BRANCH  39  40
ATOM     40  C   UNL A   1      41.540  28.559  30.637  1.00  0.00     0.031 A 
ATOM     41  C   UNL A   1      40.404  29.549  30.630  1.00  0.00     0.074 A 
ATOM     42  C   UNL A   1      42.268  28.376  31.755  1.00  0.00     0.049 A 
ATOM     43  N   UNL A   1      40.002  30.359  31.573  1.00  0.00    -0.248 NA
ATOM     44  C   UNL A   1      39.617  29.634  29.387  1.00  0.00     0.031 C 
ATOM     45  C   UNL A   1      43.361  27.418  31.913  1.00  0.00     0.029 A 
ATOM     46  N   UNL A   1      42.194  29.004  32.976  1.00  0.00    -0.354 N 
ATOM     47  C   UNL A   1      38.924  31.054  31.036  1.00  0.00     0.074 A 
ATOM     48  C   UNL A   1      38.747  30.588  29.680  1.00  0.00     0.031 C 
ATOM     49  C   UNL A   1      43.863  27.532  33.157  1.00  0.00     0.029 A 
ATOM     50  C   UNL A   1      43.155  28.593  33.871  1.00  0.00     0.049 A 
ATOM     51  H   UNL A   1      41.517  29.685  33.191  1.00  0.00     0.167 HD
ATOM     52  C   UNL A   1      38.148  31.997  31.619  1.00  0.00     0.031 A 
ATOM     53  C   UNL A   1      43.444  29.041  35.113  1.00  0.00     0.031 A 
ATOM     54  C   UNL A   1      38.333  32.476  32.961  1.00  0.00     0.049 A 
ATOM     55  C   UNL A   1      42.616  30.156  35.709  1.00  0.00     0.074 A 
ATOM     56  C   UNL A   1      37.588  33.420  33.644  1.00  0.00     0.029 A 
ATOM     57  N   UNL A   1      39.340  32.062  33.818  1.00  0.00    -0.354 N 
ATOM     58  N   UNL A   1      41.577  30.777  35.201  1.00  0.00    -0.248 NA
ATOM     59  C   UNL A   1      42.998  30.627  37.050  1.00  0.00     0.031 C 
ATOM     60  C   UNL A   1      38.183  33.625  34.891  1.00  0.00     0.029 A 
ATOM     61  C   UNL A   1      39.255  32.755  35.012  1.00  0.00     0.049 A 
ATOM     62  H   UNL A   1      40.014  31.376  33.609  1.00  0.00     0.167 HD
ATOM     63  C   UNL A   1      41.165  31.687  36.173  1.00  0.00     0.074 A 
ATOM     64  C   UNL A   1      42.054  31.522  37.304  1.00  0.00     0.031 C 
ATOM     65  C   UNL A   1      40.143  32.578  36.133  1.00  0.00     0.031 A 
BRANCH  52  66
ATOM     66  C   UNL A   1      37.046  32.603  30.792  1.00  0.00    -0.014 A 
ATOM     67  C   UNL A   1      35.704  32.220  30.969  1.00  0.00     0.010 A 
ATOM     68  C   UNL A   1      37.355  33.614  29.865  1.00  0.00     0.010 A 
ATOM     69  C   UNL A   1      34.694  32.826  30.219  1.00  0.00     0.020 A 
ATOM     70  C   UNL A   1      36.343  34.242  29.133  1.00  0.00     0.020 A 
ATOM     71  C   UNL A   1      35.019  33.837  29.309  1.00  0.00     0.054 A 
BRANCH  71  72
ATOM     72  S   UNL A   1      33.680  34.644  28.392  1.00  0.00     0.124 S 
ATOM     73  O   UNL A   1      32.499  34.188  29.119  1.00  0.00    -0.237 OA
ATOM     74  O   UNL A   1      34.002  36.061  28.543  1.00  0.00    -0.237 OA
ATOM     75  O   UNL A   1      33.819  34.117  27.037  1.00  0.00    -0.744 OA
ENDBRANCH  71  72
ENDBRANCH  52  66
BRANCH  53  76
ATOM     76  C   UNL A   1      44.593  28.471  35.876  1.00  0.00    -0.014 A 
ATOM     77  C   UNL A   1      45.900  28.954  35.682  1.00  0.00     0.010 A 
ATOM     78  C   UNL A   1      44.391  27.406  36.772  1.00  0.00     0.010 A 
ATOM     79  C   UNL A   1      46.983  28.366  36.346  1.00  0.00     0.020 A 
ATOM     80  C   UNL A   1      45.465  26.836  37.464  1.00  0.00     0.020 A 
ATOM     81  C   UNL A   1      46.757  27.310  37.234  1.00  0.00     0.054 A 
BRANCH  81  82
ATOM     82  S   UNL A   1      48.171  26.584  38.111  1.00  0.00     0.124 S 
ATOM     83  O   UNL A   1      48.428  25.380  37.327  1.00  0.00    -0.237 OA
ATOM     84  O   UNL A   1      49.179  27.636  38.005  1.00  0.00    -0.237 OA
ATOM     85  O   UNL A   1      47.656  26.356  39.459  1.00  0.00    -0.744 OA
ENDBRANCH  81  82
ENDBRANCH  53  76
BRANCH  65  86
ATOM     86  C   UNL A   1      39.894  33.417  37.361  1.00  0.00    -0.014 A 
ATOM     87  C   UNL A   1      39.030  32.985  38.383  1.00  0.00     0.010 A 
ATOM     88  C   UNL A   1      40.591  34.629  37.523  1.00  0.00     0.010 A 
ATOM     89  C   UNL A   1      38.840  33.768  39.526  1.00  0.00     0.020 A 
ATOM     90  C   UNL A   1      40.430  35.397  38.679  1.00  0.00     0.020 A 
ATOM     91  C   UNL A   1      39.543  34.968  39.668  1.00  0.00     0.054 A 
BRANCH  91  92
ATOM     92  S   UNL A   1      39.310  35.944  41.179  1.00  0.00     0.124 S 
ATOM     93  O   UNL A   1      40.661  35.976  41.732  1.00  0.00    -0.237 OA
ATOM     94  O   UNL A   1      38.811  37.217  40.664  1.00  0.00    -0.237 OA
ATOM     95  O   UNL A   1      38.341  35.167  41.949  1.00  0.00    -0.744 OA
ENDBRANCH  91  92
ENDBRANCH  65  86
ENDBRANCH  39  40
ENDBRANCH  32  34
ENDBRANCH  31  32
ENDBRANCH  30  31
ENDBRANCH  29  30
ENDBRANCH  28  29
ENDBRANCH  27  28
ENDBRANCH   1  27
TORSDOF 24
ENDMDL
MODEL 3
REMARK VINA RESULT:      -9.5      1.651      2.441
REMARK SMILES O=C(OCCOCCOCCOCCOC(=O)c1ccc(-c2c3nc(c(-c4ccc(S(=O)(=O)[O-])cc4)c4ccc([nH]4)c(-c4ccc(S(=O)(=O)[O-])cc4)c4nc(c(-c5ccc(S(=O)(=O)[O-])cc5)c5ccc2[nH]5)C=C4)C=C3)cc1)c1ccc(-c2ccc3ccccc3n2)cc1
REMARK SMILES IDX 10 1 9 2 8 3 7 4 6 5 5 6 4 7 3 8 2 9 1 10 78 11 79 12 93 13
REMARK SMILES IDX 80 14 92 15 81 16 82 17 83 18 91 19 84 20 90 21 85 22 89 23
REMARK SMILES IDX 86 24 88 25 87 26 11 27 12 28 13 29 14 30 15 31 16 32 17 33
REMARK SMILES IDX 18 34 19 35 77 36 20 37 76 38 21 39 22 40 23 41 70 42 24 43
REMARK SMILES IDX 75 44 69 45 71 46 25 47 74 48 68 49 67 50 26 52 56 53 37 54
REMARK SMILES IDX 55 55 38 56 41 57 54 58 72 59 39 60 40 61 53 63 73 64 42 65
REMARK SMILES IDX 27 66 28 67 36 68 29 69 35 70 30 71 31 72 32 73 33 74 34 75
REMARK SMILES IDX 57 76 58 77 66 78 59 79 65 80 60 81 61 82 62 83 63 84 64 85
REMARK SMILES IDX 43 86 44 87 52 88 45 89 51 90 46 91 47 92 48 93 49 94 50 95
REMARK H PARENT 71 51 41 62
REMARK Flexibility Score: inf
ROOT
ATOM      1  C   UNL A   1      39.052  20.976  25.715  1.00  0.00     0.188 C 
ENDROOT
BRANCH   1   2
ATOM      2  O   UNL A   1      37.830  21.485  25.196  1.00  0.00    -0.377 OA
BRANCH   2   3
ATOM      3  C   UNL A   1      37.489  22.814  25.580  1.00  0.00     0.188 C 
BRANCH   3   4
ATOM      4  C   UNL A   1      36.038  23.255  25.346  1.00  0.00     0.188 C 
BRANCH   4   5
ATOM      5  O   UNL A   1      35.217  22.241  24.761  1.00  0.00    -0.376 OA
BRANCH   5   6
ATOM      6  C   UNL A   1      34.260  22.642  23.774  1.00  0.00     0.202 C 
BRANCH   6   7
ATOM      7  C   UNL A   1      32.795  22.407  24.134  1.00  0.00     0.261 C 
BRANCH   7   8
ATOM      8  O   UNL A   1      32.517  23.001  25.403  1.00  0.00    -0.460 OA
BRANCH   8   9
ATOM      9  C   UNL A   1      31.200  23.148  25.683  1.00  0.00     0.338 C 
ATOM     10  O   UNL A   1      30.443  22.291  26.103  1.00  0.00    -0.246 OA
BRANCH   9  11
ATOM     11  C   UNL A   1      30.852  24.560  25.406  1.00  0.00     0.060 A 
ATOM     12  C   UNL A   1      30.068  24.898  24.289  1.00  0.00     0.016 A 
ATOM     13  C   UNL A   1      31.376  25.557  26.213  1.00  0.00     0.016 A 
ATOM     14  C   UNL A   1      29.956  26.211  23.857  1.00  0.00     0.011 A 
ATOM     15  C   UNL A   1      31.278  26.874  25.771  1.00  0.00     0.011 A 
ATOM     16  C   UNL A   1      30.675  27.198  24.523  1.00  0.00     0.000 A 
BRANCH  16  17
ATOM     17  C   UNL A   1      31.223  28.356  23.752  1.00  0.00     0.071 A 
ATOM     18  C   UNL A   1      31.661  29.369  24.607  1.00  0.00     0.029 A 
ATOM     19  N   UNL A   1      30.521  28.656  22.637  1.00  0.00    -0.248 NA
ATOM     20  C   UNL A   1      30.797  30.444  24.746  1.00  0.00     0.012 A 
ATOM     21  C   UNL A   1      29.785  29.775  22.677  1.00  0.00     0.071 A 
ATOM     22  C   UNL A   1      29.770  30.607  23.814  1.00  0.00     0.000 A 
ATOM     23  C   UNL A   1      28.931  30.070  21.630  1.00  0.00     0.029 A 
ATOM     24  C   UNL A   1      28.736  31.536  23.987  1.00  0.00     0.010 A 
ATOM     25  C   UNL A   1      27.961  31.064  21.756  1.00  0.00     0.002 A 
ATOM     26  C   UNL A   1      27.820  31.749  22.961  1.00  0.00     0.001 A 
ENDBRANCH  16  17
ENDBRANCH   9  11
ENDBRANCH   8   9
ENDBRANCH   7   8
ENDBRANCH   6   7
ENDBRANCH   5   6
ENDBRANCH   4   5
ENDBRANCH   3   4
ENDBRANCH   2   3
ENDBRANCH   1   2
BRANCH   1  27
ATOM     27  C   UNL A   1      39.751  21.769  26.842  1.00  0.00     0.188 C 
BRANCH  27  28
ATOM     28  O   UNL A   1      40.829  21.074  27.441  1.00  0.00    -0.376 OA
BRANCH  28  29
ATOM     29  C   UNL A   1      41.808  20.511  26.580  1.00  0.00     0.202 C 
BRANCH  29  30
ATOM     30  C   UNL A   1      42.789  21.403  25.790  1.00  0.00     0.261 C 
BRANCH  30  31
ATOM     31  O   UNL A   1      42.349  22.721  25.425  1.00  0.00    -0.460 OA
BRANCH  31  32
ATOM     32  C   UNL A   1      43.265  23.722  25.389  1.00  0.00     0.338 C 
ATOM     33  O   UNL A   1      44.106  23.903  24.547  1.00  0.00    -0.246 OA
BRANCH  32  34
ATOM     34  C   UNL A   1      42.860  24.709  26.435  1.00  0.00     0.060 A 
ATOM     35  C   UNL A   1      43.276  26.041  26.286  1.00  0.00     0.016 A 
ATOM     36  C   UNL A   1      41.977  24.364  27.464  1.00  0.00     0.016 A 
ATOM     37  C   UNL A   1      42.819  27.024  27.169  1.00  0.00     0.010 A 
ATOM     38  C   UNL A   1      41.547  25.344  28.367  1.00  0.00     0.010 A 
ATOM     39  C   UNL A   1      41.983  26.676  28.239  1.00  0.00    -0.014 A 
BRANCH  39  40
ATOM     40  C   UNL A   1      41.764  27.641  29.348  1.00  0.00     0.031 A 
ATOM     41  C   UNL A   1      42.667  27.532  30.549  1.00  0.00     0.074 A 
ATOM     42  C   UNL A   1      40.816  28.596  29.301  1.00  0.00     0.049 A 
ATOM     43  N   UNL A   1      42.660  28.220  31.659  1.00  0.00    -0.248 NA
ATOM     44  C   UNL A   1      43.721  26.504  30.484  1.00  0.00     0.031 C 
ATOM     45  C   UNL A   1      39.909  28.844  28.182  1.00  0.00     0.029 A 
ATOM     46  N   UNL A   1      40.458  29.538  30.237  1.00  0.00    -0.354 N 
ATOM     47  C   UNL A   1      43.698  27.705  32.427  1.00  0.00     0.074 A 
ATOM     48  C   UNL A   1      44.300  26.633  31.667  1.00  0.00     0.031 C 
ATOM     49  C   UNL A   1      39.089  29.863  28.503  1.00  0.00     0.029 A 
ATOM     50  C   UNL A   1      39.387  30.317  29.860  1.00  0.00     0.049 A 
ATOM     51  H   UNL A   1      40.923  29.646  31.097  1.00  0.00     0.167 HD
ATOM     52  C   UNL A   1      44.116  28.088  33.655  1.00  0.00     0.031 A 
ATOM     53  C   UNL A   1      38.712  31.267  30.544  1.00  0.00     0.031 A 
ATOM     54  C   UNL A   1      43.507  29.141  34.421  1.00  0.00     0.049 A 
ATOM     55  C   UNL A   1      39.145  31.617  31.949  1.00  0.00     0.074 A 
ATOM     56  C   UNL A   1      43.870  29.611  35.670  1.00  0.00     0.029 A 
ATOM     57  N   UNL A   1      42.404  29.876  34.019  1.00  0.00    -0.354 N 
ATOM     58  N   UNL A   1      40.151  31.144  32.646  1.00  0.00    -0.248 NA
ATOM     59  C   UNL A   1      38.351  32.634  32.657  1.00  0.00     0.031 C 
ATOM     60  C   UNL A   1      42.945  30.586  36.053  1.00  0.00     0.029 A 
ATOM     61  C   UNL A   1      42.052  30.774  35.011  1.00  0.00     0.049 A 
ATOM     62  H   UNL A   1      41.940  29.775  33.157  1.00  0.00     0.167 HD
ATOM     63  C   UNL A   1      40.129  31.829  33.859  1.00  0.00     0.074 A 
ATOM     64  C   UNL A   1      39.021  32.760  33.794  1.00  0.00     0.031 C 
ATOM     65  C   UNL A   1      40.950  31.700  34.931  1.00  0.00     0.031 A 
BRANCH  52  66
ATOM     66  C   UNL A   1      45.268  27.337  34.266  1.00  0.00    -0.014 A 
ATOM     67  C   UNL A   1      45.064  26.143  34.982  1.00  0.00     0.010 A 
ATOM     68  C   UNL A   1      46.580  27.803  34.068  1.00  0.00     0.010 A 
ATOM     69  C   UNL A   1      46.152  25.441  35.506  1.00  0.00     0.020 A 
ATOM     70  C   UNL A   1      47.672  27.087  34.566  1.00  0.00     0.020 A 
ATOM     71  C   UNL A   1      47.450  25.915  35.290  1.00  0.00     0.054 A 
BRANCH  71  72
ATOM     72  S   UNL A   1      48.845  24.951  35.933  1.00  0.00     0.124 S 
ATOM     73  O   UNL A   1      48.168  23.806  36.536  1.00  0.00    -0.237 OA
ATOM     74  O   UNL A   1      49.612  24.661  34.724  1.00  0.00    -0.237 OA
ATOM     75  O   UNL A   1      49.491  25.860  36.875  1.00  0.00    -0.744 OA
ENDBRANCH  71  72
ENDBRANCH  52  66
BRANCH  53  76
ATOM     76  C   UNL A   1      37.525  31.938  29.937  1.00  0.00    -0.014 A 
ATOM     77  C   UNL A   1      37.554  33.307  29.614  1.00  0.00     0.010 A 
ATOM     78  C   UNL A   1      36.337  31.216  29.719  1.00  0.00     0.010 A 
ATOM     79  C   UNL A   1      36.413  33.945  29.114  1.00  0.00     0.020 A 
ATOM     80  C   UNL A   1      35.204  31.841  29.188  1.00  0.00     0.020 A 
ATOM     81  C   UNL A   1      35.245  33.206  28.903  1.00  0.00     0.054 A 
BRANCH  81  82
ATOM     82  S   UNL A   1      33.787  34.046  28.222  1.00  0.00     0.124 S 
ATOM     83  O   UNL A   1      34.391  35.011  27.309  1.00  0.00    -0.237 OA
ATOM     84  O   UNL A   1      33.058  32.948  27.593  1.00  0.00    -0.237 OA
ATOM     85  O   UNL A   1      33.142  34.618  29.401  1.00  0.00    -0.744 OA
ENDBRANCH  81  82
ENDBRANCH  53  76
BRANCH  65  86
ATOM     86  C   UNL A   1      40.719  32.613  36.109  1.00  0.00    -0.014 A 
ATOM     87  C   UNL A   1      39.854  32.254  37.158  1.00  0.00     0.010 A 
ATOM     88  C   UNL A   1      41.433  33.822  36.197  1.00  0.00     0.010 A 
ATOM     89  C   UNL A   1      39.681  33.105  38.253  1.00  0.00     0.020 A 
ATOM     90  C   UNL A   1      41.289  34.659  37.306  1.00  0.00     0.020 A 
ATOM     91  C   UNL A   1      40.401  34.301  38.322  1.00  0.00     0.054 A 
BRANCH  91  92
ATOM     92  S   UNL A   1      40.189  35.367  39.774  1.00  0.00     0.124 S 
ATOM     93  O   UNL A   1      41.266  36.337  39.600  1.00  0.00    -0.237 OA
ATOM     94  O   UNL A   1      38.837  35.890  39.592  1.00  0.00    -0.237 OA
ATOM     95  O   UNL A   1      40.351  34.453  40.903  1.00  0.00    -0.744 OA
ENDBRANCH  91  92
ENDBRANCH  65  86
ENDBRANCH  39  40
ENDBRANCH  32  34
ENDBRANCH  31  32
ENDBRANCH  30  31
ENDBRANCH  29  30
ENDBRANCH  28  29
ENDBRANCH  27  28
ENDBRANCH   1  27
TORSDOF 24
ENDMDL
