MODEL 1
REMARK VINA RESULT:      -7.4      0.000      0.000
REMARK SMILES CCc1cc(OC(F)(F)F)cc2c1O[C@@H](C(F)(F)F)C(C(=O)OCCOCCOCCOCCOC(=O)c1ccc(-c3c4nc(c(-c5ccc(S(=O)(=O)[O-])cc5)c5ccc([nH]5)c(-c5ccc(S(=O)(=O)[O-])cc5)c5nc(c(-c6ccc(S(=O)(=O)[O-])cc6)c6ccc3[nH]6)C=C5)C=C4)cc1)=C2
REMARK SMILES IDX 30 1 29 2 28 3 27 4 26 5 25 6 24 7 23 8 21 9 22 10 20 11
REMARK SMILES IDX 3 12 4 13 13 14 5 15 12 16 14 17 11 18 98 19 15 20 2 21 1 22
REMARK SMILES IDX 6 23 7 24 8 25 9 26 10 27 16 28 17 29 18 30 19 31 31 32
REMARK SMILES IDX 32 33 33 34 34 35 35 36 36 37 37 38 38 39 39 40 97 41 40 42
REMARK SMILES IDX 96 43 41 44 42 45 43 46 90 47 44 48 95 49 89 50 91 51 45 52
REMARK SMILES IDX 94 53 88 54 87 55 46 57 76 58 57 59 75 60 58 61 61 62 74 63
REMARK SMILES IDX 92 64 59 65 60 66 73 68 93 69 62 70 47 71 48 72 56 73 49 74
REMARK SMILES IDX 55 75 50 76 51 77 52 78 53 79 54 80 77 81 78 82 86 83 79 84
REMARK SMILES IDX 85 85 80 86 81 87 82 88 83 89 84 90 63 91 64 92 72 93 65 94
REMARK SMILES IDX 71 95 66 96 67 97 68 98 69 99 70 100
REMARK H PARENT 91 56 61 67
REMARK Flexibility Score: inf
ROOT
ATOM      1  C   UNL A   1      38.077  34.644  34.268  1.00  0.00     0.188 C 
ENDROOT
BRANCH   1   2
ATOM      2  O   UNL A   1      38.564  33.592  35.089  1.00  0.00    -0.377 OA
BRANCH   2   3
ATOM      3  C   UNL A   1      38.994  33.869  36.409  1.00  0.00     0.188 C 
BRANCH   3   4
ATOM      4  C   UNL A   1      40.030  32.957  37.087  1.00  0.00     0.188 C 
BRANCH   4   5
ATOM      5  O   UNL A   1      41.387  33.230  36.759  1.00  0.00    -0.376 OA
BRANCH   5   6
ATOM      6  C   UNL A   1      42.117  32.148  36.191  1.00  0.00     0.202 C 
BRANCH   6   7
ATOM      7  C   UNL A   1      42.267  30.971  37.157  1.00  0.00     0.261 C 
BRANCH   7   8
ATOM      8  O   UNL A   1      42.811  29.798  36.536  1.00  0.00    -0.460 OA
BRANCH   8   9
ATOM      9  C   UNL A   1      41.932  28.963  35.938  1.00  0.00     0.338 C 
ATOM     10  O   UNL A   1      40.719  29.077  35.923  1.00  0.00    -0.246 OA
BRANCH   9  11
ATOM     11  C   UNL A   1      42.672  27.952  35.168  1.00  0.00     0.087 C 
ATOM     12  C   UNL A   1      44.413  25.125  32.636  1.00  0.00    -0.002 A 
ATOM     13  C   UNL A   1      44.554  23.801  33.088  1.00  0.00     0.054 A 
ATOM     14  C   UNL A   1      43.809  26.064  33.481  1.00  0.00     0.131 A 
ATOM     15  C   UNL A   1      44.090  23.421  34.350  1.00  0.00     0.130 A 
ATOM     16  C   UNL A   1      43.339  25.692  34.748  1.00  0.00     0.021 A 
ATOM     17  O   UNL A   1      43.627  27.336  32.998  1.00  0.00    -0.475 OA
ATOM     18  C   UNL A   1      43.500  24.375  35.184  1.00  0.00     0.058 A 
ATOM     19  C   UNL A   1      42.607  26.666  35.550  1.00  0.00     0.027 C 
ATOM     20  C   UNL A   1      43.550  28.371  34.015  1.00  0.00     0.316 C 
BRANCH  12  21
ATOM     21  C   UNL A   1      44.871  25.489  31.243  1.00  0.00     0.036 C 
ATOM     22  C   UNL A   1      46.388  25.538  31.147  1.00  0.00     0.009 C 
ENDBRANCH  12  21
BRANCH  15  23
ATOM     23  O   UNL A   1      44.152  22.162  34.878  1.00  0.00    -0.406 OA
BRANCH  23  24
ATOM     24  C   UNL A   1      45.398  21.752  35.420  1.00  0.00     0.573 C 
ATOM     25  F   UNL A   1      45.694  20.480  35.079  1.00  0.00    -0.132 F 
ATOM     26  F   UNL A   1      46.395  22.567  35.007  1.00  0.00    -0.132 F 
ATOM     27  F   UNL A   1      45.334  21.822  36.768  1.00  0.00    -0.132 F 
ENDBRANCH  23  24
ENDBRANCH  15  23
BRANCH  20  28
ATOM     28  C   UNL A   1      43.250  29.703  33.308  1.00  0.00     0.430 C 
ATOM     29  F   UNL A   1      43.696  29.705  32.030  1.00  0.00    -0.167 F 
ATOM     30  F   UNL A   1      41.904  29.888  33.221  1.00  0.00    -0.167 F 
ATOM     31  F   UNL A   1      43.754  30.776  33.948  1.00  0.00    -0.167 F 
ENDBRANCH  20  28
ENDBRANCH   9  11
ENDBRANCH   8   9
ENDBRANCH   7   8
ENDBRANCH   6   7
ENDBRANCH   5   6
ENDBRANCH   4   5
ENDBRANCH   3   4
ENDBRANCH   2   3
ENDBRANCH   1   2
BRANCH   1  32
ATOM     32  C   UNL A   1      37.065  34.339  33.148  1.00  0.00     0.188 C 
BRANCH  32  33
ATOM     33  O   UNL A   1      36.007  35.287  33.035  1.00  0.00    -0.376 OA
BRANCH  33  34
ATOM     34  C   UNL A   1      34.703  34.735  32.905  1.00  0.00     0.202 C 
BRANCH  34  35
ATOM     35  C   UNL A   1      34.647  33.238  33.221  1.00  0.00     0.261 C 
BRANCH  35  36
ATOM     36  O   UNL A   1      34.199  32.410  32.137  1.00  0.00    -0.460 OA
BRANCH  36  37
ATOM     37  C   UNL A   1      34.566  32.767  30.885  1.00  0.00     0.338 C 
ATOM     38  O   UNL A   1      33.972  33.505  30.121  1.00  0.00    -0.246 OA
BRANCH  37  39
ATOM     39  C   UNL A   1      35.926  32.241  30.670  1.00  0.00     0.060 A 
ATOM     40  C   UNL A   1      36.414  31.243  31.522  1.00  0.00     0.016 A 
ATOM     41  C   UNL A   1      36.686  32.694  29.590  1.00  0.00     0.016 A 
ATOM     42  C   UNL A   1      37.676  30.692  31.290  1.00  0.00     0.010 A 
ATOM     43  C   UNL A   1      37.954  32.159  29.374  1.00  0.00     0.010 A 
ATOM     44  C   UNL A   1      38.460  31.165  30.228  1.00  0.00    -0.014 A 
BRANCH  44  45
ATOM     45  C   UNL A   1      39.865  30.728  30.069  1.00  0.00     0.031 A 
ATOM     46  C   UNL A   1      40.957  31.737  30.276  1.00  0.00     0.074 A 
ATOM     47  C   UNL A   1      40.160  29.469  29.699  1.00  0.00     0.049 A 
ATOM     48  N   UNL A   1      42.245  31.607  30.097  1.00  0.00    -0.248 NA
ATOM     49  C   UNL A   1      40.540  33.070  30.742  1.00  0.00     0.031 C 
ATOM     50  C   UNL A   1      39.190  28.394  29.498  1.00  0.00     0.029 A 
ATOM     51  N   UNL A   1      41.370  28.892  29.406  1.00  0.00    -0.354 N 
ATOM     52  C   UNL A   1      42.795  32.839  30.429  1.00  0.00     0.074 A 
ATOM     53  C   UNL A   1      41.699  33.709  30.799  1.00  0.00     0.031 C 
ATOM     54  C   UNL A   1      39.844  27.290  29.093  1.00  0.00     0.029 A 
ATOM     55  C   UNL A   1      41.269  27.591  28.973  1.00  0.00     0.049 A 
ATOM     56  H   UNL A   1      42.230  29.365  29.497  1.00  0.00     0.167 HD
ATOM     57  C   UNL A   1      44.095  33.213  30.424  1.00  0.00     0.031 A 
ATOM     58  C   UNL A   1      42.214  26.754  28.503  1.00  0.00     0.031 A 
ATOM     59  C   UNL A   1      45.179  32.361  30.019  1.00  0.00     0.049 A 
ATOM     60  C   UNL A   1      43.643  27.227  28.408  1.00  0.00     0.074 A 
ATOM     61  C   UNL A   1      46.533  32.645  29.996  1.00  0.00     0.029 A 
ATOM     62  N   UNL A   1      45.032  31.066  29.547  1.00  0.00    -0.354 N 
ATOM     63  N   UNL A   1      44.154  28.383  28.762  1.00  0.00    -0.248 NA
ATOM     64  C   UNL A   1      44.618  26.285  27.842  1.00  0.00     0.031 C 
ATOM     65  C   UNL A   1      47.200  31.539  29.456  1.00  0.00     0.029 A 
ATOM     66  C   UNL A   1      46.265  30.550  29.193  1.00  0.00     0.049 A 
ATOM     67  H   UNL A   1      44.176  30.586  29.475  1.00  0.00     0.167 HD
ATOM     68  C   UNL A   1      45.512  28.300  28.474  1.00  0.00     0.074 A 
ATOM     69  C   UNL A   1      45.747  26.977  27.933  1.00  0.00     0.031 C 
ATOM     70  C   UNL A   1      46.479  29.236  28.643  1.00  0.00     0.031 A 
BRANCH  57  71
ATOM     71  C   UNL A   1      44.404  34.623  30.838  1.00  0.00    -0.014 A 
ATOM     72  C   UNL A   1      44.469  35.659  29.889  1.00  0.00     0.010 A 
ATOM     73  C   UNL A   1      44.611  34.921  32.198  1.00  0.00     0.010 A 
ATOM     74  C   UNL A   1      44.770  36.964  30.289  1.00  0.00     0.020 A 
ATOM     75  C   UNL A   1      44.891  36.228  32.603  1.00  0.00     0.020 A 
ATOM     76  C   UNL A   1      44.985  37.239  31.643  1.00  0.00     0.054 A 
BRANCH  76  77
ATOM     77  S   UNL A   1      45.357  38.943  32.136  1.00  0.00     0.124 S 
ATOM     78  O   UNL A   1      45.447  39.617  30.843  1.00  0.00    -0.237 OA
ATOM     79  O   UNL A   1      44.200  39.302  32.952  1.00  0.00    -0.237 OA
ATOM     80  O   UNL A   1      46.617  38.826  32.866  1.00  0.00    -0.744 OA
ENDBRANCH  76  77
ENDBRANCH  57  71
BRANCH  58  81
ATOM     81  C   UNL A   1      41.839  25.389  28.044  1.00  0.00    -0.014 A 
ATOM     82  C   UNL A   1      41.072  25.211  26.881  1.00  0.00     0.010 A 
ATOM     83  C   UNL A   1      42.244  24.259  28.778  1.00  0.00     0.010 A 
ATOM     84  C   UNL A   1      40.707  23.927  26.463  1.00  0.00     0.020 A 
ATOM     85  C   UNL A   1      41.901  22.973  28.352  1.00  0.00     0.020 A 
ATOM     86  C   UNL A   1      41.126  22.816  27.202  1.00  0.00     0.054 A 
BRANCH  86  87
ATOM     87  S   UNL A   1      40.694  21.155  26.611  1.00  0.00     0.124 S 
ATOM     88  O   UNL A   1      41.770  20.880  25.664  1.00  0.00    -0.237 OA
ATOM     89  O   UNL A   1      40.716  20.366  27.842  1.00  0.00    -0.237 OA
ATOM     90  O   UNL A   1      39.370  21.337  26.023  1.00  0.00    -0.744 OA
ENDBRANCH  86  87
ENDBRANCH  58  81
BRANCH  70  91
ATOM     91  C   UNL A   1      47.883  28.865  28.245  1.00  0.00    -0.014 A 
ATOM     92  C   UNL A   1      48.892  28.718  29.212  1.00  0.00     0.010 A 
ATOM     93  C   UNL A   1      48.179  28.596  26.897  1.00  0.00     0.010 A 
ATOM     94  C   UNL A   1      50.180  28.327  28.835  1.00  0.00     0.020 A 
ATOM     95  C   UNL A   1      49.458  28.182  26.518  1.00  0.00     0.020 A 
ATOM     96  C   UNL A   1      50.455  28.061  27.489  1.00  0.00     0.054 A 
BRANCH  96  97
ATOM     97  S   UNL A   1      52.119  27.502  27.031  1.00  0.00     0.124 S 
ATOM     98  O   UNL A   1      52.114  26.117  27.494  1.00  0.00    -0.237 OA
ATOM     99  O   UNL A   1      52.130  27.680  25.581  1.00  0.00    -0.237 OA
ATOM    100  O   UNL A   1      53.002  28.404  27.768  1.00  0.00    -0.744 OA
ENDBRANCH  96  97
ENDBRANCH  70  91
ENDBRANCH  44  45
ENDBRANCH  37  39
ENDBRANCH  36  37
ENDBRANCH  35  36
ENDBRANCH  34  35
ENDBRANCH  33  34
ENDBRANCH  32  33
ENDBRANCH   1  32
TORSDOF 27
ENDMDL
MODEL 2
REMARK VINA RESULT:      -6.8      4.746     10.810
REMARK SMILES CCc1cc(OC(F)(F)F)cc2c1O[C@@H](C(F)(F)F)C(C(=O)OCCOCCOCCOCCOC(=O)c1ccc(-c3c4nc(c(-c5ccc(S(=O)(=O)[O-])cc5)c5ccc([nH]5)c(-c5ccc(S(=O)(=O)[O-])cc5)c5nc(c(-c6ccc(S(=O)(=O)[O-])cc6)c6ccc3[nH]6)C=C5)C=C4)cc1)=C2
REMARK SMILES IDX 30 1 29 2 28 3 27 4 26 5 25 6 24 7 23 8 21 9 22 10 20 11
REMARK SMILES IDX 3 12 4 13 13 14 5 15 12 16 14 17 11 18 98 19 15 20 2 21 1 22
REMARK SMILES IDX 6 23 7 24 8 25 9 26 10 27 16 28 17 29 18 30 19 31 31 32
REMARK SMILES IDX 32 33 33 34 34 35 35 36 36 37 37 38 38 39 39 40 97 41 40 42
REMARK SMILES IDX 96 43 41 44 42 45 43 46 90 47 44 48 95 49 89 50 91 51 45 52
REMARK SMILES IDX 94 53 88 54 87 55 46 57 76 58 57 59 75 60 58 61 61 62 74 63
REMARK SMILES IDX 92 64 59 65 60 66 73 68 93 69 62 70 47 71 48 72 56 73 49 74
REMARK SMILES IDX 55 75 50 76 51 77 52 78 53 79 54 80 77 81 78 82 86 83 79 84
REMARK SMILES IDX 85 85 80 86 81 87 82 88 83 89 84 90 63 91 64 92 72 93 65 94
REMARK SMILES IDX 71 95 66 96 67 97 68 98 69 99 70 100
REMARK H PARENT 91 56 61 67
REMARK Flexibility Score: inf
ROOT
ATOM      1  C   UNL A   1      49.225  39.059  34.867  1.00  0.00     0.188 C 
ENDROOT
BRANCH   1   2
ATOM      2  O   UNL A   1      47.949  39.617  35.146  1.00  0.00    -0.377 OA
BRANCH   2   3
ATOM      3  C   UNL A   1      47.623  40.907  34.663  1.00  0.00     0.188 C 
BRANCH   3   4
ATOM      4  C   UNL A   1      47.133  41.085  33.216  1.00  0.00     0.188 C 
BRANCH   4   5
ATOM      5  O   UNL A   1      45.920  40.414  32.899  1.00  0.00    -0.376 OA
BRANCH   5   6
ATOM      6  C   UNL A   1      45.952  39.589  31.739  1.00  0.00     0.202 C 
BRANCH   6   7
ATOM      7  C   UNL A   1      45.110  40.155  30.594  1.00  0.00     0.261 C 
BRANCH   7   8
ATOM      8  O   UNL A   1      44.592  39.141  29.721  1.00  0.00    -0.460 OA
BRANCH   8   9
ATOM      9  C   UNL A   1      44.491  39.459  28.411  1.00  0.00     0.338 C 
ATOM     10  O   UNL A   1      44.346  40.576  27.945  1.00  0.00    -0.246 OA
BRANCH   9  11
ATOM     11  C   UNL A   1      44.731  38.256  27.601  1.00  0.00     0.087 C 
ATOM     12  C   UNL A   1      45.276  34.577  25.703  1.00  0.00    -0.002 A 
ATOM     13  C   UNL A   1      46.561  34.229  25.250  1.00  0.00     0.054 A 
ATOM     14  C   UNL A   1      45.104  35.803  26.358  1.00  0.00     0.131 A 
ATOM     15  C   UNL A   1      47.651  35.078  25.459  1.00  0.00     0.130 A 
ATOM     16  C   UNL A   1      46.190  36.662  26.573  1.00  0.00     0.021 A 
ATOM     17  O   UNL A   1      43.854  36.098  26.844  1.00  0.00    -0.475 OA
ATOM     18  C   UNL A   1      47.456  36.303  26.105  1.00  0.00     0.058 A 
ATOM     19  C   UNL A   1      45.996  37.871  27.365  1.00  0.00     0.027 C 
ATOM     20  C   UNL A   1      43.570  37.516  26.982  1.00  0.00     0.316 C 
BRANCH  12  21
ATOM     21  C   UNL A   1      44.132  33.610  25.514  1.00  0.00     0.036 C 
ATOM     22  C   UNL A   1      44.256  32.408  26.439  1.00  0.00     0.009 C 
ENDBRANCH  12  21
BRANCH  15  23
ATOM     23  O   UNL A   1      48.941  34.829  25.086  1.00  0.00    -0.406 OA
BRANCH  23  24
ATOM     24  C   UNL A   1      49.690  33.947  25.907  1.00  0.00     0.573 C 
ATOM     25  F   UNL A   1      50.128  34.563  27.026  1.00  0.00    -0.132 F 
ATOM     26  F   UNL A   1      48.953  32.867  26.252  1.00  0.00    -0.132 F 
ATOM     27  F   UNL A   1      50.767  33.512  25.218  1.00  0.00    -0.132 F 
ENDBRANCH  23  24
ENDBRANCH  15  23
BRANCH  20  28
ATOM     28  C   UNL A   1      42.181  37.658  27.625  1.00  0.00     0.430 C 
ATOM     29  F   UNL A   1      41.307  36.747  27.138  1.00  0.00    -0.167 F 
ATOM     30  F   UNL A   1      42.260  37.403  28.960  1.00  0.00    -0.167 F 
ATOM     31  F   UNL A   1      41.650  38.888  27.490  1.00  0.00    -0.167 F 
ENDBRANCH  20  28
ENDBRANCH   9  11
ENDBRANCH   8   9
ENDBRANCH   7   8
ENDBRANCH   6   7
ENDBRANCH   5   6
ENDBRANCH   4   5
ENDBRANCH   3   4
ENDBRANCH   2   3
ENDBRANCH   1   2
BRANCH   1  32
ATOM     32  C   UNL A   1      49.849  38.042  35.841  1.00  0.00     0.188 C 
BRANCH  32  33
ATOM     33  O   UNL A   1      50.444  36.911  35.210  1.00  0.00    -0.376 OA
BRANCH  33  34
ATOM     34  C   UNL A   1      50.055  36.687  33.861  1.00  0.00     0.202 C 
BRANCH  34  35
ATOM     35  C   UNL A   1      48.810  35.805  33.732  1.00  0.00     0.261 C 
BRANCH  35  36
ATOM     36  O   UNL A   1      47.875  36.228  32.727  1.00  0.00    -0.460 OA
BRANCH  36  37
ATOM     37  C   UNL A   1      48.289  36.205  31.440  1.00  0.00     0.338 C 
ATOM     38  O   UNL A   1      49.019  37.003  30.882  1.00  0.00    -0.246 OA
BRANCH  37  39
ATOM     39  C   UNL A   1      47.839  34.924  30.866  1.00  0.00     0.060 A 
ATOM     40  C   UNL A   1      47.437  34.881  29.525  1.00  0.00     0.016 A 
ATOM     41  C   UNL A   1      47.876  33.762  31.639  1.00  0.00     0.016 A 
ATOM     42  C   UNL A   1      47.069  33.661  28.953  1.00  0.00     0.010 A 
ATOM     43  C   UNL A   1      47.488  32.551  31.073  1.00  0.00     0.010 A 
ATOM     44  C   UNL A   1      47.073  32.495  29.731  1.00  0.00    -0.014 A 
BRANCH  44  45
ATOM     45  C   UNL A   1      46.518  31.229  29.203  1.00  0.00     0.031 A 
ATOM     46  C   UNL A   1      45.067  30.928  29.438  1.00  0.00     0.074 A 
ATOM     47  C   UNL A   1      47.306  30.341  28.569  1.00  0.00     0.049 A 
ATOM     48  N   UNL A   1      44.392  29.845  29.153  1.00  0.00    -0.248 NA
ATOM     49  C   UNL A   1      44.272  31.987  30.082  1.00  0.00     0.031 C 
ATOM     50  C   UNL A   1      48.721  30.533  28.255  1.00  0.00     0.029 A 
ATOM     51  N   UNL A   1      47.022  29.085  28.094  1.00  0.00    -0.354 N 
ATOM     52  C   UNL A   1      43.094  30.090  29.583  1.00  0.00     0.074 A 
ATOM     53  C   UNL A   1      43.081  31.415  30.165  1.00  0.00     0.031 C 
ATOM     54  C   UNL A   1      49.187  29.422  27.657  1.00  0.00     0.029 A 
ATOM     55  C   UNL A   1      48.115  28.432  27.578  1.00  0.00     0.049 A 
ATOM     56  H   UNL A   1      46.120  28.689  28.120  1.00  0.00     0.167 HD
ATOM     57  C   UNL A   1      42.010  29.284  29.501  1.00  0.00     0.031 A 
ATOM     58  C   UNL A   1      48.242  27.169  27.126  1.00  0.00     0.031 A 
ATOM     59  C   UNL A   1      42.032  27.954  28.958  1.00  0.00     0.049 A 
ATOM     60  C   UNL A   1      47.044  26.253  27.141  1.00  0.00     0.074 A 
ATOM     61  C   UNL A   1      40.982  27.065  28.817  1.00  0.00     0.029 A 
ATOM     62  N   UNL A   1      43.167  27.313  28.486  1.00  0.00    -0.354 N 
ATOM     63  N   UNL A   1      45.813  26.511  27.514  1.00  0.00    -0.248 NA
ATOM     64  C   UNL A   1      47.257  24.873  26.681  1.00  0.00     0.031 C 
ATOM     65  C   UNL A   1      41.492  25.865  28.310  1.00  0.00     0.029 A 
ATOM     66  C   UNL A   1      42.851  26.026  28.088  1.00  0.00     0.049 A 
ATOM     67  H   UNL A   1      44.064  27.714  28.441  1.00  0.00     0.167 HD
ATOM     68  C   UNL A   1      45.104  25.331  27.321  1.00  0.00     0.074 A 
ATOM     69  C   UNL A   1      46.037  24.363  26.783  1.00  0.00     0.031 C 
ATOM     70  C   UNL A   1      43.795  25.071  27.567  1.00  0.00     0.031 A 
BRANCH  57  71
ATOM     71  C   UNL A   1      40.717  29.816  30.049  1.00  0.00    -0.014 A 
ATOM     72  C   UNL A   1      39.769  30.422  29.206  1.00  0.00     0.010 A 
ATOM     73  C   UNL A   1      40.436  29.688  31.422  1.00  0.00     0.010 A 
ATOM     74  C   UNL A   1      38.575  30.923  29.731  1.00  0.00     0.020 A 
ATOM     75  C   UNL A   1      39.234  30.168  31.947  1.00  0.00     0.020 A 
ATOM     76  C   UNL A   1      38.318  30.798  31.100  1.00  0.00     0.054 A 
BRANCH  76  77
ATOM     77  S   UNL A   1      36.754  31.441  31.755  1.00  0.00     0.124 S 
ATOM     78  O   UNL A   1      37.219  32.426  32.729  1.00  0.00    -0.237 OA
ATOM     79  O   UNL A   1      36.110  31.992  30.565  1.00  0.00    -0.237 OA
ATOM     80  O   UNL A   1      36.104  30.263  32.322  1.00  0.00    -0.744 OA
ENDBRANCH  76  77
ENDBRANCH  57  71
BRANCH  58  81
ATOM     81  C   UNL A   1      49.564  26.675  26.657  1.00  0.00    -0.014 A 
ATOM     82  C   UNL A   1      50.463  26.071  27.553  1.00  0.00     0.010 A 
ATOM     83  C   UNL A   1      49.933  26.814  25.306  1.00  0.00     0.010 A 
ATOM     84  C   UNL A   1      51.712  25.625  27.110  1.00  0.00     0.020 A 
ATOM     85  C   UNL A   1      51.171  26.347  24.855  1.00  0.00     0.020 A 
ATOM     86  C   UNL A   1      52.057  25.764  25.762  1.00  0.00     0.054 A 
BRANCH  86  87
ATOM     87  S   UNL A   1      53.657  25.124  25.194  1.00  0.00     0.124 S 
ATOM     88  O   UNL A   1      53.749  25.685  23.851  1.00  0.00    -0.237 OA
ATOM     89  O   UNL A   1      54.586  25.677  26.177  1.00  0.00    -0.237 OA
ATOM     90  O   UNL A   1      53.486  23.674  25.259  1.00  0.00    -0.744 OA
ENDBRANCH  86  87
ENDBRANCH  58  81
BRANCH  70  91
ATOM     91  C   UNL A   1      43.289  23.689  27.253  1.00  0.00    -0.014 A 
ATOM     92  C   UNL A   1      43.085  22.745  28.275  1.00  0.00     0.010 A 
ATOM     93  C   UNL A   1      42.952  23.352  25.930  1.00  0.00     0.010 A 
ATOM     94  C   UNL A   1      42.570  21.481  27.975  1.00  0.00     0.020 A 
ATOM     95  C   UNL A   1      42.415  22.098  25.629  1.00  0.00     0.020 A 
ATOM     96  C   UNL A   1      42.237  21.165  26.653  1.00  0.00     0.054 A 
BRANCH  96  97
ATOM     97  S   UNL A   1      41.519  19.538  26.297  1.00  0.00     0.124 S 
ATOM     98  O   UNL A   1      42.280  19.120  25.123  1.00  0.00    -0.237 OA
ATOM     99  O   UNL A   1      41.791  18.790  27.522  1.00  0.00    -0.237 OA
ATOM    100  O   UNL A   1      40.107  19.829  26.055  1.00  0.00    -0.744 OA
ENDBRANCH  96  97
ENDBRANCH  70  91
ENDBRANCH  44  45
ENDBRANCH  37  39
ENDBRANCH  36  37
ENDBRANCH  35  36
ENDBRANCH  34  35
ENDBRANCH  33  34
ENDBRANCH  32  33
ENDBRANCH   1  32
TORSDOF 27
ENDMDL
MODEL 3
REMARK VINA RESULT:      -6.5      2.992      8.776
REMARK SMILES CCc1cc(OC(F)(F)F)cc2c1O[C@@H](C(F)(F)F)C(C(=O)OCCOCCOCCOCCOC(=O)c1ccc(-c3c4nc(c(-c5ccc(S(=O)(=O)[O-])cc5)c5ccc([nH]5)c(-c5ccc(S(=O)(=O)[O-])cc5)c5nc(c(-c6ccc(S(=O)(=O)[O-])cc6)c6ccc3[nH]6)C=C5)C=C4)cc1)=C2
REMARK SMILES IDX 30 1 29 2 28 3 27 4 26 5 25 6 24 7 23 8 21 9 22 10 20 11
REMARK SMILES IDX 3 12 4 13 13 14 5 15 12 16 14 17 11 18 98 19 15 20 2 21 1 22
REMARK SMILES IDX 6 23 7 24 8 25 9 26 10 27 16 28 17 29 18 30 19 31 31 32
REMARK SMILES IDX 32 33 33 34 34 35 35 36 36 37 37 38 38 39 39 40 97 41 40 42
REMARK SMILES IDX 96 43 41 44 42 45 43 46 90 47 44 48 95 49 89 50 91 51 45 52
REMARK SMILES IDX 94 53 88 54 87 55 46 57 76 58 57 59 75 60 58 61 61 62 74 63
REMARK SMILES IDX 92 64 59 65 60 66 73 68 93 69 62 70 47 71 48 72 56 73 49 74
REMARK SMILES IDX 55 75 50 76 51 77 52 78 53 79 54 80 77 81 78 82 86 83 79 84
REMARK SMILES IDX 85 85 80 86 81 87 82 88 83 89 84 90 63 91 64 92 72 93 65 94
REMARK SMILES IDX 71 95 66 96 67 97 68 98 69 99 70 100
REMARK H PARENT 91 56 61 67
REMARK Flexibility Score: inf
ROOT
ATOM      1  C   UNL A   1      36.538  33.701  33.667  1.00  0.00     0.188 C 
ENDROOT
BRANCH   1   2
ATOM      2  O   UNL A   1      37.789  33.130  34.027  1.00  0.00    -0.377 OA
BRANCH   2   3
ATOM      3  C   UNL A   1      37.862  32.221  35.109  1.00  0.00     0.188 C 
BRANCH   3   4
ATOM      4  C   UNL A   1      38.381  30.791  34.878  1.00  0.00     0.188 C 
BRANCH   4   5
ATOM      5  O   UNL A   1      39.523  30.429  35.646  1.00  0.00    -0.376 OA
BRANCH   5   6
ATOM      6  C   UNL A   1      40.445  31.479  35.919  1.00  0.00     0.202 C 
BRANCH   6   7
ATOM      7  C   UNL A   1      41.771  30.964  36.481  1.00  0.00     0.261 C 
BRANCH   7   8
ATOM      8  O   UNL A   1      42.512  30.174  35.539  1.00  0.00    -0.460 OA
BRANCH   8   9
ATOM      9  C   UNL A   1      42.645  30.679  34.293  1.00  0.00     0.338 C 
ATOM     10  O   UNL A   1      42.182  31.730  33.883  1.00  0.00    -0.246 OA
BRANCH   9  11
ATOM     11  C   UNL A   1      43.569  29.833  33.523  1.00  0.00     0.087 C 
ATOM     12  C   UNL A   1      46.014  27.658  30.931  1.00  0.00    -0.002 A 
ATOM     13  C   UNL A   1      45.867  26.261  30.868  1.00  0.00     0.054 A 
ATOM     14  C   UNL A   1      45.177  28.384  31.786  1.00  0.00     0.131 A 
ATOM     15  C   UNL A   1      44.896  25.606  31.631  1.00  0.00     0.130 A 
ATOM     16  C   UNL A   1      44.200  27.738  32.555  1.00  0.00     0.021 A 
ATOM     17  O   UNL A   1      45.297  29.752  31.789  1.00  0.00    -0.475 OA
ATOM     18  C   UNL A   1      44.078  26.347  32.488  1.00  0.00     0.058 A 
ATOM     19  C   UNL A   1      43.267  28.538  33.340  1.00  0.00     0.027 C 
ATOM     20  C   UNL A   1      44.873  30.401  33.018  1.00  0.00     0.316 C 
BRANCH  12  21
ATOM     21  C   UNL A   1      47.032  28.340  30.048  1.00  0.00     0.036 C 
ATOM     22  C   UNL A   1      48.451  27.919  30.399  1.00  0.00     0.009 C 
ENDBRANCH  12  21
BRANCH  15  23
ATOM     23  O   UNL A   1      44.651  24.262  31.628  1.00  0.00    -0.406 OA
BRANCH  23  24
ATOM     24  C   UNL A   1      43.973  23.734  30.499  1.00  0.00     0.573 C 
ATOM     25  F   UNL A   1      43.122  22.745  30.848  1.00  0.00    -0.132 F 
ATOM     26  F   UNL A   1      43.288  24.704  29.851  1.00  0.00    -0.132 F 
ATOM     27  F   UNL A   1      44.883  23.223  29.640  1.00  0.00    -0.132 F 
ENDBRANCH  23  24
ENDBRANCH  15  23
BRANCH  20  28
ATOM     28  C   UNL A   1      44.982  31.920  32.810  1.00  0.00     0.430 C 
ATOM     29  F   UNL A   1      45.000  32.588  33.987  1.00  0.00    -0.167 F 
ATOM     30  F   UNL A   1      46.165  32.221  32.207  1.00  0.00    -0.167 F 
ATOM     31  F   UNL A   1      44.005  32.428  32.035  1.00  0.00    -0.167 F 
ENDBRANCH  20  28
ENDBRANCH   9  11
ENDBRANCH   8   9
ENDBRANCH   7   8
ENDBRANCH   6   7
ENDBRANCH   5   6
ENDBRANCH   4   5
ENDBRANCH   3   4
ENDBRANCH   2   3
ENDBRANCH   1   2
BRANCH   1  32
ATOM     32  C   UNL A   1      35.836  33.255  32.370  1.00  0.00     0.188 C 
BRANCH  32  33
ATOM     33  O   UNL A   1      36.154  31.930  31.954  1.00  0.00    -0.376 OA
BRANCH  33  34
ATOM     34  C   UNL A   1      35.649  31.551  30.680  1.00  0.00     0.202 C 
BRANCH  34  35
ATOM     35  C   UNL A   1      36.545  30.546  29.951  1.00  0.00     0.261 C 
BRANCH  35  36
ATOM     36  O   UNL A   1      37.858  30.394  30.513  1.00  0.00    -0.460 OA
BRANCH  36  37
ATOM     37  C   UNL A   1      38.310  29.135  30.715  1.00  0.00     0.338 C 
ATOM     38  O   UNL A   1      37.704  28.200  31.206  1.00  0.00    -0.246 OA
BRANCH  37  39
ATOM     39  C   UNL A   1      39.627  29.040  30.060  1.00  0.00     0.060 A 
ATOM     40  C   UNL A   1      40.654  28.328  30.692  1.00  0.00     0.016 A 
ATOM     41  C   UNL A   1      39.820  29.603  28.797  1.00  0.00     0.016 A 
ATOM     42  C   UNL A   1      41.886  28.177  30.053  1.00  0.00     0.010 A 
ATOM     43  C   UNL A   1      41.057  29.470  28.171  1.00  0.00     0.010 A 
ATOM     44  C   UNL A   1      42.098  28.767  28.799  1.00  0.00    -0.014 A 
BRANCH  44  45
ATOM     45  C   UNL A   1      43.444  28.776  28.183  1.00  0.00     0.031 A 
ATOM     46  C   UNL A   1      43.939  27.522  27.523  1.00  0.00     0.074 A 
ATOM     47  C   UNL A   1      44.230  29.865  28.256  1.00  0.00     0.049 A 
ATOM     48  N   UNL A   1      45.114  27.269  27.007  1.00  0.00    -0.248 NA
ATOM     49  C   UNL A   1      42.984  26.405  27.436  1.00  0.00     0.031 C 
ATOM     50  C   UNL A   1      43.851  31.148  28.844  1.00  0.00     0.029 A 
ATOM     51  N   UNL A   1      45.527  30.051  27.845  1.00  0.00    -0.354 N 
ATOM     52  C   UNL A   1      45.040  25.965  26.534  1.00  0.00     0.074 A 
ATOM     53  C   UNL A   1      43.714  25.473  26.842  1.00  0.00     0.031 C 
ATOM     54  C   UNL A   1      44.902  31.985  28.774  1.00  0.00     0.029 A 
ATOM     55  C   UNL A   1      46.035  31.286  28.171  1.00  0.00     0.049 A 
ATOM     56  H   UNL A   1      46.044  29.366  27.363  1.00  0.00     0.167 HD
ATOM     57  C   UNL A   1      45.992  25.241  25.901  1.00  0.00     0.031 A 
ATOM     58  C   UNL A   1      47.280  31.781  28.027  1.00  0.00     0.031 A 
ATOM     59  C   UNL A   1      47.321  25.717  25.629  1.00  0.00     0.049 A 
ATOM     60  C   UNL A   1      48.353  30.919  27.413  1.00  0.00     0.074 A 
ATOM     61  C   UNL A   1      48.352  25.063  24.978  1.00  0.00     0.029 A 
ATOM     62  N   UNL A   1      47.810  26.956  26.013  1.00  0.00    -0.354 N 
ATOM     63  N   UNL A   1      48.260  29.701  26.935  1.00  0.00    -0.248 NA
ATOM     64  C   UNL A   1      49.702  31.498  27.328  1.00  0.00     0.031 C 
ATOM     65  C   UNL A   1      49.483  25.887  25.017  1.00  0.00     0.029 A 
ATOM     66  C   UNL A   1      49.139  27.073  25.647  1.00  0.00     0.049 A 
ATOM     67  H   UNL A   1      47.288  27.649  26.477  1.00  0.00     0.167 HD
ATOM     68  C   UNL A   1      49.533  29.374  26.480  1.00  0.00     0.074 A 
ATOM     69  C   UNL A   1      50.376  30.526  26.726  1.00  0.00     0.031 C 
ATOM     70  C   UNL A   1      49.967  28.222  25.911  1.00  0.00     0.031 A 
BRANCH  57  71
ATOM     71  C   UNL A   1      45.632  23.842  25.493  1.00  0.00    -0.014 A 
ATOM     72  C   UNL A   1      45.552  22.809  26.443  1.00  0.00     0.010 A 
ATOM     73  C   UNL A   1      45.348  23.560  24.144  1.00  0.00     0.010 A 
ATOM     74  C   UNL A   1      45.227  21.508  26.046  1.00  0.00     0.020 A 
ATOM     75  C   UNL A   1      45.002  22.266  23.747  1.00  0.00     0.020 A 
ATOM     76  C   UNL A   1      44.960  21.245  24.699  1.00  0.00     0.054 A 
BRANCH  76  77
ATOM     77  S   UNL A   1      44.524  19.553  24.213  1.00  0.00     0.124 S 
ATOM     78  O   UNL A   1      45.656  18.790  24.736  1.00  0.00    -0.237 OA
ATOM     79  O   UNL A   1      43.253  19.338  24.900  1.00  0.00    -0.237 OA
ATOM     80  O   UNL A   1      44.439  19.621  22.757  1.00  0.00    -0.744 OA
ENDBRANCH  76  77
ENDBRANCH  57  71
BRANCH  58  81
ATOM     81  C   UNL A   1      47.597  33.152  28.511  1.00  0.00    -0.014 A 
ATOM     82  C   UNL A   1      47.468  34.260  27.656  1.00  0.00     0.010 A 
ATOM     83  C   UNL A   1      48.037  33.353  29.832  1.00  0.00     0.010 A 
ATOM     84  C   UNL A   1      47.785  35.544  28.110  1.00  0.00     0.020 A 
ATOM     85  C   UNL A   1      48.331  34.637  30.297  1.00  0.00     0.020 A 
ATOM     86  C   UNL A   1      48.213  35.725  29.429  1.00  0.00     0.054 A 
BRANCH  86  87
ATOM     87  S   UNL A   1      48.560  37.406  30.018  1.00  0.00     0.124 S 
ATOM     88  O   UNL A   1      49.107  38.039  28.823  1.00  0.00    -0.237 OA
ATOM     89  O   UNL A   1      47.240  37.874  30.437  1.00  0.00    -0.237 OA
ATOM     90  O   UNL A   1      49.510  37.195  31.108  1.00  0.00    -0.744 OA
ENDBRANCH  86  87
ENDBRANCH  58  81
BRANCH  70  91
ATOM     91  C   UNL A   1      51.415  28.148  25.506  1.00  0.00    -0.014 A 
ATOM     92  C   UNL A   1      52.387  27.649  26.391  1.00  0.00     0.010 A 
ATOM     93  C   UNL A   1      51.796  28.518  24.204  1.00  0.00     0.010 A 
ATOM     94  C   UNL A   1      53.720  27.541  25.985  1.00  0.00     0.020 A 
ATOM     95  C   UNL A   1      53.123  28.390  23.788  1.00  0.00     0.020 A 
ATOM     96  C   UNL A   1      54.080  27.912  24.686  1.00  0.00     0.054 A 
BRANCH  96  97
ATOM     97  S   UNL A   1      55.807  27.711  24.165  1.00  0.00     0.124 S 
ATOM     98  O   UNL A   1      56.534  28.265  25.304  1.00  0.00    -0.237 OA
ATOM     99  O   UNL A   1      55.924  26.266  23.989  1.00  0.00    -0.237 OA
ATOM    100  O   UNL A   1      55.888  28.491  22.932  1.00  0.00    -0.744 OA
ENDBRANCH  96  97
ENDBRANCH  70  91
ENDBRANCH  44  45
ENDBRANCH  37  39
ENDBRANCH  36  37
ENDBRANCH  35  36
ENDBRANCH  34  35
ENDBRANCH  33  34
ENDBRANCH  32  33
ENDBRANCH   1  32
TORSDOF 27
ENDMDL
