MODEL 1
REMARK VINA RESULT:      -7.0      0.000      0.000
REMARK SMILES CC/C=C/C/C=C/C/C=C/C/C=C/CCSCCCC(=O)OCCOCCOCCOCCOC(=O)c1ccc(-c2c3nc(c(-c4ccc(S(=O)(=O)[O-])cc4)c4ccc([nH]4)c(-c4ccc(S(=O)(=O)[O-])cc4)c4nc(c(-c5ccc(S(=O)(=O)[O-])cc5)c5ccc2[nH]5)C=C4)C=C3)cc1
REMARK SMILES IDX 23 1 22 2 20 3 21 4 19 5 18 6 17 7 16 8 15 9 14 10 13 11
REMARK SMILES IDX 12 12 11 13 10 14 9 15 8 16 7 17 6 18 5 19 4 20 3 21 2 22
REMARK SMILES IDX 1 23 24 24 25 25 26 26 27 27 28 28 29 29 30 30 31 31 32 32
REMARK SMILES IDX 33 33 34 34 35 35 36 36 37 37 38 38 96 39 39 40 95 41 40 42
REMARK SMILES IDX 41 43 42 44 89 45 43 46 94 47 88 48 90 49 44 50 93 51 87 52
REMARK SMILES IDX 86 53 45 55 75 56 56 57 74 58 57 59 60 60 73 61 91 62 58 63
REMARK SMILES IDX 59 64 72 66 92 67 61 68 46 69 47 70 55 71 48 72 54 73 49 74
REMARK SMILES IDX 50 75 51 76 52 77 53 78 76 79 77 80 85 81 78 82 84 83 79 84
REMARK SMILES IDX 80 85 81 86 82 87 83 88 62 89 63 90 71 91 64 92 70 93 65 94
REMARK SMILES IDX 66 95 67 96 68 97 69 98
REMARK H PARENT 90 54 60 65
REMARK Flexibility Score: inf
ROOT
ATOM      1  C   UNL A   1      34.529  29.648  27.076  1.00  0.00     0.261 C 
ENDROOT
BRANCH   1   2
ATOM      2  O   UNL A   1      33.400  29.003  27.681  1.00  0.00    -0.463 OA
BRANCH   2   3
ATOM      3  C   UNL A   1      32.225  28.649  27.140  1.00  0.00     0.305 C 
ATOM      4  O   UNL A   1      31.548  27.684  27.440  1.00  0.00    -0.252 OA
BRANCH   3   5
ATOM      5  C   UNL A   1      31.686  29.692  26.186  1.00  0.00     0.123 C 
BRANCH   5   6
ATOM      6  C   UNL A   1      31.576  29.361  24.702  1.00  0.00     0.023 C 
BRANCH   6   7
ATOM      7  C   UNL A   1      30.319  29.700  23.898  1.00  0.00     0.070 C 
BRANCH   7   8
ATOM      8  S   UNL A   1      29.442  28.596  22.717  1.00  0.00    -0.162 SA
BRANCH   8   9
ATOM      9  C   UNL A   1      28.419  27.419  23.669  1.00  0.00     0.073 C 
BRANCH   9  10
ATOM     10  C   UNL A   1      29.123  26.079  23.997  1.00  0.00     0.038 C 
BRANCH  10  11
ATOM     11  C   UNL A   1      30.615  26.003  23.762  1.00  0.00    -0.030 C 
ATOM     12  C   UNL A   1      31.284  25.221  22.886  1.00  0.00    -0.027 C 
BRANCH  12  13
ATOM     13  C   UNL A   1      32.801  25.181  22.706  1.00  0.00     0.054 C 
BRANCH  13  14
ATOM     14  C   UNL A   1      33.514  24.300  23.720  1.00  0.00    -0.027 C 
ATOM     15  C   UNL A   1      33.638  24.520  25.048  1.00  0.00    -0.027 C 
BRANCH  15  16
ATOM     16  C   UNL A   1      34.251  23.559  26.040  1.00  0.00     0.054 C 
BRANCH  16  17
ATOM     17  C   UNL A   1      34.825  22.393  25.303  1.00  0.00    -0.027 C 
ATOM     18  C   UNL A   1      34.449  21.117  25.472  1.00  0.00    -0.027 C 
BRANCH  18  19
ATOM     19  C   UNL A   1      35.276  19.975  24.958  1.00  0.00     0.054 C 
BRANCH  19  20
ATOM     20  C   UNL A   1      34.368  18.878  24.483  1.00  0.00    -0.027 C 
ATOM     21  C   UNL A   1      34.756  17.607  24.302  1.00  0.00    -0.031 C 
BRANCH  21  22
ATOM     22  C   UNL A   1      33.864  16.539  23.745  1.00  0.00     0.023 C 
ATOM     23  C   UNL A   1      33.111  15.839  24.866  1.00  0.00     0.008 C 
ENDBRANCH  21  22
ENDBRANCH  19  20
ENDBRANCH  18  19
ENDBRANCH  16  17
ENDBRANCH  15  16
ENDBRANCH  13  14
ENDBRANCH  12  13
ENDBRANCH  10  11
ENDBRANCH   9  10
ENDBRANCH   8   9
ENDBRANCH   7   8
ENDBRANCH   6   7
ENDBRANCH   5   6
ENDBRANCH   3   5
ENDBRANCH   2   3
ENDBRANCH   1   2
BRANCH   1  24
ATOM     24  C   UNL A   1      35.813  29.945  27.843  1.00  0.00     0.202 C 
BRANCH  24  25
ATOM     25  O   UNL A   1      36.195  31.226  28.283  1.00  0.00    -0.376 OA
BRANCH  25  26
ATOM     26  C   UNL A   1      35.562  32.414  27.871  1.00  0.00     0.188 C 
BRANCH  26  27
ATOM     27  C   UNL A   1      34.369  32.859  28.727  1.00  0.00     0.188 C 
BRANCH  27  28
ATOM     28  O   UNL A   1      34.267  34.215  29.118  1.00  0.00    -0.377 OA
BRANCH  28  29
ATOM     29  C   UNL A   1      34.007  34.481  30.484  1.00  0.00     0.188 C 
BRANCH  29  30
ATOM     30  C   UNL A   1      35.096  33.990  31.463  1.00  0.00     0.188 C 
BRANCH  30  31
ATOM     31  O   UNL A   1      34.936  32.782  32.193  1.00  0.00    -0.376 OA
BRANCH  31  32
ATOM     32  C   UNL A   1      35.819  32.480  33.255  1.00  0.00     0.202 C 
BRANCH  32  33
ATOM     33  C   UNL A   1      37.270  32.040  32.962  1.00  0.00     0.261 C 
BRANCH  33  34
ATOM     34  O   UNL A   1      38.338  32.962  33.247  1.00  0.00    -0.460 OA
BRANCH  34  35
ATOM     35  C   UNL A   1      38.812  33.683  32.196  1.00  0.00     0.338 C 
ATOM     36  O   UNL A   1      38.273  34.631  31.669  1.00  0.00    -0.246 OA
BRANCH  35  37
ATOM     37  C   UNL A   1      40.217  33.267  31.901  1.00  0.00     0.060 A 
ATOM     38  C   UNL A   1      40.766  33.590  30.647  1.00  0.00     0.016 A 
ATOM     39  C   UNL A   1      40.985  32.562  32.830  1.00  0.00     0.016 A 
ATOM     40  C   UNL A   1      42.051  33.174  30.300  1.00  0.00     0.010 A 
ATOM     41  C   UNL A   1      42.256  32.098  32.463  1.00  0.00     0.010 A 
ATOM     42  C   UNL A   1      42.771  32.358  31.178  1.00  0.00    -0.014 A 
BRANCH  42  43
ATOM     43  C   UNL A   1      43.875  31.526  30.636  1.00  0.00     0.031 A 
ATOM     44  C   UNL A   1      45.262  32.120  30.666  1.00  0.00     0.074 A 
ATOM     45  C   UNL A   1      43.686  30.276  30.176  1.00  0.00     0.049 A 
ATOM     46  N   UNL A   1      46.386  31.640  30.203  1.00  0.00    -0.248 NA
ATOM     47  C   UNL A   1      45.395  33.440  31.309  1.00  0.00     0.031 C 
ATOM     48  C   UNL A   1      42.414  29.555  30.171  1.00  0.00     0.029 A 
ATOM     49  N   UNL A   1      44.576  29.392  29.616  1.00  0.00    -0.354 N 
ATOM     50  C   UNL A   1      47.348  32.606  30.475  1.00  0.00     0.074 A 
ATOM     51  C   UNL A   1      46.677  33.707  31.126  1.00  0.00     0.031 C 
ATOM     52  C   UNL A   1      42.604  28.342  29.620  1.00  0.00     0.029 A 
ATOM     53  C   UNL A   1      43.999  28.217  29.196  1.00  0.00     0.049 A 
ATOM     54  H   UNL A   1      45.537  29.583  29.524  1.00  0.00     0.167 HD
ATOM     55  C   UNL A   1      48.674  32.583  30.205  1.00  0.00     0.031 A 
ATOM     56  C   UNL A   1      44.531  27.176  28.522  1.00  0.00     0.031 A 
ATOM     57  C   UNL A   1      49.336  31.489  29.548  1.00  0.00     0.049 A 
ATOM     58  C   UNL A   1      45.994  27.211  28.149  1.00  0.00     0.074 A 
ATOM     59  C   UNL A   1      50.678  31.361  29.235  1.00  0.00     0.029 A 
ATOM     60  N   UNL A   1      48.706  30.341  29.095  1.00  0.00    -0.354 N 
ATOM     61  N   UNL A   1      46.894  28.129  28.417  1.00  0.00    -0.248 NA
ATOM     62  C   UNL A   1      46.513  26.068  27.383  1.00  0.00     0.031 C 
ATOM     63  C   UNL A   1      50.846  30.166  28.530  1.00  0.00     0.029 A 
ATOM     64  C   UNL A   1      49.624  29.513  28.474  1.00  0.00     0.049 A 
ATOM     65  H   UNL A   1      47.747  30.144  29.200  1.00  0.00     0.167 HD
ATOM     66  C   UNL A   1      48.090  27.654  27.885  1.00  0.00     0.074 A 
ATOM     67  C   UNL A   1      47.802  26.366  27.290  1.00  0.00     0.031 C 
ATOM     68  C   UNL A   1      49.319  28.231  27.891  1.00  0.00     0.031 A 
BRANCH  55  69
ATOM     69  C   UNL A   1      49.483  33.800  30.571  1.00  0.00    -0.014 A 
ATOM     70  C   UNL A   1      50.127  33.912  31.817  1.00  0.00     0.010 A 
ATOM     71  C   UNL A   1      49.627  34.838  29.631  1.00  0.00     0.010 A 
ATOM     72  C   UNL A   1      50.871  35.054  32.128  1.00  0.00     0.020 A 
ATOM     73  C   UNL A   1      50.395  35.967  29.926  1.00  0.00     0.020 A 
ATOM     74  C   UNL A   1      51.002  36.073  31.179  1.00  0.00     0.054 A 
BRANCH  74  75
ATOM     75  S   UNL A   1      52.003  37.527  31.597  1.00  0.00     0.124 S 
ATOM     76  O   UNL A   1      51.965  38.288  30.349  1.00  0.00    -0.237 OA
ATOM     77  O   UNL A   1      51.264  38.113  32.712  1.00  0.00    -0.237 OA
ATOM     78  O   UNL A   1      53.306  36.965  31.943  1.00  0.00    -0.744 OA
ENDBRANCH  74  75
ENDBRANCH  55  69
BRANCH  56  79
ATOM     79  C   UNL A   1      43.677  26.019  28.128  1.00  0.00    -0.014 A 
ATOM     80  C   UNL A   1      43.379  24.998  29.049  1.00  0.00     0.010 A 
ATOM     81  C   UNL A   1      43.169  25.922  26.819  1.00  0.00     0.010 A 
ATOM     82  C   UNL A   1      42.605  23.897  28.664  1.00  0.00     0.020 A 
ATOM     83  C   UNL A   1      42.369  24.841  26.440  1.00  0.00     0.020 A 
ATOM     84  C   UNL A   1      42.101  23.829  27.362  1.00  0.00     0.054 A 
BRANCH  84  85
ATOM     85  S   UNL A   1      41.059  22.415  26.902  1.00  0.00     0.124 S 
ATOM     86  O   UNL A   1      39.735  23.023  26.827  1.00  0.00    -0.237 OA
ATOM     87  O   UNL A   1      41.639  22.001  25.625  1.00  0.00    -0.237 OA
ATOM     88  O   UNL A   1      41.255  21.473  28.001  1.00  0.00    -0.744 OA
ENDBRANCH  84  85
ENDBRANCH  56  79
BRANCH  68  89
ATOM     89  C   UNL A   1      50.460  27.456  27.280  1.00  0.00    -0.014 A 
ATOM     90  C   UNL A   1      51.368  26.734  28.074  1.00  0.00     0.010 A 
ATOM     91  C   UNL A   1      50.581  27.399  25.879  1.00  0.00     0.010 A 
ATOM     92  C   UNL A   1      52.396  25.998  27.478  1.00  0.00     0.020 A 
ATOM     93  C   UNL A   1      51.586  26.637  25.278  1.00  0.00     0.020 A 
ATOM     94  C   UNL A   1      52.496  25.952  26.083  1.00  0.00     0.054 A 
BRANCH  94  95
ATOM     95  S   UNL A   1      53.813  24.954  25.336  1.00  0.00     0.124 S 
ATOM     96  O   UNL A   1      53.154  23.662  25.160  1.00  0.00    -0.237 OA
ATOM     97  O   UNL A   1      54.106  25.682  24.104  1.00  0.00    -0.237 OA
ATOM     98  O   UNL A   1      54.879  24.978  26.335  1.00  0.00    -0.744 OA
ENDBRANCH  94  95
ENDBRANCH  68  89
ENDBRANCH  42  43
ENDBRANCH  35  37
ENDBRANCH  34  35
ENDBRANCH  33  34
ENDBRANCH  32  33
ENDBRANCH  31  32
ENDBRANCH  30  31
ENDBRANCH  29  30
ENDBRANCH  28  29
ENDBRANCH  27  28
ENDBRANCH  26  27
ENDBRANCH  25  26
ENDBRANCH  24  25
ENDBRANCH   1  24
TORSDOF 36
ENDMDL
MODEL 2
REMARK VINA RESULT:      -6.5      4.792      6.699
REMARK SMILES CC/C=C/C/C=C/C/C=C/C/C=C/CCSCCCC(=O)OCCOCCOCCOCCOC(=O)c1ccc(-c2c3nc(c(-c4ccc(S(=O)(=O)[O-])cc4)c4ccc([nH]4)c(-c4ccc(S(=O)(=O)[O-])cc4)c4nc(c(-c5ccc(S(=O)(=O)[O-])cc5)c5ccc2[nH]5)C=C4)C=C3)cc1
REMARK SMILES IDX 23 1 22 2 20 3 21 4 19 5 18 6 17 7 16 8 15 9 14 10 13 11
REMARK SMILES IDX 12 12 11 13 10 14 9 15 8 16 7 17 6 18 5 19 4 20 3 21 2 22
REMARK SMILES IDX 1 23 24 24 25 25 26 26 27 27 28 28 29 29 30 30 31 31 32 32
REMARK SMILES IDX 33 33 34 34 35 35 36 36 37 37 38 38 96 39 39 40 95 41 40 42
REMARK SMILES IDX 41 43 42 44 89 45 43 46 94 47 88 48 90 49 44 50 93 51 87 52
REMARK SMILES IDX 86 53 45 55 75 56 56 57 74 58 57 59 60 60 73 61 91 62 58 63
REMARK SMILES IDX 59 64 72 66 92 67 61 68 46 69 47 70 55 71 48 72 54 73 49 74
REMARK SMILES IDX 50 75 51 76 52 77 53 78 76 79 77 80 85 81 78 82 84 83 79 84
REMARK SMILES IDX 80 85 81 86 82 87 83 88 62 89 63 90 71 91 64 92 70 93 65 94
REMARK SMILES IDX 66 95 67 96 68 97 69 98
REMARK H PARENT 90 54 60 65
REMARK Flexibility Score: inf
ROOT
ATOM      1  C   UNL A   1      34.849  30.596  28.009  1.00  0.00     0.261 C 
ENDROOT
BRANCH   1   2
ATOM      2  O   UNL A   1      34.355  29.839  26.895  1.00  0.00    -0.463 OA
BRANCH   2   3
ATOM      3  C   UNL A   1      33.455  28.846  26.867  1.00  0.00     0.305 C 
ATOM      4  O   UNL A   1      32.480  28.729  27.586  1.00  0.00    -0.252 OA
BRANCH   3   5
ATOM      5  C   UNL A   1      33.656  27.912  25.695  1.00  0.00     0.123 C 
BRANCH   5   6
ATOM      6  C   UNL A   1      33.371  26.424  25.869  1.00  0.00     0.023 C 
BRANCH   6   7
ATOM      7  C   UNL A   1      32.226  25.736  25.123  1.00  0.00     0.070 C 
BRANCH   7   8
ATOM      8  S   UNL A   1      31.674  23.994  25.328  1.00  0.00    -0.162 SA
BRANCH   8   9
ATOM      9  C   UNL A   1      31.990  23.480  27.053  1.00  0.00     0.073 C 
BRANCH   9  10
ATOM     10  C   UNL A   1      33.352  22.775  27.271  1.00  0.00     0.038 C 
BRANCH  10  11
ATOM     11  C   UNL A   1      34.350  22.826  26.136  1.00  0.00    -0.030 C 
ATOM     12  C   UNL A   1      34.531  21.926  25.143  1.00  0.00    -0.027 C 
BRANCH  12  13
ATOM     13  C   UNL A   1      35.572  22.029  24.028  1.00  0.00     0.054 C 
BRANCH  13  14
ATOM     14  C   UNL A   1      36.900  22.613  24.483  1.00  0.00    -0.027 C 
ATOM     15  C   UNL A   1      37.581  22.311  25.611  1.00  0.00    -0.027 C 
BRANCH  15  16
ATOM     16  C   UNL A   1      38.957  22.826  25.967  1.00  0.00     0.054 C 
BRANCH  16  17
ATOM     17  C   UNL A   1      38.829  23.878  27.020  1.00  0.00    -0.027 C 
ATOM     18  C   UNL A   1      39.781  24.768  27.336  1.00  0.00    -0.027 C 
BRANCH  18  19
ATOM     19  C   UNL A   1      39.726  25.568  28.604  1.00  0.00     0.054 C 
BRANCH  19  20
ATOM     20  C   UNL A   1      39.395  26.996  28.277  1.00  0.00    -0.027 C 
ATOM     21  C   UNL A   1      40.246  27.847  27.687  1.00  0.00    -0.031 C 
BRANCH  21  22
ATOM     22  C   UNL A   1      39.936  29.294  27.444  1.00  0.00     0.023 C 
ATOM     23  C   UNL A   1      38.455  29.563  27.656  1.00  0.00     0.008 C 
ENDBRANCH  21  22
ENDBRANCH  19  20
ENDBRANCH  18  19
ENDBRANCH  16  17
ENDBRANCH  15  16
ENDBRANCH  13  14
ENDBRANCH  12  13
ENDBRANCH  10  11
ENDBRANCH   9  10
ENDBRANCH   8   9
ENDBRANCH   7   8
ENDBRANCH   6   7
ENDBRANCH   5   6
ENDBRANCH   3   5
ENDBRANCH   2   3
ENDBRANCH   1   2
BRANCH   1  24
ATOM     24  C   UNL A   1      35.355  32.028  27.869  1.00  0.00     0.202 C 
BRANCH  24  25
ATOM     25  O   UNL A   1      36.605  32.474  28.336  1.00  0.00    -0.376 OA
BRANCH  25  26
ATOM     26  C   UNL A   1      36.829  32.946  29.644  1.00  0.00     0.188 C 
BRANCH  26  27
ATOM     27  C   UNL A   1      36.883  31.869  30.734  1.00  0.00     0.188 C 
BRANCH  27  28
ATOM     28  O   UNL A   1      38.056  31.091  30.879  1.00  0.00    -0.377 OA
BRANCH  28  29
ATOM     29  C   UNL A   1      39.299  31.763  30.787  1.00  0.00     0.188 C 
BRANCH  29  30
ATOM     30  C   UNL A   1      39.599  32.742  31.944  1.00  0.00     0.188 C 
BRANCH  30  31
ATOM     31  O   UNL A   1      39.418  32.354  33.298  1.00  0.00    -0.376 OA
BRANCH  31  32
ATOM     32  C   UNL A   1      39.282  33.341  34.301  1.00  0.00     0.202 C 
BRANCH  32  33
ATOM     33  C   UNL A   1      39.505  32.981  35.786  1.00  0.00     0.261 C 
BRANCH  33  34
ATOM     34  O   UNL A   1      40.592  32.100  36.123  1.00  0.00    -0.460 OA
BRANCH  34  35
ATOM     35  C   UNL A   1      40.300  30.773  36.180  1.00  0.00     0.338 C 
ATOM     36  O   UNL A   1      39.217  30.282  36.408  1.00  0.00    -0.246 OA
BRANCH  35  37
ATOM     37  C   UNL A   1      41.479  29.983  35.711  1.00  0.00     0.060 A 
ATOM     38  C   UNL A   1      42.767  30.416  36.075  1.00  0.00     0.016 A 
ATOM     39  C   UNL A   1      41.331  28.843  34.919  1.00  0.00     0.016 A 
ATOM     40  C   UNL A   1      43.902  29.749  35.615  1.00  0.00     0.010 A 
ATOM     41  C   UNL A   1      42.472  28.204  34.412  1.00  0.00     0.010 A 
ATOM     42  C   UNL A   1      43.760  28.687  34.716  1.00  0.00    -0.014 A 
BRANCH  42  43
ATOM     43  C   UNL A   1      44.916  28.315  33.861  1.00  0.00     0.031 A 
ATOM     44  C   UNL A   1      45.108  29.099  32.586  1.00  0.00     0.074 A 
ATOM     45  C   UNL A   1      45.796  27.359  34.206  1.00  0.00     0.049 A 
ATOM     46  N   UNL A   1      45.990  28.940  31.635  1.00  0.00    -0.248 NA
ATOM     47  C   UNL A   1      44.172  30.214  32.356  1.00  0.00     0.031 C 
ATOM     48  C   UNL A   1      45.774  26.590  35.449  1.00  0.00     0.029 A 
ATOM     49  N   UNL A   1      46.887  26.871  33.528  1.00  0.00    -0.354 N 
ATOM     50  C   UNL A   1      45.699  29.915  30.687  1.00  0.00     0.074 A 
ATOM     51  C   UNL A   1      44.551  30.649  31.165  1.00  0.00     0.031 C 
ATOM     52  C   UNL A   1      46.796  25.715  35.437  1.00  0.00     0.029 A 
ATOM     53  C   UNL A   1      47.519  25.833  34.171  1.00  0.00     0.049 A 
ATOM     54  H   UNL A   1      47.187  27.231  32.663  1.00  0.00     0.167 HD
ATOM     55  C   UNL A   1      46.330  30.177  29.517  1.00  0.00     0.031 A 
ATOM     56  C   UNL A   1      48.544  25.052  33.768  1.00  0.00     0.031 A 
ATOM     57  C   UNL A   1      47.466  29.438  29.041  1.00  0.00     0.049 A 
ATOM     58  C   UNL A   1      49.174  25.302  32.418  1.00  0.00     0.074 A 
ATOM     59  C   UNL A   1      48.186  29.628  27.874  1.00  0.00     0.029 A 
ATOM     60  N   UNL A   1      48.043  28.362  29.699  1.00  0.00    -0.354 N 
ATOM     61  N   UNL A   1      48.893  26.231  31.534  1.00  0.00    -0.248 NA
ATOM     62  C   UNL A   1      50.261  24.398  32.014  1.00  0.00     0.031 C 
ATOM     63  C   UNL A   1      49.154  28.623  27.794  1.00  0.00     0.029 A 
ATOM     64  C   UNL A   1      49.088  27.856  28.947  1.00  0.00     0.049 A 
ATOM     65  H   UNL A   1      47.752  28.012  30.571  1.00  0.00     0.167 HD
ATOM     66  C   UNL A   1      49.793  26.045  30.488  1.00  0.00     0.074 A 
ATOM     67  C   UNL A   1      50.633  24.923  30.854  1.00  0.00     0.031 C 
ATOM     68  C   UNL A   1      49.917  26.741  29.330  1.00  0.00     0.031 A 
BRANCH  55  69
ATOM     69  C   UNL A   1      45.767  31.273  28.651  1.00  0.00    -0.014 A 
ATOM     70  C   UNL A   1      46.189  32.609  28.783  1.00  0.00     0.010 A 
ATOM     71  C   UNL A   1      44.820  30.950  27.661  1.00  0.00     0.010 A 
ATOM     72  C   UNL A   1      45.649  33.605  27.964  1.00  0.00     0.020 A 
ATOM     73  C   UNL A   1      44.301  31.937  26.819  1.00  0.00     0.020 A 
ATOM     74  C   UNL A   1      44.710  33.262  26.986  1.00  0.00     0.054 A 
BRANCH  74  75
ATOM     75  S   UNL A   1      44.053  34.569  25.914  1.00  0.00     0.124 S 
ATOM     76  O   UNL A   1      43.068  35.208  26.785  1.00  0.00    -0.237 OA
ATOM     77  O   UNL A   1      45.241  35.366  25.620  1.00  0.00    -0.237 OA
ATOM     78  O   UNL A   1      43.497  33.840  24.776  1.00  0.00    -0.744 OA
ENDBRANCH  74  75
ENDBRANCH  55  69
BRANCH  56  79
ATOM     79  C   UNL A   1      49.027  23.939  34.635  1.00  0.00    -0.014 A 
ATOM     80  C   UNL A   1      48.410  22.676  34.596  1.00  0.00     0.010 A 
ATOM     81  C   UNL A   1      50.100  24.143  35.522  1.00  0.00     0.010 A 
ATOM     82  C   UNL A   1      48.846  21.645  35.437  1.00  0.00     0.020 A 
ATOM     83  C   UNL A   1      50.560  23.107  36.341  1.00  0.00     0.020 A 
ATOM     84  C   UNL A   1      49.922  21.867  36.301  1.00  0.00     0.054 A 
BRANCH  84  85
ATOM     85  S   UNL A   1      50.499  20.500  37.345  1.00  0.00     0.124 S 
ATOM     86  O   UNL A   1      51.540  19.901  36.518  1.00  0.00    -0.237 OA
ATOM     87  O   UNL A   1      50.965  21.196  38.543  1.00  0.00    -0.237 OA
ATOM     88  O   UNL A   1      49.302  19.683  37.535  1.00  0.00    -0.744 OA
ENDBRANCH  84  85
ENDBRANCH  56  79
BRANCH  68  89
ATOM     89  C   UNL A   1      51.030  26.348  28.391  1.00  0.00    -0.014 A 
ATOM     90  C   UNL A   1      52.365  26.716  28.635  1.00  0.00     0.010 A 
ATOM     91  C   UNL A   1      50.738  25.536  27.279  1.00  0.00     0.010 A 
ATOM     92  C   UNL A   1      53.380  26.309  27.766  1.00  0.00     0.020 A 
ATOM     93  C   UNL A   1      51.754  25.098  26.426  1.00  0.00     0.020 A 
ATOM     94  C   UNL A   1      53.068  25.500  26.668  1.00  0.00     0.054 A 
BRANCH  94  95
ATOM     95  S   UNL A   1      54.411  24.950  25.580  1.00  0.00     0.124 S 
ATOM     96  O   UNL A   1      53.718  24.029  24.682  1.00  0.00    -0.237 OA
ATOM     97  O   UNL A   1      54.862  26.199  24.973  1.00  0.00    -0.237 OA
ATOM     98  O   UNL A   1      55.366  24.327  26.493  1.00  0.00    -0.744 OA
ENDBRANCH  94  95
ENDBRANCH  68  89
ENDBRANCH  42  43
ENDBRANCH  35  37
ENDBRANCH  34  35
ENDBRANCH  33  34
ENDBRANCH  32  33
ENDBRANCH  31  32
ENDBRANCH  30  31
ENDBRANCH  29  30
ENDBRANCH  28  29
ENDBRANCH  27  28
ENDBRANCH  26  27
ENDBRANCH  25  26
ENDBRANCH  24  25
ENDBRANCH   1  24
TORSDOF 36
ENDMDL
MODEL 3
REMARK VINA RESULT:      -6.5      4.771      6.833
REMARK SMILES CC/C=C/C/C=C/C/C=C/C/C=C/CCSCCCC(=O)OCCOCCOCCOCCOC(=O)c1ccc(-c2c3nc(c(-c4ccc(S(=O)(=O)[O-])cc4)c4ccc([nH]4)c(-c4ccc(S(=O)(=O)[O-])cc4)c4nc(c(-c5ccc(S(=O)(=O)[O-])cc5)c5ccc2[nH]5)C=C4)C=C3)cc1
REMARK SMILES IDX 23 1 22 2 20 3 21 4 19 5 18 6 17 7 16 8 15 9 14 10 13 11
REMARK SMILES IDX 12 12 11 13 10 14 9 15 8 16 7 17 6 18 5 19 4 20 3 21 2 22
REMARK SMILES IDX 1 23 24 24 25 25 26 26 27 27 28 28 29 29 30 30 31 31 32 32
REMARK SMILES IDX 33 33 34 34 35 35 36 36 37 37 38 38 96 39 39 40 95 41 40 42
REMARK SMILES IDX 41 43 42 44 89 45 43 46 94 47 88 48 90 49 44 50 93 51 87 52
REMARK SMILES IDX 86 53 45 55 75 56 56 57 74 58 57 59 60 60 73 61 91 62 58 63
REMARK SMILES IDX 59 64 72 66 92 67 61 68 46 69 47 70 55 71 48 72 54 73 49 74
REMARK SMILES IDX 50 75 51 76 52 77 53 78 76 79 77 80 85 81 78 82 84 83 79 84
REMARK SMILES IDX 80 85 81 86 82 87 83 88 62 89 63 90 71 91 64 92 70 93 65 94
REMARK SMILES IDX 66 95 67 96 68 97 69 98
REMARK H PARENT 90 54 60 65
REMARK Flexibility Score: inf
ROOT
ATOM      1  C   UNL A   1      34.729  30.246  27.921  1.00  0.00     0.261 C 
ENDROOT
BRANCH   1   2
ATOM      2  O   UNL A   1      34.267  29.359  26.893  1.00  0.00    -0.463 OA
BRANCH   2   3
ATOM      3  C   UNL A   1      33.358  28.375  26.957  1.00  0.00     0.305 C 
ATOM      4  O   UNL A   1      32.370  28.344  27.665  1.00  0.00    -0.252 OA
BRANCH   3   5
ATOM      5  C   UNL A   1      33.572  27.316  25.898  1.00  0.00     0.123 C 
BRANCH   5   6
ATOM      6  C   UNL A   1      33.297  25.855  26.237  1.00  0.00     0.023 C 
BRANCH   6   7
ATOM      7  C   UNL A   1      31.928  25.220  25.987  1.00  0.00     0.070 C 
BRANCH   7   8
ATOM      8  S   UNL A   1      31.412  23.514  26.437  1.00  0.00    -0.162 SA
BRANCH   8   9
ATOM      9  C   UNL A   1      32.694  22.781  27.513  1.00  0.00     0.073 C 
BRANCH   9  10
ATOM     10  C   UNL A   1      33.752  21.935  26.762  1.00  0.00     0.038 C 
BRANCH  10  11
ATOM     11  C   UNL A   1      33.645  21.867  25.255  1.00  0.00    -0.030 C 
ATOM     12  C   UNL A   1      32.728  21.209  24.511  1.00  0.00    -0.027 C 
BRANCH  12  13
ATOM     13  C   UNL A   1      32.683  21.168  22.985  1.00  0.00     0.054 C 
BRANCH  13  14
ATOM     14  C   UNL A   1      32.405  22.520  22.344  1.00  0.00    -0.027 C 
ATOM     15  C   UNL A   1      32.957  23.708  22.676  1.00  0.00    -0.027 C 
BRANCH  15  16
ATOM     16  C   UNL A   1      32.743  25.008  21.935  1.00  0.00     0.054 C 
BRANCH  16  17
ATOM     17  C   UNL A   1      31.996  25.957  22.815  1.00  0.00    -0.027 C 
ATOM     18  C   UNL A   1      31.423  27.097  22.404  1.00  0.00    -0.027 C 
BRANCH  18  19
ATOM     19  C   UNL A   1      30.984  28.155  23.373  1.00  0.00     0.054 C 
BRANCH  19  20
ATOM     20  C   UNL A   1      29.628  28.664  22.975  1.00  0.00    -0.027 C 
ATOM     21  C   UNL A   1      29.422  29.594  22.032  1.00  0.00    -0.031 C 
BRANCH  21  22
ATOM     22  C   UNL A   1      28.072  30.157  21.703  1.00  0.00     0.023 C 
ATOM     23  C   UNL A   1      28.208  31.550  21.109  1.00  0.00     0.008 C 
ENDBRANCH  21  22
ENDBRANCH  19  20
ENDBRANCH  18  19
ENDBRANCH  16  17
ENDBRANCH  15  16
ENDBRANCH  13  14
ENDBRANCH  12  13
ENDBRANCH  10  11
ENDBRANCH   9  10
ENDBRANCH   8   9
ENDBRANCH   7   8
ENDBRANCH   6   7
ENDBRANCH   5   6
ENDBRANCH   3   5
ENDBRANCH   2   3
ENDBRANCH   1   2
BRANCH   1  24
ATOM     24  C   UNL A   1      35.253  31.647  27.622  1.00  0.00     0.202 C 
BRANCH  24  25
ATOM     25  O   UNL A   1      36.513  32.124  28.029  1.00  0.00    -0.376 OA
BRANCH  25  26
ATOM     26  C   UNL A   1      36.783  32.617  29.320  1.00  0.00     0.188 C 
BRANCH  26  27
ATOM     27  C   UNL A   1      36.895  31.556  30.422  1.00  0.00     0.188 C 
BRANCH  27  28
ATOM     28  O   UNL A   1      38.092  30.812  30.545  1.00  0.00    -0.377 OA
BRANCH  28  29
ATOM     29  C   UNL A   1      39.313  31.524  30.456  1.00  0.00     0.188 C 
BRANCH  29  30
ATOM     30  C   UNL A   1      39.561  32.540  31.592  1.00  0.00     0.188 C 
BRANCH  30  31
ATOM     31  O   UNL A   1      39.345  32.188  32.951  1.00  0.00    -0.376 OA
BRANCH  31  32
ATOM     32  C   UNL A   1      39.177  33.201  33.922  1.00  0.00     0.202 C 
BRANCH  32  33
ATOM     33  C   UNL A   1      39.335  32.877  35.424  1.00  0.00     0.261 C 
BRANCH  33  34
ATOM     34  O   UNL A   1      40.399  31.995  35.827  1.00  0.00    -0.460 OA
BRANCH  34  35
ATOM     35  C   UNL A   1      40.104  30.668  35.866  1.00  0.00     0.338 C 
ATOM     36  O   UNL A   1      39.012  30.178  36.052  1.00  0.00    -0.246 OA
BRANCH  35  37
ATOM     37  C   UNL A   1      41.297  29.879  35.434  1.00  0.00     0.060 A 
ATOM     38  C   UNL A   1      42.571  30.303  35.852  1.00  0.00     0.016 A 
ATOM     39  C   UNL A   1      41.176  28.749  34.624  1.00  0.00     0.016 A 
ATOM     40  C   UNL A   1      43.721  29.638  35.428  1.00  0.00     0.010 A 
ATOM     41  C   UNL A   1      42.333  28.111  34.155  1.00  0.00     0.010 A 
ATOM     42  C   UNL A   1      43.610  28.587  34.513  1.00  0.00    -0.014 A 
BRANCH  42  43
ATOM     43  C   UNL A   1      44.797  28.220  33.699  1.00  0.00     0.031 A 
ATOM     44  C   UNL A   1      45.021  28.993  32.423  1.00  0.00     0.074 A 
ATOM     45  C   UNL A   1      45.677  27.277  34.081  1.00  0.00     0.049 A 
ATOM     46  N   UNL A   1      45.935  28.836  31.502  1.00  0.00    -0.248 NA
ATOM     47  C   UNL A   1      44.081  30.096  32.153  1.00  0.00     0.031 C 
ATOM     48  C   UNL A   1      45.623  26.519  35.330  1.00  0.00     0.029 A 
ATOM     49  N   UNL A   1      46.793  26.794  33.443  1.00  0.00    -0.354 N 
ATOM     50  C   UNL A   1      45.664  29.798  30.536  1.00  0.00     0.074 A 
ATOM     51  C   UNL A   1      44.493  30.524  30.971  1.00  0.00     0.031 C 
ATOM     52  C   UNL A   1      46.654  25.655  35.359  1.00  0.00     0.029 A 
ATOM     53  C   UNL A   1      47.416  25.770  34.115  1.00  0.00     0.049 A 
ATOM     54  H   UNL A   1      47.117  27.149  32.584  1.00  0.00     0.167 HD
ATOM     55  C   UNL A   1      46.329  30.057  29.385  1.00  0.00     0.031 A 
ATOM     56  C   UNL A   1      48.462  24.996  33.753  1.00  0.00     0.031 A 
ATOM     57  C   UNL A   1      47.488  29.327  28.951  1.00  0.00     0.049 A 
ATOM     58  C   UNL A   1      49.132  25.241  32.421  1.00  0.00     0.074 A 
ATOM     59  C   UNL A   1      48.242  29.514  27.806  1.00  0.00     0.029 A 
ATOM     60  N   UNL A   1      48.055  28.264  29.638  1.00  0.00    -0.354 N 
ATOM     61  N   UNL A   1      48.869  26.159  31.520  1.00  0.00    -0.248 NA
ATOM     62  C   UNL A   1      50.241  24.346  32.061  1.00  0.00     0.031 C 
ATOM     63  C   UNL A   1      49.224  28.519  27.767  1.00  0.00     0.029 A 
ATOM     64  C   UNL A   1      49.129  27.762  28.925  1.00  0.00     0.049 A 
ATOM     65  H   UNL A   1      47.740  27.918  30.504  1.00  0.00     0.167 HD
ATOM     66  C   UNL A   1      49.804  25.973  30.505  1.00  0.00     0.074 A 
ATOM     67  C   UNL A   1      50.644  24.864  30.908  1.00  0.00     0.031 C 
ATOM     68  C   UNL A   1      49.958  26.660  29.345  1.00  0.00     0.031 A 
BRANCH  55  69
ATOM     69  C   UNL A   1      45.782  31.139  28.490  1.00  0.00    -0.014 A 
ATOM     70  C   UNL A   1      46.216  32.473  28.596  1.00  0.00     0.010 A 
ATOM     71  C   UNL A   1      44.839  30.802  27.501  1.00  0.00     0.010 A 
ATOM     72  C   UNL A   1      45.690  33.456  27.751  1.00  0.00     0.020 A 
ATOM     73  C   UNL A   1      44.335  31.775  26.635  1.00  0.00     0.020 A 
ATOM     74  C   UNL A   1      44.754  33.099  26.774  1.00  0.00     0.054 A 
BRANCH  74  75
ATOM     75  S   UNL A   1      44.117  34.389  25.669  1.00  0.00     0.124 S 
ATOM     76  O   UNL A   1      43.664  33.605  24.522  1.00  0.00    -0.237 OA
ATOM     77  O   UNL A   1      43.060  35.000  26.469  1.00  0.00    -0.237 OA
ATOM     78  O   UNL A   1      45.279  35.240  25.421  1.00  0.00    -0.744 OA
ENDBRANCH  74  75
ENDBRANCH  55  69
BRANCH  56  79
ATOM     79  C   UNL A   1      48.929  23.897  34.645  1.00  0.00    -0.014 A 
ATOM     80  C   UNL A   1      49.857  24.149  35.672  1.00  0.00     0.010 A 
ATOM     81  C   UNL A   1      48.461  22.583  34.461  1.00  0.00     0.010 A 
ATOM     82  C   UNL A   1      50.319  23.107  36.484  1.00  0.00     0.020 A 
ATOM     83  C   UNL A   1      48.895  21.545  35.291  1.00  0.00     0.020 A 
ATOM     84  C   UNL A   1      49.830  21.812  36.291  1.00  0.00     0.054 A 
BRANCH  84  85
ATOM     85  S   UNL A   1      50.407  20.487  37.389  1.00  0.00     0.124 S 
ATOM     86  O   UNL A   1      51.304  21.205  38.289  1.00  0.00    -0.237 OA
ATOM     87  O   UNL A   1      49.161  20.010  37.986  1.00  0.00    -0.237 OA
ATOM     88  O   UNL A   1      51.054  19.545  36.480  1.00  0.00    -0.744 OA
ENDBRANCH  84  85
ENDBRANCH  56  79
BRANCH  68  89
ATOM     89  C   UNL A   1      51.104  26.271  28.446  1.00  0.00    -0.014 A 
ATOM     90  C   UNL A   1      50.911  25.461  27.313  1.00  0.00     0.010 A 
ATOM     91  C   UNL A   1      52.389  26.784  28.707  1.00  0.00     0.010 A 
ATOM     92  C   UNL A   1      51.986  25.144  26.479  1.00  0.00     0.020 A 
ATOM     93  C   UNL A   1      53.460  26.497  27.857  1.00  0.00     0.020 A 
ATOM     94  C   UNL A   1      53.254  25.667  26.755  1.00  0.00     0.054 A 
BRANCH  94  95
ATOM     95  S   UNL A   1      54.623  25.274  25.632  1.00  0.00     0.124 S 
ATOM     96  O   UNL A   1      55.621  26.271  26.009  1.00  0.00    -0.237 OA
ATOM     97  O   UNL A   1      54.945  23.896  25.991  1.00  0.00    -0.237 OA
ATOM     98  O   UNL A   1      54.043  25.447  24.302  1.00  0.00    -0.744 OA
ENDBRANCH  94  95
ENDBRANCH  68  89
ENDBRANCH  42  43
ENDBRANCH  35  37
ENDBRANCH  34  35
ENDBRANCH  33  34
ENDBRANCH  32  33
ENDBRANCH  31  32
ENDBRANCH  30  31
ENDBRANCH  29  30
ENDBRANCH  28  29
ENDBRANCH  27  28
ENDBRANCH  26  27
ENDBRANCH  25  26
ENDBRANCH  24  25
ENDBRANCH   1  24
TORSDOF 36
ENDMDL
