MODEL 1
REMARK VINA RESULT:      -9.6      0.000      0.000
REMARK SMILES C[N@@H+]1CCN(C(=O)c2ccc3[nH]c4c(c3c2)CSCC4)C[C@H]1C(=O)OCCOCCOCCOCCOC(=O)c1ccc(-c2c3nc(c(-c4ccc(S(=O)(=O)[O-])cc4)c4ccc([nH]4)c(-c4ccc(S(=O)(=O)[O-])cc4)c4nc(c(-c5ccc(S(=O)(=O)[O-])cc5)c5ccc2[nH]5)C=C4)C=C3)cc1
REMARK SMILES IDX 32 1 31 2 30 3 29 4 28 5 27 6 26 7 25 8 23 9 24 10 22 11
REMARK SMILES IDX 1 12 2 13 3 14 4 16 21 17 5 18 6 19 7 20 8 21 9 22 16 23
REMARK SMILES IDX 10 24 15 25 11 26 14 27 12 28 13 29 17 30 20 32 18 33 19 34
REMARK SMILES IDX 33 35 34 36 35 37 36 38 37 39 38 40 39 41 40 42 41 43 99 44
REMARK SMILES IDX 42 45 98 46 43 47 44 48 45 49 92 50 46 51 97 52 91 53 93 54
REMARK SMILES IDX 47 55 96 56 90 57 89 58 48 60 78 61 59 62 77 63 60 64 63 65
REMARK SMILES IDX 76 66 94 67 61 68 62 69 75 71 95 72 64 73 49 74 50 75 58 76
REMARK SMILES IDX 51 77 57 78 52 79 53 80 54 81 55 82 56 83 79 84 80 85 88 86
REMARK SMILES IDX 81 87 87 88 82 89 83 90 84 91 85 92 86 93 65 94 66 95 74 96
REMARK SMILES IDX 67 97 73 98 68 99 69 100 70 101 71 102 72 103
REMARK H PARENT 2 15 12 31 93 59 63 70
REMARK Flexibility Score: inf
ROOT
ATOM      1  C   UNL A   1      46.108  36.246  27.484  1.00  0.00     0.188 C 
ENDROOT
BRANCH   1   2
ATOM      2  O   UNL A   1      45.097  35.243  27.412  1.00  0.00    -0.377 OA
BRANCH   2   3
ATOM      3  C   UNL A   1      44.540  34.945  26.142  1.00  0.00     0.188 C 
BRANCH   3   4
ATOM      4  C   UNL A   1      45.268  33.874  25.324  1.00  0.00     0.188 C 
BRANCH   4   5
ATOM      5  O   UNL A   1      44.511  32.685  25.240  1.00  0.00    -0.376 OA
BRANCH   5   6
ATOM      6  C   UNL A   1      44.261  31.932  26.430  1.00  0.00     0.202 C 
BRANCH   6   7
ATOM      7  C   UNL A   1      44.009  30.402  26.504  1.00  0.00     0.261 C 
BRANCH   7   8
ATOM      8  O   UNL A   1      42.737  29.846  26.091  1.00  0.00    -0.459 OA
BRANCH   8   9
ATOM      9  C   UNL A   1      42.811  28.536  25.745  1.00  0.00     0.366 C 
ATOM     10  O   UNL A   1      42.764  28.149  24.572  1.00  0.00    -0.245 OA
BRANCH   9  11
ATOM     11  C   UNL A   1      42.884  27.466  26.817  1.00  0.00     0.314 C 
ATOM     12  C   UNL A   1      45.203  26.626  26.556  1.00  0.00     0.333 C 
ATOM     13  N   UNL A   1      44.151  27.003  27.487  1.00  0.00    -0.323 N 
ATOM     14  C   UNL A   1      43.793  25.798  28.299  1.00  0.00     0.284 C 
ATOM     15  H   UNL A   1      44.516  27.777  28.041  1.00  0.00     0.348 HD
ATOM     16  C   UNL A   1      42.669  26.054  29.325  1.00  0.00     0.181 C 
ATOM     17  C   UNL A   1      41.890  27.901  27.916  1.00  0.00     0.197 C 
ATOM     18  N   UNL A   1      41.526  26.714  28.705  1.00  0.00    -0.326 N 
BRANCH  18  19
ATOM     19  C   UNL A   1      40.255  26.172  28.797  1.00  0.00     0.254 C 
ATOM     20  O   UNL A   1      39.338  26.675  29.440  1.00  0.00    -0.269 OA
BRANCH  19  21
ATOM     21  C   UNL A   1      39.984  24.928  28.049  1.00  0.00     0.040 A 
ATOM     22  C   UNL A   1      40.953  23.926  27.958  1.00  0.00     0.016 A 
ATOM     23  C   UNL A   1      38.752  24.826  27.393  1.00  0.00     0.024 A 
ATOM     24  C   UNL A   1      40.725  22.800  27.162  1.00  0.00     0.027 A 
ATOM     25  C   UNL A   1      38.499  23.688  26.609  1.00  0.00     0.004 A 
ATOM     26  C   UNL A   1      39.490  22.710  26.503  1.00  0.00     0.046 A 
ATOM     27  C   UNL A   1      37.393  23.270  25.807  1.00  0.00    -0.009 A 
ATOM     28  N   UNL A   1      39.023  21.763  25.619  1.00  0.00    -0.358 N 
ATOM     29  C   UNL A   1      37.726  22.037  25.286  1.00  0.00     0.021 A 
ATOM     30  C   UNL A   1      36.129  24.021  25.562  1.00  0.00     0.107 C 
ATOM     31  H   UNL A   1      39.545  21.001  25.278  1.00  0.00     0.166 HD
ATOM     32  C   UNL A   1      36.878  21.176  24.427  1.00  0.00     0.065 C 
ATOM     33  S   UNL A   1      34.860  23.140  24.571  1.00  0.00    -0.157 SA
ATOM     34  C   UNL A   1      35.403  21.404  24.776  1.00  0.00     0.076 C 
ENDBRANCH  19  21
ENDBRANCH  18  19
ENDBRANCH   9  11
ENDBRANCH   8   9
ENDBRANCH   7   8
ENDBRANCH   6   7
ENDBRANCH   5   6
ENDBRANCH   4   5
ENDBRANCH   3   4
ENDBRANCH   2   3
ENDBRANCH   1   2
BRANCH   1  35
ATOM     35  C   UNL A   1      45.607  37.675  27.281  1.00  0.00     0.188 C 
BRANCH  35  36
ATOM     36  O   UNL A   1      45.715  38.540  28.416  1.00  0.00    -0.376 OA
BRANCH  36  37
ATOM     37  C   UNL A   1      46.819  38.314  29.296  1.00  0.00     0.202 C 
BRANCH  37  38
ATOM     38  C   UNL A   1      46.788  39.115  30.606  1.00  0.00     0.261 C 
BRANCH  38  39
ATOM     39  O   UNL A   1      45.502  39.008  31.236  1.00  0.00    -0.460 OA
BRANCH  39  40
ATOM     40  C   UNL A   1      45.498  38.968  32.590  1.00  0.00     0.338 C 
ATOM     41  O   UNL A   1      45.952  39.806  33.354  1.00  0.00    -0.246 OA
BRANCH  40  42
ATOM     42  C   UNL A   1      44.577  37.883  32.994  1.00  0.00     0.060 A 
ATOM     43  C   UNL A   1      44.131  36.926  32.080  1.00  0.00     0.016 A 
ATOM     44  C   UNL A   1      44.023  37.950  34.283  1.00  0.00     0.016 A 
ATOM     45  C   UNL A   1      43.112  36.055  32.457  1.00  0.00     0.010 A 
ATOM     46  C   UNL A   1      42.986  37.090  34.649  1.00  0.00     0.010 A 
ATOM     47  C   UNL A   1      42.529  36.139  33.739  1.00  0.00    -0.014 A 
BRANCH  47  48
ATOM     48  C   UNL A   1      41.646  35.038  34.140  1.00  0.00     0.031 A 
ATOM     49  C   UNL A   1      42.076  33.713  33.603  1.00  0.00     0.074 A 
ATOM     50  C   UNL A   1      40.633  35.038  35.030  1.00  0.00     0.049 A 
ATOM     51  N   UNL A   1      41.455  32.940  32.776  1.00  0.00    -0.248 NA
ATOM     52  C   UNL A   1      43.419  33.248  33.982  1.00  0.00     0.031 C 
ATOM     53  C   UNL A   1      40.247  36.073  35.987  1.00  0.00     0.029 A 
ATOM     54  N   UNL A   1      39.769  34.013  35.313  1.00  0.00    -0.354 N 
ATOM     55  C   UNL A   1      42.261  31.815  32.627  1.00  0.00     0.074 A 
ATOM     56  C   UNL A   1      43.502  32.107  33.299  1.00  0.00     0.031 C 
ATOM     57  C   UNL A   1      39.370  35.547  36.878  1.00  0.00     0.029 A 
ATOM     58  C   UNL A   1      39.026  34.194  36.469  1.00  0.00     0.049 A 
ATOM     59  H   UNL A   1      39.684  33.215  34.744  1.00  0.00     0.167 HD
ATOM     60  C   UNL A   1      41.813  30.650  32.083  1.00  0.00     0.031 A 
ATOM     61  C   UNL A   1      38.233  33.271  37.072  1.00  0.00     0.031 A 
ATOM     62  C   UNL A   1      40.574  30.815  31.377  1.00  0.00     0.049 A 
ATOM     63  C   UNL A   1      37.887  32.230  36.075  1.00  0.00     0.074 A 
ATOM     64  C   UNL A   1      40.171  31.528  30.267  1.00  0.00     0.029 A 
ATOM     65  N   UNL A   1      39.425  30.421  32.018  1.00  0.00    -0.354 N 
ATOM     66  N   UNL A   1      37.125  32.428  35.038  1.00  0.00    -0.248 NA
ATOM     67  C   UNL A   1      38.630  30.980  36.075  1.00  0.00     0.031 C 
ATOM     68  C   UNL A   1      38.821  31.897  30.527  1.00  0.00     0.029 A 
ATOM     69  C   UNL A   1      38.466  31.371  31.772  1.00  0.00     0.049 A 
ATOM     70  H   UNL A   1      39.312  29.605  32.557  1.00  0.00     0.167 HD
ATOM     71  C   UNL A   1      37.586  31.539  34.082  1.00  0.00     0.074 A 
ATOM     72  C   UNL A   1      38.405  30.586  34.820  1.00  0.00     0.031 C 
ATOM     73  C   UNL A   1      37.487  31.817  32.749  1.00  0.00     0.031 A 
BRANCH  60  74
ATOM     74  C   UNL A   1      42.369  29.293  32.431  1.00  0.00    -0.014 A 
ATOM     75  C   UNL A   1      43.506  28.750  31.797  1.00  0.00     0.010 A 
ATOM     76  C   UNL A   1      41.897  28.621  33.577  1.00  0.00     0.010 A 
ATOM     77  C   UNL A   1      44.124  27.584  32.253  1.00  0.00     0.020 A 
ATOM     78  C   UNL A   1      42.538  27.475  34.071  1.00  0.00     0.020 A 
ATOM     79  C   UNL A   1      43.644  26.960  33.398  1.00  0.00     0.054 A 
BRANCH  79  80
ATOM     80  S   UNL A   1      44.552  25.527  34.031  1.00  0.00     0.124 S 
ATOM     81  O   UNL A   1      43.519  24.829  34.792  1.00  0.00    -0.237 OA
ATOM     82  O   UNL A   1      44.988  24.866  32.805  1.00  0.00    -0.237 OA
ATOM     83  O   UNL A   1      45.621  26.125  34.828  1.00  0.00    -0.744 OA
ENDBRANCH  79  80
ENDBRANCH  60  74
BRANCH  61  84
ATOM     84  C   UNL A   1      38.006  33.041  38.520  1.00  0.00    -0.014 A 
ATOM     85  C   UNL A   1      36.711  32.733  38.982  1.00  0.00     0.010 A 
ATOM     86  C   UNL A   1      38.964  33.456  39.469  1.00  0.00     0.010 A 
ATOM     87  C   UNL A   1      36.358  32.923  40.322  1.00  0.00     0.020 A 
ATOM     88  C   UNL A   1      38.614  33.653  40.814  1.00  0.00     0.020 A 
ATOM     89  C   UNL A   1      37.299  33.425  41.221  1.00  0.00     0.054 A 
BRANCH  89  90
ATOM     90  S   UNL A   1      36.740  33.866  42.891  1.00  0.00     0.124 S 
ATOM     91  O   UNL A   1      37.400  32.850  43.708  1.00  0.00    -0.237 OA
ATOM     92  O   UNL A   1      37.252  35.225  43.046  1.00  0.00    -0.237 OA
ATOM     93  O   UNL A   1      35.286  33.756  42.812  1.00  0.00    -0.744 OA
ENDBRANCH  89  90
ENDBRANCH  61  84
BRANCH  73  94
ATOM     94  C   UNL A   1      36.512  32.882  32.289  1.00  0.00    -0.014 A 
ATOM     95  C   UNL A   1      36.596  34.150  32.895  1.00  0.00     0.010 A 
ATOM     96  C   UNL A   1      35.439  32.634  31.410  1.00  0.00     0.010 A 
ATOM     97  C   UNL A   1      35.625  35.128  32.662  1.00  0.00     0.020 A 
ATOM     98  C   UNL A   1      34.479  33.622  31.148  1.00  0.00     0.020 A 
ATOM     99  C   UNL A   1      34.564  34.854  31.798  1.00  0.00     0.054 A 
BRANCH  99 100
ATOM    100  S   UNL A   1      33.288  36.124  31.551  1.00  0.00     0.124 S 
ATOM    101  O   UNL A   1      32.131  35.513  32.201  1.00  0.00    -0.237 OA
ATOM    102  O   UNL A   1      33.857  37.286  32.231  1.00  0.00    -0.237 OA
ATOM    103  O   UNL A   1      33.200  36.245  30.098  1.00  0.00    -0.744 OA
ENDBRANCH  99 100
ENDBRANCH  73  94
ENDBRANCH  47  48
ENDBRANCH  40  42
ENDBRANCH  39  40
ENDBRANCH  38  39
ENDBRANCH  37  38
ENDBRANCH  36  37
ENDBRANCH  35  36
ENDBRANCH   1  35
TORSDOF 25
ENDMDL
MODEL 2
REMARK VINA RESULT:      -9.2      3.953     12.181
REMARK SMILES C[N@@H+]1CCN(C(=O)c2ccc3[nH]c4c(c3c2)CSCC4)C[C@H]1C(=O)OCCOCCOCCOCCOC(=O)c1ccc(-c2c3nc(c(-c4ccc(S(=O)(=O)[O-])cc4)c4ccc([nH]4)c(-c4ccc(S(=O)(=O)[O-])cc4)c4nc(c(-c5ccc(S(=O)(=O)[O-])cc5)c5ccc2[nH]5)C=C4)C=C3)cc1
REMARK SMILES IDX 32 1 31 2 30 3 29 4 28 5 27 6 26 7 25 8 23 9 24 10 22 11
REMARK SMILES IDX 1 12 2 13 3 14 4 16 21 17 5 18 6 19 7 20 8 21 9 22 16 23
REMARK SMILES IDX 10 24 15 25 11 26 14 27 12 28 13 29 17 30 20 32 18 33 19 34
REMARK SMILES IDX 33 35 34 36 35 37 36 38 37 39 38 40 39 41 40 42 41 43 99 44
REMARK SMILES IDX 42 45 98 46 43 47 44 48 45 49 92 50 46 51 97 52 91 53 93 54
REMARK SMILES IDX 47 55 96 56 90 57 89 58 48 60 78 61 59 62 77 63 60 64 63 65
REMARK SMILES IDX 76 66 94 67 61 68 62 69 75 71 95 72 64 73 49 74 50 75 58 76
REMARK SMILES IDX 51 77 57 78 52 79 53 80 54 81 55 82 56 83 79 84 80 85 88 86
REMARK SMILES IDX 81 87 87 88 82 89 83 90 84 91 85 92 86 93 65 94 66 95 74 96
REMARK SMILES IDX 67 97 73 98 68 99 69 100 70 101 71 102 72 103
REMARK H PARENT 2 15 12 31 93 59 63 70
REMARK Flexibility Score: inf
ROOT
ATOM      1  C   UNL A   1      32.958  36.786  29.832  1.00  0.00     0.188 C 
ENDROOT
BRANCH   1   2
ATOM      2  O   UNL A   1      32.871  37.346  31.141  1.00  0.00    -0.377 OA
BRANCH   2   3
ATOM      3  C   UNL A   1      32.887  36.461  32.249  1.00  0.00     0.188 C 
BRANCH   3   4
ATOM      4  C   UNL A   1      33.745  36.895  33.441  1.00  0.00     0.188 C 
BRANCH   4   5
ATOM      5  O   UNL A   1      35.037  36.329  33.382  1.00  0.00    -0.376 OA
BRANCH   5   6
ATOM      6  C   UNL A   1      35.188  34.918  33.564  1.00  0.00     0.202 C 
BRANCH   6   7
ATOM      7  C   UNL A   1      36.465  34.198  34.074  1.00  0.00     0.261 C 
BRANCH   7   8
ATOM      8  O   UNL A   1      36.361  32.992  34.869  1.00  0.00    -0.459 OA
BRANCH   8   9
ATOM      9  C   UNL A   1      36.902  33.117  36.107  1.00  0.00     0.366 C 
ATOM     10  O   UNL A   1      36.265  33.543  37.077  1.00  0.00    -0.245 OA
BRANCH   9  11
ATOM     11  C   UNL A   1      38.367  32.800  36.337  1.00  0.00     0.314 C 
ATOM     12  C   UNL A   1      38.603  30.596  35.225  1.00  0.00     0.333 C 
ATOM     13  N   UNL A   1      39.201  31.899  35.462  1.00  0.00    -0.323 N 
ATOM     14  C   UNL A   1      40.501  31.694  36.173  1.00  0.00     0.284 C 
ATOM     15  H   UNL A   1      39.298  32.346  34.551  1.00  0.00     0.348 HD
ATOM     16  C   UNL A   1      41.241  33.006  36.505  1.00  0.00     0.181 C 
ATOM     17  C   UNL A   1      39.083  34.165  36.442  1.00  0.00     0.197 C 
ATOM     18  N   UNL A   1      40.354  33.965  37.154  1.00  0.00    -0.326 N 
BRANCH  18  19
ATOM     19  C   UNL A   1      40.684  34.524  38.378  1.00  0.00     0.254 C 
ATOM     20  O   UNL A   1      41.084  35.676  38.521  1.00  0.00    -0.269 OA
BRANCH  19  21
ATOM     21  C   UNL A   1      40.514  33.688  39.582  1.00  0.00     0.040 A 
ATOM     22  C   UNL A   1      41.621  33.120  40.217  1.00  0.00     0.016 A 
ATOM     23  C   UNL A   1      39.207  33.441  40.017  1.00  0.00     0.024 A 
ATOM     24  C   UNL A   1      41.442  32.248  41.294  1.00  0.00     0.027 A 
ATOM     25  C   UNL A   1      39.012  32.584  41.113  1.00  0.00     0.004 A 
ATOM     26  C   UNL A   1      40.128  32.001  41.718  1.00  0.00     0.046 A 
ATOM     27  C   UNL A   1      37.852  32.106  41.796  1.00  0.00    -0.009 A 
ATOM     28  N   UNL A   1      39.654  31.152  42.693  1.00  0.00    -0.358 N 
ATOM     29  C   UNL A   1      38.300  31.295  42.817  1.00  0.00     0.021 A 
ATOM     30  C   UNL A   1      36.430  32.406  41.465  1.00  0.00     0.107 C 
ATOM     31  H   UNL A   1      40.209  30.535  43.224  1.00  0.00     0.166 HD
ATOM     32  C   UNL A   1      37.471  30.604  43.834  1.00  0.00     0.065 C 
ATOM     33  S   UNL A   1      35.183  31.719  42.623  1.00  0.00    -0.157 SA
ATOM     34  C   UNL A   1      36.211  31.429  44.110  1.00  0.00     0.076 C 
ENDBRANCH  19  21
ENDBRANCH  18  19
ENDBRANCH   9  11
ENDBRANCH   8   9
ENDBRANCH   7   8
ENDBRANCH   6   7
ENDBRANCH   5   6
ENDBRANCH   4   5
ENDBRANCH   3   4
ENDBRANCH   2   3
ENDBRANCH   1   2
BRANCH   1  35
ATOM     35  C   UNL A   1      32.971  35.259  29.788  1.00  0.00     0.188 C 
BRANCH  35  36
ATOM     36  O   UNL A   1      32.898  34.673  28.485  1.00  0.00    -0.376 OA
BRANCH  36  37
ATOM     37  C   UNL A   1      34.139  34.370  27.844  1.00  0.00     0.202 C 
BRANCH  37  38
ATOM     38  C   UNL A   1      35.299  34.027  28.790  1.00  0.00     0.261 C 
BRANCH  38  39
ATOM     39  O   UNL A   1      35.281  32.631  29.129  1.00  0.00    -0.460 OA
BRANCH  39  40
ATOM     40  C   UNL A   1      35.521  32.325  30.427  1.00  0.00     0.338 C 
ATOM     41  O   UNL A   1      34.711  32.297  31.340  1.00  0.00    -0.246 OA
BRANCH  40  42
ATOM     42  C   UNL A   1      36.875  31.733  30.494  1.00  0.00     0.060 A 
ATOM     43  C   UNL A   1      37.364  30.910  29.478  1.00  0.00     0.016 A 
ATOM     44  C   UNL A   1      37.585  31.876  31.698  1.00  0.00     0.016 A 
ATOM     45  C   UNL A   1      38.553  30.216  29.683  1.00  0.00     0.010 A 
ATOM     46  C   UNL A   1      38.765  31.161  31.909  1.00  0.00     0.010 A 
ATOM     47  C   UNL A   1      39.254  30.331  30.902  1.00  0.00    -0.014 A 
BRANCH  47  48
ATOM     48  C   UNL A   1      40.609  29.770  30.944  1.00  0.00     0.031 A 
ATOM     49  C   UNL A   1      41.584  30.523  30.100  1.00  0.00     0.074 A 
ATOM     50  C   UNL A   1      41.109  28.804  31.742  1.00  0.00     0.049 A 
ATOM     51  N   UNL A   1      42.234  30.113  29.062  1.00  0.00    -0.248 NA
ATOM     52  C   UNL A   1      41.778  31.946  30.418  1.00  0.00     0.031 C 
ATOM     53  C   UNL A   1      40.506  28.176  32.916  1.00  0.00     0.029 A 
ATOM     54  N   UNL A   1      42.356  28.241  31.692  1.00  0.00    -0.354 N 
ATOM     55  C   UNL A   1      43.034  31.181  28.666  1.00  0.00     0.074 A 
ATOM     56  C   UNL A   1      42.630  32.313  29.463  1.00  0.00     0.031 C 
ATOM     57  C   UNL A   1      41.459  27.478  33.582  1.00  0.00     0.029 A 
ATOM     58  C   UNL A   1      42.691  27.492  32.809  1.00  0.00     0.049 A 
ATOM     59  H   UNL A   1      42.964  28.358  30.926  1.00  0.00     0.167 HD
ATOM     60  C   UNL A   1      44.081  31.044  27.808  1.00  0.00     0.031 A 
ATOM     61  C   UNL A   1      43.912  26.975  33.098  1.00  0.00     0.031 A 
ATOM     62  C   UNL A   1      44.051  29.795  27.100  1.00  0.00     0.049 A 
ATOM     63  C   UNL A   1      44.696  26.897  31.842  1.00  0.00     0.074 A 
ATOM     64  C   UNL A   1      43.189  29.206  26.199  1.00  0.00     0.029 A 
ATOM     65  N   UNL A   1      44.882  28.798  27.546  1.00  0.00    -0.354 N 
ATOM     66  N   UNL A   1      44.424  26.096  30.852  1.00  0.00    -0.248 NA
ATOM     67  C   UNL A   1      45.668  27.940  31.552  1.00  0.00     0.031 C 
ATOM     68  C   UNL A   1      43.261  27.810  26.469  1.00  0.00     0.029 A 
ATOM     69  C   UNL A   1      44.177  27.621  27.507  1.00  0.00     0.049 A 
ATOM     70  H   UNL A   1      45.815  28.908  27.841  1.00  0.00     0.167 HD
ATOM     71  C   UNL A   1      44.873  26.759  29.723  1.00  0.00     0.074 A 
ATOM     72  C   UNL A   1      45.750  27.808  30.227  1.00  0.00     0.031 C 
ATOM     73  C   UNL A   1      44.278  26.573  28.508  1.00  0.00     0.031 A 
BRANCH  60  74
ATOM     74  C   UNL A   1      45.294  31.939  27.814  1.00  0.00    -0.014 A 
ATOM     75  C   UNL A   1      46.299  31.854  28.800  1.00  0.00     0.010 A 
ATOM     76  C   UNL A   1      45.573  32.739  26.687  1.00  0.00     0.010 A 
ATOM     77  C   UNL A   1      47.504  32.552  28.693  1.00  0.00     0.020 A 
ATOM     78  C   UNL A   1      46.800  33.406  26.547  1.00  0.00     0.020 A 
ATOM     79  C   UNL A   1      47.753  33.314  27.559  1.00  0.00     0.054 A 
BRANCH  79  80
ATOM     80  S   UNL A   1      49.379  34.095  27.398  1.00  0.00     0.124 S 
ATOM     81  O   UNL A   1      49.986  33.307  26.329  1.00  0.00    -0.237 OA
ATOM     82  O   UNL A   1      49.032  35.470  27.049  1.00  0.00    -0.237 OA
ATOM     83  O   UNL A   1      49.974  33.921  28.721  1.00  0.00    -0.744 OA
ENDBRANCH  79  80
ENDBRANCH  60  74
BRANCH  61  84
ATOM     84  C   UNL A   1      44.577  26.835  34.417  1.00  0.00    -0.014 A 
ATOM     85  C   UNL A   1      45.005  25.565  34.850  1.00  0.00     0.010 A 
ATOM     86  C   UNL A   1      44.481  27.863  35.378  1.00  0.00     0.010 A 
ATOM     87  C   UNL A   1      45.237  25.304  36.205  1.00  0.00     0.020 A 
ATOM     88  C   UNL A   1      44.707  27.605  36.740  1.00  0.00     0.020 A 
ATOM     89  C   UNL A   1      45.043  26.314  37.148  1.00  0.00     0.054 A 
BRANCH  89  90
ATOM     90  S   UNL A   1      45.136  25.876  38.907  1.00  0.00     0.124 S 
ATOM     91  O   UNL A   1      46.534  26.166  39.216  1.00  0.00    -0.237 OA
ATOM     92  O   UNL A   1      44.161  26.781  39.509  1.00  0.00    -0.237 OA
ATOM     93  O   UNL A   1      44.770  24.463  38.933  1.00  0.00    -0.744 OA
ENDBRANCH  89  90
ENDBRANCH  61  84
BRANCH  73  94
ATOM     94  C   UNL A   1      43.412  25.349  28.292  1.00  0.00    -0.014 A 
ATOM     95  C   UNL A   1      44.013  24.218  27.706  1.00  0.00     0.010 A 
ATOM     96  C   UNL A   1      42.018  25.329  28.499  1.00  0.00     0.010 A 
ATOM     97  C   UNL A   1      43.249  23.118  27.307  1.00  0.00     0.020 A 
ATOM     98  C   UNL A   1      41.250  24.216  28.129  1.00  0.00     0.020 A 
ATOM     99  C   UNL A   1      41.868  23.128  27.509  1.00  0.00     0.054 A 
BRANCH  99 100
ATOM    100  S   UNL A   1      40.891  21.708  26.936  1.00  0.00     0.124 S 
ATOM    101  O   UNL A   1      41.713  21.205  25.838  1.00  0.00    -0.237 OA
ATOM    102  O   UNL A   1      40.833  20.858  28.124  1.00  0.00    -0.237 OA
ATOM    103  O   UNL A   1      39.616  22.303  26.544  1.00  0.00    -0.744 OA
ENDBRANCH  99 100
ENDBRANCH  73  94
ENDBRANCH  47  48
ENDBRANCH  40  42
ENDBRANCH  39  40
ENDBRANCH  38  39
ENDBRANCH  37  38
ENDBRANCH  36  37
ENDBRANCH  35  36
ENDBRANCH   1  35
TORSDOF 25
ENDMDL
MODEL 3
REMARK VINA RESULT:      -9.1      4.206     12.703
REMARK SMILES C[N@@H+]1CCN(C(=O)c2ccc3[nH]c4c(c3c2)CSCC4)C[C@H]1C(=O)OCCOCCOCCOCCOC(=O)c1ccc(-c2c3nc(c(-c4ccc(S(=O)(=O)[O-])cc4)c4ccc([nH]4)c(-c4ccc(S(=O)(=O)[O-])cc4)c4nc(c(-c5ccc(S(=O)(=O)[O-])cc5)c5ccc2[nH]5)C=C4)C=C3)cc1
REMARK SMILES IDX 32 1 31 2 30 3 29 4 28 5 27 6 26 7 25 8 23 9 24 10 22 11
REMARK SMILES IDX 1 12 2 13 3 14 4 16 21 17 5 18 6 19 7 20 8 21 9 22 16 23
REMARK SMILES IDX 10 24 15 25 11 26 14 27 12 28 13 29 17 30 20 32 18 33 19 34
REMARK SMILES IDX 33 35 34 36 35 37 36 38 37 39 38 40 39 41 40 42 41 43 99 44
REMARK SMILES IDX 42 45 98 46 43 47 44 48 45 49 92 50 46 51 97 52 91 53 93 54
REMARK SMILES IDX 47 55 96 56 90 57 89 58 48 60 78 61 59 62 77 63 60 64 63 65
REMARK SMILES IDX 76 66 94 67 61 68 62 69 75 71 95 72 64 73 49 74 50 75 58 76
REMARK SMILES IDX 51 77 57 78 52 79 53 80 54 81 55 82 56 83 79 84 80 85 88 86
REMARK SMILES IDX 81 87 87 88 82 89 83 90 84 91 85 92 86 93 65 94 66 95 74 96
REMARK SMILES IDX 67 97 73 98 68 99 69 100 70 101 71 102 72 103
REMARK H PARENT 2 15 12 31 93 59 63 70
REMARK Flexibility Score: inf
ROOT
ATOM      1  C   UNL A   1      33.282  35.573  29.212  1.00  0.00     0.188 C 
ENDROOT
BRANCH   1   2
ATOM      2  O   UNL A   1      32.594  36.499  30.050  1.00  0.00    -0.377 OA
BRANCH   2   3
ATOM      3  C   UNL A   1      32.646  36.299  31.453  1.00  0.00     0.188 C 
BRANCH   3   4
ATOM      4  C   UNL A   1      33.195  37.467  32.277  1.00  0.00     0.188 C 
BRANCH   4   5
ATOM      5  O   UNL A   1      34.370  37.105  32.971  1.00  0.00    -0.376 OA
BRANCH   5   6
ATOM      6  C   UNL A   1      34.622  35.722  33.238  1.00  0.00     0.202 C 
BRANCH   6   7
ATOM      7  C   UNL A   1      36.020  35.053  33.328  1.00  0.00     0.261 C 
BRANCH   7   8
ATOM      8  O   UNL A   1      36.274  34.007  34.298  1.00  0.00    -0.459 OA
BRANCH   8   9
ATOM      9  C   UNL A   1      37.576  33.924  34.668  1.00  0.00     0.366 C 
ATOM     10  O   UNL A   1      38.021  34.473  35.683  1.00  0.00    -0.245 OA
BRANCH   9  11
ATOM     11  C   UNL A   1      38.576  33.197  33.790  1.00  0.00     0.314 C 
ATOM     12  C   UNL A   1      37.624  30.908  33.705  1.00  0.00     0.333 C 
ATOM     13  N   UNL A   1      38.265  31.979  32.959  1.00  0.00    -0.323 N 
ATOM     14  C   UNL A   1      39.573  31.468  32.440  1.00  0.00     0.284 C 
ATOM     15  H   UNL A   1      37.613  32.255  32.225  1.00  0.00     0.348 HD
ATOM     16  C   UNL A   1      40.373  32.514  31.637  1.00  0.00     0.181 C 
ATOM     17  C   UNL A   1      39.181  34.272  32.860  1.00  0.00     0.197 C 
ATOM     18  N   UNL A   1      40.473  33.775  32.362  1.00  0.00    -0.326 N 
BRANCH  18  19
ATOM     19  C   UNL A   1      41.706  34.352  32.619  1.00  0.00     0.254 C 
ATOM     20  O   UNL A   1      42.250  34.348  33.720  1.00  0.00    -0.269 OA
BRANCH  19  21
ATOM     21  C   UNL A   1      42.417  34.983  31.491  1.00  0.00     0.040 A 
ATOM     22  C   UNL A   1      42.056  34.699  30.172  1.00  0.00     0.016 A 
ATOM     23  C   UNL A   1      43.496  35.821  31.797  1.00  0.00     0.024 A 
ATOM     24  C   UNL A   1      42.802  35.221  29.112  1.00  0.00     0.027 A 
ATOM     25  C   UNL A   1      44.241  36.373  30.741  1.00  0.00     0.004 A 
ATOM     26  C   UNL A   1      43.886  36.053  29.428  1.00  0.00     0.046 A 
ATOM     27  C   UNL A   1      45.383  37.228  30.683  1.00  0.00    -0.009 A 
ATOM     28  N   UNL A   1      44.819  36.646  28.607  1.00  0.00    -0.358 N 
ATOM     29  C   UNL A   1      45.651  37.440  29.347  1.00  0.00     0.021 A 
ATOM     30  C   UNL A   1      46.153  37.775  31.836  1.00  0.00     0.107 C 
ATOM     31  H   UNL A   1      44.877  36.519  27.633  1.00  0.00     0.166 HD
ATOM     32  C   UNL A   1      46.716  38.301  28.778  1.00  0.00     0.065 C 
ATOM     33  S   UNL A   1      47.503  38.943  31.408  1.00  0.00    -0.157 SA
ATOM     34  C   UNL A   1      46.990  39.469  29.732  1.00  0.00     0.076 C 
ENDBRANCH  19  21
ENDBRANCH  18  19
ENDBRANCH   9  11
ENDBRANCH   8   9
ENDBRANCH   7   8
ENDBRANCH   6   7
ENDBRANCH   5   6
ENDBRANCH   4   5
ENDBRANCH   3   4
ENDBRANCH   2   3
ENDBRANCH   1   2
BRANCH   1  35
ATOM     35  C   UNL A   1      33.884  34.374  29.943  1.00  0.00     0.188 C 
BRANCH  35  36
ATOM     36  O   UNL A   1      35.293  34.185  29.773  1.00  0.00    -0.376 OA
BRANCH  36  37
ATOM     37  C   UNL A   1      35.890  33.106  30.496  1.00  0.00     0.202 C 
BRANCH  37  38
ATOM     38  C   UNL A   1      35.445  31.702  30.064  1.00  0.00     0.261 C 
BRANCH  38  39
ATOM     39  O   UNL A   1      35.466  31.581  28.633  1.00  0.00    -0.460 OA
BRANCH  39  40
ATOM     40  C   UNL A   1      35.565  30.324  28.137  1.00  0.00     0.338 C 
ATOM     41  O   UNL A   1      34.740  29.732  27.459  1.00  0.00    -0.246 OA
BRANCH  40  42
ATOM     42  C   UNL A   1      36.972  29.898  28.298  1.00  0.00     0.060 A 
ATOM     43  C   UNL A   1      37.310  28.563  28.531  1.00  0.00     0.016 A 
ATOM     44  C   UNL A   1      37.947  30.905  28.392  1.00  0.00     0.016 A 
ATOM     45  C   UNL A   1      38.620  28.248  28.879  1.00  0.00     0.010 A 
ATOM     46  C   UNL A   1      39.254  30.589  28.764  1.00  0.00     0.010 A 
ATOM     47  C   UNL A   1      39.595  29.259  29.006  1.00  0.00    -0.014 A 
BRANCH  47  48
ATOM     48  C   UNL A   1      40.991  28.824  29.130  1.00  0.00     0.031 A 
ATOM     49  C   UNL A   1      41.487  28.831  30.539  1.00  0.00     0.074 A 
ATOM     50  C   UNL A   1      41.802  28.280  28.200  1.00  0.00     0.049 A 
ATOM     51  N   UNL A   1      42.429  29.547  31.056  1.00  0.00    -0.248 NA
ATOM     52  C   UNL A   1      40.764  27.986  31.502  1.00  0.00     0.031 C 
ATOM     53  C   UNL A   1      41.471  27.792  26.862  1.00  0.00     0.029 A 
ATOM     54  N   UNL A   1      43.130  27.969  28.326  1.00  0.00    -0.354 N 
ATOM     55  C   UNL A   1      42.522  29.150  32.387  1.00  0.00     0.074 A 
ATOM     56  C   UNL A   1      41.404  28.274  32.633  1.00  0.00     0.031 C 
ATOM     57  C   UNL A   1      42.513  27.065  26.387  1.00  0.00     0.029 A 
ATOM     58  C   UNL A   1      43.627  27.158  27.318  1.00  0.00     0.049 A 
ATOM     59  H   UNL A   1      43.685  28.294  29.071  1.00  0.00     0.167 HD
ATOM     60  C   UNL A   1      43.591  29.448  33.176  1.00  0.00     0.031 A 
ATOM     61  C   UNL A   1      44.846  26.562  27.288  1.00  0.00     0.031 A 
ATOM     62  C   UNL A   1      44.414  30.483  32.616  1.00  0.00     0.049 A 
ATOM     63  C   UNL A   1      45.742  27.284  28.222  1.00  0.00     0.074 A 
ATOM     64  C   UNL A   1      44.230  31.813  32.302  1.00  0.00     0.029 A 
ATOM     65  N   UNL A   1      45.571  30.096  31.986  1.00  0.00    -0.354 N 
ATOM     66  N   UNL A   1      46.166  28.502  28.043  1.00  0.00    -0.248 NA
ATOM     67  C   UNL A   1      45.968  26.733  29.549  1.00  0.00     0.031 C 
ATOM     68  C   UNL A   1      45.043  32.045  31.157  1.00  0.00     0.029 A 
ATOM     69  C   UNL A   1      45.695  30.849  30.845  1.00  0.00     0.049 A 
ATOM     70  H   UNL A   1      46.198  29.403  32.297  1.00  0.00     0.167 HD
ATOM     71  C   UNL A   1      46.345  29.008  29.319  1.00  0.00     0.074 A 
ATOM     72  C   UNL A   1      46.348  27.840  30.190  1.00  0.00     0.031 C 
ATOM     73  C   UNL A   1      46.198  30.340  29.580  1.00  0.00     0.031 A 
BRANCH  60  74
ATOM     74  C   UNL A   1      44.040  28.598  34.336  1.00  0.00    -0.014 A 
ATOM     75  C   UNL A   1      44.415  29.145  35.581  1.00  0.00     0.010 A 
ATOM     76  C   UNL A   1      43.873  27.199  34.279  1.00  0.00     0.010 A 
ATOM     77  C   UNL A   1      44.647  28.346  36.703  1.00  0.00     0.020 A 
ATOM     78  C   UNL A   1      44.056  26.392  35.412  1.00  0.00     0.020 A 
ATOM     79  C   UNL A   1      44.452  26.973  36.615  1.00  0.00     0.054 A 
BRANCH  79  80
ATOM     80  S   UNL A   1      44.634  25.988  38.124  1.00  0.00     0.124 S 
ATOM     81  O   UNL A   1      45.922  26.453  38.631  1.00  0.00    -0.237 OA
ATOM     82  O   UNL A   1      43.466  26.391  38.902  1.00  0.00    -0.237 OA
ATOM     83  O   UNL A   1      44.611  24.611  37.638  1.00  0.00    -0.744 OA
ENDBRANCH  79  80
ENDBRANCH  60  74
BRANCH  61  84
ATOM     84  C   UNL A   1      45.218  25.226  26.759  1.00  0.00    -0.014 A 
ATOM     85  C   UNL A   1      45.476  25.069  25.384  1.00  0.00     0.010 A 
ATOM     86  C   UNL A   1      44.984  24.064  27.524  1.00  0.00     0.010 A 
ATOM     87  C   UNL A   1      45.410  23.811  24.775  1.00  0.00     0.020 A 
ATOM     88  C   UNL A   1      44.912  22.800  26.918  1.00  0.00     0.020 A 
ATOM     89  C   UNL A   1      45.085  22.689  25.538  1.00  0.00     0.054 A 
BRANCH  89  90
ATOM     90  S   UNL A   1      44.791  21.120  24.675  1.00  0.00     0.124 S 
ATOM     91  O   UNL A   1      44.536  21.570  23.309  1.00  0.00    -0.237 OA
ATOM     92  O   UNL A   1      46.051  20.409  24.876  1.00  0.00    -0.237 OA
ATOM     93  O   UNL A   1      43.640  20.550  25.371  1.00  0.00    -0.744 OA
ENDBRANCH  89  90
ENDBRANCH  61  84
BRANCH  73  94
ATOM     94  C   UNL A   1      46.252  31.327  28.432  1.00  0.00    -0.014 A 
ATOM     95  C   UNL A   1      47.515  31.827  28.059  1.00  0.00     0.010 A 
ATOM     96  C   UNL A   1      45.110  31.884  27.823  1.00  0.00     0.010 A 
ATOM     97  C   UNL A   1      47.636  32.870  27.138  1.00  0.00     0.020 A 
ATOM     98  C   UNL A   1      45.226  32.910  26.874  1.00  0.00     0.020 A 
ATOM     99  C   UNL A   1      46.488  33.416  26.559  1.00  0.00     0.054 A 
BRANCH  99 100
ATOM    100  S   UNL A   1      46.670  34.805  25.402  1.00  0.00     0.124 S 
ATOM    101  O   UNL A   1      45.644  34.499  24.407  1.00  0.00    -0.237 OA
ATOM    102  O   UNL A   1      46.404  35.965  26.250  1.00  0.00    -0.237 OA
ATOM    103  O   UNL A   1      48.050  34.687  24.936  1.00  0.00    -0.744 OA
ENDBRANCH  99 100
ENDBRANCH  73  94
ENDBRANCH  47  48
ENDBRANCH  40  42
ENDBRANCH  39  40
ENDBRANCH  38  39
ENDBRANCH  37  38
ENDBRANCH  36  37
ENDBRANCH  35  36
ENDBRANCH   1  35
TORSDOF 25
ENDMDL
