MODEL 1
REMARK VINA RESULT:      -8.9      0.000      0.000
REMARK SMILES Cc1ccccc1C(=O)Nc1ccc(OCC(=O)OCCOCCOCCOCCOC(=O)c2ccc(-c3c4nc(c(-c5ccc(S(=O)(=O)[O-])cc5)c5ccc([nH]5)c(-c5ccc(S(=O)(=O)[O-])cc5)c5nc(c(-c6ccc(S(=O)(=O)[O-])cc6)c6ccc3[nH]6)C=C5)C=C4)cc2)c(-c2nc3ccccc3s2)c1
REMARK SMILES IDX 24 1 23 2 22 3 21 4 20 5 19 6 17 7 18 8 16 9 15 10 14 11
REMARK SMILES IDX 11 12 12 13 104 14 13 15 94 16 10 17 8 18 9 19 7 21 1 22
REMARK SMILES IDX 2 23 3 24 4 25 6 26 5 27 95 28 96 29 103 30 97 31 102 32
REMARK SMILES IDX 98 33 101 34 99 35 100 36 25 37 26 38 27 39 28 40 29 41
REMARK SMILES IDX 30 42 31 43 32 44 33 45 34 46 35 47 93 48 36 49 92 50 37 51
REMARK SMILES IDX 38 52 39 53 86 54 40 55 91 56 85 57 87 58 41 59 90 60 84 61
REMARK SMILES IDX 83 62 42 64 72 65 53 66 71 67 54 68 57 69 70 70 88 71 55 72
REMARK SMILES IDX 56 73 69 75 89 76 58 77 43 78 44 79 52 80 45 81 51 82 46 83
REMARK SMILES IDX 47 84 48 85 49 86 50 87 73 88 74 89 82 90 75 91 81 92 76 93
REMARK SMILES IDX 77 94 78 95 79 96 80 97 59 98 60 99 68 100 61 101 67 102
REMARK SMILES IDX 62 103 63 104 64 105 65 106 66 107
REMARK H PARENT 10 20 87 63 57 74
REMARK Flexibility Score: inf
ROOT
ATOM      1  C   UNL A   1      44.620  39.680  29.970  1.00  0.00     0.188 C 
ENDROOT
BRANCH   1   2
ATOM      2  C   UNL A   1      45.022  39.275  28.555  1.00  0.00     0.188 C 
BRANCH   2   3
ATOM      3  O   UNL A   1      45.206  40.127  27.436  1.00  0.00    -0.376 OA
BRANCH   3   4
ATOM      4  C   UNL A   1      44.223  41.084  27.128  1.00  0.00     0.202 C 
BRANCH   4   5
ATOM      5  C   UNL A   1      43.320  40.788  25.932  1.00  0.00     0.261 C 
BRANCH   5   6
ATOM      6  O   UNL A   1      43.800  41.420  24.749  1.00  0.00    -0.461 OA
BRANCH   6   7
ATOM      7  C   UNL A   1      42.959  42.290  24.154  1.00  0.00     0.344 C 
ATOM      8  O   UNL A   1      41.765  42.105  23.952  1.00  0.00    -0.248 OA
BRANCH   7   9
ATOM      9  C   UNL A   1      43.690  43.589  23.790  1.00  0.00     0.352 C 
BRANCH   9  10
ATOM     10  O   UNL A   1      45.030  43.628  23.360  1.00  0.00    -0.481 OA
BRANCH  10  11
ATOM     11  C   UNL A   1      45.709  44.290  22.382  1.00  0.00     0.130 A 
ATOM     12  C   UNL A   1      46.764  46.680  21.154  1.00  0.00     0.042 A 
ATOM     13  C   UNL A   1      47.067  46.374  22.472  1.00  0.00     0.030 A 
ATOM     14  C   UNL A   1      46.232  45.619  20.414  1.00  0.00     0.041 A 
ATOM     15  C   UNL A   1      46.573  45.197  23.059  1.00  0.00     0.049 A 
ATOM     16  C   UNL A   1      45.591  44.438  20.982  1.00  0.00     0.055 A 
BRANCH  12  17
ATOM     17  N   UNL A   1      47.150  47.958  20.673  1.00  0.00    -0.322 N 
ATOM     18  C   UNL A   1      46.970  48.839  19.599  1.00  0.00     0.255 C 
ATOM     19  O   UNL A   1      47.770  49.791  19.588  1.00  0.00    -0.269 OA
ATOM     20  H   UNL A   1      47.762  48.371  21.325  1.00  0.00     0.170 HD
BRANCH  18  21
ATOM     21  C   UNL A   1      45.828  48.976  18.608  1.00  0.00     0.043 A 
ATOM     22  C   UNL A   1      46.841  47.698  16.705  1.00  0.00     0.045 C 
ATOM     23  C   UNL A   1      45.723  48.413  17.339  1.00  0.00    -0.038 A 
ATOM     24  C   UNL A   1      44.529  48.503  16.580  1.00  0.00     0.004 A 
ATOM     25  C   UNL A   1      43.463  49.280  17.007  1.00  0.00     0.000 A 
ATOM     26  C   UNL A   1      44.749  49.819  18.989  1.00  0.00     0.014 A 
ATOM     27  C   UNL A   1      43.586  49.970  18.203  1.00  0.00     0.001 A 
ENDBRANCH  18  21
ENDBRANCH  12  17
BRANCH  16  28
ATOM     28  C   UNL A   1      44.606  43.815  20.018  1.00  0.00     0.128 A 
ATOM     29  N   UNL A   1      44.629  44.049  18.708  1.00  0.00    -0.236 NA
ATOM     30  S   UNL A   1      43.219  42.895  20.412  1.00  0.00    -0.114 S 
ATOM     31  C   UNL A   1      43.323  44.113  18.220  1.00  0.00     0.082 A 
ATOM     32  C   UNL A   1      42.363  43.629  19.102  1.00  0.00     0.055 A 
ATOM     33  C   UNL A   1      42.890  44.657  16.990  1.00  0.00     0.030 A 
ATOM     34  C   UNL A   1      40.987  43.760  18.846  1.00  0.00     0.021 A 
ATOM     35  C   UNL A   1      41.524  44.832  16.740  1.00  0.00     0.002 A 
ATOM     36  C   UNL A   1      40.586  44.412  17.673  1.00  0.00     0.002 A 
ENDBRANCH  16  28
ENDBRANCH  10  11
ENDBRANCH   9  10
ENDBRANCH   7   9
ENDBRANCH   6   7
ENDBRANCH   5   6
ENDBRANCH   4   5
ENDBRANCH   3   4
ENDBRANCH   2   3
ENDBRANCH   1   2
BRANCH   1  37
ATOM     37  O   UNL A   1      44.429  38.685  30.946  1.00  0.00    -0.377 OA
BRANCH  37  38
ATOM     38  C   UNL A   1      44.000  39.118  32.201  1.00  0.00     0.188 C 
BRANCH  38  39
ATOM     39  C   UNL A   1      44.909  38.823  33.375  1.00  0.00     0.188 C 
BRANCH  39  40
ATOM     40  O   UNL A   1      44.375  38.090  34.444  1.00  0.00    -0.376 OA
BRANCH  40  41
ATOM     41  C   UNL A   1      44.756  36.733  34.550  1.00  0.00     0.202 C 
BRANCH  41  42
ATOM     42  C   UNL A   1      44.032  35.773  35.516  1.00  0.00     0.261 C 
BRANCH  42  43
ATOM     43  O   UNL A   1      44.639  34.492  35.807  1.00  0.00    -0.460 OA
BRANCH  43  44
ATOM     44  C   UNL A   1      44.950  33.644  34.781  1.00  0.00     0.338 C 
ATOM     45  O   UNL A   1      45.973  33.003  34.603  1.00  0.00    -0.246 OA
BRANCH  44  46
ATOM     46  C   UNL A   1      43.664  33.351  34.082  1.00  0.00     0.060 A 
ATOM     47  C   UNL A   1      42.693  32.526  34.646  1.00  0.00     0.016 A 
ATOM     48  C   UNL A   1      43.679  33.535  32.701  1.00  0.00     0.016 A 
ATOM     49  C   UNL A   1      41.977  31.651  33.812  1.00  0.00     0.010 A 
ATOM     50  C   UNL A   1      43.102  32.552  31.895  1.00  0.00     0.010 A 
ATOM     51  C   UNL A   1      42.396  31.486  32.476  1.00  0.00    -0.014 A 
BRANCH  51  52
ATOM     52  C   UNL A   1      42.621  30.083  31.951  1.00  0.00     0.031 A 
ATOM     53  C   UNL A   1      43.736  29.145  32.369  1.00  0.00     0.074 A 
ATOM     54  C   UNL A   1      41.555  29.516  31.310  1.00  0.00     0.049 A 
ATOM     55  N   UNL A   1      44.091  28.072  31.724  1.00  0.00    -0.248 NA
ATOM     56  C   UNL A   1      44.540  29.310  33.572  1.00  0.00     0.031 C 
ATOM     57  C   UNL A   1      41.354  28.112  31.027  1.00  0.00     0.029 A 
ATOM     58  N   UNL A   1      40.338  30.070  30.900  1.00  0.00    -0.354 N 
ATOM     59  C   UNL A   1      44.993  27.325  32.477  1.00  0.00     0.074 A 
ATOM     60  C   UNL A   1      45.273  28.189  33.597  1.00  0.00     0.031 C 
ATOM     61  C   UNL A   1      40.109  27.870  30.607  1.00  0.00     0.029 A 
ATOM     62  C   UNL A   1      39.532  29.128  30.249  1.00  0.00     0.049 A 
ATOM     63  H   UNL A   1      40.080  31.008  31.051  1.00  0.00     0.167 HD
ATOM     64  C   UNL A   1      45.348  26.038  32.126  1.00  0.00     0.031 A 
ATOM     65  C   UNL A   1      39.200  29.329  28.949  1.00  0.00     0.031 A 
ATOM     66  C   UNL A   1      44.676  25.585  30.867  1.00  0.00     0.049 A 
ATOM     67  C   UNL A   1      40.253  28.667  27.977  1.00  0.00     0.074 A 
ATOM     68  C   UNL A   1      44.093  24.416  30.397  1.00  0.00     0.029 A 
ATOM     69  N   UNL A   1      44.438  26.512  29.843  1.00  0.00    -0.354 N 
ATOM     70  N   UNL A   1      41.097  27.700  28.339  1.00  0.00    -0.248 NA
ATOM     71  C   UNL A   1      40.537  29.049  26.593  1.00  0.00     0.031 C 
ATOM     72  C   UNL A   1      43.329  24.729  29.215  1.00  0.00     0.029 A 
ATOM     73  C   UNL A   1      43.526  26.066  28.897  1.00  0.00     0.049 A 
ATOM     74  H   UNL A   1      44.876  27.393  29.799  1.00  0.00     0.167 HD
ATOM     75  C   UNL A   1      42.132  27.548  27.442  1.00  0.00     0.074 A 
ATOM     76  C   UNL A   1      41.655  28.338  26.313  1.00  0.00     0.031 C 
ATOM     77  C   UNL A   1      43.323  26.877  27.679  1.00  0.00     0.031 A 
BRANCH  64  78
ATOM     78  C   UNL A   1      46.226  25.082  33.005  1.00  0.00    -0.014 A 
ATOM     79  C   UNL A   1      45.638  24.080  33.816  1.00  0.00     0.010 A 
ATOM     80  C   UNL A   1      47.637  25.119  33.098  1.00  0.00     0.010 A 
ATOM     81  C   UNL A   1      46.385  23.226  34.672  1.00  0.00     0.020 A 
ATOM     82  C   UNL A   1      48.404  24.259  33.923  1.00  0.00     0.020 A 
ATOM     83  C   UNL A   1      47.771  23.321  34.721  1.00  0.00     0.054 A 
BRANCH  83  84
ATOM     84  S   UNL A   1      48.729  22.223  35.812  1.00  0.00     0.124 S 
ATOM     85  O   UNL A   1      50.106  22.582  35.483  1.00  0.00    -0.237 OA
ATOM     86  O   UNL A   1      48.275  22.615  37.143  1.00  0.00    -0.237 OA
ATOM     87  O   UNL A   1      48.327  20.881  35.393  1.00  0.00    -0.744 OA
ENDBRANCH  83  84
ENDBRANCH  64  78
BRANCH  65  88
ATOM     88  C   UNL A   1      37.974  30.235  29.001  1.00  0.00    -0.014 A 
ATOM     89  C   UNL A   1      36.912  29.747  29.818  1.00  0.00     0.010 A 
ATOM     90  C   UNL A   1      38.115  31.654  29.006  1.00  0.00     0.010 A 
ATOM     91  C   UNL A   1      36.167  30.580  30.695  1.00  0.00     0.020 A 
ATOM     92  C   UNL A   1      37.369  32.496  29.888  1.00  0.00     0.020 A 
ATOM     93  C   UNL A   1      36.407  31.951  30.742  1.00  0.00     0.054 A 
BRANCH  93  94
ATOM     94  S   UNL A   1      35.580  32.975  32.031  1.00  0.00     0.124 S 
ATOM     95  O   UNL A   1      35.718  34.327  31.505  1.00  0.00    -0.237 OA
ATOM     96  O   UNL A   1      34.213  32.451  32.052  1.00  0.00    -0.237 OA
ATOM     97  O   UNL A   1      36.362  32.697  33.234  1.00  0.00    -0.744 OA
ENDBRANCH  93  94
ENDBRANCH  65  88
BRANCH  77  98
ATOM     98  C   UNL A   1      44.575  26.920  26.783  1.00  0.00    -0.014 A 
ATOM     99  C   UNL A   1      45.472  27.993  26.723  1.00  0.00     0.010 A 
ATOM    100  C   UNL A   1      44.979  25.735  26.096  1.00  0.00     0.010 A 
ATOM    101  C   UNL A   1      46.657  27.914  25.965  1.00  0.00     0.020 A 
ATOM    102  C   UNL A   1      46.182  25.625  25.392  1.00  0.00     0.020 A 
ATOM    103  C   UNL A   1      47.000  26.735  25.299  1.00  0.00     0.054 A 
BRANCH 103 104
ATOM    104  S   UNL A   1      48.535  26.652  24.345  1.00  0.00     0.124 S 
ATOM    105  O   UNL A   1      48.166  25.740  23.266  1.00  0.00    -0.237 OA
ATOM    106  O   UNL A   1      48.746  28.041  23.946  1.00  0.00    -0.237 OA
ATOM    107  O   UNL A   1      49.512  26.131  25.298  1.00  0.00    -0.744 OA
ENDBRANCH 103 104
ENDBRANCH  77  98
ENDBRANCH  51  52
ENDBRANCH  44  46
ENDBRANCH  43  44
ENDBRANCH  42  43
ENDBRANCH  41  42
ENDBRANCH  40  41
ENDBRANCH  39  40
ENDBRANCH  38  39
ENDBRANCH  37  38
ENDBRANCH   1  37
TORSDOF 28
ENDMDL
MODEL 2
REMARK VINA RESULT:      -8.5      5.824     11.170
REMARK SMILES Cc1ccccc1C(=O)Nc1ccc(OCC(=O)OCCOCCOCCOCCOC(=O)c2ccc(-c3c4nc(c(-c5ccc(S(=O)(=O)[O-])cc5)c5ccc([nH]5)c(-c5ccc(S(=O)(=O)[O-])cc5)c5nc(c(-c6ccc(S(=O)(=O)[O-])cc6)c6ccc3[nH]6)C=C5)C=C4)cc2)c(-c2nc3ccccc3s2)c1
REMARK SMILES IDX 24 1 23 2 22 3 21 4 20 5 19 6 17 7 18 8 16 9 15 10 14 11
REMARK SMILES IDX 11 12 12 13 104 14 13 15 94 16 10 17 8 18 9 19 7 21 1 22
REMARK SMILES IDX 2 23 3 24 4 25 6 26 5 27 95 28 96 29 103 30 97 31 102 32
REMARK SMILES IDX 98 33 101 34 99 35 100 36 25 37 26 38 27 39 28 40 29 41
REMARK SMILES IDX 30 42 31 43 32 44 33 45 34 46 35 47 93 48 36 49 92 50 37 51
REMARK SMILES IDX 38 52 39 53 86 54 40 55 91 56 85 57 87 58 41 59 90 60 84 61
REMARK SMILES IDX 83 62 42 64 72 65 53 66 71 67 54 68 57 69 70 70 88 71 55 72
REMARK SMILES IDX 56 73 69 75 89 76 58 77 43 78 44 79 52 80 45 81 51 82 46 83
REMARK SMILES IDX 47 84 48 85 49 86 50 87 73 88 74 89 82 90 75 91 81 92 76 93
REMARK SMILES IDX 77 94 78 95 79 96 80 97 59 98 60 99 68 100 61 101 67 102
REMARK SMILES IDX 62 103 63 104 64 105 65 106 66 107
REMARK H PARENT 10 20 87 63 57 74
REMARK Flexibility Score: inf
ROOT
ATOM      1  C   UNL A   1      50.772  31.038  27.728  1.00  0.00     0.188 C 
ENDROOT
BRANCH   1   2
ATOM      2  C   UNL A   1      49.354  31.573  27.550  1.00  0.00     0.188 C 
BRANCH   2   3
ATOM      3  O   UNL A   1      48.256  30.914  26.940  1.00  0.00    -0.376 OA
BRANCH   3   4
ATOM      4  C   UNL A   1      46.958  31.137  27.430  1.00  0.00     0.202 C 
BRANCH   4   5
ATOM      5  C   UNL A   1      45.856  31.359  26.396  1.00  0.00     0.261 C 
BRANCH   5   6
ATOM      6  O   UNL A   1      45.979  32.633  25.770  1.00  0.00    -0.461 OA
BRANCH   6   7
ATOM      7  C   UNL A   1      44.834  33.197  25.334  1.00  0.00     0.344 C 
ATOM      8  O   UNL A   1      44.362  33.078  24.210  1.00  0.00    -0.248 OA
BRANCH   7   9
ATOM      9  C   UNL A   1      44.156  33.989  26.461  1.00  0.00     0.352 C 
BRANCH   9  10
ATOM     10  O   UNL A   1      44.857  34.536  27.551  1.00  0.00    -0.481 OA
BRANCH  10  11
ATOM     11  C   UNL A   1      44.749  35.672  28.295  1.00  0.00     0.130 A 
ATOM     12  C   UNL A   1      43.461  38.148  29.029  1.00  0.00     0.042 A 
ATOM     13  C   UNL A   1      42.744  36.961  29.012  1.00  0.00     0.030 A 
ATOM     14  C   UNL A   1      44.850  37.994  29.008  1.00  0.00     0.041 A 
ATOM     15  C   UNL A   1      43.380  35.753  28.679  1.00  0.00     0.049 A 
ATOM     16  C   UNL A   1      45.556  36.804  28.546  1.00  0.00     0.055 A 
BRANCH  12  17
ATOM     17  N   UNL A   1      42.730  39.351  29.207  1.00  0.00    -0.322 N 
ATOM     18  C   UNL A   1      42.870  40.745  29.202  1.00  0.00     0.255 C 
ATOM     19  O   UNL A   1      41.888  41.353  29.666  1.00  0.00    -0.269 OA
ATOM     20  H   UNL A   1      41.791  39.127  29.405  1.00  0.00     0.170 HD
BRANCH  18  21
ATOM     21  C   UNL A   1      43.883  41.638  28.508  1.00  0.00     0.043 A 
ATOM     22  C   UNL A   1      43.472  40.893  26.151  1.00  0.00     0.045 C 
ATOM     23  C   UNL A   1      44.116  41.769  27.141  1.00  0.00    -0.038 A 
ATOM     24  C   UNL A   1      44.993  42.756  26.626  1.00  0.00     0.004 A 
ATOM     25  C   UNL A   1      45.769  43.537  27.467  1.00  0.00     0.000 A 
ATOM     26  C   UNL A   1      44.740  42.403  29.345  1.00  0.00     0.014 A 
ATOM     27  C   UNL A   1      45.668  43.337  28.836  1.00  0.00     0.001 A 
ENDBRANCH  18  21
ENDBRANCH  12  17
BRANCH  16  28
ATOM     28  C   UNL A   1      46.951  37.131  28.060  1.00  0.00     0.128 A 
ATOM     29  N   UNL A   1      47.187  37.792  26.930  1.00  0.00    -0.236 NA
ATOM     30  S   UNL A   1      48.428  36.578  28.721  1.00  0.00    -0.114 S 
ATOM     31  C   UNL A   1      48.325  37.273  26.312  1.00  0.00     0.082 A 
ATOM     32  C   UNL A   1      49.088  36.446  27.129  1.00  0.00     0.055 A 
ATOM     33  C   UNL A   1      48.731  37.448  24.969  1.00  0.00     0.030 A 
ATOM     34  C   UNL A   1      50.178  35.710  26.630  1.00  0.00     0.021 A 
ATOM     35  C   UNL A   1      49.786  36.691  24.449  1.00  0.00     0.002 A 
ATOM     36  C   UNL A   1      50.482  35.811  25.267  1.00  0.00     0.002 A 
ENDBRANCH  16  28
ENDBRANCH  10  11
ENDBRANCH   9  10
ENDBRANCH   7   9
ENDBRANCH   6   7
ENDBRANCH   5   6
ENDBRANCH   4   5
ENDBRANCH   3   4
ENDBRANCH   2   3
ENDBRANCH   1   2
BRANCH   1  37
ATOM     37  O   UNL A   1      51.323  30.199  26.741  1.00  0.00    -0.377 OA
BRANCH  37  38
ATOM     38  C   UNL A   1      50.987  28.847  26.816  1.00  0.00     0.188 C 
BRANCH  38  39
ATOM     39  C   UNL A   1      50.654  28.151  25.515  1.00  0.00     0.188 C 
BRANCH  39  40
ATOM     40  O   UNL A   1      49.385  28.371  24.963  1.00  0.00    -0.376 OA
BRANCH  40  41
ATOM     41  C   UNL A   1      48.349  27.493  25.358  1.00  0.00     0.202 C 
BRANCH  41  42
ATOM     42  C   UNL A   1      48.625  26.001  25.629  1.00  0.00     0.261 C 
BRANCH  42  43
ATOM     43  O   UNL A   1      47.912  25.346  26.704  1.00  0.00    -0.460 OA
BRANCH  43  44
ATOM     44  C   UNL A   1      46.566  25.539  26.836  1.00  0.00     0.338 C 
ATOM     45  O   UNL A   1      45.682  25.349  26.016  1.00  0.00    -0.246 OA
BRANCH  44  46
ATOM     46  C   UNL A   1      46.310  25.688  28.300  1.00  0.00     0.060 A 
ATOM     47  C   UNL A   1      45.098  25.315  28.874  1.00  0.00     0.016 A 
ATOM     48  C   UNL A   1      47.115  26.619  28.954  1.00  0.00     0.016 A 
ATOM     49  C   UNL A   1      44.561  26.107  29.903  1.00  0.00     0.010 A 
ATOM     50  C   UNL A   1      46.509  27.505  29.848  1.00  0.00     0.010 A 
ATOM     51  C   UNL A   1      45.154  27.356  30.183  1.00  0.00    -0.014 A 
BRANCH  51  52
ATOM     52  C   UNL A   1      44.271  28.585  30.237  1.00  0.00     0.031 A 
ATOM     53  C   UNL A   1      44.634  29.914  30.870  1.00  0.00     0.074 A 
ATOM     54  C   UNL A   1      43.216  28.592  29.367  1.00  0.00     0.049 A 
ATOM     55  N   UNL A   1      43.787  30.858  31.164  1.00  0.00    -0.248 NA
ATOM     56  C   UNL A   1      45.991  30.321  31.207  1.00  0.00     0.031 C 
ATOM     57  C   UNL A   1      42.438  29.737  28.950  1.00  0.00     0.029 A 
ATOM     58  N   UNL A   1      42.706  27.581  28.547  1.00  0.00    -0.354 N 
ATOM     59  C   UNL A   1      44.460  32.021  31.531  1.00  0.00     0.074 A 
ATOM     60  C   UNL A   1      45.836  31.594  31.592  1.00  0.00     0.031 C 
ATOM     61  C   UNL A   1      41.644  29.440  27.918  1.00  0.00     0.029 A 
ATOM     62  C   UNL A   1      41.586  28.015  27.826  1.00  0.00     0.049 A 
ATOM     63  H   UNL A   1      43.086  26.675  28.485  1.00  0.00     0.167 HD
ATOM     64  C   UNL A   1      43.806  33.229  31.668  1.00  0.00     0.031 A 
ATOM     65  C   UNL A   1      40.390  27.411  28.037  1.00  0.00     0.031 A 
ATOM     66  C   UNL A   1      42.338  33.117  31.402  1.00  0.00     0.049 A 
ATOM     67  C   UNL A   1      39.573  28.136  29.176  1.00  0.00     0.074 A 
ATOM     68  C   UNL A   1      41.367  33.875  30.763  1.00  0.00     0.029 A 
ATOM     69  N   UNL A   1      41.659  31.949  31.774  1.00  0.00    -0.354 N 
ATOM     70  N   UNL A   1      39.802  29.387  29.578  1.00  0.00    -0.248 NA
ATOM     71  C   UNL A   1      38.526  27.554  30.017  1.00  0.00     0.031 C 
ATOM     72  C   UNL A   1      40.199  33.052  30.569  1.00  0.00     0.029 A 
ATOM     73  C   UNL A   1      40.411  31.824  31.181  1.00  0.00     0.049 A 
ATOM     74  H   UNL A   1      42.031  31.282  32.396  1.00  0.00     0.167 HD
ATOM     75  C   UNL A   1      39.218  29.660  30.795  1.00  0.00     0.074 A 
ATOM     76  C   UNL A   1      38.335  28.511  30.956  1.00  0.00     0.031 C 
ATOM     77  C   UNL A   1      39.527  30.727  31.626  1.00  0.00     0.031 A 
BRANCH  64  78
ATOM     78  C   UNL A   1      44.516  34.605  31.919  1.00  0.00    -0.014 A 
ATOM     79  C   UNL A   1      45.904  34.770  31.687  1.00  0.00     0.010 A 
ATOM     80  C   UNL A   1      43.887  35.777  32.400  1.00  0.00     0.010 A 
ATOM     81  C   UNL A   1      46.604  35.978  31.951  1.00  0.00     0.020 A 
ATOM     82  C   UNL A   1      44.560  37.000  32.643  1.00  0.00     0.020 A 
ATOM     83  C   UNL A   1      45.925  37.092  32.431  1.00  0.00     0.054 A 
BRANCH  83  84
ATOM     84  S   UNL A   1      46.821  38.642  32.763  1.00  0.00     0.124 S 
ATOM     85  O   UNL A   1      46.390  39.493  31.656  1.00  0.00    -0.237 OA
ATOM     86  O   UNL A   1      46.325  39.024  34.082  1.00  0.00    -0.237 OA
ATOM     87  O   UNL A   1      48.228  38.245  32.723  1.00  0.00    -0.744 OA
ENDBRANCH  83  84
ENDBRANCH  64  78
BRANCH  65  88
ATOM     88  C   UNL A   1      40.411  26.185  27.128  1.00  0.00    -0.014 A 
ATOM     89  C   UNL A   1      41.536  26.117  26.253  1.00  0.00     0.010 A 
ATOM     90  C   UNL A   1      39.956  24.919  27.601  1.00  0.00     0.010 A 
ATOM     91  C   UNL A   1      42.250  24.914  26.006  1.00  0.00     0.020 A 
ATOM     92  C   UNL A   1      40.672  23.706  27.356  1.00  0.00     0.020 A 
ATOM     93  C   UNL A   1      41.827  23.713  26.571  1.00  0.00     0.054 A 
BRANCH  93  94
ATOM     94  S   UNL A   1      42.884  22.212  26.409  1.00  0.00     0.124 S 
ATOM     95  O   UNL A   1      42.157  21.222  27.193  1.00  0.00    -0.237 OA
ATOM     96  O   UNL A   1      42.906  21.970  24.965  1.00  0.00    -0.237 OA
ATOM     97  O   UNL A   1      44.160  22.636  26.979  1.00  0.00    -0.744 OA
ENDBRANCH  93  94
ENDBRANCH  65  88
BRANCH  77  98
ATOM     98  C   UNL A   1      39.067  30.895  33.086  1.00  0.00    -0.014 A 
ATOM     99  C   UNL A   1      39.650  30.247  34.181  1.00  0.00     0.010 A 
ATOM    100  C   UNL A   1      38.111  31.909  33.401  1.00  0.00     0.010 A 
ATOM    101  C   UNL A   1      39.250  30.537  35.500  1.00  0.00     0.020 A 
ATOM    102  C   UNL A   1      37.752  32.249  34.709  1.00  0.00     0.020 A 
ATOM    103  C   UNL A   1      38.299  31.529  35.755  1.00  0.00     0.054 A 
BRANCH 103 104
ATOM    104  S   UNL A   1      37.812  31.896  37.459  1.00  0.00     0.124 S 
ATOM    105  O   UNL A   1      37.342  30.593  37.921  1.00  0.00    -0.237 OA
ATOM    106  O   UNL A   1      39.059  32.361  38.061  1.00  0.00    -0.237 OA
ATOM    107  O   UNL A   1      36.780  32.919  37.315  1.00  0.00    -0.744 OA
ENDBRANCH 103 104
ENDBRANCH  77  98
ENDBRANCH  51  52
ENDBRANCH  44  46
ENDBRANCH  43  44
ENDBRANCH  42  43
ENDBRANCH  41  42
ENDBRANCH  40  41
ENDBRANCH  39  40
ENDBRANCH  38  39
ENDBRANCH  37  38
ENDBRANCH   1  37
TORSDOF 28
ENDMDL
MODEL 3
REMARK VINA RESULT:      -8.3      6.227     16.455
REMARK SMILES Cc1ccccc1C(=O)Nc1ccc(OCC(=O)OCCOCCOCCOCCOC(=O)c2ccc(-c3c4nc(c(-c5ccc(S(=O)(=O)[O-])cc5)c5ccc([nH]5)c(-c5ccc(S(=O)(=O)[O-])cc5)c5nc(c(-c6ccc(S(=O)(=O)[O-])cc6)c6ccc3[nH]6)C=C5)C=C4)cc2)c(-c2nc3ccccc3s2)c1
REMARK SMILES IDX 24 1 23 2 22 3 21 4 20 5 19 6 17 7 18 8 16 9 15 10 14 11
REMARK SMILES IDX 11 12 12 13 104 14 13 15 94 16 10 17 8 18 9 19 7 21 1 22
REMARK SMILES IDX 2 23 3 24 4 25 6 26 5 27 95 28 96 29 103 30 97 31 102 32
REMARK SMILES IDX 98 33 101 34 99 35 100 36 25 37 26 38 27 39 28 40 29 41
REMARK SMILES IDX 30 42 31 43 32 44 33 45 34 46 35 47 93 48 36 49 92 50 37 51
REMARK SMILES IDX 38 52 39 53 86 54 40 55 91 56 85 57 87 58 41 59 90 60 84 61
REMARK SMILES IDX 83 62 42 64 72 65 53 66 71 67 54 68 57 69 70 70 88 71 55 72
REMARK SMILES IDX 56 73 69 75 89 76 58 77 43 78 44 79 52 80 45 81 51 82 46 83
REMARK SMILES IDX 47 84 48 85 49 86 50 87 73 88 74 89 82 90 75 91 81 92 76 93
REMARK SMILES IDX 77 94 78 95 79 96 80 97 59 98 60 99 68 100 61 101 67 102
REMARK SMILES IDX 62 103 63 104 64 105 65 106 66 107
REMARK H PARENT 10 20 87 63 57 74
REMARK Flexibility Score: inf
ROOT
ATOM      1  C   UNL A   1      38.158  30.724  32.525  1.00  0.00     0.188 C 
ENDROOT
BRANCH   1   2
ATOM      2  C   UNL A   1      36.966  30.022  31.881  1.00  0.00     0.188 C 
BRANCH   2   3
ATOM      3  O   UNL A   1      36.238  30.437  30.737  1.00  0.00    -0.376 OA
BRANCH   3   4
ATOM      4  C   UNL A   1      36.024  31.809  30.515  1.00  0.00     0.202 C 
BRANCH   4   5
ATOM      5  C   UNL A   1      35.159  32.190  29.315  1.00  0.00     0.261 C 
BRANCH   5   6
ATOM      6  O   UNL A   1      34.666  31.036  28.642  1.00  0.00    -0.461 OA
BRANCH   6   7
ATOM      7  C   UNL A   1      33.789  31.257  27.642  1.00  0.00     0.344 C 
ATOM      8  O   UNL A   1      32.930  32.130  27.625  1.00  0.00    -0.248 OA
BRANCH   7   9
ATOM      9  C   UNL A   1      34.034  30.285  26.480  1.00  0.00     0.352 C 
BRANCH   9  10
ATOM     10  O   UNL A   1      33.064  29.986  25.506  1.00  0.00    -0.481 OA
BRANCH  10  11
ATOM     11  C   UNL A   1      32.503  28.843  25.022  1.00  0.00     0.130 A 
ATOM     12  C   UNL A   1      32.464  26.535  23.289  1.00  0.00     0.042 A 
ATOM     13  C   UNL A   1      33.552  26.776  24.115  1.00  0.00     0.030 A 
ATOM     14  C   UNL A   1      31.313  27.261  23.609  1.00  0.00     0.041 A 
ATOM     15  C   UNL A   1      33.557  27.886  24.976  1.00  0.00     0.049 A 
ATOM     16  C   UNL A   1      31.288  28.493  24.391  1.00  0.00     0.055 A 
BRANCH  12  17
ATOM     17  N   UNL A   1      32.589  25.500  22.326  1.00  0.00    -0.322 N 
ATOM     18  C   UNL A   1      33.264  24.299  22.071  1.00  0.00     0.255 C 
ATOM     19  O   UNL A   1      33.148  23.894  20.900  1.00  0.00    -0.269 OA
ATOM     20  H   UNL A   1      31.990  25.696  21.569  1.00  0.00     0.170 HD
BRANCH  18  21
ATOM     21  C   UNL A   1      33.887  23.290  23.018  1.00  0.00     0.043 A 
ATOM     22  C   UNL A   1      31.787  22.150  23.772  1.00  0.00     0.045 C 
ATOM     23  C   UNL A   1      33.251  22.277  23.732  1.00  0.00    -0.038 A 
ATOM     24  C   UNL A   1      33.983  21.310  24.465  1.00  0.00     0.004 A 
ATOM     25  C   UNL A   1      35.355  21.416  24.625  1.00  0.00     0.000 A 
ATOM     26  C   UNL A   1      35.283  23.413  23.255  1.00  0.00     0.014 A 
ATOM     27  C   UNL A   1      36.007  22.494  24.045  1.00  0.00     0.001 A 
ENDBRANCH  18  21
ENDBRANCH  12  17
BRANCH  16  28
ATOM     28  C   UNL A   1      30.085  29.346  24.057  1.00  0.00     0.128 A 
ATOM     29  N   UNL A   1      29.183  28.998  23.143  1.00  0.00    -0.236 NA
ATOM     30  S   UNL A   1      29.762  30.933  24.607  1.00  0.00    -0.114 S 
ATOM     31  C   UNL A   1      28.751  30.133  22.454  1.00  0.00     0.082 A 
ATOM     32  C   UNL A   1      29.105  31.333  23.060  1.00  0.00     0.055 A 
ATOM     33  C   UNL A   1      28.069  30.181  21.217  1.00  0.00     0.030 A 
ATOM     34  C   UNL A   1      28.894  32.572  22.429  1.00  0.00     0.021 A 
ATOM     35  C   UNL A   1      27.891  31.403  20.559  1.00  0.00     0.002 A 
ATOM     36  C   UNL A   1      28.326  32.581  21.150  1.00  0.00     0.002 A 
ENDBRANCH  16  28
ENDBRANCH  10  11
ENDBRANCH   9  10
ENDBRANCH   7   9
ENDBRANCH   6   7
ENDBRANCH   5   6
ENDBRANCH   4   5
ENDBRANCH   3   4
ENDBRANCH   2   3
ENDBRANCH   1   2
BRANCH   1  37
ATOM     37  O   UNL A   1      37.970  31.972  33.147  1.00  0.00    -0.377 OA
BRANCH  37  38
ATOM     38  C   UNL A   1      36.819  32.115  33.922  1.00  0.00     0.188 C 
BRANCH  38  39
ATOM     39  C   UNL A   1      36.291  33.520  34.112  1.00  0.00     0.188 C 
BRANCH  39  40
ATOM     40  O   UNL A   1      36.682  34.213  35.267  1.00  0.00    -0.376 OA
BRANCH  40  41
ATOM     41  C   UNL A   1      37.233  33.450  36.322  1.00  0.00     0.202 C 
BRANCH  41  42
ATOM     42  C   UNL A   1      38.618  33.782  36.911  1.00  0.00     0.261 C 
BRANCH  42  43
ATOM     43  O   UNL A   1      39.797  33.485  36.126  1.00  0.00    -0.460 OA
BRANCH  43  44
ATOM     44  C   UNL A   1      40.418  34.487  35.435  1.00  0.00     0.338 C 
ATOM     45  O   UNL A   1      40.740  35.598  35.825  1.00  0.00    -0.246 OA
BRANCH  44  46
ATOM     46  C   UNL A   1      40.969  33.858  34.198  1.00  0.00     0.060 A 
ATOM     47  C   UNL A   1      42.199  33.203  34.194  1.00  0.00     0.016 A 
ATOM     48  C   UNL A   1      40.456  34.349  33.000  1.00  0.00     0.016 A 
ATOM     49  C   UNL A   1      43.036  33.339  33.074  1.00  0.00     0.010 A 
ATOM     50  C   UNL A   1      41.349  34.632  31.964  1.00  0.00     0.010 A 
ATOM     51  C   UNL A   1      42.705  34.288  32.085  1.00  0.00    -0.014 A 
BRANCH  51  52
ATOM     52  C   UNL A   1      43.758  35.286  31.651  1.00  0.00     0.031 A 
ATOM     53  C   UNL A   1      43.908  36.703  32.170  1.00  0.00     0.074 A 
ATOM     54  C   UNL A   1      44.836  34.758  30.997  1.00  0.00     0.049 A 
ATOM     55  N   UNL A   1      44.618  37.634  31.603  1.00  0.00    -0.248 NA
ATOM     56  C   UNL A   1      43.297  37.198  33.395  1.00  0.00     0.031 C 
ATOM     57  C   UNL A   1      46.121  35.387  30.786  1.00  0.00     0.029 A 
ATOM     58  N   UNL A   1      45.061  33.469  30.504  1.00  0.00    -0.354 N 
ATOM     59  C   UNL A   1      44.720  38.745  32.436  1.00  0.00     0.074 A 
ATOM     60  C   UNL A   1      43.820  38.424  33.516  1.00  0.00     0.031 C 
ATOM     61  C   UNL A   1      47.024  34.516  30.327  1.00  0.00     0.029 A 
ATOM     62  C   UNL A   1      46.307  33.365  29.874  1.00  0.00     0.049 A 
ATOM     63  H   UNL A   1      44.421  32.726  30.590  1.00  0.00     0.167 HD
ATOM     64  C   UNL A   1      45.601  39.776  32.174  1.00  0.00     0.031 A 
ATOM     65  C   UNL A   1      46.355  33.066  28.551  1.00  0.00     0.031 A 
ATOM     66  C   UNL A   1      46.380  39.554  30.915  1.00  0.00     0.049 A 
ATOM     67  C   UNL A   1      46.343  34.372  27.665  1.00  0.00     0.074 A 
ATOM     68  C   UNL A   1      47.686  39.748  30.488  1.00  0.00     0.029 A 
ATOM     69  N   UNL A   1      45.765  38.913  29.830  1.00  0.00    -0.354 N 
ATOM     70  N   UNL A   1      46.669  35.583  28.118  1.00  0.00    -0.248 NA
ATOM     71  C   UNL A   1      45.899  34.491  26.275  1.00  0.00     0.031 C 
ATOM     72  C   UNL A   1      47.878  39.021  29.258  1.00  0.00     0.029 A 
ATOM     73  C   UNL A   1      46.665  38.466  28.873  1.00  0.00     0.049 A 
ATOM     74  H   UNL A   1      44.791  38.792  29.755  1.00  0.00     0.167 HD
ATOM     75  C   UNL A   1      46.242  36.588  27.276  1.00  0.00     0.074 A 
ATOM     76  C   UNL A   1      45.876  35.831  26.085  1.00  0.00     0.031 C 
ATOM     77  C   UNL A   1      46.132  37.931  27.603  1.00  0.00     0.031 A 
BRANCH  64  78
ATOM     78  C   UNL A   1      45.888  40.975  33.143  1.00  0.00    -0.014 A 
ATOM     79  C   UNL A   1      45.152  42.182  33.058  1.00  0.00     0.010 A 
ATOM     80  C   UNL A   1      46.878  40.994  34.153  1.00  0.00     0.010 A 
ATOM     81  C   UNL A   1      45.409  43.316  33.875  1.00  0.00     0.020 A 
ATOM     82  C   UNL A   1      47.133  42.103  34.998  1.00  0.00     0.020 A 
ATOM     83  C   UNL A   1      46.404  43.271  34.844  1.00  0.00     0.054 A 
BRANCH  83  84
ATOM     84  S   UNL A   1      46.730  44.721  35.896  1.00  0.00     0.124 S 
ATOM     85  O   UNL A   1      48.189  44.773  35.911  1.00  0.00    -0.237 OA
ATOM     86  O   UNL A   1      46.068  45.800  35.170  1.00  0.00    -0.237 OA
ATOM     87  O   UNL A   1      46.113  44.368  37.174  1.00  0.00    -0.744 OA
ENDBRANCH  83  84
ENDBRANCH  64  78
BRANCH  65  88
ATOM     88  C   UNL A   1      46.282  31.543  28.498  1.00  0.00    -0.014 A 
ATOM     89  C   UNL A   1      45.914  31.012  27.226  1.00  0.00     0.010 A 
ATOM     90  C   UNL A   1      47.215  30.743  29.221  1.00  0.00     0.010 A 
ATOM     91  C   UNL A   1      46.545  29.878  26.650  1.00  0.00     0.020 A 
ATOM     92  C   UNL A   1      47.854  29.601  28.646  1.00  0.00     0.020 A 
ATOM     93  C   UNL A   1      47.526  29.182  27.354  1.00  0.00     0.054 A 
BRANCH  93  94
ATOM     94  S   UNL A   1      48.476  27.848  26.509  1.00  0.00     0.124 S 
ATOM     95  O   UNL A   1      47.726  26.649  26.862  1.00  0.00    -0.237 OA
ATOM     96  O   UNL A   1      48.411  28.230  25.098  1.00  0.00    -0.237 OA
ATOM     97  O   UNL A   1      49.803  27.947  27.111  1.00  0.00    -0.744 OA
ENDBRANCH  93  94
ENDBRANCH  65  88
BRANCH  77  98
ATOM     98  C   UNL A   1      45.421  39.008  26.761  1.00  0.00    -0.014 A 
ATOM     99  C   UNL A   1      44.078  39.373  26.909  1.00  0.00     0.010 A 
ATOM    100  C   UNL A   1      46.198  39.836  25.894  1.00  0.00     0.010 A 
ATOM    101  C   UNL A   1      43.527  40.446  26.180  1.00  0.00     0.020 A 
ATOM    102  C   UNL A   1      45.677  40.941  25.214  1.00  0.00     0.020 A 
ATOM    103  C   UNL A   1      44.327  41.217  25.333  1.00  0.00     0.054 A 
BRANCH 103 104
ATOM    104  S   UNL A   1      43.601  42.601  24.420  1.00  0.00     0.124 S 
ATOM    105  O   UNL A   1      44.118  43.749  25.159  1.00  0.00    -0.237 OA
ATOM    106  O   UNL A   1      44.144  42.424  23.076  1.00  0.00    -0.237 OA
ATOM    107  O   UNL A   1      42.162  42.379  24.536  1.00  0.00    -0.744 OA
ENDBRANCH 103 104
ENDBRANCH  77  98
ENDBRANCH  51  52
ENDBRANCH  44  46
ENDBRANCH  43  44
ENDBRANCH  42  43
ENDBRANCH  41  42
ENDBRANCH  40  41
ENDBRANCH  39  40
ENDBRANCH  38  39
ENDBRANCH  37  38
ENDBRANCH   1  37
TORSDOF 28
ENDMDL
