MODEL 1
REMARK VINA RESULT:     -10.8      0.000      0.000
REMARK SMILES O=C(OCCOCCOCCOCCOC(=O)c1nnn(-c2cccc(Br)c2)c1[C@@H]1COc2ccccc2O1)c1ccc(-c2c3nc(c(-c4ccc(S(=O)(=O)[O-])cc4)c4ccc([nH]4)c(-c4ccc(S(=O)(=O)[O-])cc4)c4nc(c(-c5ccc(S(=O)(=O)[O-])cc5)c5ccc2[nH]5)C=C4)C=C3)cc1
REMARK SMILES IDX 8 1 7 2 6 3 5 4 4 5 3 6 2 7 1 8 40 9 41 10 99 11 42 12 98 13
REMARK SMILES IDX 43 14 44 15 45 16 92 17 46 18 97 19 91 20 93 21 47 22 96 23
REMARK SMILES IDX 90 24 89 25 48 27 78 28 59 29 77 30 60 31 63 32 76 33 94 34
REMARK SMILES IDX 61 35 62 36 75 38 95 39 64 40 49 41 50 42 58 43 51 44 57 45
REMARK SMILES IDX 52 46 53 47 54 48 55 49 56 50 79 51 80 52 88 53 81 54 87 55
REMARK SMILES IDX 82 56 83 57 84 58 85 59 86 60 65 61 66 62 74 63 67 64 73 65
REMARK SMILES IDX 68 66 69 67 70 68 71 69 72 70 9 71 10 72 11 73 12 74 13 75
REMARK SMILES IDX 14 76 15 77 16 78 17 79 18 80 19 81 29 82 20 83 21 84 30 85
REMARK SMILES IDX 31 86 39 87 32 88 38 89 33 90 37 91 34 92 36 93 35 94 22 95
REMARK SMILES IDX 23 96 28 97 24 98 26 99 25 100 27 101
REMARK H PARENT 93 26 63 37
REMARK Flexibility Score: inf
ROOT
ATOM      1  C   UNL A   1      34.817  32.368  30.906  1.00  0.00     0.188 C 
ENDROOT
BRANCH   1   2
ATOM      2  C   UNL A   1      34.312  33.335  31.969  1.00  0.00     0.188 C 
BRANCH   2   3
ATOM      3  O   UNL A   1      34.772  33.257  33.311  1.00  0.00    -0.376 OA
BRANCH   3   4
ATOM      4  C   UNL A   1      36.097  33.531  33.721  1.00  0.00     0.202 C 
BRANCH   4   5
ATOM      5  C   UNL A   1      37.130  32.388  33.806  1.00  0.00     0.261 C 
BRANCH   5   6
ATOM      6  O   UNL A   1      37.550  31.719  32.606  1.00  0.00    -0.460 OA
BRANCH   6   7
ATOM      7  C   UNL A   1      37.676  30.393  32.385  1.00  0.00     0.338 C 
ATOM      8  O   UNL A   1      36.681  29.674  32.335  1.00  0.00    -0.246 OA
BRANCH   7   9
ATOM      9  C   UNL A   1      38.999  29.744  32.436  1.00  0.00     0.060 A 
ATOM     10  C   UNL A   1      40.203  30.451  32.393  1.00  0.00     0.016 A 
ATOM     11  C   UNL A   1      39.000  28.336  32.545  1.00  0.00     0.016 A 
ATOM     12  C   UNL A   1      41.396  29.784  32.479  1.00  0.00     0.010 A 
ATOM     13  C   UNL A   1      40.196  27.647  32.537  1.00  0.00     0.010 A 
ATOM     14  C   UNL A   1      41.361  28.399  32.404  1.00  0.00    -0.014 A 
BRANCH  14  15
ATOM     15  C   UNL A   1      42.517  27.856  31.730  1.00  0.00     0.031 A 
ATOM     16  C   UNL A   1      43.754  27.806  32.534  1.00  0.00     0.074 A 
ATOM     17  C   UNL A   1      42.344  27.594  30.417  1.00  0.00     0.049 A 
ATOM     18  N   UNL A   1      44.869  28.429  32.331  1.00  0.00    -0.248 NA
ATOM     19  C   UNL A   1      43.686  27.093  33.820  1.00  0.00     0.031 C 
ATOM     20  C   UNL A   1      41.075  27.519  29.668  1.00  0.00     0.029 A 
ATOM     21  N   UNL A   1      43.245  27.215  29.488  1.00  0.00    -0.354 N 
ATOM     22  C   UNL A   1      45.719  28.007  33.349  1.00  0.00     0.074 A 
ATOM     23  C   UNL A   1      44.891  27.348  34.327  1.00  0.00     0.031 C 
ATOM     24  C   UNL A   1      41.269  26.815  28.537  1.00  0.00     0.029 A 
ATOM     25  C   UNL A   1      42.683  26.523  28.425  1.00  0.00     0.049 A 
ATOM     26  H   UNL A   1      44.208  27.411  29.557  1.00  0.00     0.167 HD
ATOM     27  C   UNL A   1      47.069  27.961  33.181  1.00  0.00     0.031 A 
ATOM     28  C   UNL A   1      43.328  25.640  27.624  1.00  0.00     0.031 A 
ATOM     29  C   UNL A   1      47.515  28.833  32.129  1.00  0.00     0.049 A 
ATOM     30  C   UNL A   1      44.782  25.922  27.777  1.00  0.00     0.074 A 
ATOM     31  C   UNL A   1      47.489  30.200  31.939  1.00  0.00     0.029 A 
ATOM     32  N   UNL A   1      47.731  28.279  30.888  1.00  0.00    -0.354 N 
ATOM     33  N   UNL A   1      45.329  27.053  27.413  1.00  0.00    -0.248 NA
ATOM     34  C   UNL A   1      45.521  25.182  28.794  1.00  0.00     0.031 C 
ATOM     35  C   UNL A   1      47.220  30.374  30.551  1.00  0.00     0.029 A 
ATOM     36  C   UNL A   1      47.161  29.111  29.956  1.00  0.00     0.049 A 
ATOM     37  H   UNL A   1      48.208  27.437  30.702  1.00  0.00     0.167 HD
ATOM     38  C   UNL A   1      46.236  27.366  28.420  1.00  0.00     0.074 A 
ATOM     39  C   UNL A   1      46.371  26.133  29.199  1.00  0.00     0.031 C 
ATOM     40  C   UNL A   1      46.560  28.662  28.714  1.00  0.00     0.031 A 
BRANCH  27  41
ATOM     41  C   UNL A   1      47.884  26.796  33.683  1.00  0.00    -0.014 A 
ATOM     42  C   UNL A   1      48.925  27.018  34.603  1.00  0.00     0.010 A 
ATOM     43  C   UNL A   1      47.842  25.530  33.056  1.00  0.00     0.010 A 
ATOM     44  C   UNL A   1      49.908  26.043  34.827  1.00  0.00     0.020 A 
ATOM     45  C   UNL A   1      48.788  24.540  33.302  1.00  0.00     0.020 A 
ATOM     46  C   UNL A   1      49.841  24.817  34.159  1.00  0.00     0.054 A 
BRANCH  46  47
ATOM     47  S   UNL A   1      51.185  23.620  34.338  1.00  0.00     0.124 S 
ATOM     48  O   UNL A   1      50.451  22.378  34.557  1.00  0.00    -0.237 OA
ATOM     49  O   UNL A   1      51.873  23.735  33.055  1.00  0.00    -0.237 OA
ATOM     50  O   UNL A   1      51.935  24.118  35.489  1.00  0.00    -0.744 OA
ENDBRANCH  46  47
ENDBRANCH  27  41
BRANCH  28  51
ATOM     51  C   UNL A   1      42.754  24.331  27.206  1.00  0.00    -0.014 A 
ATOM     52  C   UNL A   1      43.081  23.743  25.975  1.00  0.00     0.010 A 
ATOM     53  C   UNL A   1      42.036  23.540  28.134  1.00  0.00     0.010 A 
ATOM     54  C   UNL A   1      42.731  22.406  25.699  1.00  0.00     0.020 A 
ATOM     55  C   UNL A   1      41.673  22.217  27.864  1.00  0.00     0.020 A 
ATOM     56  C   UNL A   1      42.041  21.648  26.652  1.00  0.00     0.054 A 
BRANCH  56  57
ATOM     57  S   UNL A   1      41.724  19.885  26.348  1.00  0.00     0.124 S 
ATOM     58  O   UNL A   1      42.589  19.605  25.205  1.00  0.00    -0.237 OA
ATOM     59  O   UNL A   1      42.125  19.270  27.610  1.00  0.00    -0.237 OA
ATOM     60  O   UNL A   1      40.291  19.833  26.067  1.00  0.00    -0.744 OA
ENDBRANCH  56  57
ENDBRANCH  28  51
BRANCH  40  61
ATOM     61  C   UNL A   1      46.044  29.756  27.799  1.00  0.00    -0.014 A 
ATOM     62  C   UNL A   1      44.680  30.105  27.709  1.00  0.00     0.010 A 
ATOM     63  C   UNL A   1      46.985  30.584  27.164  1.00  0.00     0.010 A 
ATOM     64  C   UNL A   1      44.270  31.241  26.989  1.00  0.00     0.020 A 
ATOM     65  C   UNL A   1      46.585  31.724  26.459  1.00  0.00     0.020 A 
ATOM     66  C   UNL A   1      45.230  32.046  26.369  1.00  0.00     0.054 A 
BRANCH  66  67
ATOM     67  S   UNL A   1      44.706  33.550  25.497  1.00  0.00     0.124 S 
ATOM     68  O   UNL A   1      44.033  34.310  26.548  1.00  0.00    -0.237 OA
ATOM     69  O   UNL A   1      45.969  34.113  25.027  1.00  0.00    -0.237 OA
ATOM     70  O   UNL A   1      43.828  33.052  24.438  1.00  0.00    -0.744 OA
ENDBRANCH  66  67
ENDBRANCH  40  61
ENDBRANCH  14  15
ENDBRANCH   7   9
ENDBRANCH   6   7
ENDBRANCH   5   6
ENDBRANCH   4   5
ENDBRANCH   3   4
ENDBRANCH   2   3
ENDBRANCH   1   2
BRANCH   1  71
ATOM     71  O   UNL A   1      34.057  32.341  29.707  1.00  0.00    -0.377 OA
BRANCH  71  72
ATOM     72  C   UNL A   1      34.699  32.573  28.454  1.00  0.00     0.188 C 
BRANCH  72  73
ATOM     73  C   UNL A   1      35.400  31.362  27.681  1.00  0.00     0.188 C 
BRANCH  73  74
ATOM     74  O   UNL A   1      34.835  29.993  27.480  1.00  0.00    -0.376 OA
BRANCH  74  75
ATOM     75  C   UNL A   1      33.479  29.330  27.353  1.00  0.00     0.202 C 
BRANCH  75  76
ATOM     76  C   UNL A   1      32.154  29.298  26.022  1.00  0.00     0.261 C 
BRANCH  76  77
ATOM     77  O   UNL A   1      31.069  27.626  25.702  1.00  0.00    -0.458 OA
BRANCH  77  78
ATOM     78  C   UNL A   1      30.457  26.620  24.883  1.00  0.00     0.361 C 
ATOM     79  O   UNL A   1      29.881  26.746  23.807  1.00  0.00    -0.244 OA
BRANCH  78  80
ATOM     80  C   UNL A   1      30.753  25.345  25.424  1.00  0.00     0.198 A 
ATOM     81  N   UNL A   1      30.562  25.067  26.748  1.00  0.00    -0.122 NA
ATOM     82  C   UNL A   1      31.086  24.216  24.707  1.00  0.00     0.123 A 
ATOM     83  N   UNL A   1      30.758  23.774  26.902  1.00  0.00    -0.061 NA
ATOM     84  N   UNL A   1      31.267  23.314  25.740  1.00  0.00    -0.213 N 
BRANCH  82  85
ATOM     85  C   UNL A   1      31.224  23.937  23.209  1.00  0.00     0.262 C 
ATOM     86  C   UNL A   1      31.830  22.584  22.749  1.00  0.00     0.281 C 
ATOM     87  O   UNL A   1      31.855  25.022  22.506  1.00  0.00    -0.477 OA
ATOM     88  O   UNL A   1      33.258  22.342  22.697  1.00  0.00    -0.485 OA
ATOM     89  C   UNL A   1      33.199  25.015  22.857  1.00  0.00     0.162 A 
ATOM     90  C   UNL A   1      34.050  23.463  22.944  1.00  0.00     0.161 A 
ATOM     91  C   UNL A   1      33.489  26.292  23.993  1.00  0.00     0.050 A 
ATOM     92  C   UNL A   1      35.309  23.138  24.184  1.00  0.00     0.050 A 
ATOM     93  C   UNL A   1      34.643  26.006  25.293  1.00  0.00     0.004 A 
ATOM     94  C   UNL A   1      35.626  24.416  25.428  1.00  0.00     0.004 A 
ENDBRANCH  82  85
BRANCH  84  95
ATOM     95  C   UNL A   1      32.104  22.202  25.769  1.00  0.00     0.068 A 
ATOM     96  C   UNL A   1      33.234  22.252  26.589  1.00  0.00     0.028 A 
ATOM     97  C   UNL A   1      31.777  21.073  25.020  1.00  0.00     0.044 A 
ATOM     98  C   UNL A   1      34.128  21.199  26.565  1.00  0.00     0.003 A 
ATOM     99  C   UNL A   1      32.700  20.040  24.982  1.00  0.00     0.020 A 
ATOM    100  C   UNL A   1      33.878  20.107  25.733  1.00  0.00     0.016 A 
ATOM    101  Br  UNL A   1      32.387  18.551  23.863  1.00  0.00    -0.051 Br
ENDBRANCH  84  95
ENDBRANCH  78  80
ENDBRANCH  77  78
ENDBRANCH  76  77
ENDBRANCH  75  76
ENDBRANCH  74  75
ENDBRANCH  73  74
ENDBRANCH  72  73
ENDBRANCH  71  72
ENDBRANCH   1  71
TORSDOF 25
ENDMDL
MODEL 2
REMARK VINA RESULT:     -10.8      4.161      9.872
REMARK SMILES O=C(OCCOCCOCCOCCOC(=O)c1nnn(-c2cccc(Br)c2)c1[C@@H]1COc2ccccc2O1)c1ccc(-c2c3nc(c(-c4ccc(S(=O)(=O)[O-])cc4)c4ccc([nH]4)c(-c4ccc(S(=O)(=O)[O-])cc4)c4nc(c(-c5ccc(S(=O)(=O)[O-])cc5)c5ccc2[nH]5)C=C4)C=C3)cc1
REMARK SMILES IDX 8 1 7 2 6 3 5 4 4 5 3 6 2 7 1 8 40 9 41 10 99 11 42 12 98 13
REMARK SMILES IDX 43 14 44 15 45 16 92 17 46 18 97 19 91 20 93 21 47 22 96 23
REMARK SMILES IDX 90 24 89 25 48 27 78 28 59 29 77 30 60 31 63 32 76 33 94 34
REMARK SMILES IDX 61 35 62 36 75 38 95 39 64 40 49 41 50 42 58 43 51 44 57 45
REMARK SMILES IDX 52 46 53 47 54 48 55 49 56 50 79 51 80 52 88 53 81 54 87 55
REMARK SMILES IDX 82 56 83 57 84 58 85 59 86 60 65 61 66 62 74 63 67 64 73 65
REMARK SMILES IDX 68 66 69 67 70 68 71 69 72 70 9 71 10 72 11 73 12 74 13 75
REMARK SMILES IDX 14 76 15 77 16 78 17 79 18 80 19 81 29 82 20 83 21 84 30 85
REMARK SMILES IDX 31 86 39 87 32 88 38 89 33 90 37 91 34 92 36 93 35 94 22 95
REMARK SMILES IDX 23 96 28 97 24 98 26 99 25 100 27 101
REMARK H PARENT 93 26 63 37
REMARK Flexibility Score: inf
ROOT
ATOM      1  C   UNL A   1      34.138  24.416  25.146  1.00  0.00     0.188 C 
ENDROOT
BRANCH   1   2
ATOM      2  C   UNL A   1      33.586  25.805  24.851  1.00  0.00     0.188 C 
BRANCH   2   3
ATOM      3  O   UNL A   1      33.582  26.822  25.843  1.00  0.00    -0.376 OA
BRANCH   3   4
ATOM      4  C   UNL A   1      33.953  28.166  25.614  1.00  0.00     0.202 C 
BRANCH   4   5
ATOM      5  C   UNL A   1      33.763  29.220  26.725  1.00  0.00     0.261 C 
BRANCH   5   6
ATOM      6  O   UNL A   1      34.741  29.333  27.772  1.00  0.00    -0.460 OA
BRANCH   6   7
ATOM      7  C   UNL A   1      35.347  30.446  28.236  1.00  0.00     0.338 C 
ATOM      8  O   UNL A   1      34.918  31.558  27.938  1.00  0.00    -0.246 OA
BRANCH   7   9
ATOM      9  C   UNL A   1      36.658  30.366  28.905  1.00  0.00     0.060 A 
ATOM     10  C   UNL A   1      37.075  29.257  29.647  1.00  0.00     0.016 A 
ATOM     11  C   UNL A   1      37.508  31.484  28.751  1.00  0.00     0.016 A 
ATOM     12  C   UNL A   1      38.322  29.238  30.214  1.00  0.00     0.010 A 
ATOM     13  C   UNL A   1      38.728  31.513  29.396  1.00  0.00     0.010 A 
ATOM     14  C   UNL A   1      39.052  30.418  30.193  1.00  0.00    -0.014 A 
BRANCH  14  15
ATOM     15  C   UNL A   1      39.868  30.579  31.373  1.00  0.00     0.031 A 
ATOM     16  C   UNL A   1      39.249  31.347  32.472  1.00  0.00     0.074 A 
ATOM     17  C   UNL A   1      41.133  30.122  31.261  1.00  0.00     0.049 A 
ATOM     18  N   UNL A   1      39.630  32.476  32.976  1.00  0.00    -0.248 NA
ATOM     19  C   UNL A   1      37.945  30.876  32.965  1.00  0.00     0.031 C 
ATOM     20  C   UNL A   1      41.688  29.242  30.216  1.00  0.00     0.029 A 
ATOM     21  N   UNL A   1      42.170  30.239  32.115  1.00  0.00    -0.354 N 
ATOM     22  C   UNL A   1      38.733  32.743  34.005  1.00  0.00     0.074 A 
ATOM     23  C   UNL A   1      37.625  31.838  33.828  1.00  0.00     0.031 C 
ATOM     24  C   UNL A   1      42.813  28.662  30.677  1.00  0.00     0.029 A 
ATOM     25  C   UNL A   1      43.119  29.237  31.970  1.00  0.00     0.049 A 
ATOM     26  H   UNL A   1      42.246  30.964  32.777  1.00  0.00     0.167 HD
ATOM     27  C   UNL A   1      39.092  33.473  35.096  1.00  0.00     0.031 A 
ATOM     28  C   UNL A   1      43.976  28.812  32.930  1.00  0.00     0.031 A 
ATOM     29  C   UNL A   1      40.225  34.318  34.835  1.00  0.00     0.049 A 
ATOM     30  C   UNL A   1      44.044  29.903  33.943  1.00  0.00     0.074 A 
ATOM     31  C   UNL A   1      40.452  35.384  33.987  1.00  0.00     0.029 A 
ATOM     32  N   UNL A   1      41.465  33.860  35.214  1.00  0.00    -0.354 N 
ATOM     33  N   UNL A   1      44.518  31.092  33.676  1.00  0.00    -0.248 NA
ATOM     34  C   UNL A   1      43.121  29.848  35.071  1.00  0.00     0.031 C 
ATOM     35  C   UNL A   1      41.791  35.215  33.533  1.00  0.00     0.029 A 
ATOM     36  C   UNL A   1      42.331  34.096  34.174  1.00  0.00     0.049 A 
ATOM     37  H   UNL A   1      41.692  33.439  36.075  1.00  0.00     0.167 HD
ATOM     38  C   UNL A   1      43.662  31.982  34.315  1.00  0.00     0.074 A 
ATOM     39  C   UNL A   1      42.873  31.154  35.229  1.00  0.00     0.031 C 
ATOM     40  C   UNL A   1      43.459  33.248  33.837  1.00  0.00     0.031 A 
BRANCH  27  41
ATOM     41  C   UNL A   1      38.677  33.063  36.487  1.00  0.00    -0.014 A 
ATOM     42  C   UNL A   1      38.368  31.717  36.754  1.00  0.00     0.010 A 
ATOM     43  C   UNL A   1      38.306  34.012  37.466  1.00  0.00     0.010 A 
ATOM     44  C   UNL A   1      37.662  31.356  37.912  1.00  0.00     0.020 A 
ATOM     45  C   UNL A   1      37.642  33.660  38.638  1.00  0.00     0.020 A 
ATOM     46  C   UNL A   1      37.288  32.336  38.835  1.00  0.00     0.054 A 
BRANCH  46  47
ATOM     47  S   UNL A   1      36.255  31.890  40.251  1.00  0.00     0.124 S 
ATOM     48  O   UNL A   1      36.873  30.643  40.690  1.00  0.00    -0.237 OA
ATOM     49  O   UNL A   1      36.436  33.036  41.138  1.00  0.00    -0.237 OA
ATOM     50  O   UNL A   1      34.920  31.759  39.672  1.00  0.00    -0.744 OA
ENDBRANCH  46  47
ENDBRANCH  27  41
BRANCH  28  51
ATOM     51  C   UNL A   1      44.266  27.377  33.204  1.00  0.00    -0.014 A 
ATOM     52  C   UNL A   1      45.528  26.819  32.952  1.00  0.00     0.010 A 
ATOM     53  C   UNL A   1      43.341  26.591  33.933  1.00  0.00     0.010 A 
ATOM     54  C   UNL A   1      45.861  25.539  33.438  1.00  0.00     0.020 A 
ATOM     55  C   UNL A   1      43.658  25.315  34.408  1.00  0.00     0.020 A 
ATOM     56  C   UNL A   1      44.927  24.802  34.175  1.00  0.00     0.054 A 
BRANCH  56  57
ATOM     57  S   UNL A   1      45.413  23.219  34.923  1.00  0.00     0.124 S 
ATOM     58  O   UNL A   1      45.292  22.293  33.801  1.00  0.00    -0.237 OA
ATOM     59  O   UNL A   1      46.775  23.488  35.376  1.00  0.00    -0.237 OA
ATOM     60  O   UNL A   1      44.436  23.026  35.993  1.00  0.00    -0.744 OA
ENDBRANCH  56  57
ENDBRANCH  28  51
BRANCH  40  61
ATOM     61  C   UNL A   1      44.324  33.728  32.687  1.00  0.00    -0.014 A 
ATOM     62  C   UNL A   1      45.597  34.309  32.870  1.00  0.00     0.010 A 
ATOM     63  C   UNL A   1      43.925  33.401  31.380  1.00  0.00     0.010 A 
ATOM     64  C   UNL A   1      46.437  34.570  31.774  1.00  0.00     0.020 A 
ATOM     65  C   UNL A   1      44.762  33.644  30.286  1.00  0.00     0.020 A 
ATOM     66  C   UNL A   1      46.012  34.233  30.486  1.00  0.00     0.054 A 
BRANCH  66  67
ATOM     67  S   UNL A   1      47.126  34.507  29.078  1.00  0.00     0.124 S 
ATOM     68  O   UNL A   1      47.419  35.934  29.177  1.00  0.00    -0.237 OA
ATOM     69  O   UNL A   1      48.245  33.614  29.367  1.00  0.00    -0.237 OA
ATOM     70  O   UNL A   1      46.322  34.121  27.918  1.00  0.00    -0.744 OA
ENDBRANCH  66  67
ENDBRANCH  40  61
ENDBRANCH  14  15
ENDBRANCH   7   9
ENDBRANCH   6   7
ENDBRANCH   5   6
ENDBRANCH   4   5
ENDBRANCH   3   4
ENDBRANCH   2   3
ENDBRANCH   1   2
BRANCH   1  71
ATOM     71  O   UNL A   1      35.542  24.356  25.346  1.00  0.00    -0.377 OA
BRANCH  71  72
ATOM     72  C   UNL A   1      36.223  23.108  25.224  1.00  0.00     0.188 C 
BRANCH  72  73
ATOM     73  C   UNL A   1      37.698  22.943  25.819  1.00  0.00     0.188 C 
BRANCH  73  74
ATOM     74  O   UNL A   1      38.557  24.032  26.374  1.00  0.00    -0.376 OA
BRANCH  74  75
ATOM     75  C   UNL A   1      39.103  24.478  27.715  1.00  0.00     0.202 C 
BRANCH  75  76
ATOM     76  C   UNL A   1      39.680  26.122  28.414  1.00  0.00     0.261 C 
BRANCH  76  77
ATOM     77  O   UNL A   1      41.381  26.976  27.743  1.00  0.00    -0.458 OA
BRANCH  77  78
ATOM     78  C   UNL A   1      42.679  26.965  27.131  1.00  0.00     0.361 C 
ATOM     79  O   UNL A   1      43.593  27.777  27.244  1.00  0.00    -0.244 OA
BRANCH  78  80
ATOM     80  C   UNL A   1      42.856  25.735  26.452  1.00  0.00     0.198 A 
ATOM     81  N   UNL A   1      42.894  25.671  25.087  1.00  0.00    -0.122 NA
ATOM     82  C   UNL A   1      43.175  24.526  27.030  1.00  0.00     0.123 A 
ATOM     83  N   UNL A   1      43.240  24.440  24.769  1.00  0.00    -0.061 NA
ATOM     84  N   UNL A   1      43.202  23.717  25.909  1.00  0.00    -0.213 N 
BRANCH  82  85
ATOM     85  C   UNL A   1      43.453  24.104  28.474  1.00  0.00     0.262 C 
ATOM     86  C   UNL A   1      43.510  25.194  29.578  1.00  0.00     0.281 C 
ATOM     87  O   UNL A   1      44.597  23.238  28.581  1.00  0.00    -0.477 OA
ATOM     88  O   UNL A   1      44.688  26.001  29.824  1.00  0.00    -0.485 OA
ATOM     89  C   UNL A   1      45.726  24.016  28.355  1.00  0.00     0.162 A 
ATOM     90  C   UNL A   1      45.817  25.622  29.098  1.00  0.00     0.161 A 
ATOM     91  C   UNL A   1      46.312  23.704  26.753  1.00  0.00     0.050 A 
ATOM     92  C   UNL A   1      46.575  27.017  28.255  1.00  0.00     0.050 A 
ATOM     93  C   UNL A   1      46.981  25.049  25.834  1.00  0.00     0.004 A 
ATOM     94  C   UNL A   1      47.166  26.767  26.561  1.00  0.00     0.004 A 
ENDBRANCH  82  85
BRANCH  84  95
ATOM     95  C   UNL A   1      42.928  22.355  25.829  1.00  0.00     0.068 A 
ATOM     96  C   UNL A   1      41.634  21.927  26.141  1.00  0.00     0.028 A 
ATOM     97  C   UNL A   1      43.922  21.474  25.410  1.00  0.00     0.044 A 
ATOM     98  C   UNL A   1      41.362  20.572  26.159  1.00  0.00     0.003 A 
ATOM     99  C   UNL A   1      43.642  20.117  25.463  1.00  0.00     0.020 A 
ATOM    100  C   UNL A   1      42.378  19.665  25.853  1.00  0.00     0.016 A 
ATOM    101  Br  UNL A   1      45.000  18.869  25.057  1.00  0.00    -0.051 Br
ENDBRANCH  84  95
ENDBRANCH  78  80
ENDBRANCH  77  78
ENDBRANCH  76  77
ENDBRANCH  75  76
ENDBRANCH  74  75
ENDBRANCH  73  74
ENDBRANCH  72  73
ENDBRANCH  71  72
ENDBRANCH   1  71
TORSDOF 25
ENDMDL
MODEL 3
REMARK VINA RESULT:     -10.8      6.065     11.465
REMARK SMILES O=C(OCCOCCOCCOCCOC(=O)c1nnn(-c2cccc(Br)c2)c1[C@@H]1COc2ccccc2O1)c1ccc(-c2c3nc(c(-c4ccc(S(=O)(=O)[O-])cc4)c4ccc([nH]4)c(-c4ccc(S(=O)(=O)[O-])cc4)c4nc(c(-c5ccc(S(=O)(=O)[O-])cc5)c5ccc2[nH]5)C=C4)C=C3)cc1
REMARK SMILES IDX 8 1 7 2 6 3 5 4 4 5 3 6 2 7 1 8 40 9 41 10 99 11 42 12 98 13
REMARK SMILES IDX 43 14 44 15 45 16 92 17 46 18 97 19 91 20 93 21 47 22 96 23
REMARK SMILES IDX 90 24 89 25 48 27 78 28 59 29 77 30 60 31 63 32 76 33 94 34
REMARK SMILES IDX 61 35 62 36 75 38 95 39 64 40 49 41 50 42 58 43 51 44 57 45
REMARK SMILES IDX 52 46 53 47 54 48 55 49 56 50 79 51 80 52 88 53 81 54 87 55
REMARK SMILES IDX 82 56 83 57 84 58 85 59 86 60 65 61 66 62 74 63 67 64 73 65
REMARK SMILES IDX 68 66 69 67 70 68 71 69 72 70 9 71 10 72 11 73 12 74 13 75
REMARK SMILES IDX 14 76 15 77 16 78 17 79 18 80 19 81 29 82 20 83 21 84 30 85
REMARK SMILES IDX 31 86 39 87 32 88 38 89 33 90 37 91 34 92 36 93 35 94 22 95
REMARK SMILES IDX 23 96 28 97 24 98 26 99 25 100 27 101
REMARK H PARENT 93 26 63 37
REMARK Flexibility Score: inf
ROOT
ATOM      1  C   UNL A   1      44.335  25.369  30.106  1.00  0.00     0.188 C 
ENDROOT
BRANCH   1   2
ATOM      2  C   UNL A   1      45.143  26.181  31.110  1.00  0.00     0.188 C 
BRANCH   2   3
ATOM      3  O   UNL A   1      45.225  25.793  32.474  1.00  0.00    -0.376 OA
BRANCH   3   4
ATOM      4  C   UNL A   1      44.622  24.635  33.015  1.00  0.00     0.202 C 
BRANCH   4   5
ATOM      5  C   UNL A   1      43.914  24.702  34.384  1.00  0.00     0.261 C 
BRANCH   5   6
ATOM      6  O   UNL A   1      43.559  25.979  34.940  1.00  0.00    -0.460 OA
BRANCH   6   7
ATOM      7  C   UNL A   1      44.294  26.777  35.744  1.00  0.00     0.338 C 
ATOM      8  O   UNL A   1      44.957  26.295  36.660  1.00  0.00    -0.246 OA
BRANCH   7   9
ATOM      9  C   UNL A   1      44.137  28.241  35.698  1.00  0.00     0.060 A 
ATOM     10  C   UNL A   1      44.147  29.051  36.838  1.00  0.00     0.016 A 
ATOM     11  C   UNL A   1      43.985  28.814  34.416  1.00  0.00     0.016 A 
ATOM     12  C   UNL A   1      44.030  30.410  36.718  1.00  0.00     0.010 A 
ATOM     13  C   UNL A   1      43.773  30.172  34.291  1.00  0.00     0.010 A 
ATOM     14  C   UNL A   1      43.704  30.915  35.467  1.00  0.00    -0.014 A 
BRANCH  14  15
ATOM     15  C   UNL A   1      42.867  32.089  35.551  1.00  0.00     0.031 A 
ATOM     16  C   UNL A   1      43.586  33.373  35.669  1.00  0.00     0.074 A 
ATOM     17  C   UNL A   1      41.543  31.843  35.644  1.00  0.00     0.049 A 
ATOM     18  N   UNL A   1      43.567  34.215  36.650  1.00  0.00    -0.248 NA
ATOM     19  C   UNL A   1      44.581  33.680  34.629  1.00  0.00     0.031 C 
ATOM     20  C   UNL A   1      40.838  30.574  35.387  1.00  0.00     0.029 A 
ATOM     21  N   UNL A   1      40.522  32.695  35.867  1.00  0.00    -0.354 N 
ATOM     22  C   UNL A   1      44.380  35.271  36.247  1.00  0.00     0.074 A 
ATOM     23  C   UNL A   1      45.116  34.805  35.099  1.00  0.00     0.031 C 
ATOM     24  C   UNL A   1      39.538  30.830  35.148  1.00  0.00     0.029 A 
ATOM     25  C   UNL A   1      39.307  32.242  35.375  1.00  0.00     0.049 A 
ATOM     26  H   UNL A   1      40.629  33.557  36.334  1.00  0.00     0.167 HD
ATOM     27  C   UNL A   1      44.176  36.541  36.691  1.00  0.00     0.031 A 
ATOM     28  C   UNL A   1      38.254  33.019  35.025  1.00  0.00     0.031 A 
ATOM     29  C   UNL A   1      43.445  36.572  37.929  1.00  0.00     0.049 A 
ATOM     30  C   UNL A   1      38.456  34.329  35.704  1.00  0.00     0.074 A 
ATOM     31  C   UNL A   1      43.700  36.115  39.206  1.00  0.00     0.029 A 
ATOM     32  N   UNL A   1      42.088  36.792  37.864  1.00  0.00    -0.354 N 
ATOM     33  N   UNL A   1      38.457  34.462  37.005  1.00  0.00    -0.248 NA
ATOM     34  C   UNL A   1      39.169  35.374  34.979  1.00  0.00     0.031 C 
ATOM     35  C   UNL A   1      42.445  35.638  39.683  1.00  0.00     0.029 A 
ATOM     36  C   UNL A   1      41.481  35.888  38.702  1.00  0.00     0.049 A 
ATOM     37  H   UNL A   1      41.634  37.472  37.316  1.00  0.00     0.167 HD
ATOM     38  C   UNL A   1      39.492  35.349  37.284  1.00  0.00     0.074 A 
ATOM     39  C   UNL A   1      39.835  35.943  35.990  1.00  0.00     0.031 C 
ATOM     40  C   UNL A   1      40.174  35.303  38.468  1.00  0.00     0.031 A 
BRANCH  27  41
ATOM     41  C   UNL A   1      44.264  37.724  35.759  1.00  0.00    -0.014 A 
ATOM     42  C   UNL A   1      44.882  38.910  36.195  1.00  0.00     0.010 A 
ATOM     43  C   UNL A   1      43.502  37.797  34.571  1.00  0.00     0.010 A 
ATOM     44  C   UNL A   1      44.686  40.118  35.509  1.00  0.00     0.020 A 
ATOM     45  C   UNL A   1      43.335  38.981  33.859  1.00  0.00     0.020 A 
ATOM     46  C   UNL A   1      43.897  40.146  34.355  1.00  0.00     0.054 A 
BRANCH  46  47
ATOM     47  S   UNL A   1      43.528  41.725  33.556  1.00  0.00     0.124 S 
ATOM     48  O   UNL A   1      44.101  42.678  34.500  1.00  0.00    -0.237 OA
ATOM     49  O   UNL A   1      44.226  41.595  32.280  1.00  0.00    -0.237 OA
ATOM     50  O   UNL A   1      42.069  41.731  33.466  1.00  0.00    -0.744 OA
ENDBRANCH  46  47
ENDBRANCH  27  41
BRANCH  28  51
ATOM     51  C   UNL A   1      37.454  32.817  33.784  1.00  0.00    -0.014 A 
ATOM     52  C   UNL A   1      36.052  32.803  33.806  1.00  0.00     0.010 A 
ATOM     53  C   UNL A   1      38.085  32.856  32.517  1.00  0.00     0.010 A 
ATOM     54  C   UNL A   1      35.312  32.858  32.607  1.00  0.00     0.020 A 
ATOM     55  C   UNL A   1      37.359  32.898  31.323  1.00  0.00     0.020 A 
ATOM     56  C   UNL A   1      35.971  32.919  31.375  1.00  0.00     0.054 A 
BRANCH  56  57
ATOM     57  S   UNL A   1      35.013  33.139  29.847  1.00  0.00     0.124 S 
ATOM     58  O   UNL A   1      33.846  33.881  30.314  1.00  0.00    -0.237 OA
ATOM     59  O   UNL A   1      35.939  33.885  28.998  1.00  0.00    -0.237 OA
ATOM     60  O   UNL A   1      34.742  31.772  29.407  1.00  0.00    -0.744 OA
ENDBRANCH  56  57
ENDBRANCH  28  51
BRANCH  40  61
ATOM     61  C   UNL A   1      39.665  34.374  39.554  1.00  0.00    -0.014 A 
ATOM     62  C   UNL A   1      38.641  34.731  40.457  1.00  0.00     0.010 A 
ATOM     63  C   UNL A   1      40.094  33.036  39.532  1.00  0.00     0.010 A 
ATOM     64  C   UNL A   1      38.077  33.779  41.324  1.00  0.00     0.020 A 
ATOM     65  C   UNL A   1      39.526  32.080  40.382  1.00  0.00     0.020 A 
ATOM     66  C   UNL A   1      38.524  32.456  41.278  1.00  0.00     0.054 A 
BRANCH  66  67
ATOM     67  S   UNL A   1      37.747  31.214  42.350  1.00  0.00     0.124 S 
ATOM     68  O   UNL A   1      38.429  29.983  41.959  1.00  0.00    -0.237 OA
ATOM     69  O   UNL A   1      38.054  31.702  43.693  1.00  0.00    -0.237 OA
ATOM     70  O   UNL A   1      36.331  31.277  41.987  1.00  0.00    -0.744 OA
ENDBRANCH  66  67
ENDBRANCH  40  61
ENDBRANCH  14  15
ENDBRANCH   7   9
ENDBRANCH   6   7
ENDBRANCH   5   6
ENDBRANCH   4   5
ENDBRANCH   3   4
ENDBRANCH   2   3
ENDBRANCH   1   2
BRANCH   1  71
ATOM     71  O   UNL A   1      45.000  24.231  29.577  1.00  0.00    -0.377 OA
BRANCH  71  72
ATOM     72  C   UNL A   1      44.266  23.265  28.827  1.00  0.00     0.188 C 
BRANCH  72  73
ATOM     73  C   UNL A   1      42.667  23.285  28.848  1.00  0.00     0.188 C 
BRANCH  73  74
ATOM     74  O   UNL A   1      41.765  23.291  27.656  1.00  0.00    -0.376 OA
BRANCH  74  75
ATOM     75  C   UNL A   1      40.306  23.044  27.334  1.00  0.00     0.202 C 
BRANCH  75  76
ATOM     76  C   UNL A   1      38.859  24.149  26.874  1.00  0.00     0.261 C 
BRANCH  76  77
ATOM     77  O   UNL A   1      37.189  23.360  26.063  1.00  0.00    -0.458 OA
BRANCH  77  78
ATOM     78  C   UNL A   1      36.466  22.439  25.234  1.00  0.00     0.361 C 
ATOM     79  O   UNL A   1      36.450  21.212  25.273  1.00  0.00    -0.244 OA
BRANCH  78  80
ATOM     80  C   UNL A   1      35.582  23.167  24.400  1.00  0.00     0.198 A 
ATOM     81  N   UNL A   1      35.747  23.206  23.044  1.00  0.00    -0.122 NA
ATOM     82  C   UNL A   1      34.400  23.759  24.790  1.00  0.00     0.123 A 
ATOM     83  N   UNL A   1      34.685  23.806  22.545  1.00  0.00    -0.061 NA
ATOM     84  N   UNL A   1      33.996  24.312  23.589  1.00  0.00    -0.213 N 
BRANCH  82  85
ATOM     85  C   UNL A   1      33.660  23.824  26.126  1.00  0.00     0.262 C 
ATOM     86  C   UNL A   1      34.154  22.940  27.304  1.00  0.00     0.281 C 
ATOM     87  O   UNL A   1      32.236  23.684  25.972  1.00  0.00    -0.477 OA
ATOM     88  O   UNL A   1      33.803  21.541  27.434  1.00  0.00    -0.485 OA
ATOM     89  C   UNL A   1      31.985  22.358  25.644  1.00  0.00     0.162 A 
ATOM     90  C   UNL A   1      32.865  21.084  26.508  1.00  0.00     0.161 A 
ATOM     91  C   UNL A   1      31.639  22.253  23.949  1.00  0.00     0.050 A 
ATOM     92  C   UNL A   1      33.405  19.578  25.688  1.00  0.00     0.050 A 
ATOM     93  C   UNL A   1      32.223  20.847  23.063  1.00  0.00     0.004 A 
ATOM     94  C   UNL A   1      33.114  19.430  23.907  1.00  0.00     0.004 A 
ENDBRANCH  82  85
BRANCH  84  95
ATOM     95  C   UNL A   1      33.219  25.450  23.389  1.00  0.00     0.068 A 
ATOM     96  C   UNL A   1      32.261  25.421  22.372  1.00  0.00     0.028 A 
ATOM     97  C   UNL A   1      33.388  26.556  24.220  1.00  0.00     0.044 A 
ATOM     98  C   UNL A   1      31.542  26.568  22.093  1.00  0.00     0.003 A 
ATOM     99  C   UNL A   1      32.683  27.708  23.908  1.00  0.00     0.020 A 
ATOM    100  C   UNL A   1      31.780  27.723  22.840  1.00  0.00     0.016 A 
ATOM    101  Br  UNL A   1      32.987  29.285  24.901  1.00  0.00    -0.051 Br
ENDBRANCH  84  95
ENDBRANCH  78  80
ENDBRANCH  77  78
ENDBRANCH  76  77
ENDBRANCH  75  76
ENDBRANCH  74  75
ENDBRANCH  73  74
ENDBRANCH  72  73
ENDBRANCH  71  72
ENDBRANCH   1  71
TORSDOF 25
ENDMDL
