MODEL 1
REMARK VINA RESULT:      -9.1      0.000      0.000
REMARK SMILES CC[C@](C)(NC(=O)N1CC[C@@H]([NH+]2CCCCC2)C1)C(=O)OCCOCCOCCOCCOC(=O)c1ccc(-c2c3nc(c(-c4ccc(S(=O)(=O)[O-])cc4)c4ccc([nH]4)c(-c4ccc(S(=O)(=O)[O-])cc4)c4nc(c(-c5ccc(S(=O)(=O)[O-])cc5)c5ccc2[nH]5)C=C4)C=C3)cc1
REMARK SMILES IDX 27 1 26 2 25 3 24 4 23 5 22 6 21 7 19 8 20 9 3 10 4 11 2 12
REMARK SMILES IDX 1 13 5 14 6 15 7 17 8 18 9 19 18 20 10 21 11 22 12 23 13 24
REMARK SMILES IDX 17 25 14 27 16 28 15 29 28 30 29 31 30 32 31 33 32 34 33 35
REMARK SMILES IDX 34 36 35 37 36 38 37 39 95 40 38 41 94 42 39 43 40 44 41 45
REMARK SMILES IDX 88 46 42 47 93 48 87 49 89 50 43 51 92 52 86 53 85 54 44 56
REMARK SMILES IDX 74 57 55 58 73 59 56 60 59 61 72 62 90 63 57 64 58 65 71 67
REMARK SMILES IDX 91 68 60 69 45 70 46 71 54 72 47 73 53 74 48 75 49 76 50 77
REMARK SMILES IDX 51 78 52 79 75 80 76 81 84 82 77 83 83 84 78 85 79 86 80 87
REMARK SMILES IDX 81 88 82 89 61 90 62 91 70 92 63 93 69 94 64 95 65 96 66 97
REMARK SMILES IDX 67 98 68 99
REMARK H PARENT 5 16 12 26 89 55 59 66
REMARK Flexibility Score: inf
ROOT
ATOM      1  O   UNL A   1      35.776  31.510  27.924  1.00  0.00    -0.377 OA
ENDROOT
BRANCH   1   2
ATOM      2  C   UNL A   1      34.588  30.991  27.339  1.00  0.00     0.188 C 
BRANCH   2   3
ATOM      3  C   UNL A   1      34.341  29.546  27.805  1.00  0.00     0.188 C 
BRANCH   3   4
ATOM      4  O   UNL A   1      33.480  28.813  26.920  1.00  0.00    -0.376 OA
BRANCH   4   5
ATOM      5  C   UNL A   1      32.347  28.232  27.576  1.00  0.00     0.202 C 
BRANCH   5   6
ATOM      6  C   UNL A   1      31.436  27.320  26.727  1.00  0.00     0.261 C 
BRANCH   6   7
ATOM      7  O   UNL A   1      32.056  26.090  26.330  1.00  0.00    -0.462 OA
BRANCH   7   8
ATOM      8  C   UNL A   1      31.491  25.399  25.324  1.00  0.00     0.331 C 
ATOM      9  O   UNL A   1      30.272  25.254  25.232  1.00  0.00    -0.249 OA
BRANCH   8  10
ATOM     10  C   UNL A   1      32.514  24.751  24.323  1.00  0.00     0.136 C 
ATOM     11  C   UNL A   1      32.174  23.236  24.399  1.00  0.00     0.047 C 
BRANCH  10  12
ATOM     12  C   UNL A   1      33.982  24.951  24.804  1.00  0.00     0.037 C 
ATOM     13  C   UNL A   1      35.046  24.088  24.144  1.00  0.00     0.007 C 
ENDBRANCH  10  12
BRANCH  10  14
ATOM     14  N   UNL A   1      32.474  25.069  22.859  1.00  0.00    -0.322 N 
ATOM     15  C   UNL A   1      32.623  26.267  22.226  1.00  0.00     0.318 C 
ATOM     16  H   UNL A   1      32.318  24.298  22.268  1.00  0.00     0.166 HD
ATOM     17  O   UNL A   1      33.266  26.325  21.182  1.00  0.00    -0.249 OA
BRANCH  15  18
ATOM     18  N   UNL A   1      32.002  27.325  22.794  1.00  0.00    -0.319 N 
ATOM     19  C   UNL A   1      32.592  28.617  23.011  1.00  0.00     0.128 C 
ATOM     20  C   UNL A   1      30.605  27.529  22.486  1.00  0.00     0.186 C 
ATOM     21  C   UNL A   1      31.493  29.273  23.832  1.00  0.00     0.088 C 
ATOM     22  C   UNL A   1      30.179  28.851  23.132  1.00  0.00     0.205 C 
BRANCH  22  23
ATOM     23  N   UNL A   1      29.497  29.664  22.108  1.00  0.00    -0.331 N 
ATOM     24  C   UNL A   1      29.623  31.108  22.214  1.00  0.00     0.262 C 
ATOM     25  C   UNL A   1      28.086  29.325  21.932  1.00  0.00     0.262 C 
ATOM     26  H   UNL A   1      30.028  29.396  21.281  1.00  0.00     0.348 HD
ATOM     27  C   UNL A   1      28.835  31.733  23.361  1.00  0.00     0.062 C 
ATOM     28  C   UNL A   1      27.297  29.620  23.196  1.00  0.00     0.062 C 
ATOM     29  C   UNL A   1      27.528  31.029  23.747  1.00  0.00     0.012 C 
ENDBRANCH  22  23
ENDBRANCH  15  18
ENDBRANCH  10  14
ENDBRANCH   8  10
ENDBRANCH   7   8
ENDBRANCH   6   7
ENDBRANCH   5   6
ENDBRANCH   4   5
ENDBRANCH   3   4
ENDBRANCH   2   3
ENDBRANCH   1   2
BRANCH   1  30
ATOM     30  C   UNL A   1      35.822  32.916  28.172  1.00  0.00     0.188 C 
BRANCH  30  31
ATOM     31  C   UNL A   1      34.563  33.474  28.855  1.00  0.00     0.188 C 
BRANCH  31  32
ATOM     32  O   UNL A   1      34.562  33.483  30.291  1.00  0.00    -0.376 OA
BRANCH  32  33
ATOM     33  C   UNL A   1      34.855  32.260  30.957  1.00  0.00     0.202 C 
BRANCH  33  34
ATOM     34  C   UNL A   1      35.617  32.333  32.292  1.00  0.00     0.261 C 
BRANCH  34  35
ATOM     35  O   UNL A   1      36.755  31.460  32.398  1.00  0.00    -0.460 OA
BRANCH  35  36
ATOM     36  C   UNL A   1      37.944  32.083  32.221  1.00  0.00     0.338 C 
ATOM     37  O   UNL A   1      38.255  33.190  32.660  1.00  0.00    -0.246 OA
BRANCH  36  38
ATOM     38  C   UNL A   1      38.907  31.221  31.503  1.00  0.00     0.060 A 
ATOM     39  C   UNL A   1      39.829  30.497  32.270  1.00  0.00     0.016 A 
ATOM     40  C   UNL A   1      38.996  31.204  30.107  1.00  0.00     0.016 A 
ATOM     41  C   UNL A   1      40.886  29.825  31.655  1.00  0.00     0.010 A 
ATOM     42  C   UNL A   1      40.065  30.536  29.489  1.00  0.00     0.010 A 
ATOM     43  C   UNL A   1      41.048  29.892  30.263  1.00  0.00    -0.014 A 
BRANCH  43  44
ATOM     44  C   UNL A   1      42.367  29.519  29.680  1.00  0.00     0.031 A 
ATOM     45  C   UNL A   1      42.513  28.146  29.080  1.00  0.00     0.074 A 
ATOM     46  C   UNL A   1      43.393  30.386  29.603  1.00  0.00     0.049 A 
ATOM     47  N   UNL A   1      43.542  27.613  28.475  1.00  0.00    -0.248 NA
ATOM     48  C   UNL A   1      41.346  27.254  29.183  1.00  0.00     0.031 C 
ATOM     49  C   UNL A   1      43.388  31.738  30.145  1.00  0.00     0.029 A 
ATOM     50  N   UNL A   1      44.636  30.263  29.028  1.00  0.00    -0.354 N 
ATOM     51  C   UNL A   1      43.150  26.326  28.128  1.00  0.00     0.074 A 
ATOM     52  C   UNL A   1      41.800  26.148  28.615  1.00  0.00     0.031 C 
ATOM     53  C   UNL A   1      44.553  32.338  29.846  1.00  0.00     0.029 A 
ATOM     54  C   UNL A   1      45.411  31.397  29.134  1.00  0.00     0.049 A 
ATOM     55  H   UNL A   1      44.944  29.442  28.583  1.00  0.00     0.167 HD
ATOM     56  C   UNL A   1      43.845  25.379  27.457  1.00  0.00     0.031 A 
ATOM     57  C   UNL A   1      46.674  31.643  28.727  1.00  0.00     0.031 A 
ATOM     58  C   UNL A   1      45.196  25.540  26.993  1.00  0.00     0.049 A 
ATOM     59  C   UNL A   1      47.447  30.549  28.033  1.00  0.00     0.074 A 
ATOM     60  C   UNL A   1      45.988  24.626  26.319  1.00  0.00     0.029 A 
ATOM     61  N   UNL A   1      45.959  26.687  27.153  1.00  0.00    -0.354 N 
ATOM     62  N   UNL A   1      47.052  29.343  27.703  1.00  0.00    -0.248 NA
ATOM     63  C   UNL A   1      48.838  30.848  27.666  1.00  0.00     0.031 C 
ATOM     64  C   UNL A   1      47.247  25.200  26.120  1.00  0.00     0.029 A 
ATOM     65  C   UNL A   1      47.219  26.496  26.609  1.00  0.00     0.049 A 
ATOM     66  H   UNL A   1      45.651  27.514  27.590  1.00  0.00     0.167 HD
ATOM     67  C   UNL A   1      48.143  28.745  27.078  1.00  0.00     0.074 A 
ATOM     68  C   UNL A   1      49.199  29.735  27.044  1.00  0.00     0.031 C 
ATOM     69  C   UNL A   1      48.264  27.487  26.586  1.00  0.00     0.031 A 
BRANCH  56  70
ATOM     70  C   UNL A   1      43.158  24.064  27.211  1.00  0.00    -0.014 A 
ATOM     71  C   UNL A   1      43.136  23.062  28.198  1.00  0.00     0.010 A 
ATOM     72  C   UNL A   1      42.489  23.844  25.993  1.00  0.00     0.010 A 
ATOM     73  C   UNL A   1      42.473  21.855  27.964  1.00  0.00     0.020 A 
ATOM     74  C   UNL A   1      41.801  22.649  25.767  1.00  0.00     0.020 A 
ATOM     75  C   UNL A   1      41.805  21.658  26.750  1.00  0.00     0.054 A 
BRANCH  75  76
ATOM     76  S   UNL A   1      40.909  20.103  26.496  1.00  0.00     0.124 S 
ATOM     77  O   UNL A   1      40.880  19.546  27.847  1.00  0.00    -0.237 OA
ATOM     78  O   UNL A   1      39.622  20.558  25.977  1.00  0.00    -0.237 OA
ATOM     79  O   UNL A   1      41.741  19.374  25.542  1.00  0.00    -0.744 OA
ENDBRANCH  75  76
ENDBRANCH  56  70
BRANCH  57  80
ATOM     80  C   UNL A   1      47.324  32.960  29.007  1.00  0.00    -0.014 A 
ATOM     81  C   UNL A   1      48.011  33.193  30.213  1.00  0.00     0.010 A 
ATOM     82  C   UNL A   1      47.208  34.013  28.079  1.00  0.00     0.010 A 
ATOM     83  C   UNL A   1      48.540  34.457  30.498  1.00  0.00     0.020 A 
ATOM     84  C   UNL A   1      47.767  35.266  28.345  1.00  0.00     0.020 A 
ATOM     85  C   UNL A   1      48.413  35.487  29.562  1.00  0.00     0.054 A 
BRANCH  85  86
ATOM     86  S   UNL A   1      49.126  37.113  29.936  1.00  0.00     0.124 S 
ATOM     87  O   UNL A   1      48.472  37.450  31.197  1.00  0.00    -0.237 OA
ATOM     88  O   UNL A   1      50.554  36.820  30.021  1.00  0.00    -0.237 OA
ATOM     89  O   UNL A   1      48.734  37.930  28.789  1.00  0.00    -0.744 OA
ENDBRANCH  85  86
ENDBRANCH  57  80
BRANCH  69  90
ATOM     90  C   UNL A   1      49.575  27.121  25.938  1.00  0.00    -0.014 A 
ATOM     91  C   UNL A   1      50.586  26.458  26.657  1.00  0.00     0.010 A 
ATOM     92  C   UNL A   1      49.787  27.426  24.581  1.00  0.00     0.010 A 
ATOM     93  C   UNL A   1      51.805  26.155  26.045  1.00  0.00     0.020 A 
ATOM     94  C   UNL A   1      50.993  27.095  23.957  1.00  0.00     0.020 A 
ATOM     95  C   UNL A   1      52.003  26.482  24.700  1.00  0.00     0.054 A 
BRANCH  95  96
ATOM     96  S   UNL A   1      53.592  26.073  23.926  1.00  0.00     0.124 S 
ATOM     97  O   UNL A   1      53.233  26.007  22.512  1.00  0.00    -0.237 OA
ATOM     98  O   UNL A   1      54.437  27.202  24.308  1.00  0.00    -0.237 OA
ATOM     99  O   UNL A   1      53.956  24.796  24.536  1.00  0.00    -0.744 OA
ENDBRANCH  95  96
ENDBRANCH  69  90
ENDBRANCH  43  44
ENDBRANCH  36  38
ENDBRANCH  35  36
ENDBRANCH  34  35
ENDBRANCH  33  34
ENDBRANCH  32  33
ENDBRANCH  31  32
ENDBRANCH  30  31
ENDBRANCH   1  30
TORSDOF 27
ENDMDL
MODEL 2
REMARK VINA RESULT:      -8.4      5.062     12.563
REMARK SMILES CC[C@](C)(NC(=O)N1CC[C@@H]([NH+]2CCCCC2)C1)C(=O)OCCOCCOCCOCCOC(=O)c1ccc(-c2c3nc(c(-c4ccc(S(=O)(=O)[O-])cc4)c4ccc([nH]4)c(-c4ccc(S(=O)(=O)[O-])cc4)c4nc(c(-c5ccc(S(=O)(=O)[O-])cc5)c5ccc2[nH]5)C=C4)C=C3)cc1
REMARK SMILES IDX 27 1 26 2 25 3 24 4 23 5 22 6 21 7 19 8 20 9 3 10 4 11 2 12
REMARK SMILES IDX 1 13 5 14 6 15 7 17 8 18 9 19 18 20 10 21 11 22 12 23 13 24
REMARK SMILES IDX 17 25 14 27 16 28 15 29 28 30 29 31 30 32 31 33 32 34 33 35
REMARK SMILES IDX 34 36 35 37 36 38 37 39 95 40 38 41 94 42 39 43 40 44 41 45
REMARK SMILES IDX 88 46 42 47 93 48 87 49 89 50 43 51 92 52 86 53 85 54 44 56
REMARK SMILES IDX 74 57 55 58 73 59 56 60 59 61 72 62 90 63 57 64 58 65 71 67
REMARK SMILES IDX 91 68 60 69 45 70 46 71 54 72 47 73 53 74 48 75 49 76 50 77
REMARK SMILES IDX 51 78 52 79 75 80 76 81 84 82 77 83 83 84 78 85 79 86 80 87
REMARK SMILES IDX 81 88 82 89 61 90 62 91 70 92 63 93 69 94 64 95 65 96 66 97
REMARK SMILES IDX 67 98 68 99
REMARK H PARENT 5 16 12 26 89 55 59 66
REMARK Flexibility Score: inf
ROOT
ATOM      1  O   UNL A   1      38.099  32.942  34.069  1.00  0.00    -0.377 OA
ENDROOT
BRANCH   1   2
ATOM      2  C   UNL A   1      37.839  31.547  34.160  1.00  0.00     0.188 C 
BRANCH   2   3
ATOM      3  C   UNL A   1      38.066  31.045  35.597  1.00  0.00     0.188 C 
BRANCH   3   4
ATOM      4  O   UNL A   1      39.267  30.269  35.734  1.00  0.00    -0.376 OA
BRANCH   4   5
ATOM      5  C   UNL A   1      39.893  29.958  34.484  1.00  0.00     0.202 C 
BRANCH   5   6
ATOM      6  C   UNL A   1      41.305  29.337  34.541  1.00  0.00     0.261 C 
BRANCH   6   7
ATOM      7  O   UNL A   1      41.417  28.088  33.847  1.00  0.00    -0.462 OA
BRANCH   7   8
ATOM      8  C   UNL A   1      42.617  27.758  33.338  1.00  0.00     0.331 C 
ATOM      9  O   UNL A   1      43.098  28.341  32.366  1.00  0.00    -0.249 OA
BRANCH   8  10
ATOM     10  C   UNL A   1      43.316  26.542  34.047  1.00  0.00     0.136 C 
ATOM     11  C   UNL A   1      44.386  27.223  34.946  1.00  0.00     0.047 C 
BRANCH  10  12
ATOM     12  C   UNL A   1      44.046  25.630  33.017  1.00  0.00     0.037 C 
ATOM     13  C   UNL A   1      45.564  25.710  32.983  1.00  0.00     0.007 C 
ENDBRANCH  10  12
BRANCH  10  14
ATOM     14  N   UNL A   1      42.557  25.649  34.980  1.00  0.00    -0.322 N 
ATOM     15  C   UNL A   1      43.001  24.933  36.051  1.00  0.00     0.318 C 
ATOM     16  H   UNL A   1      41.595  25.567  34.791  1.00  0.00     0.166 HD
ATOM     17  O   UNL A   1      42.316  24.875  37.068  1.00  0.00    -0.249 OA
BRANCH  15  18
ATOM     18  N   UNL A   1      44.183  24.294  35.896  1.00  0.00    -0.319 N 
ATOM     19  C   UNL A   1      45.293  24.366  36.804  1.00  0.00     0.128 C 
ATOM     20  C   UNL A   1      44.156  22.959  35.343  1.00  0.00     0.186 C 
ATOM     21  C   UNL A   1      46.342  23.619  35.996  1.00  0.00     0.088 C 
ATOM     22  C   UNL A   1      45.585  22.410  35.398  1.00  0.00     0.205 C 
BRANCH  22  23
ATOM     23  N   UNL A   1      45.541  21.076  36.026  1.00  0.00    -0.331 N 
ATOM     24  C   UNL A   1      46.223  20.918  37.299  1.00  0.00     0.262 C 
ATOM     25  C   UNL A   1      45.948  19.992  35.135  1.00  0.00     0.262 C 
ATOM     26  H   UNL A   1      44.544  21.006  36.231  1.00  0.00     0.348 HD
ATOM     27  C   UNL A   1      47.746  20.921  37.209  1.00  0.00     0.062 C 
ATOM     28  C   UNL A   1      47.405  20.141  34.733  1.00  0.00     0.062 C 
ATOM     29  C   UNL A   1      48.349  20.350  35.919  1.00  0.00     0.012 C 
ENDBRANCH  22  23
ENDBRANCH  15  18
ENDBRANCH  10  14
ENDBRANCH   8  10
ENDBRANCH   7   8
ENDBRANCH   6   7
ENDBRANCH   5   6
ENDBRANCH   4   5
ENDBRANCH   3   4
ENDBRANCH   2   3
ENDBRANCH   1   2
BRANCH   1  30
ATOM     30  C   UNL A   1      37.113  33.749  33.425  1.00  0.00     0.188 C 
BRANCH  30  31
ATOM     31  C   UNL A   1      35.666  33.399  33.812  1.00  0.00     0.188 C 
BRANCH  31  32
ATOM     32  O   UNL A   1      34.628  34.004  33.025  1.00  0.00    -0.376 OA
BRANCH  32  33
ATOM     33  C   UNL A   1      34.984  34.517  31.747  1.00  0.00     0.202 C 
BRANCH  33  34
ATOM     34  C   UNL A   1      34.404  33.819  30.504  1.00  0.00     0.261 C 
BRANCH  34  35
ATOM     35  O   UNL A   1      34.517  32.385  30.496  1.00  0.00    -0.460 OA
BRANCH  35  36
ATOM     36  C   UNL A   1      34.620  31.848  29.257  1.00  0.00     0.338 C 
ATOM     37  O   UNL A   1      33.892  32.097  28.297  1.00  0.00    -0.246 OA
BRANCH  36  38
ATOM     38  C   UNL A   1      35.805  30.972  29.142  1.00  0.00     0.060 A 
ATOM     39  C   UNL A   1      36.308  30.401  30.318  1.00  0.00     0.016 A 
ATOM     40  C   UNL A   1      36.490  30.799  27.935  1.00  0.00     0.016 A 
ATOM     41  C   UNL A   1      37.532  29.731  30.309  1.00  0.00     0.010 A 
ATOM     42  C   UNL A   1      37.726  30.133  27.928  1.00  0.00     0.010 A 
ATOM     43  C   UNL A   1      38.280  29.646  29.126  1.00  0.00    -0.014 A 
BRANCH  43  44
ATOM     44  C   UNL A   1      39.724  29.292  29.220  1.00  0.00     0.031 A 
ATOM     45  C   UNL A   1      40.666  30.313  29.800  1.00  0.00     0.074 A 
ATOM     46  C   UNL A   1      40.194  28.078  28.879  1.00  0.00     0.049 A 
ATOM     47  N   UNL A   1      41.951  30.218  30.025  1.00  0.00    -0.248 NA
ATOM     48  C   UNL A   1      40.084  31.615  30.168  1.00  0.00     0.031 C 
ATOM     49  C   UNL A   1      39.396  27.004  28.304  1.00  0.00     0.029 A 
ATOM     50  N   UNL A   1      41.455  27.538  28.978  1.00  0.00    -0.354 N 
ATOM     51  C   UNL A   1      42.331  31.445  30.558  1.00  0.00     0.074 A 
ATOM     52  C   UNL A   1      41.148  32.276  30.594  1.00  0.00     0.031 C 
ATOM     53  C   UNL A   1      40.171  25.919  28.135  1.00  0.00     0.029 A 
ATOM     54  C   UNL A   1      41.537  26.234  28.543  1.00  0.00     0.049 A 
ATOM     55  H   UNL A   1      42.228  28.038  29.327  1.00  0.00     0.167 HD
ATOM     56  C   UNL A   1      43.551  31.843  30.985  1.00  0.00     0.031 A 
ATOM     57  C   UNL A   1      42.591  25.396  28.459  1.00  0.00     0.031 A 
ATOM     58  C   UNL A   1      44.736  31.031  30.928  1.00  0.00     0.049 A 
ATOM     59  C   UNL A   1      43.952  25.887  28.889  1.00  0.00     0.074 A 
ATOM     60  C   UNL A   1      46.022  31.358  31.323  1.00  0.00     0.029 A 
ATOM     61  N   UNL A   1      44.785  29.732  30.445  1.00  0.00    -0.354 N 
ATOM     62  N   UNL A   1      44.287  27.046  29.402  1.00  0.00    -0.248 NA
ATOM     63  C   UNL A   1      45.077  24.956  28.719  1.00  0.00     0.031 C 
ATOM     64  C   UNL A   1      46.859  30.278  31.029  1.00  0.00     0.029 A 
ATOM     65  C   UNL A   1      46.083  29.252  30.514  1.00  0.00     0.049 A 
ATOM     66  H   UNL A   1      44.013  29.226  30.104  1.00  0.00     0.167 HD
ATOM     67  C   UNL A   1      45.658  26.978  29.628  1.00  0.00     0.074 A 
ATOM     68  C   UNL A   1      46.082  25.652  29.230  1.00  0.00     0.031 C 
ATOM     69  C   UNL A   1      46.494  27.932  30.110  1.00  0.00     0.031 A 
BRANCH  56  70
ATOM     70  C   UNL A   1      43.669  33.240  31.531  1.00  0.00    -0.014 A 
ATOM     71  C   UNL A   1      43.742  34.350  30.669  1.00  0.00     0.010 A 
ATOM     72  C   UNL A   1      43.662  33.448  32.922  1.00  0.00     0.010 A 
ATOM     73  C   UNL A   1      43.827  35.643  31.190  1.00  0.00     0.020 A 
ATOM     74  C   UNL A   1      43.719  34.743  33.445  1.00  0.00     0.020 A 
ATOM     75  C   UNL A   1      43.810  35.831  32.576  1.00  0.00     0.054 A 
BRANCH  75  76
ATOM     76  S   UNL A   1      43.867  37.525  33.221  1.00  0.00     0.124 S 
ATOM     77  O   UNL A   1      42.595  37.621  33.933  1.00  0.00    -0.237 OA
ATOM     78  O   UNL A   1      45.059  37.504  34.065  1.00  0.00    -0.237 OA
ATOM     79  O   UNL A   1      43.971  38.350  32.020  1.00  0.00    -0.744 OA
ENDBRANCH  75  76
ENDBRANCH  56  70
BRANCH  57  80
ATOM     80  C   UNL A   1      42.431  24.021  27.897  1.00  0.00    -0.014 A 
ATOM     81  C   UNL A   1      42.246  22.906  28.736  1.00  0.00     0.010 A 
ATOM     82  C   UNL A   1      42.517  23.815  26.507  1.00  0.00     0.010 A 
ATOM     83  C   UNL A   1      42.184  21.614  28.200  1.00  0.00     0.020 A 
ATOM     84  C   UNL A   1      42.419  22.531  25.965  1.00  0.00     0.020 A 
ATOM     85  C   UNL A   1      42.272  21.435  26.817  1.00  0.00     0.054 A 
BRANCH  85  86
ATOM     86  S   UNL A   1      42.165  19.756  26.136  1.00  0.00     0.124 S 
ATOM     87  O   UNL A   1      43.023  19.848  24.959  1.00  0.00    -0.237 OA
ATOM     88  O   UNL A   1      42.678  18.938  27.232  1.00  0.00    -0.237 OA
ATOM     89  O   UNL A   1      40.739  19.589  25.861  1.00  0.00    -0.744 OA
ENDBRANCH  85  86
ENDBRANCH  57  80
BRANCH  69  90
ATOM     90  C   UNL A   1      47.947  27.562  30.266  1.00  0.00    -0.014 A 
ATOM     91  C   UNL A   1      48.836  27.612  29.177  1.00  0.00     0.010 A 
ATOM     92  C   UNL A   1      48.435  27.181  31.530  1.00  0.00     0.010 A 
ATOM     93  C   UNL A   1      50.172  27.236  29.337  1.00  0.00     0.020 A 
ATOM     94  C   UNL A   1      49.778  26.836  31.700  1.00  0.00     0.020 A 
ATOM     95  C   UNL A   1      50.633  26.843  30.598  1.00  0.00     0.054 A 
BRANCH  95  96
ATOM     96  S   UNL A   1      52.374  26.366  30.782  1.00  0.00     0.124 S 
ATOM     97  O   UNL A   1      52.263  25.055  31.416  1.00  0.00    -0.237 OA
ATOM     98  O   UNL A   1      52.854  26.359  29.403  1.00  0.00    -0.237 OA
ATOM     99  O   UNL A   1      52.934  27.420  31.626  1.00  0.00    -0.744 OA
ENDBRANCH  95  96
ENDBRANCH  69  90
ENDBRANCH  43  44
ENDBRANCH  36  38
ENDBRANCH  35  36
ENDBRANCH  34  35
ENDBRANCH  33  34
ENDBRANCH  32  33
ENDBRANCH  31  32
ENDBRANCH  30  31
ENDBRANCH   1  30
TORSDOF 27
ENDMDL
MODEL 3
REMARK VINA RESULT:      -8.2      4.196      8.174
REMARK SMILES CC[C@](C)(NC(=O)N1CC[C@@H]([NH+]2CCCCC2)C1)C(=O)OCCOCCOCCOCCOC(=O)c1ccc(-c2c3nc(c(-c4ccc(S(=O)(=O)[O-])cc4)c4ccc([nH]4)c(-c4ccc(S(=O)(=O)[O-])cc4)c4nc(c(-c5ccc(S(=O)(=O)[O-])cc5)c5ccc2[nH]5)C=C4)C=C3)cc1
REMARK SMILES IDX 27 1 26 2 25 3 24 4 23 5 22 6 21 7 19 8 20 9 3 10 4 11 2 12
REMARK SMILES IDX 1 13 5 14 6 15 7 17 8 18 9 19 18 20 10 21 11 22 12 23 13 24
REMARK SMILES IDX 17 25 14 27 16 28 15 29 28 30 29 31 30 32 31 33 32 34 33 35
REMARK SMILES IDX 34 36 35 37 36 38 37 39 95 40 38 41 94 42 39 43 40 44 41 45
REMARK SMILES IDX 88 46 42 47 93 48 87 49 89 50 43 51 92 52 86 53 85 54 44 56
REMARK SMILES IDX 74 57 55 58 73 59 56 60 59 61 72 62 90 63 57 64 58 65 71 67
REMARK SMILES IDX 91 68 60 69 45 70 46 71 54 72 47 73 53 74 48 75 49 76 50 77
REMARK SMILES IDX 51 78 52 79 75 80 76 81 84 82 77 83 83 84 78 85 79 86 80 87
REMARK SMILES IDX 81 88 82 89 61 90 62 91 70 92 63 93 69 94 64 95 65 96 66 97
REMARK SMILES IDX 67 98 68 99
REMARK H PARENT 5 16 12 26 89 55 59 66
REMARK Flexibility Score: inf
ROOT
ATOM      1  O   UNL A   1      34.183  29.602  27.513  1.00  0.00    -0.377 OA
ENDROOT
BRANCH   1   2
ATOM      2  C   UNL A   1      33.343  28.488  27.239  1.00  0.00     0.188 C 
BRANCH   2   3
ATOM      3  C   UNL A   1      31.879  28.814  27.585  1.00  0.00     0.188 C 
BRANCH   3   4
ATOM      4  O   UNL A   1      31.027  27.659  27.552  1.00  0.00    -0.376 OA
BRANCH   4   5
ATOM      5  C   UNL A   1      31.571  26.568  26.799  1.00  0.00     0.202 C 
BRANCH   5   6
ATOM      6  C   UNL A   1      30.601  25.798  25.878  1.00  0.00     0.261 C 
BRANCH   6   7
ATOM      7  O   UNL A   1      31.205  24.689  25.199  1.00  0.00    -0.462 OA
BRANCH   7   8
ATOM      8  C   UNL A   1      31.311  24.755  23.860  1.00  0.00     0.331 C 
ATOM      9  O   UNL A   1      30.328  24.685  23.121  1.00  0.00    -0.249 OA
BRANCH   8  10
ATOM     10  C   UNL A   1      32.784  24.868  23.326  1.00  0.00     0.136 C 
ATOM     11  C   UNL A   1      33.076  23.440  22.785  1.00  0.00     0.047 C 
BRANCH  10  12
ATOM     12  C   UNL A   1      33.783  25.170  24.482  1.00  0.00     0.037 C 
ATOM     13  C   UNL A   1      34.987  24.250  24.607  1.00  0.00     0.007 C 
ENDBRANCH  10  12
BRANCH  10  14
ATOM     14  N   UNL A   1      33.128  25.777  22.186  1.00  0.00    -0.322 N 
ATOM     15  C   UNL A   1      33.189  27.138  22.147  1.00  0.00     0.318 C 
ATOM     16  H   UNL A   1      33.342  25.324  21.339  1.00  0.00     0.166 HD
ATOM     17  O   UNL A   1      34.093  27.687  21.524  1.00  0.00    -0.249 OA
BRANCH  15  18
ATOM     18  N   UNL A   1      32.200  27.800  22.789  1.00  0.00    -0.319 N 
ATOM     19  C   UNL A   1      32.376  28.963  23.613  1.00  0.00     0.128 C 
ATOM     20  C   UNL A   1      30.931  27.934  22.109  1.00  0.00     0.186 C 
ATOM     21  C   UNL A   1      30.971  29.100  24.178  1.00  0.00     0.088 C 
ATOM     22  C   UNL A   1      30.038  28.829  22.974  1.00  0.00     0.205 C 
BRANCH  22  23
ATOM     23  N   UNL A   1      29.480  29.890  22.114  1.00  0.00    -0.331 N 
ATOM     24  C   UNL A   1      29.667  31.264  22.547  1.00  0.00     0.262 C 
ATOM     25  C   UNL A   1      28.074  29.689  21.772  1.00  0.00     0.262 C 
ATOM     26  H   UNL A   1      30.063  29.775  21.285  1.00  0.00     0.348 HD
ATOM     27  C   UNL A   1      28.821  31.673  23.749  1.00  0.00     0.062 C 
ATOM     28  C   UNL A   1      27.201  29.751  23.013  1.00  0.00     0.062 C 
ATOM     29  C   UNL A   1      27.454  30.987  23.879  1.00  0.00     0.012 C 
ENDBRANCH  22  23
ENDBRANCH  15  18
ENDBRANCH  10  14
ENDBRANCH   8  10
ENDBRANCH   7   8
ENDBRANCH   6   7
ENDBRANCH   5   6
ENDBRANCH   4   5
ENDBRANCH   3   4
ENDBRANCH   2   3
ENDBRANCH   1   2
BRANCH   1  30
ATOM     30  C   UNL A   1      33.687  30.895  27.161  1.00  0.00     0.188 C 
BRANCH  30  31
ATOM     31  C   UNL A   1      34.096  32.010  28.137  1.00  0.00     0.188 C 
BRANCH  31  32
ATOM     32  O   UNL A   1      34.406  33.288  27.558  1.00  0.00    -0.376 OA
BRANCH  32  33
ATOM     33  C   UNL A   1      35.020  34.260  28.396  1.00  0.00     0.202 C 
BRANCH  33  34
ATOM     34  C   UNL A   1      35.660  33.776  29.710  1.00  0.00     0.261 C 
BRANCH  34  35
ATOM     35  O   UNL A   1      34.878  34.003  30.894  1.00  0.00    -0.460 OA
BRANCH  35  36
ATOM     36  C   UNL A   1      34.955  33.003  31.804  1.00  0.00     0.338 C 
ATOM     37  O   UNL A   1      34.016  32.530  32.444  1.00  0.00    -0.246 OA
BRANCH  36  38
ATOM     38  C   UNL A   1      36.322  32.446  31.884  1.00  0.00     0.060 A 
ATOM     39  C   UNL A   1      37.243  33.101  32.713  1.00  0.00     0.016 A 
ATOM     40  C   UNL A   1      36.741  31.380  31.082  1.00  0.00     0.016 A 
ATOM     41  C   UNL A   1      38.593  32.750  32.681  1.00  0.00     0.010 A 
ATOM     42  C   UNL A   1      38.101  31.034  31.044  1.00  0.00     0.010 A 
ATOM     43  C   UNL A   1      39.043  31.756  31.800  1.00  0.00    -0.014 A 
BRANCH  43  44
ATOM     44  C   UNL A   1      40.499  31.677  31.496  1.00  0.00     0.031 A 
ATOM     45  C   UNL A   1      41.129  32.822  30.750  1.00  0.00     0.074 A 
ATOM     46  C   UNL A   1      41.274  30.665  31.930  1.00  0.00     0.049 A 
ATOM     47  N   UNL A   1      42.380  33.002  30.414  1.00  0.00    -0.248 NA
ATOM     48  C   UNL A   1      40.228  33.904  30.319  1.00  0.00     0.031 C 
ATOM     49  C   UNL A   1      40.795  29.498  32.656  1.00  0.00     0.029 A 
ATOM     50  N   UNL A   1      42.630  30.463  31.834  1.00  0.00    -0.354 N 
ATOM     51  C   UNL A   1      42.416  34.212  29.732  1.00  0.00     0.074 A 
ATOM     52  C   UNL A   1      41.059  34.709  29.676  1.00  0.00     0.031 C 
ATOM     53  C   UNL A   1      41.840  28.716  32.976  1.00  0.00     0.029 A 
ATOM     54  C   UNL A   1      43.063  29.302  32.435  1.00  0.00     0.049 A 
ATOM     55  H   UNL A   1      43.236  31.089  31.377  1.00  0.00     0.167 HD
ATOM     56  C   UNL A   1      43.482  34.858  29.205  1.00  0.00     0.031 A 
ATOM     57  C   UNL A   1      44.295  28.758  32.520  1.00  0.00     0.031 A 
ATOM     58  C   UNL A   1      44.830  34.358  29.234  1.00  0.00     0.049 A 
ATOM     59  C   UNL A   1      45.456  29.471  31.873  1.00  0.00     0.074 A 
ATOM     60  C   UNL A   1      45.973  34.937  28.709  1.00  0.00     0.029 A 
ATOM     61  N   UNL A   1      45.219  33.162  29.816  1.00  0.00    -0.354 N 
ATOM     62  N   UNL A   1      45.471  30.622  31.243  1.00  0.00    -0.248 NA
ATOM     63  C   UNL A   1      46.765  28.806  31.940  1.00  0.00     0.031 C 
ATOM     64  C   UNL A   1      47.044  34.065  28.926  1.00  0.00     0.029 A 
ATOM     65  C   UNL A   1      46.582  32.975  29.645  1.00  0.00     0.049 A 
ATOM     66  H   UNL A   1      44.618  32.537  30.282  1.00  0.00     0.167 HD
ATOM     67  C   UNL A   1      46.791  30.823  30.853  1.00  0.00     0.074 A 
ATOM     68  C   UNL A   1      47.551  29.694  31.348  1.00  0.00     0.031 C 
ATOM     69  C   UNL A   1      47.326  31.845  30.139  1.00  0.00     0.031 A 
BRANCH  56  70
ATOM     70  C   UNL A   1      43.223  36.174  28.523  1.00  0.00    -0.014 A 
ATOM     71  C   UNL A   1      42.781  36.223  27.189  1.00  0.00     0.010 A 
ATOM     72  C   UNL A   1      43.383  37.374  29.240  1.00  0.00     0.010 A 
ATOM     73  C   UNL A   1      42.522  37.451  26.576  1.00  0.00     0.020 A 
ATOM     74  C   UNL A   1      43.098  38.602  28.638  1.00  0.00     0.020 A 
ATOM     75  C   UNL A   1      42.678  38.634  27.307  1.00  0.00     0.054 A 
BRANCH  75  76
ATOM     76  S   UNL A   1      42.283  40.209  26.502  1.00  0.00     0.124 S 
ATOM     77  O   UNL A   1      42.167  41.113  27.644  1.00  0.00    -0.237 OA
ATOM     78  O   UNL A   1      43.443  40.428  25.643  1.00  0.00    -0.237 OA
ATOM     79  O   UNL A   1      41.032  39.935  25.798  1.00  0.00    -0.744 OA
ENDBRANCH  75  76
ENDBRANCH  56  70
BRANCH  57  80
ATOM     80  C   UNL A   1      44.503  27.440  33.194  1.00  0.00    -0.014 A 
ATOM     81  C   UNL A   1      44.088  26.238  32.591  1.00  0.00     0.010 A 
ATOM     82  C   UNL A   1      45.076  27.391  34.479  1.00  0.00     0.010 A 
ATOM     83  C   UNL A   1      44.212  25.021  33.271  1.00  0.00     0.020 A 
ATOM     84  C   UNL A   1      45.234  26.173  35.146  1.00  0.00     0.020 A 
ATOM     85  C   UNL A   1      44.784  24.996  34.546  1.00  0.00     0.054 A 
BRANCH  85  86
ATOM     86  S   UNL A   1      44.959  23.407  35.404  1.00  0.00     0.124 S 
ATOM     87  O   UNL A   1      45.980  22.739  34.603  1.00  0.00    -0.237 OA
ATOM     88  O   UNL A   1      45.371  23.816  36.745  1.00  0.00    -0.237 OA
ATOM     89  O   UNL A   1      43.620  22.826  35.324  1.00  0.00    -0.744 OA
ENDBRANCH  85  86
ENDBRANCH  57  80
BRANCH  69  90
ATOM     90  C   UNL A   1      48.810  31.804  29.880  1.00  0.00    -0.014 A 
ATOM     91  C   UNL A   1      49.721  32.437  30.744  1.00  0.00     0.010 A 
ATOM     92  C   UNL A   1      49.301  31.098  28.766  1.00  0.00     0.010 A 
ATOM     93  C   UNL A   1      51.091  32.412  30.469  1.00  0.00     0.020 A 
ATOM     94  C   UNL A   1      50.674  31.044  28.506  1.00  0.00     0.020 A 
ATOM     95  C   UNL A   1      51.558  31.721  29.347  1.00  0.00     0.054 A 
BRANCH  95  96
ATOM     96  S   UNL A   1      53.341  31.697  29.014  1.00  0.00     0.124 S 
ATOM     97  O   UNL A   1      53.623  33.109  28.773  1.00  0.00    -0.237 OA
ATOM     98  O   UNL A   1      53.892  31.148  30.250  1.00  0.00    -0.237 OA
ATOM     99  O   UNL A   1      53.463  30.829  27.845  1.00  0.00    -0.744 OA
ENDBRANCH  95  96
ENDBRANCH  69  90
ENDBRANCH  43  44
ENDBRANCH  36  38
ENDBRANCH  35  36
ENDBRANCH  34  35
ENDBRANCH  33  34
ENDBRANCH  32  33
ENDBRANCH  31  32
ENDBRANCH  30  31
ENDBRANCH   1  30
TORSDOF 27
ENDMDL
