MODEL 1
REMARK VINA RESULT:      -8.2      0.000      0.000
REMARK SMILES Cc1cc(C(=O)N[C@@H]2C(=O)N3C(C(=O)OCCOCCOCCOCCOC(=O)c4ccc(-c5c6nc(c(-c7ccc(S(=O)(=O)[O-])cc7)c7ccc([nH]7)c(-c7ccc(S(=O)(=O)[O-])cc7)c7nc(c(-c8ccc(S(=O)(=O)[O-])cc8)c8ccc5[nH]8)C=C7)C=C6)cc4)=C(CSc4nnc(C)s4)CS[C@H]23)n(C)n1
REMARK SMILES IDX 21 1 20 2 19 3 18 4 17 5 16 6 15 7 13 8 14 9 12 10 8 11 9 12
REMARK SMILES IDX 101 13 10 14 11 15 100 16 99 17 90 18 7 19 5 20 6 21 4 23
REMARK SMILES IDX 1 24 2 25 3 26 104 27 102 28 103 29 91 30 92 31 93 32 94 33
REMARK SMILES IDX 98 34 95 35 96 36 97 37 22 38 23 39 24 40 25 41 26 42 27 43
REMARK SMILES IDX 28 44 29 45 30 46 31 47 89 48 32 49 88 50 33 51 34 52 35 53
REMARK SMILES IDX 82 54 36 55 87 56 81 57 83 58 37 59 86 60 80 61 79 62 38 64
REMARK SMILES IDX 68 65 49 66 67 67 50 68 53 69 66 70 84 71 51 72 52 73 65 75
REMARK SMILES IDX 85 76 54 77 39 78 40 79 48 80 41 81 47 82 42 83 43 84 44 85
REMARK SMILES IDX 45 86 46 87 69 88 70 89 78 90 71 91 77 92 72 93 73 94 74 95
REMARK SMILES IDX 75 96 76 97 55 98 56 99 64 100 57 101 63 102 58 103 59 104
REMARK SMILES IDX 60 105 61 106 62 107
REMARK H PARENT 7 22 83 63 53 74
REMARK Flexibility Score: inf
ROOT
ATOM      1  O   UNL A   1      35.276  35.604  33.099  1.00  0.00    -0.377 OA
ENDROOT
BRANCH   1   2
ATOM      2  C   UNL A   1      36.408  34.748  33.017  1.00  0.00     0.188 C 
BRANCH   2   3
ATOM      3  C   UNL A   1      37.407  34.541  34.190  1.00  0.00     0.188 C 
BRANCH   3   4
ATOM      4  O   UNL A   1      37.245  33.333  34.908  1.00  0.00    -0.376 OA
BRANCH   4   5
ATOM      5  C   UNL A   1      38.122  32.976  35.952  1.00  0.00     0.202 C 
BRANCH   5   6
ATOM      6  C   UNL A   1      38.477  33.979  37.059  1.00  0.00     0.261 C 
BRANCH   6   7
ATOM      7  O   UNL A   1      37.985  33.683  38.368  1.00  0.00    -0.459 OA
BRANCH   7   8
ATOM      8  C   UNL A   1      38.891  33.281  39.281  1.00  0.00     0.355 C 
ATOM      9  O   UNL A   1      39.937  32.692  39.038  1.00  0.00    -0.244 OA
BRANCH   8  10
ATOM     10  C   UNL A   1      38.511  33.691  40.677  1.00  0.00     0.132 C 
ATOM     11  C   UNL A   1      35.451  32.780  41.886  1.00  0.00     0.206 C 
ATOM     12  C   UNL A   1      36.624  32.058  41.172  1.00  0.00     0.253 C 
ATOM     13  C   UNL A   1      36.471  33.952  42.025  1.00  0.00     0.181 C 
ATOM     14  O   UNL A   1      36.858  30.928  40.845  1.00  0.00    -0.272 OA
ATOM     15  N   UNL A   1      37.294  33.240  41.093  1.00  0.00    -0.289 N 
ATOM     16  S   UNL A   1      37.407  34.091  43.564  1.00  0.00    -0.129 SA
ATOM     17  C   UNL A   1      38.678  35.111  42.775  1.00  0.00     0.106 C 
ATOM     18  C   UNL A   1      39.230  34.536  41.469  1.00  0.00    -0.019 C 
BRANCH  11  19
ATOM     19  N   UNL A   1      34.836  32.234  43.119  1.00  0.00    -0.336 N 
ATOM     20  C   UNL A   1      33.591  32.551  43.640  1.00  0.00     0.270 C 
ATOM     21  O   UNL A   1      33.237  31.989  44.674  1.00  0.00    -0.268 OA
ATOM     22  H   UNL A   1      35.369  31.577  43.622  1.00  0.00     0.164 HD
BRANCH  20  23
ATOM     23  C   UNL A   1      32.810  33.579  42.978  1.00  0.00     0.126 A 
ATOM     24  C   UNL A   1      31.966  35.547  40.042  1.00  0.00     0.069 C 
ATOM     25  C   UNL A   1      32.103  34.962  41.398  1.00  0.00     0.060 A 
ATOM     26  C   UNL A   1      32.166  33.597  41.748  1.00  0.00     0.059 A 
ATOM     27  N   UNL A   1      32.294  35.733  42.469  1.00  0.00    -0.178 NA
ATOM     28  N   UNL A   1      32.594  34.853  43.453  1.00  0.00    -0.263 N 
ATOM     29  C   UNL A   1      32.655  35.353  44.804  1.00  0.00     0.174 C 
ENDBRANCH  20  23
ENDBRANCH  11  19
BRANCH  18  30
ATOM     30  C   UNL A   1      40.587  35.119  41.141  1.00  0.00     0.111 C 
BRANCH  30  31
ATOM     31  S   UNL A   1      42.053  34.115  41.470  1.00  0.00    -0.089 SA
BRANCH  31  32
ATOM     32  C   UNL A   1      41.593  32.635  42.272  1.00  0.00     0.174 A 
ATOM     33  N   UNL A   1      41.321  31.500  41.671  1.00  0.00    -0.132 NA
ATOM     34  S   UNL A   1      41.519  32.526  43.987  1.00  0.00    -0.091 S 
ATOM     35  N   UNL A   1      41.155  30.450  42.554  1.00  0.00    -0.143 NA
ATOM     36  C   UNL A   1      41.315  30.831  43.804  1.00  0.00     0.115 A 
ATOM     37  C   UNL A   1      41.333  29.919  44.976  1.00  0.00     0.081 C 
ENDBRANCH  31  32
ENDBRANCH  30  31
ENDBRANCH  18  30
ENDBRANCH   8  10
ENDBRANCH   7   8
ENDBRANCH   6   7
ENDBRANCH   5   6
ENDBRANCH   4   5
ENDBRANCH   3   4
ENDBRANCH   2   3
ENDBRANCH   1   2
BRANCH   1  38
ATOM     38  C   UNL A   1      34.004  35.015  33.284  1.00  0.00     0.188 C 
BRANCH  38  39
ATOM     39  C   UNL A   1      33.999  33.518  32.929  1.00  0.00     0.188 C 
BRANCH  39  40
ATOM     40  O   UNL A   1      34.202  33.223  31.560  1.00  0.00    -0.376 OA
BRANCH  40  41
ATOM     41  C   UNL A   1      34.991  32.114  31.157  1.00  0.00     0.202 C 
BRANCH  41  42
ATOM     42  C   UNL A   1      35.227  31.624  29.710  1.00  0.00     0.261 C 
BRANCH  42  43
ATOM     43  O   UNL A   1      35.997  30.442  29.472  1.00  0.00    -0.460 OA
BRANCH  43  44
ATOM     44  C   UNL A   1      36.687  29.914  30.503  1.00  0.00     0.338 C 
ATOM     45  O   UNL A   1      36.234  29.440  31.525  1.00  0.00    -0.246 OA
BRANCH  44  46
ATOM     46  C   UNL A   1      38.106  29.853  30.079  1.00  0.00     0.060 A 
ATOM     47  C   UNL A   1      38.429  30.043  28.728  1.00  0.00     0.016 A 
ATOM     48  C   UNL A   1      39.116  29.640  31.019  1.00  0.00     0.016 A 
ATOM     49  C   UNL A   1      39.759  29.998  28.310  1.00  0.00     0.010 A 
ATOM     50  C   UNL A   1      40.446  29.573  30.598  1.00  0.00     0.010 A 
ATOM     51  C   UNL A   1      40.769  29.714  29.236  1.00  0.00    -0.014 A 
BRANCH  51  52
ATOM     52  C   UNL A   1      42.119  29.336  28.751  1.00  0.00     0.031 A 
ATOM     53  C   UNL A   1      42.335  27.915  28.305  1.00  0.00     0.074 A 
ATOM     54  C   UNL A   1      43.119  30.232  28.672  1.00  0.00     0.049 A 
ATOM     55  N   UNL A   1      43.429  27.334  27.885  1.00  0.00    -0.248 NA
ATOM     56  C   UNL A   1      41.159  27.030  28.344  1.00  0.00     0.031 C 
ATOM     57  C   UNL A   1      43.019  31.649  29.018  1.00  0.00     0.029 A 
ATOM     58  N   UNL A   1      44.424  30.072  28.276  1.00  0.00    -0.354 N 
ATOM     59  C   UNL A   1      43.076  26.014  27.627  1.00  0.00     0.074 A 
ATOM     60  C   UNL A   1      41.679  25.871  27.970  1.00  0.00     0.031 C 
ATOM     61  C   UNL A   1      44.217  32.228  28.822  1.00  0.00     0.029 A 
ATOM     62  C   UNL A   1      45.177  31.217  28.380  1.00  0.00     0.049 A 
ATOM     63  H   UNL A   1      44.787  29.217  27.950  1.00  0.00     0.167 HD
ATOM     64  C   UNL A   1      43.845  25.011  27.141  1.00  0.00     0.031 A 
ATOM     65  C   UNL A   1      46.493  31.419  28.164  1.00  0.00     0.031 A 
ATOM     66  C   UNL A   1      45.238  25.155  26.815  1.00  0.00     0.049 A 
ATOM     67  C   UNL A   1      47.351  30.265  27.709  1.00  0.00     0.074 A 
ATOM     68  C   UNL A   1      46.103  24.203  26.305  1.00  0.00     0.029 A 
ATOM     69  N   UNL A   1      45.974  26.319  26.977  1.00  0.00    -0.354 N 
ATOM     70  N   UNL A   1      47.002  29.027  27.448  1.00  0.00    -0.248 NA
ATOM     71  C   UNL A   1      48.782  30.539  27.512  1.00  0.00     0.031 C 
ATOM     72  C   UNL A   1      47.379  24.771  26.228  1.00  0.00     0.029 A 
ATOM     73  C   UNL A   1      47.292  26.100  26.610  1.00  0.00     0.049 A 
ATOM     74  H   UNL A   1      45.613  27.175  27.305  1.00  0.00     0.167 HD
ATOM     75  C   UNL A   1      48.163  28.385  27.024  1.00  0.00     0.074 A 
ATOM     76  C   UNL A   1      49.220  29.375  27.050  1.00  0.00     0.031 C 
ATOM     77  C   UNL A   1      48.336  27.094  26.642  1.00  0.00     0.031 A 
BRANCH  64  78
ATOM     78  C   UNL A   1      43.201  23.659  26.979  1.00  0.00    -0.014 A 
ATOM     79  C   UNL A   1      42.708  23.222  25.735  1.00  0.00     0.010 A 
ATOM     80  C   UNL A   1      43.110  22.798  28.089  1.00  0.00     0.010 A 
ATOM     81  C   UNL A   1      42.097  21.970  25.616  1.00  0.00     0.020 A 
ATOM     82  C   UNL A   1      42.532  21.532  27.966  1.00  0.00     0.020 A 
ATOM     83  C   UNL A   1      42.013  21.134  26.733  1.00  0.00     0.054 A 
BRANCH  83  84
ATOM     84  S   UNL A   1      41.232  19.509  26.543  1.00  0.00     0.124 S 
ATOM     85  O   UNL A   1      42.236  18.781  25.771  1.00  0.00    -0.237 OA
ATOM     86  O   UNL A   1      41.066  19.072  27.927  1.00  0.00    -0.237 OA
ATOM     87  O   UNL A   1      39.990  19.799  25.830  1.00  0.00    -0.744 OA
ENDBRANCH  83  84
ENDBRANCH  64  78
BRANCH  65  88
ATOM     88  C   UNL A   1      47.088  32.766  28.396  1.00  0.00    -0.014 A 
ATOM     89  C   UNL A   1      47.567  33.133  29.666  1.00  0.00     0.010 A 
ATOM     90  C   UNL A   1      47.177  33.693  27.341  1.00  0.00     0.010 A 
ATOM     91  C   UNL A   1      48.115  34.402  29.879  1.00  0.00     0.020 A 
ATOM     92  C   UNL A   1      47.753  34.950  27.540  1.00  0.00     0.020 A 
ATOM     93  C   UNL A   1      48.212  35.300  28.811  1.00  0.00     0.054 A 
BRANCH  93  94
ATOM     94  S   UNL A   1      48.991  36.914  29.095  1.00  0.00     0.124 S 
ATOM     95  O   UNL A   1      48.648  37.637  27.874  1.00  0.00    -0.237 OA
ATOM     96  O   UNL A   1      48.327  37.372  30.312  1.00  0.00    -0.237 OA
ATOM     97  O   UNL A   1      50.406  36.588  29.252  1.00  0.00    -0.744 OA
ENDBRANCH  93  94
ENDBRANCH  65  88
BRANCH  77  98
ATOM     98  C   UNL A   1      49.709  26.678  26.178  1.00  0.00    -0.014 A 
ATOM     99  C   UNL A   1      50.096  26.782  24.831  1.00  0.00     0.010 A 
ATOM    100  C   UNL A   1      50.654  26.239  27.126  1.00  0.00     0.010 A 
ATOM    101  C   UNL A   1      51.387  26.422  24.435  1.00  0.00     0.020 A 
ATOM    102  C   UNL A   1      51.956  25.912  26.741  1.00  0.00     0.020 A 
ATOM    103  C   UNL A   1      52.311  25.992  25.393  1.00  0.00     0.054 A 
BRANCH 103 104
ATOM    104  S   UNL A   1      53.993  25.577  24.859  1.00  0.00     0.124 S 
ATOM    105  O   UNL A   1      54.798  26.076  25.970  1.00  0.00    -0.237 OA
ATOM    106  O   UNL A   1      53.936  24.124  24.726  1.00  0.00    -0.237 OA
ATOM    107  O   UNL A   1      54.149  26.307  23.602  1.00  0.00    -0.744 OA
ENDBRANCH 103 104
ENDBRANCH  77  98
ENDBRANCH  51  52
ENDBRANCH  44  46
ENDBRANCH  43  44
ENDBRANCH  42  43
ENDBRANCH  41  42
ENDBRANCH  40  41
ENDBRANCH  39  40
ENDBRANCH  38  39
ENDBRANCH   1  38
TORSDOF 28
ENDMDL
MODEL 2
REMARK VINA RESULT:      -7.5      6.358     13.384
REMARK SMILES Cc1cc(C(=O)N[C@@H]2C(=O)N3C(C(=O)OCCOCCOCCOCCOC(=O)c4ccc(-c5c6nc(c(-c7ccc(S(=O)(=O)[O-])cc7)c7ccc([nH]7)c(-c7ccc(S(=O)(=O)[O-])cc7)c7nc(c(-c8ccc(S(=O)(=O)[O-])cc8)c8ccc5[nH]8)C=C7)C=C6)cc4)=C(CSc4nnc(C)s4)CS[C@H]23)n(C)n1
REMARK SMILES IDX 21 1 20 2 19 3 18 4 17 5 16 6 15 7 13 8 14 9 12 10 8 11 9 12
REMARK SMILES IDX 101 13 10 14 11 15 100 16 99 17 90 18 7 19 5 20 6 21 4 23
REMARK SMILES IDX 1 24 2 25 3 26 104 27 102 28 103 29 91 30 92 31 93 32 94 33
REMARK SMILES IDX 98 34 95 35 96 36 97 37 22 38 23 39 24 40 25 41 26 42 27 43
REMARK SMILES IDX 28 44 29 45 30 46 31 47 89 48 32 49 88 50 33 51 34 52 35 53
REMARK SMILES IDX 82 54 36 55 87 56 81 57 83 58 37 59 86 60 80 61 79 62 38 64
REMARK SMILES IDX 68 65 49 66 67 67 50 68 53 69 66 70 84 71 51 72 52 73 65 75
REMARK SMILES IDX 85 76 54 77 39 78 40 79 48 80 41 81 47 82 42 83 43 84 44 85
REMARK SMILES IDX 45 86 46 87 69 88 70 89 78 90 71 91 77 92 72 93 73 94 74 95
REMARK SMILES IDX 75 96 76 97 55 98 56 99 64 100 57 101 63 102 58 103 59 104
REMARK SMILES IDX 60 105 61 106 62 107
REMARK H PARENT 7 22 83 63 53 74
REMARK Flexibility Score: inf
ROOT
ATOM      1  O   UNL A   1      42.776  33.565  29.645  1.00  0.00    -0.377 OA
ENDROOT
BRANCH   1   2
ATOM      2  C   UNL A   1      43.223  34.504  28.676  1.00  0.00     0.188 C 
BRANCH   2   3
ATOM      3  C   UNL A   1      42.259  35.393  27.842  1.00  0.00     0.188 C 
BRANCH   3   4
ATOM      4  O   UNL A   1      42.461  36.787  27.979  1.00  0.00    -0.376 OA
BRANCH   4   5
ATOM      5  C   UNL A   1      42.554  37.629  26.854  1.00  0.00     0.202 C 
BRANCH   5   6
ATOM      6  C   UNL A   1      42.014  39.065  26.898  1.00  0.00     0.261 C 
BRANCH   6   7
ATOM      7  O   UNL A   1      42.663  39.962  27.804  1.00  0.00    -0.459 OA
BRANCH   7   8
ATOM      8  C   UNL A   1      43.688  40.684  27.312  1.00  0.00     0.355 C 
ATOM      9  O   UNL A   1      43.589  41.660  26.579  1.00  0.00    -0.244 OA
BRANCH   8  10
ATOM     10  C   UNL A   1      45.020  40.197  27.815  1.00  0.00     0.132 C 
ATOM     11  C   UNL A   1      46.891  38.162  25.811  1.00  0.00     0.206 C 
ATOM     12  C   UNL A   1      46.145  39.511  25.638  1.00  0.00     0.253 C 
ATOM     13  C   UNL A   1      46.618  38.392  27.330  1.00  0.00     0.181 C 
ATOM     14  O   UNL A   1      46.013  40.306  24.749  1.00  0.00    -0.272 OA
ATOM     15  N   UNL A   1      45.719  39.433  26.928  1.00  0.00    -0.289 N 
ATOM     16  S   UNL A   1      47.915  39.162  28.323  1.00  0.00    -0.129 SA
ATOM     17  C   UNL A   1      46.733  39.650  29.605  1.00  0.00     0.106 C 
ATOM     18  C   UNL A   1      45.493  40.374  29.080  1.00  0.00    -0.019 C 
BRANCH  11  19
ATOM     19  N   UNL A   1      48.295  37.987  25.368  1.00  0.00    -0.336 N 
ATOM     20  C   UNL A   1      49.029  36.812  25.373  1.00  0.00     0.270 C 
ATOM     21  O   UNL A   1      50.185  36.851  24.957  1.00  0.00    -0.268 OA
ATOM     22  H   UNL A   1      48.754  38.792  25.036  1.00  0.00     0.164 HD
BRANCH  20  23
ATOM     23  C   UNL A   1      48.419  35.622  25.936  1.00  0.00     0.126 A 
ATOM     24  C   UNL A   1      45.598  33.363  26.323  1.00  0.00     0.069 C 
ATOM     25  C   UNL A   1      46.885  34.097  26.413  1.00  0.00     0.060 A 
ATOM     26  C   UNL A   1      47.662  34.613  25.356  1.00  0.00     0.059 A 
ATOM     27  N   UNL A   1      47.402  34.444  27.592  1.00  0.00    -0.178 NA
ATOM     28  N   UNL A   1      48.423  35.271  27.268  1.00  0.00    -0.263 N 
ATOM     29  C   UNL A   1      49.329  35.663  28.319  1.00  0.00     0.174 C 
ENDBRANCH  20  23
ENDBRANCH  11  19
BRANCH  18  30
ATOM     30  C   UNL A   1      44.829  41.188  30.169  1.00  0.00     0.111 C 
BRANCH  30  31
ATOM     31  S   UNL A   1      43.543  40.399  31.164  1.00  0.00    -0.089 SA
BRANCH  31  32
ATOM     32  C   UNL A   1      42.822  41.569  32.239  1.00  0.00     0.174 A 
ATOM     33  N   UNL A   1      42.444  41.333  33.474  1.00  0.00    -0.132 NA
ATOM     34  S   UNL A   1      42.600  43.209  31.766  1.00  0.00    -0.091 S 
ATOM     35  N   UNL A   1      42.066  42.477  34.149  1.00  0.00    -0.143 NA
ATOM     36  C   UNL A   1      42.178  43.550  33.396  1.00  0.00     0.115 A 
ATOM     37  C   UNL A   1      41.978  44.945  33.866  1.00  0.00     0.081 C 
ENDBRANCH  31  32
ENDBRANCH  30  31
ENDBRANCH  18  30
ENDBRANCH   8  10
ENDBRANCH   7   8
ENDBRANCH   6   7
ENDBRANCH   5   6
ENDBRANCH   4   5
ENDBRANCH   3   4
ENDBRANCH   2   3
ENDBRANCH   1   2
BRANCH   1  38
ATOM     38  C   UNL A   1      41.973  34.035  30.711  1.00  0.00     0.188 C 
BRANCH  38  39
ATOM     39  C   UNL A   1      40.620  33.306  30.785  1.00  0.00     0.188 C 
BRANCH  39  40
ATOM     40  O   UNL A   1      39.507  34.132  31.073  1.00  0.00    -0.376 OA
BRANCH  40  41
ATOM     41  C   UNL A   1      38.352  33.611  31.712  1.00  0.00     0.202 C 
BRANCH  41  42
ATOM     42  C   UNL A   1      37.492  34.315  32.787  1.00  0.00     0.261 C 
BRANCH  42  43
ATOM     43  O   UNL A   1      37.760  34.091  34.174  1.00  0.00    -0.460 OA
BRANCH  43  44
ATOM     44  C   UNL A   1      38.851  34.669  34.714  1.00  0.00     0.338 C 
ATOM     45  O   UNL A   1      38.939  35.791  35.172  1.00  0.00    -0.246 OA
BRANCH  44  46
ATOM     46  C   UNL A   1      39.888  33.613  34.812  1.00  0.00     0.060 A 
ATOM     47  C   UNL A   1      41.211  33.915  34.462  1.00  0.00     0.016 A 
ATOM     48  C   UNL A   1      39.556  32.340  35.277  1.00  0.00     0.016 A 
ATOM     49  C   UNL A   1      42.202  32.938  34.556  1.00  0.00     0.010 A 
ATOM     50  C   UNL A   1      40.545  31.355  35.351  1.00  0.00     0.010 A 
ATOM     51  C   UNL A   1      41.864  31.640  34.954  1.00  0.00    -0.014 A 
BRANCH  51  52
ATOM     52  C   UNL A   1      42.828  30.534  34.734  1.00  0.00     0.031 A 
ATOM     53  C   UNL A   1      43.730  30.148  35.876  1.00  0.00     0.074 A 
ATOM     54  C   UNL A   1      42.883  29.865  33.569  1.00  0.00     0.049 A 
ATOM     55  N   UNL A   1      44.679  29.250  35.916  1.00  0.00    -0.248 NA
ATOM     56  C   UNL A   1      43.536  30.878  37.140  1.00  0.00     0.031 C 
ATOM     57  C   UNL A   1      42.025  30.105  32.409  1.00  0.00     0.029 A 
ATOM     58  N   UNL A   1      43.709  28.842  33.171  1.00  0.00    -0.354 N 
ATOM     59  C   UNL A   1      45.206  29.319  37.201  1.00  0.00     0.074 A 
ATOM     60  C   UNL A   1      44.496  30.369  37.896  1.00  0.00     0.031 C 
ATOM     61  C   UNL A   1      42.373  29.254  31.428  1.00  0.00     0.029 A 
ATOM     62  C   UNL A   1      43.504  28.440  31.873  1.00  0.00     0.049 A 
ATOM     63  H   UNL A   1      44.384  28.436  33.761  1.00  0.00     0.167 HD
ATOM     64  C   UNL A   1      46.188  28.571  37.755  1.00  0.00     0.031 A 
ATOM     65  C   UNL A   1      44.169  27.537  31.125  1.00  0.00     0.031 A 
ATOM     66  C   UNL A   1      46.901  27.537  37.054  1.00  0.00     0.049 A 
ATOM     67  C   UNL A   1      45.321  26.778  31.735  1.00  0.00     0.074 A 
ATOM     68  C   UNL A   1      47.907  26.714  37.530  1.00  0.00     0.029 A 
ATOM     69  N   UNL A   1      46.695  27.192  35.727  1.00  0.00    -0.354 N 
ATOM     70  N   UNL A   1      45.796  26.837  32.957  1.00  0.00    -0.248 NA
ATOM     71  C   UNL A   1      46.022  25.822  30.864  1.00  0.00     0.031 C 
ATOM     72  C   UNL A   1      48.358  25.921  36.470  1.00  0.00     0.029 A 
ATOM     73  C   UNL A   1      47.579  26.192  35.356  1.00  0.00     0.049 A 
ATOM     74  H   UNL A   1      46.021  27.599  35.136  1.00  0.00     0.167 HD
ATOM     75  C   UNL A   1      46.827  25.903  33.010  1.00  0.00     0.074 A 
ATOM     76  C   UNL A   1      46.898  25.285  31.702  1.00  0.00     0.031 C 
ATOM     77  C   UNL A   1      47.640  25.584  34.050  1.00  0.00     0.031 A 
BRANCH  64  78
ATOM     78  C   UNL A   1      46.578  28.881  39.178  1.00  0.00    -0.014 A 
ATOM     79  C   UNL A   1      46.000  28.198  40.264  1.00  0.00     0.010 A 
ATOM     80  C   UNL A   1      47.561  29.856  39.429  1.00  0.00     0.010 A 
ATOM     81  C   UNL A   1      46.365  28.518  41.575  1.00  0.00     0.020 A 
ATOM     82  C   UNL A   1      47.953  30.154  40.736  1.00  0.00     0.020 A 
ATOM     83  C   UNL A   1      47.339  29.494  41.803  1.00  0.00     0.054 A 
BRANCH  83  84
ATOM     84  S   UNL A   1      47.805  29.874  43.513  1.00  0.00     0.124 S 
ATOM     85  O   UNL A   1      46.954  28.957  44.268  1.00  0.00    -0.237 OA
ATOM     86  O   UNL A   1      49.232  29.565  43.530  1.00  0.00    -0.237 OA
ATOM     87  O   UNL A   1      47.474  31.290  43.659  1.00  0.00    -0.744 OA
ENDBRANCH  83  84
ENDBRANCH  64  78
BRANCH  65  88
ATOM     88  C   UNL A   1      43.776  27.313  29.704  1.00  0.00    -0.014 A 
ATOM     89  C   UNL A   1      44.421  28.001  28.661  1.00  0.00     0.010 A 
ATOM     90  C   UNL A   1      42.748  26.406  29.387  1.00  0.00     0.010 A 
ATOM     91  C   UNL A   1      44.041  27.793  27.331  1.00  0.00     0.020 A 
ATOM     92  C   UNL A   1      42.386  26.171  28.058  1.00  0.00     0.020 A 
ATOM     93  C   UNL A   1      43.030  26.872  27.038  1.00  0.00     0.054 A 
BRANCH  93  94
ATOM     94  S   UNL A   1      42.603  26.568  25.301  1.00  0.00     0.124 S 
ATOM     95  O   UNL A   1      41.270  25.985  25.413  1.00  0.00    -0.237 OA
ATOM     96  O   UNL A   1      42.664  27.908  24.724  1.00  0.00    -0.237 OA
ATOM     97  O   UNL A   1      43.649  25.654  24.846  1.00  0.00    -0.744 OA
ENDBRANCH  93  94
ENDBRANCH  65  88
BRANCH  77  98
ATOM     98  C   UNL A   1      48.652  24.486  33.838  1.00  0.00    -0.014 A 
ATOM     99  C   UNL A   1      49.851  24.714  33.141  1.00  0.00     0.010 A 
ATOM    100  C   UNL A   1      48.425  23.219  34.410  1.00  0.00     0.010 A 
ATOM    101  C   UNL A   1      50.788  23.686  32.990  1.00  0.00     0.020 A 
ATOM    102  C   UNL A   1      49.373  22.201  34.291  1.00  0.00     0.020 A 
ATOM    103  C   UNL A   1      50.544  22.437  33.569  1.00  0.00     0.054 A 
BRANCH 103 104
ATOM    104  S   UNL A   1      51.797  21.138  33.399  1.00  0.00     0.124 S 
ATOM    105  O   UNL A   1      52.160  21.247  31.988  1.00  0.00    -0.237 OA
ATOM    106  O   UNL A   1      52.825  21.560  34.347  1.00  0.00    -0.237 OA
ATOM    107  O   UNL A   1      51.084  19.915  33.765  1.00  0.00    -0.744 OA
ENDBRANCH 103 104
ENDBRANCH  77  98
ENDBRANCH  51  52
ENDBRANCH  44  46
ENDBRANCH  43  44
ENDBRANCH  42  43
ENDBRANCH  41  42
ENDBRANCH  40  41
ENDBRANCH  39  40
ENDBRANCH  38  39
ENDBRANCH   1  38
TORSDOF 28
ENDMDL
MODEL 3
REMARK VINA RESULT:      -7.2      5.448      9.211
REMARK SMILES Cc1cc(C(=O)N[C@@H]2C(=O)N3C(C(=O)OCCOCCOCCOCCOC(=O)c4ccc(-c5c6nc(c(-c7ccc(S(=O)(=O)[O-])cc7)c7ccc([nH]7)c(-c7ccc(S(=O)(=O)[O-])cc7)c7nc(c(-c8ccc(S(=O)(=O)[O-])cc8)c8ccc5[nH]8)C=C7)C=C6)cc4)=C(CSc4nnc(C)s4)CS[C@H]23)n(C)n1
REMARK SMILES IDX 21 1 20 2 19 3 18 4 17 5 16 6 15 7 13 8 14 9 12 10 8 11 9 12
REMARK SMILES IDX 101 13 10 14 11 15 100 16 99 17 90 18 7 19 5 20 6 21 4 23
REMARK SMILES IDX 1 24 2 25 3 26 104 27 102 28 103 29 91 30 92 31 93 32 94 33
REMARK SMILES IDX 98 34 95 35 96 36 97 37 22 38 23 39 24 40 25 41 26 42 27 43
REMARK SMILES IDX 28 44 29 45 30 46 31 47 89 48 32 49 88 50 33 51 34 52 35 53
REMARK SMILES IDX 82 54 36 55 87 56 81 57 83 58 37 59 86 60 80 61 79 62 38 64
REMARK SMILES IDX 68 65 49 66 67 67 50 68 53 69 66 70 84 71 51 72 52 73 65 75
REMARK SMILES IDX 85 76 54 77 39 78 40 79 48 80 41 81 47 82 42 83 43 84 44 85
REMARK SMILES IDX 45 86 46 87 69 88 70 89 78 90 71 91 77 92 72 93 73 94 74 95
REMARK SMILES IDX 75 96 76 97 55 98 56 99 64 100 57 101 63 102 58 103 59 104
REMARK SMILES IDX 60 105 61 106 62 107
REMARK H PARENT 7 22 83 63 53 74
REMARK Flexibility Score: inf
ROOT
ATOM      1  O   UNL A   1      36.536  32.838  28.933  1.00  0.00    -0.377 OA
ENDROOT
BRANCH   1   2
ATOM      2  C   UNL A   1      35.519  32.492  29.863  1.00  0.00     0.188 C 
BRANCH   2   3
ATOM      3  C   UNL A   1      35.090  33.412  31.040  1.00  0.00     0.188 C 
BRANCH   3   4
ATOM      4  O   UNL A   1      34.055  32.898  31.856  1.00  0.00    -0.376 OA
BRANCH   4   5
ATOM      5  C   UNL A   1      34.024  33.144  33.243  1.00  0.00     0.202 C 
BRANCH   5   6
ATOM      6  C   UNL A   1      35.096  34.014  33.913  1.00  0.00     0.261 C 
BRANCH   6   7
ATOM      7  O   UNL A   1      36.300  33.350  34.307  1.00  0.00    -0.459 OA
BRANCH   7   8
ATOM      8  C   UNL A   1      37.450  34.035  34.149  1.00  0.00     0.355 C 
ATOM      9  O   UNL A   1      37.570  35.107  33.570  1.00  0.00    -0.244 OA
BRANCH   8  10
ATOM     10  C   UNL A   1      38.610  33.362  34.830  1.00  0.00     0.132 C 
ATOM     11  C   UNL A   1      38.952  33.693  38.211  1.00  0.00     0.206 C 
ATOM     12  C   UNL A   1      37.802  33.312  37.242  1.00  0.00     0.253 C 
ATOM     13  C   UNL A   1      39.851  33.534  36.946  1.00  0.00     0.181 C 
ATOM     14  O   UNL A   1      36.658  32.969  37.367  1.00  0.00    -0.272 OA
ATOM     15  N   UNL A   1      38.637  33.505  36.185  1.00  0.00    -0.289 N 
ATOM     16  S   UNL A   1      40.683  31.953  36.682  1.00  0.00    -0.129 SA
ATOM     17  C   UNL A   1      40.911  32.293  34.918  1.00  0.00     0.106 C 
ATOM     18  C   UNL A   1      39.642  32.741  34.192  1.00  0.00    -0.019 C 
BRANCH  11  19
ATOM     19  N   UNL A   1      39.268  32.871  39.404  1.00  0.00    -0.336 N 
ATOM     20  C   UNL A   1      39.556  33.331  40.679  1.00  0.00     0.270 C 
ATOM     21  O   UNL A   1      39.786  32.500  41.555  1.00  0.00    -0.268 OA
ATOM     22  H   UNL A   1      39.273  31.895  39.277  1.00  0.00     0.164 HD
BRANCH  20  23
ATOM     23  C   UNL A   1      39.645  34.764  40.890  1.00  0.00     0.126 A 
ATOM     24  C   UNL A   1      38.810  38.180  39.970  1.00  0.00     0.069 C 
ATOM     25  C   UNL A   1      39.365  36.937  40.562  1.00  0.00     0.060 A 
ATOM     26  C   UNL A   1      38.673  35.755  40.898  1.00  0.00     0.059 A 
ATOM     27  N   UNL A   1      40.677  36.784  40.744  1.00  0.00    -0.178 NA
ATOM     28  N   UNL A   1      40.808  35.478  41.075  1.00  0.00    -0.263 N 
ATOM     29  C   UNL A   1      42.096  35.031  41.544  1.00  0.00     0.174 C 
ENDBRANCH  20  23
ENDBRANCH  11  19
BRANCH  18  30
ATOM     30  C   UNL A   1      39.752  32.513  32.701  1.00  0.00     0.111 C 
BRANCH  30  31
ATOM     31  S   UNL A   1      41.142  33.258  31.820  1.00  0.00    -0.089 SA
BRANCH  31  32
ATOM     32  C   UNL A   1      42.553  32.241  31.967  1.00  0.00     0.174 A 
ATOM     33  N   UNL A   1      43.792  32.670  32.045  1.00  0.00    -0.132 NA
ATOM     34  S   UNL A   1      42.420  30.530  32.091  1.00  0.00    -0.091 S 
ATOM     35  N   UNL A   1      44.693  31.661  32.328  1.00  0.00    -0.143 NA
ATOM     36  C   UNL A   1      44.097  30.495  32.461  1.00  0.00     0.115 A 
ATOM     37  C   UNL A   1      44.766  29.242  32.895  1.00  0.00     0.081 C 
ENDBRANCH  31  32
ENDBRANCH  30  31
ENDBRANCH  18  30
ENDBRANCH   8  10
ENDBRANCH   7   8
ENDBRANCH   6   7
ENDBRANCH   5   6
ENDBRANCH   4   5
ENDBRANCH   3   4
ENDBRANCH   2   3
ENDBRANCH   1   2
BRANCH   1  38
ATOM     38  C   UNL A   1      37.856  32.399  29.190  1.00  0.00     0.188 C 
BRANCH  38  39
ATOM     39  C   UNL A   1      37.964  30.865  29.218  1.00  0.00     0.188 C 
BRANCH  39  40
ATOM     40  O   UNL A   1      38.009  30.288  30.510  1.00  0.00    -0.376 OA
BRANCH  40  41
ATOM     41  C   UNL A   1      38.071  28.881  30.684  1.00  0.00     0.202 C 
BRANCH  41  42
ATOM     42  C   UNL A   1      38.674  27.853  29.700  1.00  0.00     0.261 C 
BRANCH  42  43
ATOM     43  O   UNL A   1      40.090  27.801  29.501  1.00  0.00    -0.460 OA
BRANCH  43  44
ATOM     44  C   UNL A   1      40.582  26.871  28.658  1.00  0.00     0.338 C 
ATOM     45  O   UNL A   1      39.990  26.308  27.759  1.00  0.00    -0.246 OA
BRANCH  44  46
ATOM     46  C   UNL A   1      42.039  26.790  28.915  1.00  0.00     0.060 A 
ATOM     47  C   UNL A   1      42.733  25.622  28.573  1.00  0.00     0.016 A 
ATOM     48  C   UNL A   1      42.721  27.878  29.464  1.00  0.00     0.016 A 
ATOM     49  C   UNL A   1      44.107  25.529  28.800  1.00  0.00     0.010 A 
ATOM     50  C   UNL A   1      44.093  27.778  29.710  1.00  0.00     0.010 A 
ATOM     51  C   UNL A   1      44.784  26.589  29.414  1.00  0.00    -0.014 A 
BRANCH  51  52
ATOM     52  C   UNL A   1      46.147  26.368  29.955  1.00  0.00     0.031 A 
ATOM     53  C   UNL A   1      47.319  26.730  29.082  1.00  0.00     0.074 A 
ATOM     54  C   UNL A   1      46.347  25.894  31.198  1.00  0.00     0.049 A 
ATOM     55  N   UNL A   1      48.598  26.590  29.311  1.00  0.00    -0.248 NA
ATOM     56  C   UNL A   1      47.002  27.324  27.772  1.00  0.00     0.031 C 
ATOM     57  C   UNL A   1      45.297  25.562  32.160  1.00  0.00     0.029 A 
ATOM     58  N   UNL A   1      47.515  25.606  31.860  1.00  0.00    -0.354 N 
ATOM     59  C   UNL A   1      49.236  27.062  28.169  1.00  0.00     0.074 A 
ATOM     60  C   UNL A   1      48.204  27.459  27.237  1.00  0.00     0.031 C 
ATOM     61  C   UNL A   1      45.871  25.111  33.289  1.00  0.00     0.029 A 
ATOM     62  C   UNL A   1      47.323  25.082  33.116  1.00  0.00     0.049 A 
ATOM     63  H   UNL A   1      48.406  25.760  31.471  1.00  0.00     0.167 HD
ATOM     64  C   UNL A   1      50.563  27.164  27.920  1.00  0.00     0.031 A 
ATOM     65  C   UNL A   1      48.215  24.611  34.010  1.00  0.00     0.031 A 
ATOM     66  C   UNL A   1      51.586  26.754  28.845  1.00  0.00     0.049 A 
ATOM     67  C   UNL A   1      49.686  24.650  33.676  1.00  0.00     0.074 A 
ATOM     68  C   UNL A   1      52.959  26.826  28.693  1.00  0.00     0.029 A 
ATOM     69  N   UNL A   1      51.349  26.186  30.087  1.00  0.00    -0.354 N 
ATOM     70  N   UNL A   1      50.278  25.119  32.602  1.00  0.00    -0.248 NA
ATOM     71  C   UNL A   1      50.610  24.103  34.680  1.00  0.00     0.031 C 
ATOM     72  C   UNL A   1      53.552  26.234  29.813  1.00  0.00     0.029 A 
ATOM     73  C   UNL A   1      52.551  25.870  30.699  1.00  0.00     0.049 A 
ATOM     74  H   UNL A   1      50.458  26.030  30.477  1.00  0.00     0.167 HD
ATOM     75  C   UNL A   1      51.644  24.953  32.818  1.00  0.00     0.074 A 
ATOM     76  C   UNL A   1      51.789  24.354  34.129  1.00  0.00     0.031 C 
ATOM     77  C   UNL A   1      52.683  25.272  32.005  1.00  0.00     0.031 A 
BRANCH  64  78
ATOM     78  C   UNL A   1      50.978  27.698  26.574  1.00  0.00    -0.014 A 
ATOM     79  C   UNL A   1      50.983  26.881  25.428  1.00  0.00     0.010 A 
ATOM     80  C   UNL A   1      51.347  29.050  26.449  1.00  0.00     0.010 A 
ATOM     81  C   UNL A   1      51.391  27.395  24.194  1.00  0.00     0.020 A 
ATOM     82  C   UNL A   1      51.723  29.577  25.211  1.00  0.00     0.020 A 
ATOM     83  C   UNL A   1      51.759  28.740  24.094  1.00  0.00     0.054 A 
BRANCH  83  84
ATOM     84  S   UNL A   1      52.267  29.384  22.477  1.00  0.00     0.124 S 
ATOM     85  O   UNL A   1      52.150  28.199  21.630  1.00  0.00    -0.237 OA
ATOM     86  O   UNL A   1      51.282  30.433  22.229  1.00  0.00    -0.237 OA
ATOM     87  O   UNL A   1      53.632  29.854  22.701  1.00  0.00    -0.744 OA
ENDBRANCH  83  84
ENDBRANCH  64  78
BRANCH  65  88
ATOM     88  C   UNL A   1      47.743  24.041  35.304  1.00  0.00    -0.014 A 
ATOM     89  C   UNL A   1      47.495  22.663  35.436  1.00  0.00     0.010 A 
ATOM     90  C   UNL A   1      47.537  24.879  36.415  1.00  0.00     0.010 A 
ATOM     91  C   UNL A   1      47.043  22.136  36.651  1.00  0.00     0.020 A 
ATOM     92  C   UNL A   1      47.116  24.354  37.640  1.00  0.00     0.020 A 
ATOM     93  C   UNL A   1      46.864  22.985  37.748  1.00  0.00     0.054 A 
BRANCH  93  94
ATOM     94  S   UNL A   1      46.344  22.269  39.331  1.00  0.00     0.124 S 
ATOM     95  O   UNL A   1      45.323  23.213  39.773  1.00  0.00    -0.237 OA
ATOM     96  O   UNL A   1      45.859  20.950  38.934  1.00  0.00    -0.237 OA
ATOM     97  O   UNL A   1      47.572  22.260  40.123  1.00  0.00    -0.744 OA
ENDBRANCH  93  94
ENDBRANCH  65  88
BRANCH  77  98
ATOM     98  C   UNL A   1      54.078  25.024  32.521  1.00  0.00    -0.014 A 
ATOM     99  C   UNL A   1      54.852  26.056  33.082  1.00  0.00     0.010 A 
ATOM    100  C   UNL A   1      54.597  23.715  32.504  1.00  0.00     0.010 A 
ATOM    101  C   UNL A   1      56.129  25.789  33.584  1.00  0.00     0.020 A 
ATOM    102  C   UNL A   1      55.858  23.438  33.036  1.00  0.00     0.020 A 
ATOM    103  C   UNL A   1      56.623  24.481  33.561  1.00  0.00     0.054 A 
BRANCH 103 104
ATOM    104  S   UNL A   1      58.263  24.156  34.263  1.00  0.00     0.124 S 
ATOM    105  O   UNL A   1      59.088  25.150  33.583  1.00  0.00    -0.237 OA
ATOM    106  O   UNL A   1      58.050  24.384  35.690  1.00  0.00    -0.237 OA
ATOM    107  O   UNL A   1      58.531  22.767  33.894  1.00  0.00    -0.744 OA
ENDBRANCH 103 104
ENDBRANCH  77  98
ENDBRANCH  51  52
ENDBRANCH  44  46
ENDBRANCH  43  44
ENDBRANCH  42  43
ENDBRANCH  41  42
ENDBRANCH  40  41
ENDBRANCH  39  40
ENDBRANCH  38  39
ENDBRANCH   1  38
TORSDOF 28
ENDMDL
