MODEL 1
REMARK VINA RESULT:      -8.5      0.000      0.000
REMARK SMILES O=C(C[C@H](NC(=O)[C@]12C[C@H]3C[C@H](C[C@H](C3)C1)C2)c1cccc([N+](=O)[O-])c1)OCCOCCOCCOCCOC(=O)c1ccc(-c2c3nc(c(-c4ccc(S(=O)(=O)[O-])cc4)c4ccc([nH]4)c(-c4ccc(S(=O)(=O)[O-])cc4)c4nc(c(-c5ccc(S(=O)(=O)[O-])cc5)c5ccc2[nH]5)C=C4)C=C3)cc1
REMARK SMILES IDX 33 1 32 2 31 3 30 4 29 5 28 6 27 7 2 8 1 9 3 10 4 11 18 12
REMARK SMILES IDX 19 13 26 14 20 15 22 16 21 17 23 18 24 19 25 20 5 21 6 22
REMARK SMILES IDX 7 24 8 25 9 26 16 27 17 28 10 29 14 30 12 31 11 32 15 33
REMARK SMILES IDX 13 34 34 35 35 36 36 37 37 38 38 39 39 40 40 41 41 42 42 43
REMARK SMILES IDX 43 44 101 45 44 46 100 47 45 48 46 49 47 50 94 51 48 52
REMARK SMILES IDX 99 53 93 54 95 55 49 56 98 57 92 58 91 59 50 61 80 62 61 63
REMARK SMILES IDX 79 64 62 65 65 66 78 67 96 68 63 69 64 70 77 72 97 73 66 74
REMARK SMILES IDX 51 75 52 76 60 77 53 78 59 79 54 80 55 81 56 82 57 83 58 84
REMARK SMILES IDX 81 85 82 86 90 87 83 88 89 89 84 90 85 91 86 92 87 93 88 94
REMARK SMILES IDX 67 95 68 96 76 97 69 98 75 99 70 100 71 101 72 102 73 103
REMARK SMILES IDX 74 104
REMARK H PARENT 5 23 95 60 65 71
REMARK Flexibility Score: inf
ROOT
ATOM      1  O   UNL A   1      35.970  34.261  29.451  1.00  0.00    -0.377 OA
ENDROOT
BRANCH   1   2
ATOM      2  C   UNL A   1      34.981  34.111  28.450  1.00  0.00     0.188 C 
BRANCH   2   3
ATOM      3  C   UNL A   1      34.066  32.889  28.558  1.00  0.00     0.188 C 
BRANCH   3   4
ATOM      4  O   UNL A   1      34.134  31.774  27.677  1.00  0.00    -0.376 OA
BRANCH   4   5
ATOM      5  C   UNL A   1      33.114  30.882  27.257  1.00  0.00     0.202 C 
BRANCH   5   6
ATOM      6  C   UNL A   1      33.326  29.381  27.069  1.00  0.00     0.261 C 
BRANCH   6   7
ATOM      7  O   UNL A   1      32.414  28.705  26.209  1.00  0.00    -0.463 OA
BRANCH   7   8
ATOM      8  C   UNL A   1      32.648  27.478  25.697  1.00  0.00     0.308 C 
ATOM      9  O   UNL A   1      33.791  27.173  25.372  1.00  0.00    -0.252 OA
BRANCH   8  10
ATOM     10  C   UNL A   1      31.463  26.623  25.321  1.00  0.00     0.152 C 
BRANCH  10  11
ATOM     11  C   UNL A   1      31.231  26.346  23.854  1.00  0.00     0.123 C 
BRANCH  11  12
ATOM     12  C   UNL A   1      30.563  27.560  23.185  1.00  0.00    -0.018 A 
ATOM     13  C   UNL A   1      31.257  28.409  22.325  1.00  0.00     0.006 A 
ATOM     14  C   UNL A   1      29.224  27.912  23.476  1.00  0.00     0.091 A 
ATOM     15  C   UNL A   1      30.725  29.614  21.858  1.00  0.00     0.007 A 
ATOM     16  C   UNL A   1      28.664  29.103  22.968  1.00  0.00     0.269 A 
ATOM     17  C   UNL A   1      29.425  29.972  22.183  1.00  0.00     0.085 A 
BRANCH  16  18
ATOM     18  N   UNL A   1      27.262  29.443  23.252  1.00  0.00     0.062 N 
ATOM     19  O   UNL A   1      26.466  28.508  23.425  1.00  0.00    -0.258 OA
ATOM     20  O   UNL A   1      26.965  30.644  23.322  1.00  0.00    -0.258 OA
ENDBRANCH  16  18
ENDBRANCH  11  12
BRANCH  11  21
ATOM     21  N   UNL A   1      32.359  25.714  23.165  1.00  0.00    -0.348 N 
ATOM     22  C   UNL A   1      32.819  24.438  23.021  1.00  0.00     0.226 C 
ATOM     23  H   UNL A   1      32.919  26.368  22.689  1.00  0.00     0.164 HD
ATOM     24  O   UNL A   1      33.335  24.217  21.916  1.00  0.00    -0.274 OA
BRANCH  22  25
ATOM     25  C   UNL A   1      32.994  23.400  24.154  1.00  0.00     0.050 C 
ATOM     26  C   UNL A   1      31.612  22.975  24.750  1.00  0.00     0.020 C 
ATOM     27  C   UNL A   1      33.850  23.788  25.371  1.00  0.00     0.020 C 
ATOM     28  C   UNL A   1      33.538  22.135  23.440  1.00  0.00     0.020 C 
ATOM     29  C   UNL A   1      31.775  21.778  25.722  1.00  0.00    -0.010 C 
ATOM     30  C   UNL A   1      34.057  22.612  26.333  1.00  0.00    -0.010 C 
ATOM     31  C   UNL A   1      33.782  20.994  24.424  1.00  0.00    -0.010 C 
ATOM     32  C   UNL A   1      32.420  20.584  24.995  1.00  0.00     0.007 C 
ATOM     33  C   UNL A   1      32.695  22.175  26.885  1.00  0.00     0.007 C 
ATOM     34  C   UNL A   1      34.711  21.463  25.554  1.00  0.00     0.007 C 
ENDBRANCH  22  25
ENDBRANCH  11  21
ENDBRANCH  10  11
ENDBRANCH   8  10
ENDBRANCH   7   8
ENDBRANCH   6   7
ENDBRANCH   5   6
ENDBRANCH   4   5
ENDBRANCH   3   4
ENDBRANCH   2   3
ENDBRANCH   1   2
BRANCH   1  35
ATOM     35  C   UNL A   1      36.486  33.031  29.918  1.00  0.00     0.188 C 
BRANCH  35  36
ATOM     36  C   UNL A   1      37.915  32.727  29.413  1.00  0.00     0.188 C 
BRANCH  36  37
ATOM     37  O   UNL A   1      38.374  31.389  29.324  1.00  0.00    -0.376 OA
BRANCH  37  38
ATOM     38  C   UNL A   1      37.468  30.318  29.118  1.00  0.00     0.202 C 
BRANCH  38  39
ATOM     39  C   UNL A   1      37.173  29.206  30.150  1.00  0.00     0.261 C 
BRANCH  39  40
ATOM     40  O   UNL A   1      38.216  28.832  31.055  1.00  0.00    -0.460 OA
BRANCH  40  41
ATOM     41  C   UNL A   1      37.957  29.003  32.372  1.00  0.00     0.338 C 
ATOM     42  O   UNL A   1      37.428  28.200  33.125  1.00  0.00    -0.246 OA
BRANCH  41  43
ATOM     43  C   UNL A   1      38.664  30.223  32.826  1.00  0.00     0.060 A 
ATOM     44  C   UNL A   1      40.051  30.148  33.035  1.00  0.00     0.016 A 
ATOM     45  C   UNL A   1      37.997  31.444  32.962  1.00  0.00     0.016 A 
ATOM     46  C   UNL A   1      40.770  31.282  33.403  1.00  0.00     0.010 A 
ATOM     47  C   UNL A   1      38.711  32.572  33.383  1.00  0.00     0.010 A 
ATOM     48  C   UNL A   1      40.090  32.481  33.641  1.00  0.00    -0.014 A 
BRANCH  48  49
ATOM     49  C   UNL A   1      40.767  33.525  34.446  1.00  0.00     0.031 A 
ATOM     50  C   UNL A   1      40.550  33.490  35.936  1.00  0.00     0.074 A 
ATOM     51  C   UNL A   1      41.594  34.432  33.897  1.00  0.00     0.049 A 
ATOM     52  N   UNL A   1      41.015  34.283  36.863  1.00  0.00    -0.248 NA
ATOM     53  C   UNL A   1      39.690  32.406  36.446  1.00  0.00     0.031 C 
ATOM     54  C   UNL A   1      41.934  34.526  32.478  1.00  0.00     0.029 A 
ATOM     55  N   UNL A   1      42.303  35.452  34.482  1.00  0.00    -0.354 N 
ATOM     56  C   UNL A   1      40.507  33.794  38.061  1.00  0.00     0.074 A 
ATOM     57  C   UNL A   1      39.668  32.661  37.743  1.00  0.00     0.031 C 
ATOM     58  C   UNL A   1      42.779  35.560  32.301  1.00  0.00     0.029 A 
ATOM     59  C   UNL A   1      43.015  36.216  33.587  1.00  0.00     0.049 A 
ATOM     60  H   UNL A   1      42.301  35.620  35.452  1.00  0.00     0.167 HD
ATOM     61  C   UNL A   1      40.728  34.239  39.320  1.00  0.00     0.031 A 
ATOM     62  C   UNL A   1      43.750  37.328  33.787  1.00  0.00     0.031 A 
ATOM     63  C   UNL A   1      41.539  35.384  39.631  1.00  0.00     0.049 A 
ATOM     64  C   UNL A   1      43.897  37.869  35.189  1.00  0.00     0.074 A 
ATOM     65  C   UNL A   1      41.813  35.932  40.870  1.00  0.00     0.029 A 
ATOM     66  N   UNL A   1      42.201  36.160  38.692  1.00  0.00    -0.354 N 
ATOM     67  N   UNL A   1      43.422  37.390  36.315  1.00  0.00    -0.248 NA
ATOM     68  C   UNL A   1      44.693  39.095  35.348  1.00  0.00     0.031 C 
ATOM     69  C   UNL A   1      42.594  37.076  40.676  1.00  0.00     0.029 A 
ATOM     70  C   UNL A   1      42.865  37.196  39.322  1.00  0.00     0.049 A 
ATOM     71  H   UNL A   1      42.198  35.997  37.721  1.00  0.00     0.167 HD
ATOM     72  C   UNL A   1      43.888  38.238  37.316  1.00  0.00     0.074 A 
ATOM     73  C   UNL A   1      44.699  39.246  36.664  1.00  0.00     0.031 C 
ATOM     74  C   UNL A   1      43.672  38.189  38.655  1.00  0.00     0.031 A 
BRANCH  61  75
ATOM     75  C   UNL A   1      40.050  33.501  40.442  1.00  0.00    -0.014 A 
ATOM     76  C   UNL A   1      40.681  32.424  41.091  1.00  0.00     0.010 A 
ATOM     77  C   UNL A   1      38.774  33.906  40.873  1.00  0.00     0.010 A 
ATOM     78  C   UNL A   1      40.035  31.743  42.125  1.00  0.00     0.020 A 
ATOM     79  C   UNL A   1      38.136  33.248  41.928  1.00  0.00     0.020 A 
ATOM     80  C   UNL A   1      38.766  32.161  42.539  1.00  0.00     0.054 A 
BRANCH  80  81
ATOM     81  S   UNL A   1      37.965  31.280  43.906  1.00  0.00     0.124 S 
ATOM     82  O   UNL A   1      38.387  32.067  45.061  1.00  0.00    -0.237 OA
ATOM     83  O   UNL A   1      36.549  31.380  43.562  1.00  0.00    -0.237 OA
ATOM     84  O   UNL A   1      38.528  29.935  43.830  1.00  0.00    -0.744 OA
ENDBRANCH  80  81
ENDBRANCH  61  75
BRANCH  62  85
ATOM     85  C   UNL A   1      44.383  38.030  32.634  1.00  0.00    -0.014 A 
ATOM     86  C   UNL A   1      45.692  37.717  32.225  1.00  0.00     0.010 A 
ATOM     87  C   UNL A   1      43.685  39.048  31.957  1.00  0.00     0.010 A 
ATOM     88  C   UNL A   1      46.299  38.425  31.183  1.00  0.00     0.020 A 
ATOM     89  C   UNL A   1      44.277  39.736  30.894  1.00  0.00     0.020 A 
ATOM     90  C   UNL A   1      45.587  39.430  30.523  1.00  0.00     0.054 A 
BRANCH  90  91
ATOM     91  S   UNL A   1      46.383  40.312  29.152  1.00  0.00     0.124 S 
ATOM     92  O   UNL A   1      47.676  40.666  29.729  1.00  0.00    -0.237 OA
ATOM     93  O   UNL A   1      46.414  39.296  28.103  1.00  0.00    -0.237 OA
ATOM     94  O   UNL A   1      45.481  41.432  28.897  1.00  0.00    -0.744 OA
ENDBRANCH  90  91
ENDBRANCH  62  85
BRANCH  74  95
ATOM     95  C   UNL A   1      44.356  39.222  39.512  1.00  0.00    -0.014 A 
ATOM     96  C   UNL A   1      45.682  39.054  39.950  1.00  0.00     0.010 A 
ATOM     97  C   UNL A   1      43.673  40.408  39.842  1.00  0.00     0.010 A 
ATOM     98  C   UNL A   1      46.295  40.032  40.738  1.00  0.00     0.020 A 
ATOM     99  C   UNL A   1      44.293  41.403  40.600  1.00  0.00     0.020 A 
ATOM    100  C   UNL A   1      45.596  41.200  41.060  1.00  0.00     0.054 A 
BRANCH 100 101
ATOM    101  S   UNL A   1      46.425  42.467  42.058  1.00  0.00     0.124 S 
ATOM    102  O   UNL A   1      47.546  41.721  42.624  1.00  0.00    -0.237 OA
ATOM    103  O   UNL A   1      46.780  43.477  41.064  1.00  0.00    -0.237 OA
ATOM    104  O   UNL A   1      45.402  42.877  43.017  1.00  0.00    -0.744 OA
ENDBRANCH 100 101
ENDBRANCH  74  95
ENDBRANCH  48  49
ENDBRANCH  41  43
ENDBRANCH  40  41
ENDBRANCH  39  40
ENDBRANCH  38  39
ENDBRANCH  37  38
ENDBRANCH  36  37
ENDBRANCH  35  36
ENDBRANCH   1  35
TORSDOF 28
ENDMDL
MODEL 2
REMARK VINA RESULT:      -8.2      1.441      1.865
REMARK SMILES O=C(C[C@H](NC(=O)[C@]12C[C@H]3C[C@H](C[C@H](C3)C1)C2)c1cccc([N+](=O)[O-])c1)OCCOCCOCCOCCOC(=O)c1ccc(-c2c3nc(c(-c4ccc(S(=O)(=O)[O-])cc4)c4ccc([nH]4)c(-c4ccc(S(=O)(=O)[O-])cc4)c4nc(c(-c5ccc(S(=O)(=O)[O-])cc5)c5ccc2[nH]5)C=C4)C=C3)cc1
REMARK SMILES IDX 33 1 32 2 31 3 30 4 29 5 28 6 27 7 2 8 1 9 3 10 4 11 18 12
REMARK SMILES IDX 19 13 26 14 20 15 22 16 21 17 23 18 24 19 25 20 5 21 6 22
REMARK SMILES IDX 7 24 8 25 9 26 16 27 17 28 10 29 14 30 12 31 11 32 15 33
REMARK SMILES IDX 13 34 34 35 35 36 36 37 37 38 38 39 39 40 40 41 41 42 42 43
REMARK SMILES IDX 43 44 101 45 44 46 100 47 45 48 46 49 47 50 94 51 48 52
REMARK SMILES IDX 99 53 93 54 95 55 49 56 98 57 92 58 91 59 50 61 80 62 61 63
REMARK SMILES IDX 79 64 62 65 65 66 78 67 96 68 63 69 64 70 77 72 97 73 66 74
REMARK SMILES IDX 51 75 52 76 60 77 53 78 59 79 54 80 55 81 56 82 57 83 58 84
REMARK SMILES IDX 81 85 82 86 90 87 83 88 89 89 84 90 85 91 86 92 87 93 88 94
REMARK SMILES IDX 67 95 68 96 76 97 69 98 75 99 70 100 71 101 72 102 73 103
REMARK SMILES IDX 74 104
REMARK H PARENT 5 23 95 60 65 71
REMARK Flexibility Score: inf
ROOT
ATOM      1  O   UNL A   1      36.028  34.208  29.361  1.00  0.00    -0.377 OA
ENDROOT
BRANCH   1   2
ATOM      2  C   UNL A   1      35.034  34.018  28.372  1.00  0.00     0.188 C 
BRANCH   2   3
ATOM      3  C   UNL A   1      34.233  32.716  28.438  1.00  0.00     0.188 C 
BRANCH   3   4
ATOM      4  O   UNL A   1      34.321  31.687  27.460  1.00  0.00    -0.376 OA
BRANCH   4   5
ATOM      5  C   UNL A   1      33.372  30.698  27.090  1.00  0.00     0.202 C 
BRANCH   5   6
ATOM      6  C   UNL A   1      33.655  29.198  27.130  1.00  0.00     0.261 C 
BRANCH   6   7
ATOM      7  O   UNL A   1      32.787  28.360  26.372  1.00  0.00    -0.463 OA
BRANCH   7   8
ATOM      8  C   UNL A   1      33.057  27.065  26.100  1.00  0.00     0.308 C 
ATOM      9  O   UNL A   1      34.222  26.719  25.933  1.00  0.00    -0.252 OA
BRANCH   8  10
ATOM     10  C   UNL A   1      31.904  26.147  25.777  1.00  0.00     0.152 C 
BRANCH  10  11
ATOM     11  C   UNL A   1      31.689  25.769  24.330  1.00  0.00     0.123 C 
BRANCH  11  12
ATOM     12  C   UNL A   1      30.788  26.808  23.639  1.00  0.00    -0.018 A 
ATOM     13  C   UNL A   1      31.302  27.802  22.809  1.00  0.00     0.006 A 
ATOM     14  C   UNL A   1      29.394  26.843  23.879  1.00  0.00     0.091 A 
ATOM     15  C   UNL A   1      30.528  28.860  22.325  1.00  0.00     0.007 A 
ATOM     16  C   UNL A   1      28.597  27.881  23.353  1.00  0.00     0.269 A 
ATOM     17  C   UNL A   1      29.170  28.909  22.600  1.00  0.00     0.085 A 
BRANCH  16  18
ATOM     18  N   UNL A   1      27.145  27.891  23.583  1.00  0.00     0.062 N 
ATOM     19  O   UNL A   1      26.650  26.924  24.182  1.00  0.00    -0.258 OA
ATOM     20  O   UNL A   1      26.506  28.874  23.184  1.00  0.00    -0.258 OA
ENDBRANCH  16  18
ENDBRANCH  11  12
BRANCH  11  21
ATOM     21  N   UNL A   1      32.897  25.329  23.627  1.00  0.00    -0.348 N 
ATOM     22  C   UNL A   1      33.494  24.128  23.379  1.00  0.00     0.226 C 
ATOM     23  H   UNL A   1      33.398  26.082  23.239  1.00  0.00     0.164 HD
ATOM     24  O   UNL A   1      34.062  24.073  22.278  1.00  0.00    -0.274 OA
BRANCH  22  25
ATOM     25  C   UNL A   1      33.746  23.005  24.412  1.00  0.00     0.050 C 
ATOM     26  C   UNL A   1      32.607  21.935  24.374  1.00  0.00     0.020 C 
ATOM     27  C   UNL A   1      33.877  23.395  25.893  1.00  0.00     0.020 C 
ATOM     28  C   UNL A   1      35.011  22.275  23.889  1.00  0.00     0.020 C 
ATOM     29  C   UNL A   1      32.975  20.705  25.243  1.00  0.00    -0.010 C 
ATOM     30  C   UNL A   1      34.275  22.204  26.773  1.00  0.00    -0.010 C 
ATOM     31  C   UNL A   1      35.417  21.125  24.807  1.00  0.00    -0.010 C 
ATOM     32  C   UNL A   1      34.295  20.082  24.754  1.00  0.00     0.007 C 
ATOM     33  C   UNL A   1      33.172  21.142  26.702  1.00  0.00     0.007 C 
ATOM     34  C   UNL A   1      35.598  21.637  26.244  1.00  0.00     0.007 C 
ENDBRANCH  22  25
ENDBRANCH  11  21
ENDBRANCH  10  11
ENDBRANCH   8  10
ENDBRANCH   7   8
ENDBRANCH   6   7
ENDBRANCH   5   6
ENDBRANCH   4   5
ENDBRANCH   3   4
ENDBRANCH   2   3
ENDBRANCH   1   2
BRANCH   1  35
ATOM     35  C   UNL A   1      36.543  33.000  29.878  1.00  0.00     0.188 C 
BRANCH  35  36
ATOM     36  C   UNL A   1      37.903  32.592  29.265  1.00  0.00     0.188 C 
BRANCH  36  37
ATOM     37  O   UNL A   1      38.269  31.226  29.176  1.00  0.00    -0.376 OA
BRANCH  37  38
ATOM     38  C   UNL A   1      37.286  30.215  29.032  1.00  0.00     0.202 C 
BRANCH  38  39
ATOM     39  C   UNL A   1      36.925  29.180  30.121  1.00  0.00     0.261 C 
BRANCH  39  40
ATOM     40  O   UNL A   1      37.964  28.730  30.996  1.00  0.00    -0.460 OA
BRANCH  40  41
ATOM     41  C   UNL A   1      37.846  29.082  32.297  1.00  0.00     0.338 C 
ATOM     42  O   UNL A   1      37.391  28.401  33.202  1.00  0.00    -0.246 OA
BRANCH  41  43
ATOM     43  C   UNL A   1      38.609  30.335  32.507  1.00  0.00     0.060 A 
ATOM     44  C   UNL A   1      40.010  30.282  32.416  1.00  0.00     0.016 A 
ATOM     45  C   UNL A   1      37.962  31.559  32.702  1.00  0.00     0.016 A 
ATOM     46  C   UNL A   1      40.768  31.442  32.545  1.00  0.00     0.010 A 
ATOM     47  C   UNL A   1      38.727  32.716  32.884  1.00  0.00     0.010 A 
ATOM     48  C   UNL A   1      40.131  32.652  32.845  1.00  0.00    -0.014 A 
BRANCH  48  49
ATOM     49  C   UNL A   1      40.944  33.752  33.413  1.00  0.00     0.031 A 
ATOM     50  C   UNL A   1      40.907  33.928  34.909  1.00  0.00     0.074 A 
ATOM     51  C   UNL A   1      41.737  34.527  32.653  1.00  0.00     0.049 A 
ATOM     52  N   UNL A   1      41.513  34.810  35.658  1.00  0.00    -0.248 NA
ATOM     53  C   UNL A   1      40.069  32.974  35.659  1.00  0.00     0.031 C 
ATOM     54  C   UNL A   1      41.907  34.411  31.206  1.00  0.00     0.029 A 
ATOM     55  N   UNL A   1      42.553  35.573  33.006  1.00  0.00    -0.354 N 
ATOM     56  C   UNL A   1      41.133  34.516  36.962  1.00  0.00     0.074 A 
ATOM     57  C   UNL A   1      40.215  33.402  36.903  1.00  0.00     0.031 C 
ATOM     58  C   UNL A   1      42.768  35.361  30.792  1.00  0.00     0.029 A 
ATOM     59  C   UNL A   1      43.184  36.167  31.939  1.00  0.00     0.049 A 
ATOM     60  H   UNL A   1      42.676  35.869  33.937  1.00  0.00     0.167 HD
ATOM     61  C   UNL A   1      41.523  35.111  38.113  1.00  0.00     0.031 A 
ATOM     62  C   UNL A   1      43.984  37.251  31.897  1.00  0.00     0.031 A 
ATOM     63  C   UNL A   1      42.413  36.237  38.168  1.00  0.00     0.049 A 
ATOM     64  C   UNL A   1      44.323  37.965  33.184  1.00  0.00     0.074 A 
ATOM     65  C   UNL A   1      42.857  36.929  39.279  1.00  0.00     0.029 A 
ATOM     66  N   UNL A   1      42.989  36.841  37.061  1.00  0.00    -0.354 N 
ATOM     67  N   UNL A   1      43.966  37.670  34.412  1.00  0.00    -0.248 NA
ATOM     68  C   UNL A   1      45.183  39.153  33.079  1.00  0.00     0.031 C 
ATOM     69  C   UNL A   1      43.657  37.989  38.840  1.00  0.00     0.029 A 
ATOM     70  C   UNL A   1      43.769  37.912  37.460  1.00  0.00     0.049 A 
ATOM     71  H   UNL A   1      42.863  36.551  36.128  1.00  0.00     0.167 HD
ATOM     72  C   UNL A   1      44.586  38.615  35.226  1.00  0.00     0.074 A 
ATOM     73  C   UNL A   1      45.354  39.478  34.352  1.00  0.00     0.031 C 
ATOM     74  C   UNL A   1      44.530  38.757  36.575  1.00  0.00     0.031 A 
BRANCH  61  75
ATOM     75  C   UNL A   1      40.954  34.570  39.397  1.00  0.00    -0.014 A 
ATOM     76  C   UNL A   1      39.753  35.074  39.930  1.00  0.00     0.010 A 
ATOM     77  C   UNL A   1      41.617  33.527  40.069  1.00  0.00     0.010 A 
ATOM     78  C   UNL A   1      39.244  34.568  41.128  1.00  0.00     0.020 A 
ATOM     79  C   UNL A   1      41.094  32.996  41.251  1.00  0.00     0.020 A 
ATOM     80  C   UNL A   1      39.916  33.530  41.780  1.00  0.00     0.054 A 
BRANCH  80  81
ATOM     81  S   UNL A   1      39.213  32.870  43.316  1.00  0.00     0.124 S 
ATOM     82  O   UNL A   1      39.338  34.010  44.220  1.00  0.00    -0.237 OA
ATOM     83  O   UNL A   1      37.849  32.529  42.920  1.00  0.00    -0.237 OA
ATOM     84  O   UNL A   1      40.070  31.730  43.629  1.00  0.00    -0.744 OA
ENDBRANCH  80  81
ENDBRANCH  61  75
BRANCH  62  85
ATOM     85  C   UNL A   1      44.503  37.755  30.593  1.00  0.00    -0.014 A 
ATOM     86  C   UNL A   1      45.755  37.340  30.102  1.00  0.00     0.010 A 
ATOM     87  C   UNL A   1      43.757  38.687  29.848  1.00  0.00     0.010 A 
ATOM     88  C   UNL A   1      46.260  37.867  28.909  1.00  0.00     0.020 A 
ATOM     89  C   UNL A   1      44.243  39.191  28.639  1.00  0.00     0.020 A 
ATOM     90  C   UNL A   1      45.500  38.789  28.184  1.00  0.00     0.054 A 
BRANCH  90  91
ATOM     91  S   UNL A   1      46.161  39.433  26.622  1.00  0.00     0.124 S 
ATOM     92  O   UNL A   1      46.918  40.598  27.069  1.00  0.00    -0.237 OA
ATOM     93  O   UNL A   1      46.955  38.310  26.132  1.00  0.00    -0.237 OA
ATOM     94  O   UNL A   1      44.962  39.726  25.839  1.00  0.00    -0.744 OA
ENDBRANCH  90  91
ENDBRANCH  62  85
BRANCH  74  95
ATOM     95  C   UNL A   1      45.356  39.854  37.196  1.00  0.00    -0.014 A 
ATOM     96  C   UNL A   1      46.706  39.655  37.537  1.00  0.00     0.010 A 
ATOM     97  C   UNL A   1      44.781  41.123  37.395  1.00  0.00     0.010 A 
ATOM     98  C   UNL A   1      47.451  40.692  38.106  1.00  0.00     0.020 A 
ATOM     99  C   UNL A   1      45.531  42.172  37.930  1.00  0.00     0.020 A 
ATOM    100  C   UNL A   1      46.858  41.944  38.300  1.00  0.00     0.054 A 
BRANCH 100 101
ATOM    101  S   UNL A   1      47.856  43.282  39.011  1.00  0.00     0.124 S 
ATOM    102  O   UNL A   1      49.052  43.246  38.173  1.00  0.00    -0.237 OA
ATOM    103  O   UNL A   1      46.998  44.450  38.833  1.00  0.00    -0.237 OA
ATOM    104  O   UNL A   1      48.054  42.866  40.398  1.00  0.00    -0.744 OA
ENDBRANCH 100 101
ENDBRANCH  74  95
ENDBRANCH  48  49
ENDBRANCH  41  43
ENDBRANCH  40  41
ENDBRANCH  39  40
ENDBRANCH  38  39
ENDBRANCH  37  38
ENDBRANCH  36  37
ENDBRANCH  35  36
ENDBRANCH   1  35
TORSDOF 28
ENDMDL
MODEL 3
REMARK VINA RESULT:      -7.7      7.947     17.208
REMARK SMILES O=C(C[C@H](NC(=O)[C@]12C[C@H]3C[C@H](C[C@H](C3)C1)C2)c1cccc([N+](=O)[O-])c1)OCCOCCOCCOCCOC(=O)c1ccc(-c2c3nc(c(-c4ccc(S(=O)(=O)[O-])cc4)c4ccc([nH]4)c(-c4ccc(S(=O)(=O)[O-])cc4)c4nc(c(-c5ccc(S(=O)(=O)[O-])cc5)c5ccc2[nH]5)C=C4)C=C3)cc1
REMARK SMILES IDX 33 1 32 2 31 3 30 4 29 5 28 6 27 7 2 8 1 9 3 10 4 11 18 12
REMARK SMILES IDX 19 13 26 14 20 15 22 16 21 17 23 18 24 19 25 20 5 21 6 22
REMARK SMILES IDX 7 24 8 25 9 26 16 27 17 28 10 29 14 30 12 31 11 32 15 33
REMARK SMILES IDX 13 34 34 35 35 36 36 37 37 38 38 39 39 40 40 41 41 42 42 43
REMARK SMILES IDX 43 44 101 45 44 46 100 47 45 48 46 49 47 50 94 51 48 52
REMARK SMILES IDX 99 53 93 54 95 55 49 56 98 57 92 58 91 59 50 61 80 62 61 63
REMARK SMILES IDX 79 64 62 65 65 66 78 67 96 68 63 69 64 70 77 72 97 73 66 74
REMARK SMILES IDX 51 75 52 76 60 77 53 78 59 79 54 80 55 81 56 82 57 83 58 84
REMARK SMILES IDX 81 85 82 86 90 87 83 88 89 89 84 90 85 91 86 92 87 93 88 94
REMARK SMILES IDX 67 95 68 96 76 97 69 98 75 99 70 100 71 101 72 102 73 103
REMARK SMILES IDX 74 104
REMARK H PARENT 5 23 95 60 65 71
REMARK Flexibility Score: inf
ROOT
ATOM      1  O   UNL A   1      47.855  41.702  32.025  1.00  0.00    -0.377 OA
ENDROOT
BRANCH   1   2
ATOM      2  C   UNL A   1      46.934  42.447  32.799  1.00  0.00     0.188 C 
BRANCH   2   3
ATOM      3  C   UNL A   1      46.488  41.831  34.127  1.00  0.00     0.188 C 
BRANCH   3   4
ATOM      4  O   UNL A   1      45.343  42.263  34.851  1.00  0.00    -0.376 OA
BRANCH   4   5
ATOM      5  C   UNL A   1      43.975  41.926  34.677  1.00  0.00     0.202 C 
BRANCH   5   6
ATOM      6  C   UNL A   1      43.371  41.505  33.340  1.00  0.00     0.261 C 
BRANCH   6   7
ATOM      7  O   UNL A   1      43.501  42.423  32.258  1.00  0.00    -0.463 OA
BRANCH   7   8
ATOM      8  C   UNL A   1      42.834  42.295  31.091  1.00  0.00     0.308 C 
ATOM      9  O   UNL A   1      42.332  43.290  30.577  1.00  0.00    -0.252 OA
BRANCH   8  10
ATOM     10  C   UNL A   1      42.527  40.905  30.591  1.00  0.00     0.152 C 
BRANCH  10  11
ATOM     11  C   UNL A   1      43.183  40.457  29.307  1.00  0.00     0.123 C 
BRANCH  11  12
ATOM     12  C   UNL A   1      43.342  38.927  29.298  1.00  0.00    -0.018 A 
ATOM     13  C   UNL A   1      44.165  38.260  30.204  1.00  0.00     0.006 A 
ATOM     14  C   UNL A   1      42.711  38.131  28.314  1.00  0.00     0.091 A 
ATOM     15  C   UNL A   1      44.465  36.901  30.095  1.00  0.00     0.007 A 
ATOM     16  C   UNL A   1      42.971  36.747  28.228  1.00  0.00     0.269 A 
ATOM     17  C   UNL A   1      43.874  36.136  29.101  1.00  0.00     0.085 A 
BRANCH  16  18
ATOM     18  N   UNL A   1      42.286  35.924  27.221  1.00  0.00     0.062 N 
ATOM     19  O   UNL A   1      42.940  35.564  26.231  1.00  0.00    -0.258 OA
ATOM     20  O   UNL A   1      41.103  35.624  27.431  1.00  0.00    -0.258 OA
ENDBRANCH  16  18
ENDBRANCH  11  12
BRANCH  11  21
ATOM     21  N   UNL A   1      42.666  41.104  28.098  1.00  0.00    -0.348 N 
ATOM     22  C   UNL A   1      43.100  41.252  26.813  1.00  0.00     0.226 C 
ATOM     23  H   UNL A   1      41.793  41.533  28.249  1.00  0.00     0.164 HD
ATOM     24  O   UNL A   1      42.185  41.250  25.976  1.00  0.00    -0.274 OA
BRANCH  22  25
ATOM     25  C   UNL A   1      44.519  41.683  26.375  1.00  0.00     0.050 C 
ATOM     26  C   UNL A   1      44.464  42.902  25.398  1.00  0.00     0.020 C 
ATOM     27  C   UNL A   1      45.409  40.646  25.670  1.00  0.00     0.020 C 
ATOM     28  C   UNL A   1      45.175  42.227  27.672  1.00  0.00     0.020 C 
ATOM     29  C   UNL A   1      45.884  43.469  25.143  1.00  0.00    -0.010 C 
ATOM     30  C   UNL A   1      46.832  41.169  25.436  1.00  0.00    -0.010 C 
ATOM     31  C   UNL A   1      46.607  42.695  27.424  1.00  0.00    -0.010 C 
ATOM     32  C   UNL A   1      46.537  43.893  26.471  1.00  0.00     0.007 C 
ATOM     33  C   UNL A   1      46.768  42.387  24.507  1.00  0.00     0.007 C 
ATOM     34  C   UNL A   1      47.430  41.562  26.793  1.00  0.00     0.007 C 
ENDBRANCH  22  25
ENDBRANCH  11  21
ENDBRANCH  10  11
ENDBRANCH   8  10
ENDBRANCH   7   8
ENDBRANCH   6   7
ENDBRANCH   5   6
ENDBRANCH   4   5
ENDBRANCH   3   4
ENDBRANCH   2   3
ENDBRANCH   1   2
BRANCH   1  35
ATOM     35  C   UNL A   1      49.203  41.949  32.368  1.00  0.00     0.188 C 
BRANCH  35  36
ATOM     36  C   UNL A   1      50.027  40.663  32.607  1.00  0.00     0.188 C 
BRANCH  36  37
ATOM     37  O   UNL A   1      50.177  39.704  31.575  1.00  0.00    -0.376 OA
BRANCH  37  38
ATOM     38  C   UNL A   1      49.120  38.820  31.239  1.00  0.00     0.202 C 
BRANCH  38  39
ATOM     39  C   UNL A   1      48.437  38.754  29.855  1.00  0.00     0.261 C 
BRANCH  39  40
ATOM     40  O   UNL A   1      47.864  37.510  29.444  1.00  0.00    -0.460 OA
BRANCH  40  41
ATOM     41  C   UNL A   1      48.725  36.586  28.957  1.00  0.00     0.338 C 
ATOM     42  O   UNL A   1      49.940  36.684  28.882  1.00  0.00    -0.246 OA
BRANCH  41  43
ATOM     43  C   UNL A   1      47.984  35.316  28.775  1.00  0.00     0.060 A 
ATOM     44  C   UNL A   1      48.018  34.372  29.814  1.00  0.00     0.016 A 
ATOM     45  C   UNL A   1      47.197  35.088  27.642  1.00  0.00     0.016 A 
ATOM     46  C   UNL A   1      47.288  33.190  29.716  1.00  0.00     0.010 A 
ATOM     47  C   UNL A   1      46.506  33.877  27.521  1.00  0.00     0.010 A 
ATOM     48  C   UNL A   1      46.583  32.912  28.540  1.00  0.00    -0.014 A 
BRANCH  48  49
ATOM     49  C   UNL A   1      46.199  31.507  28.267  1.00  0.00     0.031 A 
ATOM     50  C   UNL A   1      44.781  31.110  28.583  1.00  0.00     0.074 A 
ATOM     51  C   UNL A   1      47.045  30.628  27.701  1.00  0.00     0.049 A 
ATOM     52  N   UNL A   1      44.191  29.953  28.448  1.00  0.00    -0.248 NA
ATOM     53  C   UNL A   1      43.911  32.170  29.125  1.00  0.00     0.031 C 
ATOM     54  C   UNL A   1      48.419  30.912  27.290  1.00  0.00     0.029 A 
ATOM     55  N   UNL A   1      46.860  29.308  27.373  1.00  0.00    -0.354 N 
ATOM     56  C   UNL A   1      42.886  30.146  28.884  1.00  0.00     0.074 A 
ATOM     57  C   UNL A   1      42.778  31.518  29.325  1.00  0.00     0.031 C 
ATOM     58  C   UNL A   1      48.959  29.791  26.775  1.00  0.00     0.029 A 
ATOM     59  C   UNL A   1      47.979  28.707  26.847  1.00  0.00     0.049 A 
ATOM     60  H   UNL A   1      46.006  28.836  27.502  1.00  0.00     0.167 HD
ATOM     61  C   UNL A   1      41.860  29.264  28.906  1.00  0.00     0.031 A 
ATOM     62  C   UNL A   1      48.189  27.424  26.490  1.00  0.00     0.031 A 
ATOM     63  C   UNL A   1      41.978  27.892  28.495  1.00  0.00     0.049 A 
ATOM     64  C   UNL A   1      47.060  26.430  26.621  1.00  0.00     0.074 A 
ATOM     65  C   UNL A   1      41.007  26.908  28.495  1.00  0.00     0.029 A 
ATOM     66  N   UNL A   1      43.142  27.309  28.017  1.00  0.00    -0.354 N 
ATOM     67  N   UNL A   1      45.826  26.629  27.024  1.00  0.00    -0.248 NA
ATOM     68  C   UNL A   1      47.348  25.041  26.236  1.00  0.00     0.031 C 
ATOM     69  C   UNL A   1      41.599  25.714  28.071  1.00  0.00     0.029 A 
ATOM     70  C   UNL A   1      42.920  25.973  27.739  1.00  0.00     0.049 A 
ATOM     71  H   UNL A   1      43.999  27.778  27.893  1.00  0.00     0.167 HD
ATOM     72  C   UNL A   1      45.186  25.398  26.909  1.00  0.00     0.074 A 
ATOM     73  C   UNL A   1      46.163  24.468  26.381  1.00  0.00     0.031 C 
ATOM     74  C   UNL A   1      43.905  25.063  27.209  1.00  0.00     0.031 A 
BRANCH  61  75
ATOM     75  C   UNL A   1      40.536  29.756  29.425  1.00  0.00    -0.014 A 
ATOM     76  C   UNL A   1      39.485  30.081  28.548  1.00  0.00     0.010 A 
ATOM     77  C   UNL A   1      40.331  29.872  30.812  1.00  0.00     0.010 A 
ATOM     78  C   UNL A   1      38.266  30.546  29.045  1.00  0.00     0.020 A 
ATOM     79  C   UNL A   1      39.102  30.306  31.315  1.00  0.00     0.020 A 
ATOM     80  C   UNL A   1      38.081  30.654  30.427  1.00  0.00     0.054 A 
BRANCH  80  81
ATOM     81  S   UNL A   1      36.476  31.227  31.045  1.00  0.00     0.124 S 
ATOM     82  O   UNL A   1      35.691  31.312  29.817  1.00  0.00    -0.237 OA
ATOM     83  O   UNL A   1      36.090  30.160  31.965  1.00  0.00    -0.237 OA
ATOM     84  O   UNL A   1      36.784  32.508  31.677  1.00  0.00    -0.744 OA
ENDBRANCH  80  81
ENDBRANCH  61  75
BRANCH  62  85
ATOM     85  C   UNL A   1      49.528  26.987  26.000  1.00  0.00    -0.014 A 
ATOM     86  C   UNL A   1      49.899  27.160  24.654  1.00  0.00     0.010 A 
ATOM     87  C   UNL A   1      50.431  26.360  26.878  1.00  0.00     0.010 A 
ATOM     88  C   UNL A   1      51.133  26.690  24.191  1.00  0.00     0.020 A 
ATOM     89  C   UNL A   1      51.678  25.917  26.427  1.00  0.00     0.020 A 
ATOM     90  C   UNL A   1      52.015  26.072  25.082  1.00  0.00     0.054 A 
BRANCH  90  91
ATOM     91  S   UNL A   1      53.623  25.501  24.466  1.00  0.00     0.124 S 
ATOM     92  O   UNL A   1      53.530  25.808  23.042  1.00  0.00    -0.237 OA
ATOM     93  O   UNL A   1      54.560  26.320  25.230  1.00  0.00    -0.237 OA
ATOM     94  O   UNL A   1      53.633  24.080  24.802  1.00  0.00    -0.744 OA
ENDBRANCH  90  91
ENDBRANCH  62  85
BRANCH  74  95
ATOM     95  C   UNL A   1      43.469  23.648  26.929  1.00  0.00    -0.014 A 
ATOM     96  C   UNL A   1      43.771  23.012  25.712  1.00  0.00     0.010 A 
ATOM     97  C   UNL A   1      42.786  22.926  27.927  1.00  0.00     0.010 A 
ATOM     98  C   UNL A   1      43.360  21.695  25.482  1.00  0.00     0.020 A 
ATOM     99  C   UNL A   1      42.404  21.600  27.715  1.00  0.00     0.020 A 
ATOM    100  C   UNL A   1      42.678  20.998  26.485  1.00  0.00     0.054 A 
BRANCH 100 101
ATOM    101  S   UNL A   1      42.183  19.282  26.172  1.00  0.00     0.124 S 
ATOM    102  O   UNL A   1      40.737  19.407  26.013  1.00  0.00    -0.237 OA
ATOM    103  O   UNL A   1      42.925  18.951  24.958  1.00  0.00    -0.237 OA
ATOM    104  O   UNL A   1      42.618  18.571  27.374  1.00  0.00    -0.744 OA
ENDBRANCH 100 101
ENDBRANCH  74  95
ENDBRANCH  48  49
ENDBRANCH  41  43
ENDBRANCH  40  41
ENDBRANCH  39  40
ENDBRANCH  38  39
ENDBRANCH  37  38
ENDBRANCH  36  37
ENDBRANCH  35  36
ENDBRANCH   1  35
TORSDOF 28
ENDMDL
