MODEL 1
REMARK VINA RESULT:      -7.4      0.000      0.000
REMARK SMILES COc1ccc(F)c(NC(=O)N2CCCC[C@@H]2C(=O)OCCOCCOCCOCCOC(=O)c2ccc(-c3c4nc(c(-c5ccc(S(=O)(=O)[O-])cc5)c5ccc([nH]5)c(-c5ccc(S(=O)(=O)[O-])cc5)c5nc(c(-c6ccc(S(=O)(=O)[O-])cc6)c6ccc3[nH]6)C=C5)C=C4)cc2)c1
REMARK SMILES IDX 26 1 25 2 24 3 23 4 22 5 21 6 20 7 18 8 19 9 17 10 12 11
REMARK SMILES IDX 13 12 14 13 16 14 15 15 10 16 9 17 11 19 8 20 3 21 4 22
REMARK SMILES IDX 95 23 5 24 6 25 7 26 2 27 1 28 27 29 28 30 29 31 30 32 31 33
REMARK SMILES IDX 32 34 33 35 34 36 35 37 36 38 94 39 37 40 93 41 38 42 39 43
REMARK SMILES IDX 40 44 87 45 41 46 92 47 86 48 88 49 42 50 91 51 85 52 84 53
REMARK SMILES IDX 43 55 73 56 54 57 72 58 55 59 58 60 71 61 89 62 56 63 57 64
REMARK SMILES IDX 70 66 90 67 59 68 44 69 45 70 53 71 46 72 52 73 47 74 48 75
REMARK SMILES IDX 49 76 50 77 51 78 74 79 75 80 83 81 76 82 82 83 77 84 78 85
REMARK SMILES IDX 79 86 80 87 81 88 60 89 61 90 69 91 62 92 68 93 63 94 64 95
REMARK SMILES IDX 65 96 66 97 67 98
REMARK H PARENT 9 18 88 54 58 65
REMARK Flexibility Score: inf
ROOT
ATOM      1  O   UNL A   1      34.526  25.901  25.201  1.00  0.00    -0.377 OA
ENDROOT
BRANCH   1   2
ATOM      2  C   UNL A   1      34.302  24.502  25.170  1.00  0.00     0.188 C 
BRANCH   2   3
ATOM      3  C   UNL A   1      35.304  23.582  25.888  1.00  0.00     0.188 C 
BRANCH   3   4
ATOM      4  O   UNL A   1      36.668  23.868  25.627  1.00  0.00    -0.376 OA
BRANCH   4   5
ATOM      5  C   UNL A   1      37.647  22.864  25.837  1.00  0.00     0.202 C 
BRANCH   5   6
ATOM      6  C   UNL A   1      39.014  23.258  26.464  1.00  0.00     0.261 C 
BRANCH   6   7
ATOM      7  O   UNL A   1      39.417  24.640  26.345  1.00  0.00    -0.462 OA
BRANCH   7   8
ATOM      8  C   UNL A   1      39.756  25.167  27.539  1.00  0.00     0.329 C 
ATOM      9  O   UNL A   1      38.878  25.396  28.357  1.00  0.00    -0.250 OA
BRANCH   8  10
ATOM     10  C   UNL A   1      41.269  25.301  27.837  1.00  0.00     0.196 C 
ATOM     11  N   UNL A   1      41.910  26.595  27.449  1.00  0.00    -0.311 N 
ATOM     12  C   UNL A   1      43.360  26.707  27.565  1.00  0.00     0.122 C 
ATOM     13  C   UNL A   1      44.127  25.470  27.117  1.00  0.00     0.022 C 
ATOM     14  C   UNL A   1      42.098  24.085  27.373  1.00  0.00     0.037 C 
ATOM     15  C   UNL A   1      43.561  24.228  27.783  1.00  0.00     0.005 C 
BRANCH  11  16
ATOM     16  C   UNL A   1      41.283  27.541  26.677  1.00  0.00     0.322 C 
ATOM     17  N   UNL A   1      40.530  28.516  27.265  1.00  0.00    -0.305 N 
ATOM     18  H   UNL A   1      40.065  29.095  26.618  1.00  0.00     0.171 HD
ATOM     19  O   UNL A   1      41.416  27.546  25.452  1.00  0.00    -0.248 OA
BRANCH  17  20
ATOM     20  C   UNL A   1      40.282  28.865  28.617  1.00  0.00     0.082 A 
ATOM     21  C   UNL A   1      40.906  28.880  30.967  1.00  0.00     0.121 A 
ATOM     22  C   UNL A   1      39.558  28.873  31.336  1.00  0.00     0.049 A 
ATOM     23  C   UNL A   1      41.264  28.927  29.609  1.00  0.00     0.075 A 
ATOM     24  C   UNL A   1      38.570  28.919  30.353  1.00  0.00     0.045 A 
ATOM     25  C   UNL A   1      38.934  28.933  29.008  1.00  0.00     0.147 A 
ATOM     26  F   UNL A   1      37.965  28.849  28.082  1.00  0.00    -0.205 F 
BRANCH  21  27
ATOM     27  O   UNL A   1      41.960  28.795  31.839  1.00  0.00    -0.497 OA
ATOM     28  C   UNL A   1      41.866  29.594  33.015  1.00  0.00     0.278 C 
ENDBRANCH  21  27
ENDBRANCH  17  20
ENDBRANCH  11  16
ENDBRANCH   8  10
ENDBRANCH   7   8
ENDBRANCH   6   7
ENDBRANCH   5   6
ENDBRANCH   4   5
ENDBRANCH   3   4
ENDBRANCH   2   3
ENDBRANCH   1   2
BRANCH   1  29
ATOM     29  C   UNL A   1      33.657  26.731  25.970  1.00  0.00     0.188 C 
BRANCH  29  30
ATOM     30  C   UNL A   1      33.898  28.255  26.059  1.00  0.00     0.188 C 
BRANCH  30  31
ATOM     31  O   UNL A   1      33.362  28.876  27.217  1.00  0.00    -0.376 OA
BRANCH  31  32
ATOM     32  C   UNL A   1      32.333  29.830  27.006  1.00  0.00     0.202 C 
BRANCH  32  33
ATOM     33  C   UNL A   1      32.723  31.318  27.070  1.00  0.00     0.261 C 
BRANCH  33  34
ATOM     34  O   UNL A   1      33.949  31.633  27.753  1.00  0.00    -0.460 OA
BRANCH  34  35
ATOM     35  C   UNL A   1      34.076  32.882  28.263  1.00  0.00     0.338 C 
ATOM     36  O   UNL A   1      33.438  33.862  27.949  1.00  0.00    -0.246 OA
BRANCH  35  37
ATOM     37  C   UNL A   1      34.965  32.806  29.450  1.00  0.00     0.060 A 
ATOM     38  C   UNL A   1      35.474  34.001  29.977  1.00  0.00     0.016 A 
ATOM     39  C   UNL A   1      35.284  31.582  30.042  1.00  0.00     0.016 A 
ATOM     40  C   UNL A   1      36.353  33.972  31.055  1.00  0.00     0.010 A 
ATOM     41  C   UNL A   1      36.192  31.551  31.109  1.00  0.00     0.010 A 
ATOM     42  C   UNL A   1      36.767  32.743  31.584  1.00  0.00    -0.014 A 
BRANCH  42  43
ATOM     43  C   UNL A   1      37.972  32.725  32.448  1.00  0.00     0.031 A 
ATOM     44  C   UNL A   1      39.323  32.734  31.783  1.00  0.00     0.074 A 
ATOM     45  C   UNL A   1      37.876  32.793  33.787  1.00  0.00     0.049 A 
ATOM     46  N   UNL A   1      40.513  32.807  32.319  1.00  0.00    -0.248 NA
ATOM     47  C   UNL A   1      39.330  32.656  30.313  1.00  0.00     0.031 C 
ATOM     48  C   UNL A   1      36.628  32.830  34.546  1.00  0.00     0.029 A 
ATOM     49  N   UNL A   1      38.857  32.855  34.745  1.00  0.00    -0.354 N 
ATOM     50  C   UNL A   1      41.408  32.773  31.256  1.00  0.00     0.074 A 
ATOM     51  C   UNL A   1      40.626  32.639  30.047  1.00  0.00     0.031 C 
ATOM     52  C   UNL A   1      36.919  32.902  35.857  1.00  0.00     0.029 A 
ATOM     53  C   UNL A   1      38.371  32.892  36.029  1.00  0.00     0.049 A 
ATOM     54  H   UNL A   1      39.818  32.869  34.532  1.00  0.00     0.167 HD
ATOM     55  C   UNL A   1      42.760  32.848  31.280  1.00  0.00     0.031 A 
ATOM     56  C   UNL A   1      39.024  32.904  37.210  1.00  0.00     0.031 A 
ATOM     57  C   UNL A   1      43.536  32.959  32.488  1.00  0.00     0.049 A 
ATOM     58  C   UNL A   1      40.529  32.940  37.218  1.00  0.00     0.074 A 
ATOM     59  C   UNL A   1      44.909  33.065  32.622  1.00  0.00     0.029 A 
ATOM     60  N   UNL A   1      43.008  32.956  33.771  1.00  0.00    -0.354 N 
ATOM     61  N   UNL A   1      41.362  32.950  36.203  1.00  0.00    -0.248 NA
ATOM     62  C   UNL A   1      41.181  32.989  38.534  1.00  0.00     0.031 C 
ATOM     63  C   UNL A   1      45.216  33.052  33.987  1.00  0.00     0.029 A 
ATOM     64  C   UNL A   1      44.031  33.022  34.704  1.00  0.00     0.049 A 
ATOM     65  H   UNL A   1      42.048  32.913  33.987  1.00  0.00     0.167 HD
ATOM     66  C   UNL A   1      42.636  33.029  36.758  1.00  0.00     0.074 A 
ATOM     67  C   UNL A   1      42.460  33.090  38.195  1.00  0.00     0.031 C 
ATOM     68  C   UNL A   1      43.844  33.054  36.135  1.00  0.00     0.031 A 
BRANCH  55  69
ATOM     69  C   UNL A   1      43.483  32.750  29.960  1.00  0.00    -0.014 A 
ATOM     70  C   UNL A   1      43.867  33.894  29.237  1.00  0.00     0.010 A 
ATOM     71  C   UNL A   1      43.785  31.480  29.435  1.00  0.00     0.010 A 
ATOM     72  C   UNL A   1      44.488  33.770  27.990  1.00  0.00     0.020 A 
ATOM     73  C   UNL A   1      44.438  31.351  28.206  1.00  0.00     0.020 A 
ATOM     74  C   UNL A   1      44.764  32.498  27.481  1.00  0.00     0.054 A 
BRANCH  74  75
ATOM     75  S   UNL A   1      45.570  32.363  25.861  1.00  0.00     0.124 S 
ATOM     76  O   UNL A   1      45.973  30.958  25.842  1.00  0.00    -0.237 OA
ATOM     77  O   UNL A   1      44.496  32.720  24.938  1.00  0.00    -0.237 OA
ATOM     78  O   UNL A   1      46.669  33.323  25.938  1.00  0.00    -0.744 OA
ENDBRANCH  74  75
ENDBRANCH  55  69
BRANCH  56  79
ATOM     79  C   UNL A   1      38.245  32.861  38.478  1.00  0.00    -0.014 A 
ATOM     80  C   UNL A   1      38.289  33.920  39.399  1.00  0.00     0.010 A 
ATOM     81  C   UNL A   1      37.423  31.750  38.754  1.00  0.00     0.010 A 
ATOM     82  C   UNL A   1      37.528  33.870  40.573  1.00  0.00     0.020 A 
ATOM     83  C   UNL A   1      36.639  31.710  39.909  1.00  0.00     0.020 A 
ATOM     84  C   UNL A   1      36.701  32.770  40.815  1.00  0.00     0.054 A 
BRANCH  84  85
ATOM     85  S   UNL A   1      35.659  32.765  42.301  1.00  0.00     0.124 S 
ATOM     86  O   UNL A   1      36.653  32.769  43.370  1.00  0.00    -0.237 OA
ATOM     87  O   UNL A   1      34.891  33.998  42.147  1.00  0.00    -0.237 OA
ATOM     88  O   UNL A   1      34.882  31.535  42.171  1.00  0.00    -0.744 OA
ENDBRANCH  84  85
ENDBRANCH  56  79
BRANCH  68  89
ATOM     89  C   UNL A   1      45.069  33.182  37.007  1.00  0.00    -0.014 A 
ATOM     90  C   UNL A   1      45.517  34.432  37.471  1.00  0.00     0.010 A 
ATOM     91  C   UNL A   1      45.776  32.024  37.379  1.00  0.00     0.010 A 
ATOM     92  C   UNL A   1      46.685  34.527  38.234  1.00  0.00     0.020 A 
ATOM     93  C   UNL A   1      46.923  32.111  38.173  1.00  0.00     0.020 A 
ATOM     94  C   UNL A   1      47.385  33.366  38.574  1.00  0.00     0.054 A 
BRANCH  94  95
ATOM     95  S   UNL A   1      48.904  33.514  39.554  1.00  0.00     0.124 S 
ATOM     96  O   UNL A   1      48.863  34.915  39.965  1.00  0.00    -0.237 OA
ATOM     97  O   UNL A   1      48.692  32.539  40.621  1.00  0.00    -0.237 OA
ATOM     98  O   UNL A   1      49.962  33.174  38.606  1.00  0.00    -0.744 OA
ENDBRANCH  94  95
ENDBRANCH  68  89
ENDBRANCH  42  43
ENDBRANCH  35  37
ENDBRANCH  34  35
ENDBRANCH  33  34
ENDBRANCH  32  33
ENDBRANCH  31  32
ENDBRANCH  30  31
ENDBRANCH  29  30
ENDBRANCH   1  29
TORSDOF 26
ENDMDL
MODEL 2
REMARK VINA RESULT:      -6.7      7.556     14.394
REMARK SMILES COc1ccc(F)c(NC(=O)N2CCCC[C@@H]2C(=O)OCCOCCOCCOCCOC(=O)c2ccc(-c3c4nc(c(-c5ccc(S(=O)(=O)[O-])cc5)c5ccc([nH]5)c(-c5ccc(S(=O)(=O)[O-])cc5)c5nc(c(-c6ccc(S(=O)(=O)[O-])cc6)c6ccc3[nH]6)C=C5)C=C4)cc2)c1
REMARK SMILES IDX 26 1 25 2 24 3 23 4 22 5 21 6 20 7 18 8 19 9 17 10 12 11
REMARK SMILES IDX 13 12 14 13 16 14 15 15 10 16 9 17 11 19 8 20 3 21 4 22
REMARK SMILES IDX 95 23 5 24 6 25 7 26 2 27 1 28 27 29 28 30 29 31 30 32 31 33
REMARK SMILES IDX 32 34 33 35 34 36 35 37 36 38 94 39 37 40 93 41 38 42 39 43
REMARK SMILES IDX 40 44 87 45 41 46 92 47 86 48 88 49 42 50 91 51 85 52 84 53
REMARK SMILES IDX 43 55 73 56 54 57 72 58 55 59 58 60 71 61 89 62 56 63 57 64
REMARK SMILES IDX 70 66 90 67 59 68 44 69 45 70 53 71 46 72 52 73 47 74 48 75
REMARK SMILES IDX 49 76 50 77 51 78 74 79 75 80 83 81 76 82 82 83 77 84 78 85
REMARK SMILES IDX 79 86 80 87 81 88 60 89 61 90 69 91 62 92 68 93 63 94 64 95
REMARK SMILES IDX 65 96 66 97 67 98
REMARK H PARENT 9 18 88 54 58 65
REMARK Flexibility Score: inf
ROOT
ATOM      1  O   UNL A   1      44.838  42.320  32.789  1.00  0.00    -0.377 OA
ENDROOT
BRANCH   1   2
ATOM      2  C   UNL A   1      45.158  42.533  31.426  1.00  0.00     0.188 C 
BRANCH   2   3
ATOM      3  C   UNL A   1      44.664  43.823  30.749  1.00  0.00     0.188 C 
BRANCH   3   4
ATOM      4  O   UNL A   1      44.484  43.729  29.346  1.00  0.00    -0.376 OA
BRANCH   4   5
ATOM      5  C   UNL A   1      45.048  42.638  28.638  1.00  0.00     0.202 C 
BRANCH   5   6
ATOM      6  C   UNL A   1      44.885  42.570  27.094  1.00  0.00     0.261 C 
BRANCH   6   7
ATOM      7  O   UNL A   1      46.017  42.093  26.334  1.00  0.00    -0.462 OA
BRANCH   7   8
ATOM      8  C   UNL A   1      45.733  41.994  25.020  1.00  0.00     0.329 C 
ATOM      9  O   UNL A   1      44.672  41.495  24.678  1.00  0.00    -0.250 OA
BRANCH   8  10
ATOM     10  C   UNL A   1      46.724  42.669  24.040  1.00  0.00     0.196 C 
ATOM     11  N   UNL A   1      46.497  44.120  23.760  1.00  0.00    -0.311 N 
ATOM     12  C   UNL A   1      47.306  44.757  22.727  1.00  0.00     0.122 C 
ATOM     13  C   UNL A   1      47.523  43.907  21.482  1.00  0.00     0.022 C 
ATOM     14  C   UNL A   1      46.956  41.861  22.746  1.00  0.00     0.037 C 
ATOM     15  C   UNL A   1      48.014  42.523  21.868  1.00  0.00     0.005 C 
BRANCH  11  16
ATOM     16  C   UNL A   1      45.366  44.791  24.153  1.00  0.00     0.322 C 
ATOM     17  N   UNL A   1      44.237  44.741  23.388  1.00  0.00    -0.305 N 
ATOM     18  H   UNL A   1      43.511  45.316  23.722  1.00  0.00     0.171 HD
ATOM     19  O   UNL A   1      45.340  45.417  25.214  1.00  0.00    -0.248 OA
BRANCH  17  20
ATOM     20  C   UNL A   1      43.897  44.027  22.209  1.00  0.00     0.082 A 
ATOM     21  C   UNL A   1      43.673  43.879  19.793  1.00  0.00     0.121 A 
ATOM     22  C   UNL A   1      42.605  42.988  19.936  1.00  0.00     0.049 A 
ATOM     23  C   UNL A   1      44.347  44.357  20.929  1.00  0.00     0.075 A 
ATOM     24  C   UNL A   1      42.217  42.569  21.209  1.00  0.00     0.045 A 
ATOM     25  C   UNL A   1      42.871  43.074  22.331  1.00  0.00     0.147 A 
ATOM     26  F   UNL A   1      42.397  42.754  23.546  1.00  0.00    -0.205 F 
BRANCH  21  27
ATOM     27  O   UNL A   1      44.114  44.391  18.601  1.00  0.00    -0.497 OA
ATOM     28  C   UNL A   1      45.121  45.396  18.685  1.00  0.00     0.278 C 
ENDBRANCH  21  27
ENDBRANCH  17  20
ENDBRANCH  11  16
ENDBRANCH   8  10
ENDBRANCH   7   8
ENDBRANCH   6   7
ENDBRANCH   5   6
ENDBRANCH   4   5
ENDBRANCH   3   4
ENDBRANCH   2   3
ENDBRANCH   1   2
BRANCH   1  29
ATOM     29  C   UNL A   1      43.769  41.437  33.126  1.00  0.00     0.188 C 
BRANCH  29  30
ATOM     30  C   UNL A   1      43.123  40.535  32.049  1.00  0.00     0.188 C 
BRANCH  30  31
ATOM     31  O   UNL A   1      41.811  40.912  31.664  1.00  0.00    -0.376 OA
BRANCH  31  32
ATOM     32  C   UNL A   1      41.680  41.560  30.409  1.00  0.00     0.202 C 
BRANCH  32  33
ATOM     33  C   UNL A   1      41.288  40.691  29.200  1.00  0.00     0.261 C 
BRANCH  33  34
ATOM     34  O   UNL A   1      42.359  40.008  28.525  1.00  0.00    -0.460 OA
BRANCH  34  35
ATOM     35  C   UNL A   1      42.026  39.175  27.510  1.00  0.00     0.338 C 
ATOM     36  O   UNL A   1      41.564  39.489  26.435  1.00  0.00    -0.246 OA
BRANCH  35  37
ATOM     37  C   UNL A   1      42.546  37.823  27.835  1.00  0.00     0.060 A 
ATOM     38  C   UNL A   1      41.656  36.740  27.797  1.00  0.00     0.016 A 
ATOM     39  C   UNL A   1      43.889  37.619  28.161  1.00  0.00     0.016 A 
ATOM     40  C   UNL A   1      42.089  35.465  28.146  1.00  0.00     0.010 A 
ATOM     41  C   UNL A   1      44.318  36.341  28.541  1.00  0.00     0.010 A 
ATOM     42  C   UNL A   1      43.405  35.272  28.583  1.00  0.00    -0.014 A 
BRANCH  42  43
ATOM     43  C   UNL A   1      43.724  34.016  29.304  1.00  0.00     0.031 A 
ATOM     44  C   UNL A   1      43.328  33.910  30.754  1.00  0.00     0.074 A 
ATOM     45  C   UNL A   1      44.266  32.961  28.672  1.00  0.00     0.049 A 
ATOM     46  N   UNL A   1      43.421  32.892  31.568  1.00  0.00    -0.248 NA
ATOM     47  C   UNL A   1      42.744  35.116  31.363  1.00  0.00     0.031 C 
ATOM     48  C   UNL A   1      44.656  32.926  27.263  1.00  0.00     0.029 A 
ATOM     49  N   UNL A   1      44.571  31.706  29.139  1.00  0.00    -0.354 N 
ATOM     50  C   UNL A   1      42.918  33.336  32.786  1.00  0.00     0.074 A 
ATOM     51  C   UNL A   1      42.553  34.724  32.613  1.00  0.00     0.031 C 
ATOM     52  C   UNL A   1      45.155  31.710  26.981  1.00  0.00     0.029 A 
ATOM     53  C   UNL A   1      45.142  30.891  28.193  1.00  0.00     0.049 A 
ATOM     54  H   UNL A   1      44.398  31.419  30.064  1.00  0.00     0.167 HD
ATOM     55  C   UNL A   1      42.769  32.652  33.946  1.00  0.00     0.031 A 
ATOM     56  C   UNL A   1      45.612  29.631  28.295  1.00  0.00     0.031 A 
ATOM     57  C   UNL A   1      43.156  31.276  34.120  1.00  0.00     0.049 A 
ATOM     58  C   UNL A   1      45.481  28.901  29.606  1.00  0.00     0.074 A 
ATOM     59  C   UNL A   1      43.027  30.482  35.246  1.00  0.00     0.029 A 
ATOM     60  N   UNL A   1      43.765  30.495  33.148  1.00  0.00    -0.354 N 
ATOM     61  N   UNL A   1      44.964  29.320  30.738  1.00  0.00    -0.248 NA
ATOM     62  C   UNL A   1      45.978  27.519  29.645  1.00  0.00     0.031 C 
ATOM     63  C   UNL A   1      43.625  29.246  34.978  1.00  0.00     0.029 A 
ATOM     64  C   UNL A   1      44.052  29.240  33.660  1.00  0.00     0.049 A 
ATOM     65  H   UNL A   1      43.964  30.789  32.229  1.00  0.00     0.167 HD
ATOM     66  C   UNL A   1      45.053  28.245  31.618  1.00  0.00     0.074 A 
ATOM     67  C   UNL A   1      45.651  27.152  30.877  1.00  0.00     0.031 C 
ATOM     68  C   UNL A   1      44.672  28.167  32.920  1.00  0.00     0.031 A 
BRANCH  55  69
ATOM     69  C   UNL A   1      42.221  33.407  35.130  1.00  0.00    -0.014 A 
ATOM     70  C   UNL A   1      40.840  33.474  35.392  1.00  0.00     0.010 A 
ATOM     71  C   UNL A   1      43.111  34.062  36.000  1.00  0.00     0.010 A 
ATOM     72  C   UNL A   1      40.358  34.227  36.468  1.00  0.00     0.020 A 
ATOM     73  C   UNL A   1      42.638  34.786  37.097  1.00  0.00     0.020 A 
ATOM     74  C   UNL A   1      41.261  34.883  37.310  1.00  0.00     0.054 A 
BRANCH  74  75
ATOM     75  S   UNL A   1      40.612  35.853  38.698  1.00  0.00     0.124 S 
ATOM     76  O   UNL A   1      39.905  34.835  39.472  1.00  0.00    -0.237 OA
ATOM     77  O   UNL A   1      41.826  36.379  39.316  1.00  0.00    -0.237 OA
ATOM     78  O   UNL A   1      39.758  36.850  38.057  1.00  0.00    -0.744 OA
ENDBRANCH  74  75
ENDBRANCH  55  69
BRANCH  56  79
ATOM     79  C   UNL A   1      46.268  28.995  27.119  1.00  0.00    -0.014 A 
ATOM     80  C   UNL A   1      45.515  28.363  26.116  1.00  0.00     0.010 A 
ATOM     81  C   UNL A   1      47.669  29.048  26.990  1.00  0.00     0.010 A 
ATOM     82  C   UNL A   1      46.151  27.795  25.006  1.00  0.00     0.020 A 
ATOM     83  C   UNL A   1      48.305  28.510  25.869  1.00  0.00     0.020 A 
ATOM     84  C   UNL A   1      47.541  27.881  24.885  1.00  0.00     0.054 A 
BRANCH  84  85
ATOM     85  S   UNL A   1      48.335  27.212  23.396  1.00  0.00     0.124 S 
ATOM     86  O   UNL A   1      49.689  27.744  23.508  1.00  0.00    -0.237 OA
ATOM     87  O   UNL A   1      48.202  25.771  23.594  1.00  0.00    -0.237 OA
ATOM     88  O   UNL A   1      47.533  27.761  22.305  1.00  0.00    -0.744 OA
ENDBRANCH  84  85
ENDBRANCH  56  79
BRANCH  68  89
ATOM     89  C   UNL A   1      44.863  26.842  33.618  1.00  0.00    -0.014 A 
ATOM     90  C   UNL A   1      44.048  25.732  33.329  1.00  0.00     0.010 A 
ATOM     91  C   UNL A   1      45.888  26.704  34.571  1.00  0.00     0.010 A 
ATOM     92  C   UNL A   1      44.212  24.533  34.029  1.00  0.00     0.020 A 
ATOM     93  C   UNL A   1      46.080  25.495  35.245  1.00  0.00     0.020 A 
ATOM     94  C   UNL A   1      45.223  24.424  34.988  1.00  0.00     0.054 A 
BRANCH  94  95
ATOM     95  S   UNL A   1      45.410  22.862  35.890  1.00  0.00     0.124 S 
ATOM     96  O   UNL A   1      44.257  22.101  35.418  1.00  0.00    -0.237 OA
ATOM     97  O   UNL A   1      46.712  22.382  35.433  1.00  0.00    -0.237 OA
ATOM     98  O   UNL A   1      45.359  23.265  37.294  1.00  0.00    -0.744 OA
ENDBRANCH  94  95
ENDBRANCH  68  89
ENDBRANCH  42  43
ENDBRANCH  35  37
ENDBRANCH  34  35
ENDBRANCH  33  34
ENDBRANCH  32  33
ENDBRANCH  31  32
ENDBRANCH  30  31
ENDBRANCH  29  30
ENDBRANCH   1  29
TORSDOF 26
ENDMDL
MODEL 3
REMARK VINA RESULT:      -6.5      4.221      9.443
REMARK SMILES COc1ccc(F)c(NC(=O)N2CCCC[C@@H]2C(=O)OCCOCCOCCOCCOC(=O)c2ccc(-c3c4nc(c(-c5ccc(S(=O)(=O)[O-])cc5)c5ccc([nH]5)c(-c5ccc(S(=O)(=O)[O-])cc5)c5nc(c(-c6ccc(S(=O)(=O)[O-])cc6)c6ccc3[nH]6)C=C5)C=C4)cc2)c1
REMARK SMILES IDX 26 1 25 2 24 3 23 4 22 5 21 6 20 7 18 8 19 9 17 10 12 11
REMARK SMILES IDX 13 12 14 13 16 14 15 15 10 16 9 17 11 19 8 20 3 21 4 22
REMARK SMILES IDX 95 23 5 24 6 25 7 26 2 27 1 28 27 29 28 30 29 31 30 32 31 33
REMARK SMILES IDX 32 34 33 35 34 36 35 37 36 38 94 39 37 40 93 41 38 42 39 43
REMARK SMILES IDX 40 44 87 45 41 46 92 47 86 48 88 49 42 50 91 51 85 52 84 53
REMARK SMILES IDX 43 55 73 56 54 57 72 58 55 59 58 60 71 61 89 62 56 63 57 64
REMARK SMILES IDX 70 66 90 67 59 68 44 69 45 70 53 71 46 72 52 73 47 74 48 75
REMARK SMILES IDX 49 76 50 77 51 78 74 79 75 80 83 81 76 82 82 83 77 84 78 85
REMARK SMILES IDX 79 86 80 87 81 88 60 89 61 90 69 91 62 92 68 93 63 94 64 95
REMARK SMILES IDX 65 96 66 97 67 98
REMARK H PARENT 9 18 88 54 58 65
REMARK Flexibility Score: inf
ROOT
ATOM      1  O   UNL A   1      41.817  26.178  28.020  1.00  0.00    -0.377 OA
ENDROOT
BRANCH   1   2
ATOM      2  C   UNL A   1      41.173  24.954  28.329  1.00  0.00     0.188 C 
BRANCH   2   3
ATOM      3  C   UNL A   1      40.105  24.423  27.359  1.00  0.00     0.188 C 
BRANCH   3   4
ATOM      4  O   UNL A   1      40.215  23.044  27.048  1.00  0.00    -0.376 OA
BRANCH   4   5
ATOM      5  C   UNL A   1      39.148  22.387  26.384  1.00  0.00     0.202 C 
BRANCH   5   6
ATOM      6  C   UNL A   1      37.804  23.141  26.178  1.00  0.00     0.261 C 
BRANCH   6   7
ATOM      7  O   UNL A   1      36.604  22.339  26.115  1.00  0.00    -0.462 OA
BRANCH   7   8
ATOM      8  C   UNL A   1      35.687  22.875  25.284  1.00  0.00     0.329 C 
ATOM      9  O   UNL A   1      35.894  23.978  24.804  1.00  0.00    -0.250 OA
BRANCH   8  10
ATOM     10  C   UNL A   1      34.498  21.968  24.882  1.00  0.00     0.196 C 
ATOM     11  N   UNL A   1      33.225  22.169  25.640  1.00  0.00    -0.311 N 
ATOM     12  C   UNL A   1      32.129  21.234  25.405  1.00  0.00     0.122 C 
ATOM     13  C   UNL A   1      32.558  19.778  25.278  1.00  0.00     0.022 C 
ATOM     14  C   UNL A   1      34.873  20.475  24.770  1.00  0.00     0.037 C 
ATOM     15  C   UNL A   1      33.690  19.648  24.274  1.00  0.00     0.005 C 
BRANCH  11  16
ATOM     16  C   UNL A   1      33.139  22.941  26.771  1.00  0.00     0.322 C 
ATOM     17  N   UNL A   1      32.569  24.179  26.715  1.00  0.00    -0.305 N 
ATOM     18  H   UNL A   1      32.627  24.676  27.563  1.00  0.00     0.171 HD
ATOM     19  O   UNL A   1      33.542  22.518  27.856  1.00  0.00    -0.248 OA
BRANCH  17  20
ATOM     20  C   UNL A   1      31.908  24.896  25.683  1.00  0.00     0.082 A 
ATOM     21  C   UNL A   1      31.824  26.696  24.052  1.00  0.00     0.121 A 
ATOM     22  C   UNL A   1      30.434  26.765  24.184  1.00  0.00     0.049 A 
ATOM     23  C   UNL A   1      32.551  25.729  24.764  1.00  0.00     0.075 A 
ATOM     24  C   UNL A   1      29.771  25.865  25.020  1.00  0.00     0.045 A 
ATOM     25  C   UNL A   1      30.505  24.931  25.747  1.00  0.00     0.147 A 
ATOM     26  F   UNL A   1      29.858  24.163  26.638  1.00  0.00    -0.205 F 
BRANCH  21  27
ATOM     27  O   UNL A   1      32.584  27.551  23.296  1.00  0.00    -0.497 OA
ATOM     28  C   UNL A   1      33.648  26.956  22.558  1.00  0.00     0.278 C 
ENDBRANCH  21  27
ENDBRANCH  17  20
ENDBRANCH  11  16
ENDBRANCH   8  10
ENDBRANCH   7   8
ENDBRANCH   6   7
ENDBRANCH   5   6
ENDBRANCH   4   5
ENDBRANCH   3   4
ENDBRANCH   2   3
ENDBRANCH   1   2
BRANCH   1  29
ATOM     29  C   UNL A   1      42.602  26.826  29.020  1.00  0.00     0.188 C 
BRANCH  29  30
ATOM     30  C   UNL A   1      44.024  27.337  28.698  1.00  0.00     0.188 C 
BRANCH  30  31
ATOM     31  O   UNL A   1      45.074  26.601  29.305  1.00  0.00    -0.376 OA
BRANCH  31  32
ATOM     32  C   UNL A   1      44.948  25.188  29.293  1.00  0.00     0.202 C 
BRANCH  32  33
ATOM     33  C   UNL A   1      45.261  24.437  30.599  1.00  0.00     0.261 C 
BRANCH  33  34
ATOM     34  O   UNL A   1      44.170  24.267  31.522  1.00  0.00    -0.460 OA
BRANCH  34  35
ATOM     35  C   UNL A   1      44.463  24.278  32.844  1.00  0.00     0.338 C 
ATOM     36  O   UNL A   1      45.213  23.526  33.427  1.00  0.00    -0.246 OA
BRANCH  35  37
ATOM     37  C   UNL A   1      43.901  25.521  33.429  1.00  0.00     0.060 A 
ATOM     38  C   UNL A   1      44.245  26.747  32.844  1.00  0.00     0.016 A 
ATOM     39  C   UNL A   1      43.040  25.482  34.529  1.00  0.00     0.016 A 
ATOM     40  C   UNL A   1      43.783  27.939  33.393  1.00  0.00     0.010 A 
ATOM     41  C   UNL A   1      42.599  26.682  35.099  1.00  0.00     0.010 A 
ATOM     42  C   UNL A   1      43.012  27.915  34.562  1.00  0.00    -0.014 A 
BRANCH  42  43
ATOM     43  C   UNL A   1      42.866  29.176  35.329  1.00  0.00     0.031 A 
ATOM     44  C   UNL A   1      41.730  30.099  34.969  1.00  0.00     0.074 A 
ATOM     45  C   UNL A   1      43.659  29.455  36.378  1.00  0.00     0.049 A 
ATOM     46  N   UNL A   1      41.347  31.208  35.545  1.00  0.00    -0.248 NA
ATOM     47  C   UNL A   1      40.916  29.712  33.806  1.00  0.00     0.031 C 
ATOM     48  C   UNL A   1      44.765  28.624  36.848  1.00  0.00     0.029 A 
ATOM     49  N   UNL A   1      43.643  30.520  37.243  1.00  0.00    -0.354 N 
ATOM     50  C   UNL A   1      40.256  31.656  34.809  1.00  0.00     0.074 A 
ATOM     51  C   UNL A   1      40.060  30.718  33.727  1.00  0.00     0.031 C 
ATOM     52  C   UNL A   1      45.327  29.214  37.917  1.00  0.00     0.029 A 
ATOM     53  C   UNL A   1      44.637  30.474  38.191  1.00  0.00     0.049 A 
ATOM     54  H   UNL A   1      42.983  31.248  37.190  1.00  0.00     0.167 HD
ATOM     55  C   UNL A   1      39.483  32.749  35.015  1.00  0.00     0.031 A 
ATOM     56  C   UNL A   1      44.961  31.354  39.160  1.00  0.00     0.031 A 
ATOM     57  C   UNL A   1      39.697  33.693  36.081  1.00  0.00     0.049 A 
ATOM     58  C   UNL A   1      44.119  32.589  39.344  1.00  0.00     0.074 A 
ATOM     59  C   UNL A   1      38.957  34.821  36.393  1.00  0.00     0.029 A 
ATOM     60  N   UNL A   1      40.737  33.631  36.997  1.00  0.00    -0.354 N 
ATOM     61  N   UNL A   1      43.063  32.979  38.667  1.00  0.00    -0.248 NA
ATOM     62  C   UNL A   1      44.499  33.491  40.439  1.00  0.00     0.031 C 
ATOM     63  C   UNL A   1      39.594  35.481  37.449  1.00  0.00     0.029 A 
ATOM     64  C   UNL A   1      40.681  34.721  37.851  1.00  0.00     0.049 A 
ATOM     65  H   UNL A   1      41.415  32.918  37.035  1.00  0.00     0.167 HD
ATOM     66  C   UNL A   1      42.640  34.160  39.269  1.00  0.00     0.074 A 
ATOM     67  C   UNL A   1      43.539  34.405  40.379  1.00  0.00     0.031 C 
ATOM     68  C   UNL A   1      41.599  34.968  38.937  1.00  0.00     0.031 A 
BRANCH  55  69
ATOM     69  C   UNL A   1      38.375  33.010  34.026  1.00  0.00    -0.014 A 
ATOM     70  C   UNL A   1      37.079  32.495  34.210  1.00  0.00     0.010 A 
ATOM     71  C   UNL A   1      38.641  33.792  32.887  1.00  0.00     0.010 A 
ATOM     72  C   UNL A   1      36.087  32.709  33.248  1.00  0.00     0.020 A 
ATOM     73  C   UNL A   1      37.643  34.039  31.940  1.00  0.00     0.020 A 
ATOM     74  C   UNL A   1      36.378  33.476  32.116  1.00  0.00     0.054 A 
BRANCH  74  75
ATOM     75  S   UNL A   1      35.075  33.740  30.883  1.00  0.00     0.124 S 
ATOM     76  O   UNL A   1      34.400  32.443  30.876  1.00  0.00    -0.237 OA
ATOM     77  O   UNL A   1      34.308  34.842  31.458  1.00  0.00    -0.237 OA
ATOM     78  O   UNL A   1      35.810  34.063  29.662  1.00  0.00    -0.744 OA
ENDBRANCH  74  75
ENDBRANCH  55  69
BRANCH  56  79
ATOM     79  C   UNL A   1      46.154  31.099  40.013  1.00  0.00    -0.014 A 
ATOM     80  C   UNL A   1      47.454  31.361  39.549  1.00  0.00     0.010 A 
ATOM     81  C   UNL A   1      45.982  30.610  41.323  1.00  0.00     0.010 A 
ATOM     82  C   UNL A   1      48.559  31.138  40.377  1.00  0.00     0.020 A 
ATOM     83  C   UNL A   1      47.081  30.415  42.163  1.00  0.00     0.020 A 
ATOM     84  C   UNL A   1      48.365  30.677  41.682  1.00  0.00     0.054 A 
BRANCH  84  85
ATOM     85  S   UNL A   1      49.807  30.476  42.766  1.00  0.00     0.124 S 
ATOM     86  O   UNL A   1      50.691  29.652  41.947  1.00  0.00    -0.237 OA
ATOM     87  O   UNL A   1      50.237  31.857  42.971  1.00  0.00    -0.237 OA
ATOM     88  O   UNL A   1      49.257  29.820  43.950  1.00  0.00    -0.744 OA
ENDBRANCH  84  85
ENDBRANCH  56  79
BRANCH  68  89
ATOM     89  C   UNL A   1      41.360  36.179  39.806  1.00  0.00    -0.014 A 
ATOM     90  C   UNL A   1      40.580  36.106  40.974  1.00  0.00     0.010 A 
ATOM     91  C   UNL A   1      41.939  37.410  39.451  1.00  0.00     0.010 A 
ATOM     92  C   UNL A   1      40.329  37.254  41.732  1.00  0.00     0.020 A 
ATOM     93  C   UNL A   1      41.724  38.553  40.227  1.00  0.00     0.020 A 
ATOM     94  C   UNL A   1      40.898  38.472  41.349  1.00  0.00     0.054 A 
BRANCH  94  95
ATOM     95  S   UNL A   1      40.551  39.950  42.341  1.00  0.00     0.124 S 
ATOM     96  O   UNL A   1      41.783  40.093  43.112  1.00  0.00    -0.237 OA
ATOM     97  O   UNL A   1      40.323  40.973  41.323  1.00  0.00    -0.237 OA
ATOM     98  O   UNL A   1      39.370  39.577  43.117  1.00  0.00    -0.744 OA
ENDBRANCH  94  95
ENDBRANCH  68  89
ENDBRANCH  42  43
ENDBRANCH  35  37
ENDBRANCH  34  35
ENDBRANCH  33  34
ENDBRANCH  32  33
ENDBRANCH  31  32
ENDBRANCH  30  31
ENDBRANCH  29  30
ENDBRANCH   1  29
TORSDOF 26
ENDMDL
