MODEL 1
REMARK VINA RESULT:      -9.4      0.000      0.000
REMARK SMILES CC(C)Cc1ccc(-c2cc(Cl)cc3c2O[C@@H](C(F)(F)F)C(C(=O)OCCOCCOCCOCCOC(=O)c2ccc(-c4c5nc(c(-c6ccc(S(=O)(=O)[O-])cc6)c6ccc([nH]6)c(-c6ccc(S(=O)(=O)[O-])cc6)c6nc(c(-c7ccc(S(=O)(=O)[O-])cc7)c7ccc4[nH]7)C=C6)C=C5)cc2)=C3)cc1
REMARK SMILES IDX 31 1 30 2 29 3 28 4 27 5 26 6 25 7 23 8 24 9 22 10 9 11
REMARK SMILES IDX 10 12 15 13 11 14 14 15 16 16 12 17 13 18 100 19 17 20 8 21
REMARK SMILES IDX 5 22 6 23 102 24 7 25 101 26 4 27 2 28 1 29 3 30 18 31 19 32
REMARK SMILES IDX 20 33 21 34 32 35 33 36 34 37 35 38 36 39 37 40 38 41 39 42
REMARK SMILES IDX 40 43 41 44 99 45 42 46 98 47 43 48 44 49 45 50 92 51 46 52
REMARK SMILES IDX 97 53 91 54 93 55 47 56 96 57 90 58 89 59 48 61 78 62 59 63
REMARK SMILES IDX 77 64 60 65 63 66 76 67 94 68 61 69 62 70 75 72 95 73 64 74
REMARK SMILES IDX 49 75 50 76 58 77 51 78 57 79 52 80 53 81 54 82 55 83 56 84
REMARK SMILES IDX 79 85 80 86 88 87 81 88 87 89 82 90 83 91 84 92 85 93 86 94
REMARK SMILES IDX 65 95 66 96 74 97 67 98 73 99 68 100 69 101 70 102 71 103
REMARK SMILES IDX 72 104
REMARK H PARENT 93 60 63 71
REMARK Flexibility Score: inf
ROOT
ATOM      1  O   UNL A   1      34.658  21.586  25.280  1.00  0.00    -0.377 OA
ENDROOT
BRANCH   1   2
ATOM      2  C   UNL A   1      33.569  21.909  24.440  1.00  0.00     0.188 C 
BRANCH   2   3
ATOM      3  C   UNL A   1      33.942  22.916  23.345  1.00  0.00     0.188 C 
BRANCH   3   4
ATOM      4  O   UNL A   1      32.826  23.556  22.733  1.00  0.00    -0.376 OA
BRANCH   4   5
ATOM      5  C   UNL A   1      33.039  24.833  22.134  1.00  0.00     0.202 C 
BRANCH   5   6
ATOM      6  C   UNL A   1      31.860  25.485  21.399  1.00  0.00     0.261 C 
BRANCH   6   7
ATOM      7  O   UNL A   1      31.282  26.541  22.201  1.00  0.00    -0.460 OA
BRANCH   7   8
ATOM      8  C   UNL A   1      30.332  26.160  23.069  1.00  0.00     0.338 C 
ATOM      9  O   UNL A   1      29.815  25.050  23.096  1.00  0.00    -0.246 OA
BRANCH   8  10
ATOM     10  C   UNL A   1      30.098  27.165  24.137  1.00  0.00     0.087 C 
ATOM     11  C   UNL A   1      33.578  28.544  25.916  1.00  0.00     0.026 A 
ATOM     12  C   UNL A   1      34.528  27.498  25.849  1.00  0.00     0.033 A 
ATOM     13  C   UNL A   1      32.281  28.233  25.459  1.00  0.00     0.135 A 
ATOM     14  C   UNL A   1      34.133  26.177  25.651  1.00  0.00     0.042 A 
ATOM     15  C   UNL A   1      31.860  26.894  25.501  1.00  0.00     0.019 A 
ATOM     16  O   UNL A   1      31.517  29.168  24.768  1.00  0.00    -0.475 OA
ATOM     17  Cl  UNL A   1      35.315  24.932  25.596  1.00  0.00    -0.084 Cl
ATOM     18  C   UNL A   1      32.785  25.859  25.582  1.00  0.00     0.032 A 
ATOM     19  C   UNL A   1      30.419  26.615  25.323  1.00  0.00     0.027 C 
ATOM     20  C   UNL A   1      30.279  28.672  24.084  1.00  0.00     0.316 C 
BRANCH  11  21
ATOM     21  C   UNL A   1      33.877  29.580  26.961  1.00  0.00    -0.015 A 
ATOM     22  C   UNL A   1      34.795  32.027  28.130  1.00  0.00    -0.048 A 
ATOM     23  C   UNL A   1      33.450  31.857  27.786  1.00  0.00     0.004 A 
ATOM     24  C   UNL A   1      35.659  30.941  27.969  1.00  0.00     0.004 A 
ATOM     25  C   UNL A   1      32.996  30.648  27.223  1.00  0.00     0.009 A 
ATOM     26  C   UNL A   1      35.205  29.738  27.404  1.00  0.00     0.009 A 
BRANCH  22  27
ATOM     27  C   UNL A   1      35.311  33.361  28.634  1.00  0.00     0.038 C 
BRANCH  27  28
ATOM     28  C   UNL A   1      34.199  34.361  29.004  1.00  0.00    -0.013 C 
ATOM     29  C   UNL A   1      34.082  34.535  30.519  1.00  0.00     0.008 C 
ATOM     30  C   UNL A   1      34.456  35.722  28.350  1.00  0.00     0.008 C 
ENDBRANCH  27  28
ENDBRANCH  22  27
ENDBRANCH  11  21
BRANCH  20  31
ATOM     31  C   UNL A   1      29.891  29.411  22.778  1.00  0.00     0.430 C 
ATOM     32  F   UNL A   1      29.567  30.700  23.069  1.00  0.00    -0.167 F 
ATOM     33  F   UNL A   1      30.939  29.469  21.919  1.00  0.00    -0.167 F 
ATOM     34  F   UNL A   1      28.854  28.906  22.099  1.00  0.00    -0.167 F 
ENDBRANCH  20  31
ENDBRANCH   8  10
ENDBRANCH   7   8
ENDBRANCH   6   7
ENDBRANCH   5   6
ENDBRANCH   4   5
ENDBRANCH   3   4
ENDBRANCH   2   3
ENDBRANCH   1   2
BRANCH   1  35
ATOM     35  C   UNL A   1      35.766  20.911  24.693  1.00  0.00     0.188 C 
BRANCH  35  36
ATOM     36  C   UNL A   1      37.222  21.314  25.021  1.00  0.00     0.188 C 
BRANCH  36  37
ATOM     37  O   UNL A   1      38.090  20.219  25.316  1.00  0.00    -0.376 OA
BRANCH  37  38
ATOM     38  C   UNL A   1      39.365  20.536  25.858  1.00  0.00     0.202 C 
BRANCH  38  39
ATOM     39  C   UNL A   1      40.351  19.360  25.864  1.00  0.00     0.261 C 
BRANCH  39  40
ATOM     40  O   UNL A   1      41.562  19.592  26.598  1.00  0.00    -0.460 OA
BRANCH  40  41
ATOM     41  C   UNL A   1      42.604  20.112  25.915  1.00  0.00     0.338 C 
ATOM     42  O   UNL A   1      43.184  19.612  24.965  1.00  0.00    -0.246 OA
BRANCH  41  43
ATOM     43  C   UNL A   1      42.806  21.497  26.381  1.00  0.00     0.060 A 
ATOM     44  C   UNL A   1      42.819  22.530  25.435  1.00  0.00     0.016 A 
ATOM     45  C   UNL A   1      42.958  21.776  27.742  1.00  0.00     0.016 A 
ATOM     46  C   UNL A   1      43.032  23.845  25.845  1.00  0.00     0.010 A 
ATOM     47  C   UNL A   1      43.189  23.090  28.149  1.00  0.00     0.010 A 
ATOM     48  C   UNL A   1      43.265  24.123  27.199  1.00  0.00    -0.014 A 
BRANCH  48  49
ATOM     49  C   UNL A   1      43.805  25.444  27.593  1.00  0.00     0.031 A 
ATOM     50  C   UNL A   1      45.268  25.704  27.359  1.00  0.00     0.074 A 
ATOM     51  C   UNL A   1      43.023  26.390  28.144  1.00  0.00     0.049 A 
ATOM     52  N   UNL A   1      45.976  26.766  27.637  1.00  0.00    -0.248 NA
ATOM     53  C   UNL A   1      46.035  24.616  26.727  1.00  0.00     0.031 C 
ATOM     54  C   UNL A   1      41.589  26.265  28.397  1.00  0.00     0.029 A 
ATOM     55  N   UNL A   1      43.339  27.646  28.599  1.00  0.00    -0.354 N 
ATOM     56  C   UNL A   1      47.269  26.474  27.222  1.00  0.00     0.074 A 
ATOM     57  C   UNL A   1      47.256  25.128  26.696  1.00  0.00     0.031 C 
ATOM     58  C   UNL A   1      41.150  27.398  28.976  1.00  0.00     0.029 A 
ATOM     59  C   UNL A   1      42.276  28.314  29.157  1.00  0.00     0.049 A 
ATOM     60  H   UNL A   1      44.242  28.031  28.530  1.00  0.00     0.167 HD
ATOM     61  C   UNL A   1      48.371  27.257  27.271  1.00  0.00     0.031 A 
ATOM     62  C   UNL A   1      42.225  29.518  29.761  1.00  0.00     0.031 A 
ATOM     63  C   UNL A   1      48.389  28.588  27.813  1.00  0.00     0.049 A 
ATOM     64  C   UNL A   1      43.479  30.349  29.858  1.00  0.00     0.074 A 
ATOM     65  C   UNL A   1      49.450  29.472  27.888  1.00  0.00     0.029 A 
ATOM     66  N   UNL A   1      47.296  29.222  28.384  1.00  0.00    -0.354 N 
ATOM     67  N   UNL A   1      44.685  30.080  29.417  1.00  0.00    -0.248 NA
ATOM     68  C   UNL A   1      43.363  31.653  30.528  1.00  0.00     0.031 C 
ATOM     69  C   UNL A   1      49.014  30.620  28.557  1.00  0.00     0.029 A 
ATOM     70  C   UNL A   1      47.665  30.475  28.842  1.00  0.00     0.049 A 
ATOM     71  H   UNL A   1      46.392  28.838  28.454  1.00  0.00     0.167 HD
ATOM     72  C   UNL A   1      45.463  31.192  29.730  1.00  0.00     0.074 A 
ATOM     73  C   UNL A   1      44.589  32.140  30.387  1.00  0.00     0.031 C 
ATOM     74  C   UNL A   1      46.780  31.409  29.492  1.00  0.00     0.031 A 
BRANCH  61  75
ATOM     75  C   UNL A   1      49.658  26.675  26.757  1.00  0.00    -0.014 A 
ATOM     76  C   UNL A   1      49.965  26.683  25.384  1.00  0.00     0.010 A 
ATOM     77  C   UNL A   1      50.588  26.137  27.666  1.00  0.00     0.010 A 
ATOM     78  C   UNL A   1      51.166  26.132  24.926  1.00  0.00     0.020 A 
ATOM     79  C   UNL A   1      51.800  25.609  27.214  1.00  0.00     0.020 A 
ATOM     80  C   UNL A   1      52.074  25.597  25.844  1.00  0.00     0.054 A 
BRANCH  80  81
ATOM     81  S   UNL A   1      53.637  24.914  25.226  1.00  0.00     0.124 S 
ATOM     82  O   UNL A   1      54.555  25.230  26.317  1.00  0.00    -0.237 OA
ATOM     83  O   UNL A   1      53.323  23.496  25.060  1.00  0.00    -0.237 OA
ATOM     84  O   UNL A   1      53.869  25.647  23.984  1.00  0.00    -0.744 OA
ENDBRANCH  80  81
ENDBRANCH  61  75
BRANCH  62  85
ATOM     85  C   UNL A   1      40.944  30.006  30.345  1.00  0.00    -0.014 A 
ATOM     86  C   UNL A   1      40.720  29.956  31.732  1.00  0.00     0.010 A 
ATOM     87  C   UNL A   1      39.934  30.513  29.508  1.00  0.00     0.010 A 
ATOM     88  C   UNL A   1      39.501  30.385  32.269  1.00  0.00     0.020 A 
ATOM     89  C   UNL A   1      38.725  30.968  30.042  1.00  0.00     0.020 A 
ATOM     90  C   UNL A   1      38.511  30.889  31.419  1.00  0.00     0.054 A 
BRANCH  90  91
ATOM     91  S   UNL A   1      36.954  31.480  32.140  1.00  0.00     0.124 S 
ATOM     92  O   UNL A   1      35.975  30.596  31.514  1.00  0.00    -0.237 OA
ATOM     93  O   UNL A   1      37.170  31.273  33.570  1.00  0.00    -0.237 OA
ATOM     94  O   UNL A   1      36.893  32.878  31.723  1.00  0.00    -0.744 OA
ENDBRANCH  90  91
ENDBRANCH  62  85
BRANCH  74  95
ATOM     95  C   UNL A   1      47.356  32.738  29.905  1.00  0.00    -0.014 A 
ATOM     96  C   UNL A   1      47.322  33.849  29.046  1.00  0.00     0.010 A 
ATOM     97  C   UNL A   1      47.878  32.890  31.204  1.00  0.00     0.010 A 
ATOM     98  C   UNL A   1      47.824  35.084  29.469  1.00  0.00     0.020 A 
ATOM     99  C   UNL A   1      48.355  34.129  31.639  1.00  0.00     0.020 A 
ATOM    100  C   UNL A   1      48.337  35.215  30.763  1.00  0.00     0.054 A 
BRANCH 100 101
ATOM    101  S   UNL A   1      48.938  36.838  31.305  1.00  0.00     0.124 S 
ATOM    102  O   UNL A   1      48.005  37.165  32.379  1.00  0.00    -0.237 OA
ATOM    103  O   UNL A   1      50.307  36.551  31.728  1.00  0.00    -0.237 OA
ATOM    104  O   UNL A   1      48.825  37.667  30.108  1.00  0.00    -0.744 OA
ENDBRANCH 100 101
ENDBRANCH  74  95
ENDBRANCH  48  49
ENDBRANCH  41  43
ENDBRANCH  40  41
ENDBRANCH  39  40
ENDBRANCH  38  39
ENDBRANCH  37  38
ENDBRANCH  36  37
ENDBRANCH  35  36
ENDBRANCH   1  35
TORSDOF 27
ENDMDL
MODEL 2
REMARK VINA RESULT:      -8.3      4.803      6.547
REMARK SMILES CC(C)Cc1ccc(-c2cc(Cl)cc3c2O[C@@H](C(F)(F)F)C(C(=O)OCCOCCOCCOCCOC(=O)c2ccc(-c4c5nc(c(-c6ccc(S(=O)(=O)[O-])cc6)c6ccc([nH]6)c(-c6ccc(S(=O)(=O)[O-])cc6)c6nc(c(-c7ccc(S(=O)(=O)[O-])cc7)c7ccc4[nH]7)C=C6)C=C5)cc2)=C3)cc1
REMARK SMILES IDX 31 1 30 2 29 3 28 4 27 5 26 6 25 7 23 8 24 9 22 10 9 11
REMARK SMILES IDX 10 12 15 13 11 14 14 15 16 16 12 17 13 18 100 19 17 20 8 21
REMARK SMILES IDX 5 22 6 23 102 24 7 25 101 26 4 27 2 28 1 29 3 30 18 31 19 32
REMARK SMILES IDX 20 33 21 34 32 35 33 36 34 37 35 38 36 39 37 40 38 41 39 42
REMARK SMILES IDX 40 43 41 44 99 45 42 46 98 47 43 48 44 49 45 50 92 51 46 52
REMARK SMILES IDX 97 53 91 54 93 55 47 56 96 57 90 58 89 59 48 61 78 62 59 63
REMARK SMILES IDX 77 64 60 65 63 66 76 67 94 68 61 69 62 70 75 72 95 73 64 74
REMARK SMILES IDX 49 75 50 76 58 77 51 78 57 79 52 80 53 81 54 82 55 83 56 84
REMARK SMILES IDX 79 85 80 86 88 87 81 88 87 89 82 90 83 91 84 92 85 93 86 94
REMARK SMILES IDX 65 95 66 96 74 97 67 98 73 99 68 100 69 101 70 102 71 103
REMARK SMILES IDX 72 104
REMARK H PARENT 93 60 63 71
REMARK Flexibility Score: inf
ROOT
ATOM      1  O   UNL A   1      33.696  21.080  24.214  1.00  0.00    -0.377 OA
ENDROOT
BRANCH   1   2
ATOM      2  C   UNL A   1      33.678  22.492  24.157  1.00  0.00     0.188 C 
BRANCH   2   3
ATOM      3  C   UNL A   1      34.415  23.047  22.931  1.00  0.00     0.188 C 
BRANCH   3   4
ATOM      4  O   UNL A   1      33.557  23.527  21.901  1.00  0.00    -0.376 OA
BRANCH   4   5
ATOM      5  C   UNL A   1      33.377  24.939  21.791  1.00  0.00     0.202 C 
BRANCH   5   6
ATOM      6  C   UNL A   1      32.011  25.451  21.312  1.00  0.00     0.261 C 
BRANCH   6   7
ATOM      7  O   UNL A   1      31.492  26.445  22.226  1.00  0.00    -0.460 OA
BRANCH   7   8
ATOM      8  C   UNL A   1      30.547  26.016  23.077  1.00  0.00     0.338 C 
ATOM      9  O   UNL A   1      30.060  24.893  23.073  1.00  0.00    -0.246 OA
BRANCH   8  10
ATOM     10  C   UNL A   1      30.278  26.987  24.168  1.00  0.00     0.087 C 
ATOM     11  C   UNL A   1      33.705  28.375  26.042  1.00  0.00     0.026 A 
ATOM     12  C   UNL A   1      34.674  27.347  25.962  1.00  0.00     0.033 A 
ATOM     13  C   UNL A   1      32.421  28.055  25.555  1.00  0.00     0.135 A 
ATOM     14  C   UNL A   1      34.305  26.026  25.721  1.00  0.00     0.042 A 
ATOM     15  C   UNL A   1      32.022  26.708  25.553  1.00  0.00     0.019 A 
ATOM     16  O   UNL A   1      31.652  28.995  24.877  1.00  0.00    -0.475 OA
ATOM     17  Cl  UNL A   1      35.509  24.803  25.652  1.00  0.00    -0.084 Cl
ATOM     18  C   UNL A   1      32.964  25.687  25.621  1.00  0.00     0.032 A 
ATOM     19  C   UNL A   1      30.590  26.410  25.343  1.00  0.00     0.027 C 
ATOM     20  C   UNL A   1      30.435  28.498  24.159  1.00  0.00     0.316 C 
BRANCH  11  21
ATOM     21  C   UNL A   1      33.969  29.387  27.119  1.00  0.00    -0.015 A 
ATOM     22  C   UNL A   1      34.997  31.725  28.414  1.00  0.00    -0.048 A 
ATOM     23  C   UNL A   1      33.708  31.714  27.869  1.00  0.00     0.004 A 
ATOM     24  C   UNL A   1      35.733  30.538  28.387  1.00  0.00     0.004 A 
ATOM     25  C   UNL A   1      33.198  30.560  27.244  1.00  0.00     0.009 A 
ATOM     26  C   UNL A   1      35.224  29.389  27.760  1.00  0.00     0.009 A 
BRANCH  22  27
ATOM     27  C   UNL A   1      35.592  32.995  28.990  1.00  0.00     0.038 C 
BRANCH  27  28
ATOM     28  C   UNL A   1      35.625  33.025  30.530  1.00  0.00    -0.013 C 
ATOM     29  C   UNL A   1      37.042  33.263  31.057  1.00  0.00     0.008 C 
ATOM     30  C   UNL A   1      34.689  34.111  31.070  1.00  0.00     0.008 C 
ENDBRANCH  27  28
ENDBRANCH  22  27
ENDBRANCH  11  21
BRANCH  20  31
ATOM     31  C   UNL A   1      30.055  29.266  22.868  1.00  0.00     0.430 C 
ATOM     32  F   UNL A   1      29.683  30.535  23.191  1.00  0.00    -0.167 F 
ATOM     33  F   UNL A   1      31.120  29.383  22.037  1.00  0.00    -0.167 F 
ATOM     34  F   UNL A   1      29.050  28.752  22.147  1.00  0.00    -0.167 F 
ENDBRANCH  20  31
ENDBRANCH   8  10
ENDBRANCH   7   8
ENDBRANCH   6   7
ENDBRANCH   5   6
ENDBRANCH   4   5
ENDBRANCH   3   4
ENDBRANCH   2   3
ENDBRANCH   1   2
BRANCH   1  35
ATOM     35  C   UNL A   1      34.805  20.461  24.857  1.00  0.00     0.188 C 
BRANCH  35  36
ATOM     36  C   UNL A   1      35.867  21.292  25.613  1.00  0.00     0.188 C 
BRANCH  36  37
ATOM     37  O   UNL A   1      37.091  21.481  24.902  1.00  0.00    -0.376 OA
BRANCH  37  38
ATOM     38  C   UNL A   1      38.153  22.111  25.606  1.00  0.00     0.202 C 
BRANCH  38  39
ATOM     39  C   UNL A   1      39.309  21.168  25.967  1.00  0.00     0.261 C 
BRANCH  39  40
ATOM     40  O   UNL A   1      40.245  21.698  26.916  1.00  0.00    -0.460 OA
BRANCH  40  41
ATOM     41  C   UNL A   1      41.550  21.684  26.566  1.00  0.00     0.338 C 
ATOM     42  O   UNL A   1      42.064  21.031  25.673  1.00  0.00    -0.246 OA
BRANCH  41  43
ATOM     43  C   UNL A   1      42.232  22.755  27.316  1.00  0.00     0.060 A 
ATOM     44  C   UNL A   1      43.632  22.808  27.289  1.00  0.00     0.016 A 
ATOM     45  C   UNL A   1      41.497  23.711  28.021  1.00  0.00     0.016 A 
ATOM     46  C   UNL A   1      44.303  23.796  28.009  1.00  0.00     0.010 A 
ATOM     47  C   UNL A   1      42.170  24.688  28.756  1.00  0.00     0.010 A 
ATOM     48  C   UNL A   1      43.575  24.709  28.782  1.00  0.00    -0.014 A 
BRANCH  48  49
ATOM     49  C   UNL A   1      44.276  25.539  29.789  1.00  0.00     0.031 A 
ATOM     50  C   UNL A   1      44.563  26.975  29.440  1.00  0.00     0.074 A 
ATOM     51  C   UNL A   1      44.650  25.039  30.980  1.00  0.00     0.049 A 
ATOM     52  N   UNL A   1      45.179  27.891  30.139  1.00  0.00    -0.248 NA
ATOM     53  C   UNL A   1      44.091  27.437  28.122  1.00  0.00     0.031 C 
ATOM     54  C   UNL A   1      44.406  23.673  31.441  1.00  0.00     0.029 A 
ATOM     55  N   UNL A   1      45.328  25.631  32.016  1.00  0.00    -0.354 N 
ATOM     56  C   UNL A   1      45.175  29.032  29.347  1.00  0.00     0.074 A 
ATOM     57  C   UNL A   1      44.519  28.690  28.106  1.00  0.00     0.031 C 
ATOM     58  C   UNL A   1      44.941  23.528  32.667  1.00  0.00     0.029 A 
ATOM     59  C   UNL A   1      45.585  24.780  33.064  1.00  0.00     0.049 A 
ATOM     60  H   UNL A   1      45.602  26.576  32.009  1.00  0.00     0.167 HD
ATOM     61  C   UNL A   1      45.672  30.259  29.629  1.00  0.00     0.031 A 
ATOM     62  C   UNL A   1      46.276  24.986  34.203  1.00  0.00     0.031 A 
ATOM     63  C   UNL A   1      46.342  30.593  30.855  1.00  0.00     0.049 A 
ATOM     64  C   UNL A   1      46.873  26.345  34.469  1.00  0.00     0.074 A 
ATOM     65  C   UNL A   1      46.862  31.814  31.245  1.00  0.00     0.029 A 
ATOM     66  N   UNL A   1      46.598  29.700  31.884  1.00  0.00    -0.354 N 
ATOM     67  N   UNL A   1      46.819  27.430  33.732  1.00  0.00    -0.248 NA
ATOM     68  C   UNL A   1      47.618  26.510  35.726  1.00  0.00     0.031 C 
ATOM     69  C   UNL A   1      47.483  31.646  32.487  1.00  0.00     0.029 A 
ATOM     70  C   UNL A   1      47.295  30.335  32.897  1.00  0.00     0.049 A 
ATOM     71  H   UNL A   1      46.325  28.754  31.892  1.00  0.00     0.167 HD
ATOM     72  C   UNL A   1      47.497  28.413  34.450  1.00  0.00     0.074 A 
ATOM     73  C   UNL A   1      47.941  27.797  35.682  1.00  0.00     0.031 C 
ATOM     74  C   UNL A   1      47.727  29.708  34.120  1.00  0.00     0.031 A 
BRANCH  61  75
ATOM     75  C   UNL A   1      45.539  31.319  28.571  1.00  0.00    -0.014 A 
ATOM     76  C   UNL A   1      44.445  32.203  28.558  1.00  0.00     0.010 A 
ATOM     77  C   UNL A   1      46.540  31.451  27.591  1.00  0.00     0.010 A 
ATOM     78  C   UNL A   1      44.338  33.180  27.563  1.00  0.00     0.020 A 
ATOM     79  C   UNL A   1      46.450  32.442  26.611  1.00  0.00     0.020 A 
ATOM     80  C   UNL A   1      45.340  33.290  26.595  1.00  0.00     0.054 A 
BRANCH  80  81
ATOM     81  S   UNL A   1      45.191  34.584  25.332  1.00  0.00     0.124 S 
ATOM     82  O   UNL A   1      44.758  33.816  24.166  1.00  0.00    -0.237 OA
ATOM     83  O   UNL A   1      44.186  35.476  25.904  1.00  0.00    -0.237 OA
ATOM     84  O   UNL A   1      46.539  35.141  25.244  1.00  0.00    -0.744 OA
ENDBRANCH  80  81
ENDBRANCH  61  75
BRANCH  62  85
ATOM     85  C   UNL A   1      46.466  23.872  35.173  1.00  0.00    -0.014 A 
ATOM     86  C   UNL A   1      47.729  23.284  35.358  1.00  0.00     0.010 A 
ATOM     87  C   UNL A   1      45.372  23.383  35.910  1.00  0.00     0.010 A 
ATOM     88  C   UNL A   1      47.891  22.216  36.245  1.00  0.00     0.020 A 
ATOM     89  C   UNL A   1      45.534  22.334  36.818  1.00  0.00     0.020 A 
ATOM     90  C   UNL A   1      46.791  21.747  36.971  1.00  0.00     0.054 A 
BRANCH  90  91
ATOM     91  S   UNL A   1      47.032  20.388  38.150  1.00  0.00     0.124 S 
ATOM     92  O   UNL A   1      45.772  20.399  38.887  1.00  0.00    -0.237 OA
ATOM     93  O   UNL A   1      47.240  19.240  37.270  1.00  0.00    -0.237 OA
ATOM     94  O   UNL A   1      48.208  20.800  38.911  1.00  0.00    -0.744 OA
ENDBRANCH  90  91
ENDBRANCH  62  85
BRANCH  74  95
ATOM     95  C   UNL A   1      48.459  30.565  35.119  1.00  0.00    -0.014 A 
ATOM     96  C   UNL A   1      47.772  31.252  36.134  1.00  0.00     0.010 A 
ATOM     97  C   UNL A   1      49.864  30.624  35.080  1.00  0.00     0.010 A 
ATOM     98  C   UNL A   1      48.477  32.008  37.077  1.00  0.00     0.020 A 
ATOM     99  C   UNL A   1      50.574  31.354  36.036  1.00  0.00     0.020 A 
ATOM    100  C   UNL A   1      49.874  32.053  37.021  1.00  0.00     0.054 A 
BRANCH 100 101
ATOM    101  S   UNL A   1      50.769  33.000  38.283  1.00  0.00     0.124 S 
ATOM    102  O   UNL A   1      52.097  32.395  38.232  1.00  0.00    -0.237 OA
ATOM    103  O   UNL A   1      50.683  34.369  37.781  1.00  0.00    -0.237 OA
ATOM    104  O   UNL A   1      50.015  32.743  39.508  1.00  0.00    -0.744 OA
ENDBRANCH 100 101
ENDBRANCH  74  95
ENDBRANCH  48  49
ENDBRANCH  41  43
ENDBRANCH  40  41
ENDBRANCH  39  40
ENDBRANCH  38  39
ENDBRANCH  37  38
ENDBRANCH  36  37
ENDBRANCH  35  36
ENDBRANCH   1  35
TORSDOF 27
ENDMDL
MODEL 3
REMARK VINA RESULT:      -8.3      4.770      6.469
REMARK SMILES CC(C)Cc1ccc(-c2cc(Cl)cc3c2O[C@@H](C(F)(F)F)C(C(=O)OCCOCCOCCOCCOC(=O)c2ccc(-c4c5nc(c(-c6ccc(S(=O)(=O)[O-])cc6)c6ccc([nH]6)c(-c6ccc(S(=O)(=O)[O-])cc6)c6nc(c(-c7ccc(S(=O)(=O)[O-])cc7)c7ccc4[nH]7)C=C6)C=C5)cc2)=C3)cc1
REMARK SMILES IDX 31 1 30 2 29 3 28 4 27 5 26 6 25 7 23 8 24 9 22 10 9 11
REMARK SMILES IDX 10 12 15 13 11 14 14 15 16 16 12 17 13 18 100 19 17 20 8 21
REMARK SMILES IDX 5 22 6 23 102 24 7 25 101 26 4 27 2 28 1 29 3 30 18 31 19 32
REMARK SMILES IDX 20 33 21 34 32 35 33 36 34 37 35 38 36 39 37 40 38 41 39 42
REMARK SMILES IDX 40 43 41 44 99 45 42 46 98 47 43 48 44 49 45 50 92 51 46 52
REMARK SMILES IDX 97 53 91 54 93 55 47 56 96 57 90 58 89 59 48 61 78 62 59 63
REMARK SMILES IDX 77 64 60 65 63 66 76 67 94 68 61 69 62 70 75 72 95 73 64 74
REMARK SMILES IDX 49 75 50 76 58 77 51 78 57 79 52 80 53 81 54 82 55 83 56 84
REMARK SMILES IDX 79 85 80 86 88 87 81 88 87 89 82 90 83 91 84 92 85 93 86 94
REMARK SMILES IDX 65 95 66 96 74 97 67 98 73 99 68 100 69 101 70 102 71 103
REMARK SMILES IDX 72 104
REMARK H PARENT 93 60 63 71
REMARK Flexibility Score: inf
ROOT
ATOM      1  O   UNL A   1      34.092  21.021  24.334  1.00  0.00    -0.377 OA
ENDROOT
BRANCH   1   2
ATOM      2  C   UNL A   1      33.828  22.409  24.291  1.00  0.00     0.188 C 
BRANCH   2   3
ATOM      3  C   UNL A   1      34.227  23.050  22.956  1.00  0.00     0.188 C 
BRANCH   3   4
ATOM      4  O   UNL A   1      33.138  23.607  22.226  1.00  0.00    -0.376 OA
BRANCH   4   5
ATOM      5  C   UNL A   1      33.074  25.028  22.111  1.00  0.00     0.202 C 
BRANCH   5   6
ATOM      6  C   UNL A   1      31.872  25.633  21.372  1.00  0.00     0.261 C 
BRANCH   6   7
ATOM      7  O   UNL A   1      31.264  26.679  22.164  1.00  0.00    -0.460 OA
BRANCH   7   8
ATOM      8  C   UNL A   1      30.381  26.271  23.089  1.00  0.00     0.338 C 
ATOM      9  O   UNL A   1      29.916  25.140  23.160  1.00  0.00    -0.246 OA
BRANCH   8  10
ATOM     10  C   UNL A   1      30.161  27.282  24.155  1.00  0.00     0.087 C 
ATOM     11  C   UNL A   1      33.660  28.602  25.942  1.00  0.00     0.026 A 
ATOM     12  C   UNL A   1      34.591  27.539  25.880  1.00  0.00     0.033 A 
ATOM     13  C   UNL A   1      32.359  28.313  25.481  1.00  0.00     0.135 A 
ATOM     14  C   UNL A   1      34.174  26.225  25.682  1.00  0.00     0.042 A 
ATOM     15  C   UNL A   1      31.914  26.982  25.525  1.00  0.00     0.019 A 
ATOM     16  O   UNL A   1      31.613  29.260  24.787  1.00  0.00    -0.475 OA
ATOM     17  Cl  UNL A   1      35.334  24.960  25.633  1.00  0.00    -0.084 Cl
ATOM     18  C   UNL A   1      32.821  25.931  25.610  1.00  0.00     0.032 A 
ATOM     19  C   UNL A   1      30.469  26.728  25.342  1.00  0.00     0.027 C 
ATOM     20  C   UNL A   1      30.369  28.785  24.100  1.00  0.00     0.316 C 
BRANCH  11  21
ATOM     21  C   UNL A   1      33.973  29.634  26.986  1.00  0.00    -0.015 A 
ATOM     22  C   UNL A   1      34.988  32.039  28.166  1.00  0.00    -0.048 A 
ATOM     23  C   UNL A   1      33.652  31.947  27.759  1.00  0.00     0.004 A 
ATOM     24  C   UNL A   1      35.788  30.898  28.062  1.00  0.00     0.004 A 
ATOM     25  C   UNL A   1      33.151  30.760  27.191  1.00  0.00     0.009 A 
ATOM     26  C   UNL A   1      35.286  29.717  27.492  1.00  0.00     0.009 A 
BRANCH  22  27
ATOM     27  C   UNL A   1      35.563  33.345  28.676  1.00  0.00     0.038 C 
BRANCH  27  28
ATOM     28  C   UNL A   1      36.710  33.167  29.690  1.00  0.00    -0.013 C 
ATOM     29  C   UNL A   1      38.011  33.790  29.180  1.00  0.00     0.008 C 
ATOM     30  C   UNL A   1      36.339  33.789  31.041  1.00  0.00     0.008 C 
ENDBRANCH  27  28
ENDBRANCH  22  27
ENDBRANCH  11  21
BRANCH  20  31
ATOM     31  C   UNL A   1      29.997  29.529  22.792  1.00  0.00     0.430 C 
ATOM     32  F   UNL A   1      28.973  28.876  22.178  1.00  0.00    -0.167 F 
ATOM     33  F   UNL A   1      29.547  30.781  23.053  1.00  0.00    -0.167 F 
ATOM     34  F   UNL A   1      30.971  29.644  21.880  1.00  0.00    -0.167 F 
ENDBRANCH  20  31
ENDBRANCH   8  10
ENDBRANCH   7   8
ENDBRANCH   6   7
ENDBRANCH   5   6
ENDBRANCH   4   5
ENDBRANCH   3   4
ENDBRANCH   2   3
ENDBRANCH   1   2
BRANCH   1  35
ATOM     35  C   UNL A   1      35.286  20.597  24.982  1.00  0.00     0.188 C 
BRANCH  35  36
ATOM     36  C   UNL A   1      36.263  21.612  25.617  1.00  0.00     0.188 C 
BRANCH  36  37
ATOM     37  O   UNL A   1      37.586  21.580  25.082  1.00  0.00    -0.376 OA
BRANCH  37  38
ATOM     38  C   UNL A   1      38.641  21.975  25.947  1.00  0.00     0.202 C 
BRANCH  38  39
ATOM     39  C   UNL A   1      38.525  23.418  26.458  1.00  0.00     0.261 C 
BRANCH  39  40
ATOM     40  O   UNL A   1      39.776  24.069  26.719  1.00  0.00    -0.460 OA
BRANCH  40  41
ATOM     41  C   UNL A   1      39.870  24.786  27.859  1.00  0.00     0.338 C 
ATOM     42  O   UNL A   1      38.972  25.035  28.647  1.00  0.00    -0.246 OA
BRANCH  41  43
ATOM     43  C   UNL A   1      41.298  25.057  28.109  1.00  0.00     0.060 A 
ATOM     44  C   UNL A   1      42.229  24.041  27.858  1.00  0.00     0.016 A 
ATOM     45  C   UNL A   1      41.717  26.310  28.564  1.00  0.00     0.016 A 
ATOM     46  C   UNL A   1      43.583  24.262  28.107  1.00  0.00     0.010 A 
ATOM     47  C   UNL A   1      43.069  26.524  28.831  1.00  0.00     0.010 A 
ATOM     48  C   UNL A   1      44.001  25.489  28.640  1.00  0.00    -0.014 A 
BRANCH  48  49
ATOM     49  C   UNL A   1      45.364  25.616  29.204  1.00  0.00     0.031 A 
ATOM     50  C   UNL A   1      46.478  26.005  28.270  1.00  0.00     0.074 A 
ATOM     51  C   UNL A   1      45.612  25.395  30.507  1.00  0.00     0.049 A 
ATOM     52  N   UNL A   1      47.752  26.158  28.518  1.00  0.00    -0.248 NA
ATOM     53  C   UNL A   1      46.102  26.251  26.866  1.00  0.00     0.031 C 
ATOM     54  C   UNL A   1      44.613  25.038  31.513  1.00  0.00     0.029 A 
ATOM     55  N   UNL A   1      46.795  25.431  31.202  1.00  0.00    -0.354 N 
ATOM     56  C   UNL A   1      48.329  26.512  27.304  1.00  0.00     0.074 A 
ATOM     57  C   UNL A   1      47.275  26.526  26.316  1.00  0.00     0.031 C 
ATOM     58  C   UNL A   1      45.230  24.874  32.697  1.00  0.00     0.029 A 
ATOM     59  C   UNL A   1      46.666  25.088  32.527  1.00  0.00     0.049 A 
ATOM     60  H   UNL A   1      47.654  25.679  30.790  1.00  0.00     0.167 HD
ATOM     61  C   UNL A   1      49.624  26.801  27.036  1.00  0.00     0.031 A 
ATOM     62  C   UNL A   1      47.605  24.947  33.484  1.00  0.00     0.031 A 
ATOM     63  C   UNL A   1      50.675  26.766  28.014  1.00  0.00     0.049 A 
ATOM     64  C   UNL A   1      49.050  25.217  33.147  1.00  0.00     0.074 A 
ATOM     65  C   UNL A   1      52.015  27.065  27.847  1.00  0.00     0.029 A 
ATOM     66  N   UNL A   1      50.508  26.399  29.340  1.00  0.00    -0.354 N 
ATOM     67  N   UNL A   1      49.575  25.598  32.007  1.00  0.00    -0.248 NA
ATOM     68  C   UNL A   1      50.029  25.046  34.231  1.00  0.00     0.031 C 
ATOM     69  C   UNL A   1      52.670  26.823  29.059  1.00  0.00     0.029 A 
ATOM     70  C   UNL A   1      51.726  26.434  29.996  1.00  0.00     0.049 A 
ATOM     71  H   UNL A   1      49.650  26.149  29.754  1.00  0.00     0.167 HD
ATOM     72  C   UNL A   1      50.941  25.740  32.244  1.00  0.00     0.074 A 
ATOM     73  C   UNL A   1      51.157  25.415  33.638  1.00  0.00     0.031 C 
ATOM     74  C   UNL A   1      51.924  26.110  31.387  1.00  0.00     0.031 A 
BRANCH  61  75
ATOM     75  C   UNL A   1      49.976  27.144  25.615  1.00  0.00    -0.014 A 
ATOM     76  C   UNL A   1      49.499  26.373  24.539  1.00  0.00     0.010 A 
ATOM     77  C   UNL A   1      50.773  28.273  25.351  1.00  0.00     0.010 A 
ATOM     78  C   UNL A   1      49.842  26.706  23.226  1.00  0.00     0.020 A 
ATOM     79  C   UNL A   1      51.096  28.623  24.038  1.00  0.00     0.020 A 
ATOM     80  C   UNL A   1      50.640  27.827  22.984  1.00  0.00     0.054 A 
BRANCH  80  81
ATOM     81  S   UNL A   1      51.047  28.253  21.268  1.00  0.00     0.124 S 
ATOM     82  O   UNL A   1      52.039  27.234  20.933  1.00  0.00    -0.237 OA
ATOM     83  O   UNL A   1      49.759  28.123  20.592  1.00  0.00    -0.237 OA
ATOM     84  O   UNL A   1      51.564  29.617  21.362  1.00  0.00    -0.744 OA
ENDBRANCH  80  81
ENDBRANCH  61  75
BRANCH  62  85
ATOM     85  C   UNL A   1      47.215  24.507  34.852  1.00  0.00    -0.014 A 
ATOM     86  C   UNL A   1      47.078  23.141  35.158  1.00  0.00     0.010 A 
ATOM     87  C   UNL A   1      46.966  25.458  35.857  1.00  0.00     0.010 A 
ATOM     88  C   UNL A   1      46.678  22.737  36.435  1.00  0.00     0.020 A 
ATOM     89  C   UNL A   1      46.592  25.059  37.143  1.00  0.00     0.020 A 
ATOM     90  C   UNL A   1      46.437  23.700  37.421  1.00  0.00     0.054 A 
BRANCH  90  91
ATOM     91  S   UNL A   1      45.961  23.153  39.085  1.00  0.00     0.124 S 
ATOM     92  O   UNL A   1      44.789  23.981  39.353  1.00  0.00    -0.237 OA
ATOM     93  O   UNL A   1      45.699  21.729  38.886  1.00  0.00    -0.237 OA
ATOM     94  O   UNL A   1      47.140  23.453  39.894  1.00  0.00    -0.744 OA
ENDBRANCH  90  91
ENDBRANCH  62  85
BRANCH  74  95
ATOM     95  C   UNL A   1      53.323  26.224  31.933  1.00  0.00    -0.014 A 
ATOM     96  C   UNL A   1      53.784  27.414  32.520  1.00  0.00     0.010 A 
ATOM     97  C   UNL A   1      54.163  25.095  31.920  1.00  0.00     0.010 A 
ATOM     98  C   UNL A   1      55.072  27.483  33.060  1.00  0.00     0.020 A 
ATOM     99  C   UNL A   1      55.441  25.151  32.483  1.00  0.00     0.020 A 
ATOM    100  C   UNL A   1      55.892  26.350  33.038  1.00  0.00     0.054 A 
BRANCH 100 101
ATOM    101  S   UNL A   1      57.540  26.449  33.788  1.00  0.00     0.124 S 
ATOM    102  O   UNL A   1      57.356  25.699  35.027  1.00  0.00    -0.237 OA
ATOM    103  O   UNL A   1      58.389  25.808  32.786  1.00  0.00    -0.237 OA
ATOM    104  O   UNL A   1      57.760  27.883  33.955  1.00  0.00    -0.744 OA
ENDBRANCH 100 101
ENDBRANCH  74  95
ENDBRANCH  48  49
ENDBRANCH  41  43
ENDBRANCH  40  41
ENDBRANCH  39  40
ENDBRANCH  38  39
ENDBRANCH  37  38
ENDBRANCH  36  37
ENDBRANCH  35  36
ENDBRANCH   1  35
TORSDOF 27
ENDMDL
