MODEL 1
REMARK VINA RESULT:      -7.4      0.000      0.000
REMARK SMILES COc1ccc(OC)c(N2C(=O)c3ccc(C(=O)OCCOCCOCCOCCOC(=O)c4ccc(-c5c6nc(c(-c7ccc(S(=O)(=O)[O-])cc7)c7ccc([nH]7)c(-c7ccc(S(=O)(=O)[O-])cc7)c7nc(c(-c8ccc(S(=O)(=O)[O-])cc8)c8ccc5[nH]8)C=C7)C=C6)cc4)cc3C2=O)c1
REMARK SMILES IDX 26 1 25 2 24 3 23 4 22 5 21 6 20 7 19 8 17 9 18 10 16 11
REMARK SMILES IDX 10 12 11 13 96 14 12 15 13 16 95 17 97 18 14 19 94 20 15 21
REMARK SMILES IDX 9 22 3 23 4 24 98 25 5 26 6 27 2 28 1 29 7 30 8 31 27 32
REMARK SMILES IDX 28 33 29 34 30 35 31 36 32 37 33 38 34 39 35 40 93 41 36 42
REMARK SMILES IDX 92 43 37 44 38 45 39 46 86 47 40 48 91 49 85 50 87 51 41 52
REMARK SMILES IDX 90 53 84 54 83 55 42 57 72 58 53 59 71 60 54 61 57 62 70 63
REMARK SMILES IDX 88 64 55 65 56 66 69 68 89 69 58 70 43 71 44 72 52 73 45 74
REMARK SMILES IDX 51 75 46 76 47 77 48 78 49 79 50 80 73 81 74 82 82 83 75 84
REMARK SMILES IDX 81 85 76 86 77 87 78 88 79 89 80 90 59 91 60 92 68 93 61 94
REMARK SMILES IDX 67 95 62 96 63 97 64 98 65 99 66 100
REMARK H PARENT 87 56 57 67
REMARK Flexibility Score: inf
ROOT
ATOM      1  C   UNL A   1      33.241  36.846  31.289  1.00  0.00     0.188 C 
ENDROOT
BRANCH   1   2
ATOM      2  O   UNL A   1      32.659  35.793  30.532  1.00  0.00    -0.377 OA
BRANCH   2   3
ATOM      3  C   UNL A   1      33.233  35.406  29.296  1.00  0.00     0.188 C 
BRANCH   3   4
ATOM      4  C   UNL A   1      34.044  34.101  29.218  1.00  0.00     0.188 C 
BRANCH   4   5
ATOM      5  O   UNL A   1      35.456  34.272  29.191  1.00  0.00    -0.376 OA
BRANCH   5   6
ATOM      6  C   UNL A   1      36.205  33.191  28.649  1.00  0.00     0.202 C 
BRANCH   6   7
ATOM      7  C   UNL A   1      36.161  31.917  29.500  1.00  0.00     0.261 C 
BRANCH   7   8
ATOM      8  O   UNL A   1      37.333  31.092  29.372  1.00  0.00    -0.460 OA
BRANCH   8   9
ATOM      9  C   UNL A   1      37.146  29.881  28.810  1.00  0.00     0.338 C 
ATOM     10  O   UNL A   1      36.095  29.358  28.490  1.00  0.00    -0.246 OA
BRANCH   9  11
ATOM     11  C   UNL A   1      38.463  29.356  28.414  1.00  0.00     0.060 A 
ATOM     12  N   UNL A   1      42.416  27.054  28.512  1.00  0.00    -0.238 N 
ATOM     13  C   UNL A   1      42.084  27.628  27.307  1.00  0.00     0.266 C 
ATOM     14  C   UNL A   1      41.567  27.489  29.509  1.00  0.00     0.266 C 
ATOM     15  O   UNL A   1      42.605  27.571  26.206  1.00  0.00    -0.268 OA
ATOM     16  C   UNL A   1      40.839  28.348  27.517  1.00  0.00     0.053 A 
ATOM     17  C   UNL A   1      40.502  28.244  28.853  1.00  0.00     0.054 A 
ATOM     18  O   UNL A   1      41.645  27.433  30.720  1.00  0.00    -0.268 OA
ATOM     19  C   UNL A   1      40.031  28.967  26.586  1.00  0.00     0.015 A 
ATOM     20  C   UNL A   1      39.322  28.766  29.350  1.00  0.00     0.030 A 
ATOM     21  C   UNL A   1      38.812  29.458  27.045  1.00  0.00     0.016 A 
BRANCH  12  22
ATOM     22  C   UNL A   1      43.477  26.120  28.659  1.00  0.00     0.098 A 
ATOM     23  C   UNL A   1      45.885  25.691  28.552  1.00  0.00     0.121 A 
ATOM     24  C   UNL A   1      45.638  24.321  28.634  1.00  0.00     0.050 A 
ATOM     25  C   UNL A   1      44.807  26.576  28.584  1.00  0.00     0.077 A 
ATOM     26  C   UNL A   1      44.330  23.841  28.740  1.00  0.00     0.052 A 
ATOM     27  C   UNL A   1      43.251  24.735  28.749  1.00  0.00     0.143 A 
BRANCH  23  28
ATOM     28  O   UNL A   1      47.198  26.043  28.397  1.00  0.00    -0.497 OA
ATOM     29  C   UNL A   1      48.105  25.001  28.043  1.00  0.00     0.278 C 
ENDBRANCH  23  28
BRANCH  27  30
ATOM     30  O   UNL A   1      41.987  24.229  28.574  1.00  0.00    -0.495 OA
ATOM     31  C   UNL A   1      41.999  22.960  27.917  1.00  0.00     0.278 C 
ENDBRANCH  27  30
ENDBRANCH  12  22
ENDBRANCH   9  11
ENDBRANCH   8   9
ENDBRANCH   7   8
ENDBRANCH   6   7
ENDBRANCH   5   6
ENDBRANCH   4   5
ENDBRANCH   3   4
ENDBRANCH   2   3
ENDBRANCH   1   2
BRANCH   1  32
ATOM     32  C   UNL A   1      33.447  36.703  32.809  1.00  0.00     0.188 C 
BRANCH  32  33
ATOM     33  O   UNL A   1      34.777  36.370  33.198  1.00  0.00    -0.376 OA
BRANCH  33  34
ATOM     34  C   UNL A   1      35.240  35.094  32.778  1.00  0.00     0.202 C 
BRANCH  34  35
ATOM     35  C   UNL A   1      34.533  33.935  33.488  1.00  0.00     0.261 C 
BRANCH  35  36
ATOM     36  O   UNL A   1      35.392  32.846  33.857  1.00  0.00    -0.460 OA
BRANCH  36  37
ATOM     37  C   UNL A   1      36.374  33.115  34.747  1.00  0.00     0.338 C 
ATOM     38  O   UNL A   1      36.245  33.477  35.902  1.00  0.00    -0.246 OA
BRANCH  37  39
ATOM     39  C   UNL A   1      37.654  32.726  34.128  1.00  0.00     0.060 A 
ATOM     40  C   UNL A   1      38.849  33.073  34.769  1.00  0.00     0.016 A 
ATOM     41  C   UNL A   1      37.665  32.015  32.927  1.00  0.00     0.016 A 
ATOM     42  C   UNL A   1      40.070  32.735  34.183  1.00  0.00     0.010 A 
ATOM     43  C   UNL A   1      38.884  31.692  32.336  1.00  0.00     0.010 A 
ATOM     44  C   UNL A   1      40.091  32.080  32.945  1.00  0.00    -0.014 A 
BRANCH  44  45
ATOM     45  C   UNL A   1      41.354  31.969  32.182  1.00  0.00     0.031 A 
ATOM     46  C   UNL A   1      42.223  30.766  32.423  1.00  0.00     0.074 A 
ATOM     47  C   UNL A   1      41.737  32.925  31.319  1.00  0.00     0.049 A 
ATOM     48  N   UNL A   1      43.392  30.474  31.917  1.00  0.00    -0.248 NA
ATOM     49  C   UNL A   1      41.706  29.764  33.371  1.00  0.00     0.031 C 
ATOM     50  C   UNL A   1      40.976  34.130  30.995  1.00  0.00     0.029 A 
ATOM     51  N   UNL A   1      42.883  33.036  30.573  1.00  0.00    -0.354 N 
ATOM     52  C   UNL A   1      43.756  29.262  32.490  1.00  0.00     0.074 A 
ATOM     53  C   UNL A   1      42.696  28.886  33.400  1.00  0.00     0.031 C 
ATOM     54  C   UNL A   1      41.689  34.873  30.130  1.00  0.00     0.029 A 
ATOM     55  C   UNL A   1      42.963  34.209  29.860  1.00  0.00     0.049 A 
ATOM     56  H   UNL A   1      43.581  32.343  30.550  1.00  0.00     0.167 HD
ATOM     57  C   UNL A   1      44.872  28.526  32.278  1.00  0.00     0.031 A 
ATOM     58  C   UNL A   1      43.962  34.699  29.099  1.00  0.00     0.031 A 
ATOM     59  C   UNL A   1      45.937  28.915  31.396  1.00  0.00     0.049 A 
ATOM     60  C   UNL A   1      45.217  33.887  28.911  1.00  0.00     0.074 A 
ATOM     61  C   UNL A   1      47.098  28.227  31.091  1.00  0.00     0.029 A 
ATOM     62  N   UNL A   1      45.980  30.108  30.690  1.00  0.00    -0.354 N 
ATOM     63  N   UNL A   1      45.522  32.714  29.414  1.00  0.00    -0.248 NA
ATOM     64  C   UNL A   1      46.257  34.460  28.045  1.00  0.00     0.031 C 
ATOM     65  C   UNL A   1      47.868  29.028  30.241  1.00  0.00     0.029 A 
ATOM     66  C   UNL A   1      47.161  30.190  29.973  1.00  0.00     0.049 A 
ATOM     67  H   UNL A   1      45.275  30.795  30.699  1.00  0.00     0.167 HD
ATOM     68  C   UNL A   1      46.780  32.399  28.907  1.00  0.00     0.074 A 
ATOM     69  C   UNL A   1      47.172  33.500  28.051  1.00  0.00     0.031 C 
ATOM     70  C   UNL A   1      47.538  31.296  29.129  1.00  0.00     0.031 A 
BRANCH  57  71
ATOM     71  C   UNL A   1      45.005  27.246  33.058  1.00  0.00    -0.014 A 
ATOM     72  C   UNL A   1      44.623  26.011  32.501  1.00  0.00     0.010 A 
ATOM     73  C   UNL A   1      45.509  27.282  34.370  1.00  0.00     0.010 A 
ATOM     74  C   UNL A   1      44.697  24.842  33.262  1.00  0.00     0.020 A 
ATOM     75  C   UNL A   1      45.608  26.110  35.125  1.00  0.00     0.020 A 
ATOM     76  C   UNL A   1      45.179  24.901  34.574  1.00  0.00     0.054 A 
BRANCH  76  77
ATOM     77  S   UNL A   1      45.255  23.372  35.545  1.00  0.00     0.124 S 
ATOM     78  O   UNL A   1      46.237  22.591  34.797  1.00  0.00    -0.237 OA
ATOM     79  O   UNL A   1      45.695  23.843  36.855  1.00  0.00    -0.237 OA
ATOM     80  O   UNL A   1      43.888  22.862  35.496  1.00  0.00    -0.744 OA
ENDBRANCH  76  77
ENDBRANCH  57  71
BRANCH  58  81
ATOM     81  C   UNL A   1      43.816  36.040  28.472  1.00  0.00    -0.014 A 
ATOM     82  C   UNL A   1      42.984  36.226  27.355  1.00  0.00     0.010 A 
ATOM     83  C   UNL A   1      44.495  37.148  29.012  1.00  0.00     0.010 A 
ATOM     84  C   UNL A   1      42.834  37.495  26.788  1.00  0.00     0.020 A 
ATOM     85  C   UNL A   1      44.331  38.422  28.462  1.00  0.00     0.020 A 
ATOM     86  C   UNL A   1      43.505  38.587  27.349  1.00  0.00     0.054 A 
BRANCH  86  87
ATOM     87  S   UNL A   1      43.232  40.238  26.647  1.00  0.00     0.124 S 
ATOM     88  O   UNL A   1      44.333  40.351  25.696  1.00  0.00    -0.237 OA
ATOM     89  O   UNL A   1      41.899  40.115  26.061  1.00  0.00    -0.237 OA
ATOM     90  O   UNL A   1      43.312  41.121  27.809  1.00  0.00    -0.744 OA
ENDBRANCH  86  87
ENDBRANCH  58  81
BRANCH  70  91
ATOM     91  C   UNL A   1      48.861  31.205  28.414  1.00  0.00    -0.014 A 
ATOM     92  C   UNL A   1      50.016  31.814  28.935  1.00  0.00     0.010 A 
ATOM     93  C   UNL A   1      48.962  30.436  27.239  1.00  0.00     0.010 A 
ATOM     94  C   UNL A   1      51.243  31.678  28.280  1.00  0.00     0.020 A 
ATOM     95  C   UNL A   1      50.190  30.278  26.595  1.00  0.00     0.020 A 
ATOM     96  C   UNL A   1      51.322  30.911  27.112  1.00  0.00     0.054 A 
BRANCH  96  97
ATOM     97  S   UNL A   1      52.935  30.706  26.307  1.00  0.00     0.124 S 
ATOM     98  O   UNL A   1      52.944  29.277  26.008  1.00  0.00    -0.237 OA
ATOM     99  O   UNL A   1      52.833  31.590  25.149  1.00  0.00    -0.237 OA
ATOM    100  O   UNL A   1      53.889  31.134  27.328  1.00  0.00    -0.744 OA
ENDBRANCH  96  97
ENDBRANCH  70  91
ENDBRANCH  44  45
ENDBRANCH  37  39
ENDBRANCH  36  37
ENDBRANCH  35  36
ENDBRANCH  34  35
ENDBRANCH  33  34
ENDBRANCH  32  33
ENDBRANCH   1  32
TORSDOF 26
ENDMDL
MODEL 2
REMARK VINA RESULT:      -7.0      1.558      7.880
REMARK SMILES COc1ccc(OC)c(N2C(=O)c3ccc(C(=O)OCCOCCOCCOCCOC(=O)c4ccc(-c5c6nc(c(-c7ccc(S(=O)(=O)[O-])cc7)c7ccc([nH]7)c(-c7ccc(S(=O)(=O)[O-])cc7)c7nc(c(-c8ccc(S(=O)(=O)[O-])cc8)c8ccc5[nH]8)C=C7)C=C6)cc4)cc3C2=O)c1
REMARK SMILES IDX 26 1 25 2 24 3 23 4 22 5 21 6 20 7 19 8 17 9 18 10 16 11
REMARK SMILES IDX 10 12 11 13 96 14 12 15 13 16 95 17 97 18 14 19 94 20 15 21
REMARK SMILES IDX 9 22 3 23 4 24 98 25 5 26 6 27 2 28 1 29 7 30 8 31 27 32
REMARK SMILES IDX 28 33 29 34 30 35 31 36 32 37 33 38 34 39 35 40 93 41 36 42
REMARK SMILES IDX 92 43 37 44 38 45 39 46 86 47 40 48 91 49 85 50 87 51 41 52
REMARK SMILES IDX 90 53 84 54 83 55 42 57 72 58 53 59 71 60 54 61 57 62 70 63
REMARK SMILES IDX 88 64 55 65 56 66 69 68 89 69 58 70 43 71 44 72 52 73 45 74
REMARK SMILES IDX 51 75 46 76 47 77 48 78 49 79 50 80 73 81 74 82 82 83 75 84
REMARK SMILES IDX 81 85 76 86 77 87 78 88 79 89 80 90 59 91 60 92 68 93 61 94
REMARK SMILES IDX 67 95 62 96 63 97 64 98 65 99 66 100
REMARK H PARENT 87 56 57 67
REMARK Flexibility Score: inf
ROOT
ATOM      1  C   UNL A   1      33.617  34.954  30.257  1.00  0.00     0.188 C 
ENDROOT
BRANCH   1   2
ATOM      2  O   UNL A   1      33.959  34.914  28.877  1.00  0.00    -0.377 OA
BRANCH   2   3
ATOM      3  C   UNL A   1      35.004  34.068  28.429  1.00  0.00     0.188 C 
BRANCH   3   4
ATOM      4  C   UNL A   1      34.676  32.627  28.003  1.00  0.00     0.188 C 
BRANCH   4   5
ATOM      5  O   UNL A   1      35.101  31.620  28.912  1.00  0.00    -0.376 OA
BRANCH   5   6
ATOM      6  C   UNL A   1      36.500  31.559  29.166  1.00  0.00     0.202 C 
BRANCH   6   7
ATOM      7  C   UNL A   1      36.872  31.759  30.640  1.00  0.00     0.261 C 
BRANCH   7   8
ATOM      8  O   UNL A   1      37.786  30.769  31.147  1.00  0.00    -0.460 OA
BRANCH   8   9
ATOM      9  C   UNL A   1      37.489  29.487  30.859  1.00  0.00     0.338 C 
ATOM     10  O   UNL A   1      36.389  28.991  30.691  1.00  0.00    -0.246 OA
BRANCH   9  11
ATOM     11  C   UNL A   1      38.745  28.791  30.537  1.00  0.00     0.060 A 
ATOM     12  N   UNL A   1      42.076  26.740  28.164  1.00  0.00    -0.238 N 
ATOM     13  C   UNL A   1      42.364  27.028  29.478  1.00  0.00     0.266 C 
ATOM     14  C   UNL A   1      40.737  26.945  27.903  1.00  0.00     0.266 C 
ATOM     15  O   UNL A   1      43.389  26.923  30.130  1.00  0.00    -0.268 OA
ATOM     16  C   UNL A   1      41.163  27.614  30.049  1.00  0.00     0.053 A 
ATOM     17  C   UNL A   1      40.173  27.592  29.085  1.00  0.00     0.054 A 
ATOM     18  O   UNL A   1      40.029  26.592  26.980  1.00  0.00    -0.268 OA
ATOM     19  C   UNL A   1      40.989  28.195  31.288  1.00  0.00     0.015 A 
ATOM     20  C   UNL A   1      38.928  28.152  29.305  1.00  0.00     0.030 A 
ATOM     21  C   UNL A   1      39.763  28.813  31.522  1.00  0.00     0.016 A 
BRANCH  12  22
ATOM     22  C   UNL A   1      43.062  26.322  27.230  1.00  0.00     0.098 A 
ATOM     23  C   UNL A   1      44.620  26.946  25.448  1.00  0.00     0.121 A 
ATOM     24  C   UNL A   1      44.808  25.598  25.148  1.00  0.00     0.050 A 
ATOM     25  C   UNL A   1      43.765  27.295  26.494  1.00  0.00     0.077 A 
ATOM     26  C   UNL A   1      44.146  24.609  25.881  1.00  0.00     0.052 A 
ATOM     27  C   UNL A   1      43.273  24.967  26.916  1.00  0.00     0.143 A 
BRANCH  23  28
ATOM     28  O   UNL A   1      45.275  27.827  24.630  1.00  0.00    -0.497 OA
ATOM     29  C   UNL A   1      46.628  27.515  24.303  1.00  0.00     0.278 C 
ENDBRANCH  23  28
BRANCH  27  30
ATOM     30  O   UNL A   1      42.438  24.003  27.424  1.00  0.00    -0.495 OA
ATOM     31  C   UNL A   1      42.979  23.381  28.591  1.00  0.00     0.278 C 
ENDBRANCH  27  30
ENDBRANCH  12  22
ENDBRANCH   9  11
ENDBRANCH   8   9
ENDBRANCH   7   8
ENDBRANCH   6   7
ENDBRANCH   5   6
ENDBRANCH   4   5
ENDBRANCH   3   4
ENDBRANCH   2   3
ENDBRANCH   1   2
BRANCH   1  32
ATOM     32  C   UNL A   1      34.651  34.580  31.336  1.00  0.00     0.188 C 
BRANCH  32  33
ATOM     33  O   UNL A   1      34.248  34.875  32.670  1.00  0.00    -0.376 OA
BRANCH  33  34
ATOM     34  C   UNL A   1      34.457  33.838  33.619  1.00  0.00     0.202 C 
BRANCH  34  35
ATOM     35  C   UNL A   1      35.488  34.204  34.692  1.00  0.00     0.261 C 
BRANCH  35  36
ATOM     36  O   UNL A   1      36.128  33.082  35.316  1.00  0.00    -0.460 OA
BRANCH  36  37
ATOM     37  C   UNL A   1      37.167  33.348  36.139  1.00  0.00     0.338 C 
ATOM     38  O   UNL A   1      37.120  33.827  37.257  1.00  0.00    -0.246 OA
BRANCH  37  39
ATOM     39  C   UNL A   1      38.382  32.794  35.514  1.00  0.00     0.060 A 
ATOM     40  C   UNL A   1      39.633  33.137  36.043  1.00  0.00     0.016 A 
ATOM     41  C   UNL A   1      38.279  31.936  34.417  1.00  0.00     0.016 A 
ATOM     42  C   UNL A   1      40.793  32.643  35.447  1.00  0.00     0.010 A 
ATOM     43  C   UNL A   1      39.440  31.457  33.814  1.00  0.00     0.010 A 
ATOM     44  C   UNL A   1      40.701  31.834  34.306  1.00  0.00    -0.014 A 
BRANCH  44  45
ATOM     45  C   UNL A   1      41.908  31.538  33.503  1.00  0.00     0.031 A 
ATOM     46  C   UNL A   1      42.310  32.522  32.439  1.00  0.00     0.074 A 
ATOM     47  C   UNL A   1      42.614  30.410  33.690  1.00  0.00     0.049 A 
ATOM     48  N   UNL A   1      43.291  32.456  31.578  1.00  0.00    -0.248 NA
ATOM     49  C   UNL A   1      41.485  33.737  32.326  1.00  0.00     0.031 C 
ATOM     50  C   UNL A   1      42.329  29.388  34.695  1.00  0.00     0.029 A 
ATOM     51  N   UNL A   1      43.710  29.930  33.018  1.00  0.00    -0.354 N 
ATOM     52  C   UNL A   1      43.198  33.614  30.817  1.00  0.00     0.074 A 
ATOM     53  C   UNL A   1      42.050  34.351  31.299  1.00  0.00     0.031 C 
ATOM     54  C   UNL A   1      43.216  28.387  34.557  1.00  0.00     0.029 A 
ATOM     55  C   UNL A   1      44.113  28.686  33.442  1.00  0.00     0.049 A 
ATOM     56  H   UNL A   1      44.164  30.429  32.301  1.00  0.00     0.167 HD
ATOM     57  C   UNL A   1      43.996  34.028  29.804  1.00  0.00     0.031 A 
ATOM     58  C   UNL A   1      45.077  27.875  32.967  1.00  0.00     0.031 A 
ATOM     59  C   UNL A   1      45.118  33.282  29.307  1.00  0.00     0.049 A 
ATOM     60  C   UNL A   1      45.927  28.333  31.809  1.00  0.00     0.074 A 
ATOM     61  C   UNL A   1      46.006  33.627  28.304  1.00  0.00     0.029 A 
ATOM     62  N   UNL A   1      45.495  32.028  29.764  1.00  0.00    -0.354 N 
ATOM     63  N   UNL A   1      45.865  29.456  31.135  1.00  0.00    -0.248 NA
ATOM     64  C   UNL A   1      46.983  27.416  31.356  1.00  0.00     0.031 C 
ATOM     65  C   UNL A   1      46.889  32.558  28.118  1.00  0.00     0.029 A 
ATOM     66  C   UNL A   1      46.586  31.571  29.044  1.00  0.00     0.049 A 
ATOM     67  H   UNL A   1      45.053  31.536  30.492  1.00  0.00     0.167 HD
ATOM     68  C   UNL A   1      46.887  29.392  30.192  1.00  0.00     0.074 A 
ATOM     69  C   UNL A   1      47.558  28.124  30.392  1.00  0.00     0.031 C 
ATOM     70  C   UNL A   1      47.239  30.303  29.251  1.00  0.00     0.031 A 
BRANCH  57  71
ATOM     71  C   UNL A   1      43.642  35.334  29.146  1.00  0.00    -0.014 A 
ATOM     72  C   UNL A   1      44.107  36.559  29.659  1.00  0.00     0.010 A 
ATOM     73  C   UNL A   1      42.824  35.335  28.002  1.00  0.00     0.010 A 
ATOM     74  C   UNL A   1      43.719  37.764  29.070  1.00  0.00     0.020 A 
ATOM     75  C   UNL A   1      42.454  36.538  27.395  1.00  0.00     0.020 A 
ATOM     76  C   UNL A   1      42.885  37.746  27.947  1.00  0.00     0.054 A 
BRANCH  76  77
ATOM     77  S   UNL A   1      42.385  39.323  27.206  1.00  0.00     0.124 S 
ATOM     78  O   UNL A   1      43.533  39.633  26.358  1.00  0.00    -0.237 OA
ATOM     79  O   UNL A   1      41.157  38.973  26.497  1.00  0.00    -0.237 OA
ATOM     80  O   UNL A   1      42.206  40.205  28.356  1.00  0.00    -0.744 OA
ENDBRANCH  76  77
ENDBRANCH  57  71
BRANCH  58  81
ATOM     81  C   UNL A   1      45.277  26.534  33.580  1.00  0.00    -0.014 A 
ATOM     82  C   UNL A   1      44.560  25.417  33.120  1.00  0.00     0.010 A 
ATOM     83  C   UNL A   1      46.215  26.367  34.617  1.00  0.00     0.010 A 
ATOM     84  C   UNL A   1      44.774  24.157  33.686  1.00  0.00     0.020 A 
ATOM     85  C   UNL A   1      46.447  25.105  35.170  1.00  0.00     0.020 A 
ATOM     86  C   UNL A   1      45.721  24.007  34.705  1.00  0.00     0.054 A 
BRANCH  86  87
ATOM     87  S   UNL A   1      46.040  22.349  35.369  1.00  0.00     0.124 S 
ATOM     88  O   UNL A   1      45.525  21.491  34.306  1.00  0.00    -0.237 OA
ATOM     89  O   UNL A   1      47.492  22.350  35.535  1.00  0.00    -0.237 OA
ATOM     90  O   UNL A   1      45.279  22.329  36.617  1.00  0.00    -0.744 OA
ENDBRANCH  86  87
ENDBRANCH  58  81
BRANCH  70  91
ATOM     91  C   UNL A   1      48.422  29.980  28.377  1.00  0.00    -0.014 A 
ATOM     92  C   UNL A   1      49.712  30.441  28.694  1.00  0.00     0.010 A 
ATOM     93  C   UNL A   1      48.249  29.142  27.259  1.00  0.00     0.010 A 
ATOM     94  C   UNL A   1      50.803  30.091  27.893  1.00  0.00     0.020 A 
ATOM     95  C   UNL A   1      49.340  28.770  26.471  1.00  0.00     0.020 A 
ATOM     96  C   UNL A   1      50.610  29.258  26.786  1.00  0.00     0.054 A 
BRANCH  96  97
ATOM     97  S   UNL A   1      52.049  28.775  25.792  1.00  0.00     0.124 S 
ATOM     98  O   UNL A   1      52.277  27.403  26.237  1.00  0.00    -0.237 OA
ATOM     99  O   UNL A   1      51.559  28.920  24.423  1.00  0.00    -0.237 OA
ATOM    100  O   UNL A   1      53.079  29.736  26.183  1.00  0.00    -0.744 OA
ENDBRANCH  96  97
ENDBRANCH  70  91
ENDBRANCH  44  45
ENDBRANCH  37  39
ENDBRANCH  36  37
ENDBRANCH  35  36
ENDBRANCH  34  35
ENDBRANCH  33  34
ENDBRANCH  32  33
ENDBRANCH   1  32
TORSDOF 26
ENDMDL
MODEL 3
REMARK VINA RESULT:      -6.7      4.637     10.135
REMARK SMILES COc1ccc(OC)c(N2C(=O)c3ccc(C(=O)OCCOCCOCCOCCOC(=O)c4ccc(-c5c6nc(c(-c7ccc(S(=O)(=O)[O-])cc7)c7ccc([nH]7)c(-c7ccc(S(=O)(=O)[O-])cc7)c7nc(c(-c8ccc(S(=O)(=O)[O-])cc8)c8ccc5[nH]8)C=C7)C=C6)cc4)cc3C2=O)c1
REMARK SMILES IDX 26 1 25 2 24 3 23 4 22 5 21 6 20 7 19 8 17 9 18 10 16 11
REMARK SMILES IDX 10 12 11 13 96 14 12 15 13 16 95 17 97 18 14 19 94 20 15 21
REMARK SMILES IDX 9 22 3 23 4 24 98 25 5 26 6 27 2 28 1 29 7 30 8 31 27 32
REMARK SMILES IDX 28 33 29 34 30 35 31 36 32 37 33 38 34 39 35 40 93 41 36 42
REMARK SMILES IDX 92 43 37 44 38 45 39 46 86 47 40 48 91 49 85 50 87 51 41 52
REMARK SMILES IDX 90 53 84 54 83 55 42 57 72 58 53 59 71 60 54 61 57 62 70 63
REMARK SMILES IDX 88 64 55 65 56 66 69 68 89 69 58 70 43 71 44 72 52 73 45 74
REMARK SMILES IDX 51 75 46 76 47 77 48 78 49 79 50 80 73 81 74 82 82 83 75 84
REMARK SMILES IDX 81 85 76 86 77 87 78 88 79 89 80 90 59 91 60 92 68 93 61 94
REMARK SMILES IDX 67 95 62 96 63 97 64 98 65 99 66 100
REMARK H PARENT 87 56 57 67
REMARK Flexibility Score: inf
ROOT
ATOM      1  C   UNL A   1      41.390  26.403  25.980  1.00  0.00     0.188 C 
ENDROOT
BRANCH   1   2
ATOM      2  O   UNL A   1      40.682  27.550  26.435  1.00  0.00    -0.377 OA
BRANCH   2   3
ATOM      3  C   UNL A   1      39.991  27.513  27.671  1.00  0.00     0.188 C 
BRANCH   3   4
ATOM      4  C   UNL A   1      39.755  28.824  28.441  1.00  0.00     0.188 C 
BRANCH   4   5
ATOM      5  O   UNL A   1      38.392  29.121  28.717  1.00  0.00    -0.376 OA
BRANCH   5   6
ATOM      6  C   UNL A   1      37.829  30.205  27.989  1.00  0.00     0.202 C 
BRANCH   6   7
ATOM      7  C   UNL A   1      36.362  30.489  28.332  1.00  0.00     0.261 C 
BRANCH   7   8
ATOM      8  O   UNL A   1      35.438  30.099  27.300  1.00  0.00    -0.460 OA
BRANCH   8   9
ATOM      9  C   UNL A   1      34.134  30.319  27.560  1.00  0.00     0.338 C 
ATOM     10  O   UNL A   1      33.608  31.349  27.939  1.00  0.00    -0.246 OA
BRANCH   9  11
ATOM     11  C   UNL A   1      33.372  29.152  27.082  1.00  0.00     0.060 A 
ATOM     12  N   UNL A   1      32.372  25.133  25.139  1.00  0.00    -0.238 N 
ATOM     13  C   UNL A   1      31.371  25.704  25.888  1.00  0.00     0.266 C 
ATOM     14  C   UNL A   1      33.412  26.022  24.958  1.00  0.00     0.266 C 
ATOM     15  O   UNL A   1      30.268  25.301  26.218  1.00  0.00    -0.268 OA
ATOM     16  C   UNL A   1      31.877  26.983  26.355  1.00  0.00     0.053 A 
ATOM     17  C   UNL A   1      33.135  27.172  25.815  1.00  0.00     0.054 A 
ATOM     18  O   UNL A   1      34.351  26.023  24.185  1.00  0.00    -0.268 OA
ATOM     19  C   UNL A   1      31.308  27.864  27.252  1.00  0.00     0.015 A 
ATOM     20  C   UNL A   1      33.910  28.271  26.137  1.00  0.00     0.030 A 
ATOM     21  C   UNL A   1      32.084  28.954  27.636  1.00  0.00     0.016 A 
BRANCH  12  22
ATOM     22  C   UNL A   1      32.317  23.795  24.663  1.00  0.00     0.098 A 
ATOM     23  C   UNL A   1      32.970  21.457  24.982  1.00  0.00     0.121 A 
ATOM     24  C   UNL A   1      32.530  21.164  23.691  1.00  0.00     0.050 A 
ATOM     25  C   UNL A   1      32.843  22.761  25.461  1.00  0.00     0.077 A 
ATOM     26  C   UNL A   1      31.975  22.164  22.888  1.00  0.00     0.052 A 
ATOM     27  C   UNL A   1      31.871  23.476  23.368  1.00  0.00     0.143 A 
BRANCH  23  28
ATOM     28  O   UNL A   1      33.545  20.415  25.657  1.00  0.00    -0.497 OA
ATOM     29  C   UNL A   1      34.541  19.670  24.959  1.00  0.00     0.278 C 
ENDBRANCH  23  28
BRANCH  27  30
ATOM     30  O   UNL A   1      31.585  24.475  22.471  1.00  0.00    -0.495 OA
ATOM     31  C   UNL A   1      32.631  24.657  21.514  1.00  0.00     0.278 C 
ENDBRANCH  27  30
ENDBRANCH  12  22
ENDBRANCH   9  11
ENDBRANCH   8   9
ENDBRANCH   7   8
ENDBRANCH   6   7
ENDBRANCH   5   6
ENDBRANCH   4   5
ENDBRANCH   3   4
ENDBRANCH   2   3
ENDBRANCH   1   2
BRANCH   1  32
ATOM     32  C   UNL A   1      42.254  25.574  26.949  1.00  0.00     0.188 C 
BRANCH  32  33
ATOM     33  O   UNL A   1      42.327  24.186  26.638  1.00  0.00    -0.376 OA
BRANCH  33  34
ATOM     34  C   UNL A   1      42.898  23.360  27.644  1.00  0.00     0.202 C 
BRANCH  34  35
ATOM     35  C   UNL A   1      44.402  23.587  27.825  1.00  0.00     0.261 C 
BRANCH  35  36
ATOM     36  O   UNL A   1      45.061  24.167  26.690  1.00  0.00    -0.460 OA
BRANCH  36  37
ATOM     37  C   UNL A   1      46.368  24.481  26.834  1.00  0.00     0.338 C 
ATOM     38  O   UNL A   1      47.328  23.757  26.639  1.00  0.00    -0.246 OA
BRANCH  37  39
ATOM     39  C   UNL A   1      46.451  25.926  27.109  1.00  0.00     0.060 A 
ATOM     40  C   UNL A   1      47.052  26.356  28.299  1.00  0.00     0.016 A 
ATOM     41  C   UNL A   1      45.943  26.846  26.190  1.00  0.00     0.016 A 
ATOM     42  C   UNL A   1      47.115  27.719  28.587  1.00  0.00     0.010 A 
ATOM     43  C   UNL A   1      45.992  28.206  26.487  1.00  0.00     0.010 A 
ATOM     44  C   UNL A   1      46.549  28.646  27.701  1.00  0.00    -0.014 A 
BRANCH  44  45
ATOM     45  C   UNL A   1      46.354  30.053  28.118  1.00  0.00     0.031 A 
ATOM     46  C   UNL A   1      45.104  30.400  28.877  1.00  0.00     0.074 A 
ATOM     47  C   UNL A   1      47.248  31.005  27.803  1.00  0.00     0.049 A 
ATOM     48  N   UNL A   1      44.689  31.565  29.300  1.00  0.00    -0.248 NA
ATOM     49  C   UNL A   1      44.197  29.283  29.191  1.00  0.00     0.031 C 
ATOM     50  C   UNL A   1      48.500  30.789  27.080  1.00  0.00     0.029 A 
ATOM     51  N   UNL A   1      47.221  32.357  28.039  1.00  0.00    -0.354 N 
ATOM     52  C   UNL A   1      43.471  31.324  29.922  1.00  0.00     0.074 A 
ATOM     53  C   UNL A   1      43.201  29.908  29.799  1.00  0.00     0.031 C 
ATOM     54  C   UNL A   1      49.112  31.974  26.910  1.00  0.00     0.029 A 
ATOM     55  C   UNL A   1      48.285  33.032  27.490  1.00  0.00     0.049 A 
ATOM     56  H   UNL A   1      46.508  32.800  28.553  1.00  0.00     0.167 HD
ATOM     57  C   UNL A   1      42.647  32.203  30.541  1.00  0.00     0.031 A 
ATOM     58  C   UNL A   1      48.546  34.353  27.440  1.00  0.00     0.031 A 
ATOM     59  C   UNL A   1      42.902  33.613  30.637  1.00  0.00     0.049 A 
ATOM     60  C   UNL A   1      47.595  35.321  28.095  1.00  0.00     0.074 A 
ATOM     61  C   UNL A   1      42.143  34.584  31.267  1.00  0.00     0.029 A 
ATOM     62  N   UNL A   1      43.990  34.258  30.071  1.00  0.00    -0.354 N 
ATOM     63  N   UNL A   1      46.475  35.073  28.731  1.00  0.00    -0.248 NA
ATOM     64  C   UNL A   1      47.950  36.746  28.034  1.00  0.00     0.031 C 
ATOM     65  C   UNL A   1      42.747  35.825  31.036  1.00  0.00     0.029 A 
ATOM     66  C   UNL A   1      43.911  35.619  30.311  1.00  0.00     0.049 A 
ATOM     67  H   UNL A   1      44.713  33.814  29.572  1.00  0.00     0.167 HD
ATOM     68  C   UNL A   1      46.001  36.308  29.165  1.00  0.00     0.074 A 
ATOM     69  C   UNL A   1      46.964  37.299  28.729  1.00  0.00     0.031 C 
ATOM     70  C   UNL A   1      44.875  36.593  29.865  1.00  0.00     0.031 A 
BRANCH  57  71
ATOM     71  C   UNL A   1      41.372  31.653  31.120  1.00  0.00    -0.014 A 
ATOM     72  C   UNL A   1      41.388  30.792  32.233  1.00  0.00     0.010 A 
ATOM     73  C   UNL A   1      40.140  31.995  30.534  1.00  0.00     0.010 A 
ATOM     74  C   UNL A   1      40.199  30.244  32.718  1.00  0.00     0.020 A 
ATOM     75  C   UNL A   1      38.946  31.468  31.033  1.00  0.00     0.020 A 
ATOM     76  C   UNL A   1      38.985  30.577  32.108  1.00  0.00     0.054 A 
BRANCH  76  77
ATOM     77  S   UNL A   1      37.456  29.844  32.749  1.00  0.00     0.124 S 
ATOM     78  O   UNL A   1      36.527  30.969  32.666  1.00  0.00    -0.237 OA
ATOM     79  O   UNL A   1      37.204  28.752  31.812  1.00  0.00    -0.237 OA
ATOM     80  O   UNL A   1      37.812  29.429  34.103  1.00  0.00    -0.744 OA
ENDBRANCH  76  77
ENDBRANCH  57  71
BRANCH  58  81
ATOM     81  C   UNL A   1      49.759  34.835  26.726  1.00  0.00    -0.014 A 
ATOM     82  C   UNL A   1      50.915  35.201  27.435  1.00  0.00     0.010 A 
ATOM     83  C   UNL A   1      49.766  34.905  25.320  1.00  0.00     0.010 A 
ATOM     84  C   UNL A   1      52.058  35.629  26.753  1.00  0.00     0.020 A 
ATOM     85  C   UNL A   1      50.914  35.311  24.633  1.00  0.00     0.020 A 
ATOM     86  C   UNL A   1      52.052  35.676  25.355  1.00  0.00     0.054 A 
BRANCH  86  87
ATOM     87  S   UNL A   1      53.571  36.157  24.487  1.00  0.00     0.124 S 
ATOM     88  O   UNL A   1      53.572  37.606  24.654  1.00  0.00    -0.237 OA
ATOM     89  O   UNL A   1      54.601  35.433  25.230  1.00  0.00    -0.237 OA
ATOM     90  O   UNL A   1      53.351  35.681  23.123  1.00  0.00    -0.744 OA
ENDBRANCH  86  87
ENDBRANCH  58  81
BRANCH  70  91
ATOM     91  C   UNL A   1      44.628  38.033  30.231  1.00  0.00    -0.014 A 
ATOM     92  C   UNL A   1      43.857  38.874  29.410  1.00  0.00     0.010 A 
ATOM     93  C   UNL A   1      45.118  38.531  31.453  1.00  0.00     0.010 A 
ATOM     94  C   UNL A   1      43.601  40.194  29.792  1.00  0.00     0.020 A 
ATOM     95  C   UNL A   1      44.845  39.841  31.850  1.00  0.00     0.020 A 
ATOM     96  C   UNL A   1      44.098  40.670  31.010  1.00  0.00     0.054 A 
BRANCH  96  97
ATOM     97  S   UNL A   1      43.711  42.371  31.509  1.00  0.00     0.124 S 
ATOM     98  O   UNL A   1      44.141  43.134  30.341  1.00  0.00    -0.237 OA
ATOM     99  O   UNL A   1      42.268  42.322  31.731  1.00  0.00    -0.237 OA
ATOM    100  O   UNL A   1      44.514  42.570  32.713  1.00  0.00    -0.744 OA
ENDBRANCH  96  97
ENDBRANCH  70  91
ENDBRANCH  44  45
ENDBRANCH  37  39
ENDBRANCH  36  37
ENDBRANCH  35  36
ENDBRANCH  34  35
ENDBRANCH  33  34
ENDBRANCH  32  33
ENDBRANCH   1  32
TORSDOF 26
ENDMDL
