MODEL 1
REMARK VINA RESULT:      -9.2      0.000      0.000
REMARK SMILES O=C(CCc1cn(C2CCN(c3ncccc3Cl)CC2)nn1)OCCOCCOCCOCCOC(=O)c1ccc(-c2c3nc(c(-c4ccc(S(=O)(=O)[O-])cc4)c4ccc([nH]4)c(-c4ccc(S(=O)(=O)[O-])cc4)c4nc(c(-c5ccc(S(=O)(=O)[O-])cc5)c5ccc2[nH]5)C=C4)C=C3)cc1
REMARK SMILES IDX 28 1 27 2 26 3 25 4 24 5 23 6 2 7 1 8 3 9 4 10 5 11 6 12
REMARK SMILES IDX 22 13 7 14 21 15 8 16 9 17 20 18 10 19 19 20 11 21 12 22
REMARK SMILES IDX 13 23 17 24 14 25 16 26 18 27 15 28 29 29 30 30 31 31 32 32
REMARK SMILES IDX 33 33 34 34 35 35 36 36 37 37 38 38 39 39 97 40 40 41 96 42
REMARK SMILES IDX 41 43 42 44 43 45 90 46 44 47 95 48 89 49 91 50 45 51 94 52
REMARK SMILES IDX 88 53 87 54 46 56 76 57 57 58 75 59 58 60 61 61 74 62 92 63
REMARK SMILES IDX 59 64 60 65 73 67 93 68 62 69 47 70 48 71 56 72 49 73 55 74
REMARK SMILES IDX 50 75 51 76 52 77 53 78 54 79 77 80 78 81 86 82 79 83 85 84
REMARK SMILES IDX 80 85 81 86 82 87 83 88 84 89 63 90 64 91 72 92 65 93 71 94
REMARK SMILES IDX 66 95 67 96 68 97 69 98 70 99
REMARK H PARENT 91 55 61 66
REMARK Flexibility Score: inf
ROOT
ATOM      1  C   UNL A   1      41.085  20.353  26.492  1.00  0.00     0.188 C 
ENDROOT
BRANCH   1   2
ATOM      2  C   UNL A   1      39.917  19.678  25.760  1.00  0.00     0.188 C 
BRANCH   2   3
ATOM      3  O   UNL A   1      38.757  20.459  25.502  1.00  0.00    -0.376 OA
BRANCH   3   4
ATOM      4  C   UNL A   1      38.707  21.794  25.988  1.00  0.00     0.202 C 
BRANCH   4   5
ATOM      5  C   UNL A   1      37.662  22.707  25.377  1.00  0.00     0.261 C 
BRANCH   5   6
ATOM      6  O   UNL A   1      36.548  23.158  26.187  1.00  0.00    -0.463 OA
BRANCH   6   7
ATOM      7  C   UNL A   1      35.257  22.803  26.275  1.00  0.00     0.306 C 
ATOM      8  O   UNL A   1      34.448  23.643  26.672  1.00  0.00    -0.252 OA
BRANCH   7   9
ATOM      9  C   UNL A   1      34.762  21.450  25.844  1.00  0.00     0.129 C 
BRANCH   9  10
ATOM     10  C   UNL A   1      34.423  21.329  24.366  1.00  0.00     0.071 C 
BRANCH  10  11
ATOM     11  C   UNL A   1      33.383  22.267  23.885  1.00  0.00     0.083 A 
ATOM     12  C   UNL A   1      33.561  23.462  23.235  1.00  0.00     0.134 A 
ATOM     13  N   UNL A   1      32.041  22.026  24.000  1.00  0.00    -0.135 NA
ATOM     14  N   UNL A   1      32.306  23.882  22.923  1.00  0.00    -0.249 N 
ATOM     15  N   UNL A   1      31.390  23.016  23.399  1.00  0.00    -0.067 NA
BRANCH  14  16
ATOM     16  C   UNL A   1      31.876  25.145  22.340  1.00  0.00     0.112 C 
ATOM     17  C   UNL A   1      32.965  26.212  22.164  1.00  0.00     0.049 C 
ATOM     18  C   UNL A   1      30.720  25.722  23.151  1.00  0.00     0.049 C 
ATOM     19  C   UNL A   1      33.424  26.876  23.462  1.00  0.00     0.120 C 
ATOM     20  C   UNL A   1      31.201  26.117  24.535  1.00  0.00     0.120 C 
ATOM     21  N   UNL A   1      32.359  26.985  24.443  1.00  0.00    -0.355 N 
BRANCH  21  22
ATOM     22  C   UNL A   1      32.457  27.967  25.407  1.00  0.00     0.147 A 
ATOM     23  N   UNL A   1      33.356  27.711  26.385  1.00  0.00    -0.238 NA
ATOM     24  C   UNL A   1      31.810  29.211  25.312  1.00  0.00     0.083 A 
ATOM     25  C   UNL A   1      33.672  28.709  27.233  1.00  0.00     0.113 A 
ATOM     26  C   UNL A   1      32.155  30.223  26.206  1.00  0.00     0.026 A 
ATOM     27  Cl  UNL A   1      30.599  29.551  24.127  1.00  0.00    -0.080 Cl
ATOM     28  C   UNL A   1      33.119  29.975  27.173  1.00  0.00     0.022 A 
ENDBRANCH  21  22
ENDBRANCH  14  16
ENDBRANCH  10  11
ENDBRANCH   9  10
ENDBRANCH   7   9
ENDBRANCH   6   7
ENDBRANCH   5   6
ENDBRANCH   4   5
ENDBRANCH   3   4
ENDBRANCH   2   3
ENDBRANCH   1   2
BRANCH   1  29
ATOM     29  O   UNL A   1      42.265  20.424  25.702  1.00  0.00    -0.377 OA
BRANCH  29  30
ATOM     30  C   UNL A   1      43.230  21.418  26.055  1.00  0.00     0.188 C 
BRANCH  30  31
ATOM     31  C   UNL A   1      42.784  22.784  26.655  1.00  0.00     0.188 C 
BRANCH  31  32
ATOM     32  O   UNL A   1      43.721  23.826  26.430  1.00  0.00    -0.376 OA
BRANCH  32  33
ATOM     33  C   UNL A   1      43.847  24.445  25.163  1.00  0.00     0.202 C 
BRANCH  33  34
ATOM     34  C   UNL A   1      43.434  25.915  25.130  1.00  0.00     0.261 C 
BRANCH  34  35
ATOM     35  O   UNL A   1      43.500  26.521  26.405  1.00  0.00    -0.460 OA
BRANCH  35  36
ATOM     36  C   UNL A   1      44.508  27.380  26.586  1.00  0.00     0.338 C 
ATOM     37  O   UNL A   1      45.715  27.129  26.548  1.00  0.00    -0.246 OA
BRANCH  36  38
ATOM     38  C   UNL A   1      43.920  28.682  26.879  1.00  0.00     0.060 A 
ATOM     39  C   UNL A   1      44.790  29.641  27.384  1.00  0.00     0.016 A 
ATOM     40  C   UNL A   1      42.515  28.802  26.956  1.00  0.00     0.016 A 
ATOM     41  C   UNL A   1      44.273  30.475  28.331  1.00  0.00     0.010 A 
ATOM     42  C   UNL A   1      41.997  29.650  27.886  1.00  0.00     0.010 A 
ATOM     43  C   UNL A   1      42.920  30.329  28.660  1.00  0.00    -0.014 A 
BRANCH  43  44
ATOM     44  C   UNL A   1      42.523  30.807  29.951  1.00  0.00     0.031 A 
ATOM     45  C   UNL A   1      42.380  29.724  30.919  1.00  0.00     0.074 A 
ATOM     46  C   UNL A   1      42.313  32.115  30.174  1.00  0.00     0.049 A 
ATOM     47  N   UNL A   1      41.284  29.174  31.311  1.00  0.00    -0.248 NA
ATOM     48  C   UNL A   1      43.608  29.009  31.290  1.00  0.00     0.031 C 
ATOM     49  C   UNL A   1      42.699  33.265  29.348  1.00  0.00     0.029 A 
ATOM     50  N   UNL A   1      41.797  32.690  31.282  1.00  0.00    -0.354 N 
ATOM     51  C   UNL A   1      41.689  28.183  32.186  1.00  0.00     0.074 A 
ATOM     52  C   UNL A   1      43.093  27.965  31.937  1.00  0.00     0.031 C 
ATOM     53  C   UNL A   1      42.636  34.384  30.105  1.00  0.00     0.029 A 
ATOM     54  C   UNL A   1      42.081  34.039  31.404  1.00  0.00     0.049 A 
ATOM     55  H   UNL A   1      41.267  32.193  31.945  1.00  0.00     0.167 HD
ATOM     56  C   UNL A   1      40.935  27.858  33.267  1.00  0.00     0.031 A 
ATOM     57  C   UNL A   1      41.974  34.758  32.547  1.00  0.00     0.031 A 
ATOM     58  C   UNL A   1      39.583  28.344  33.152  1.00  0.00     0.049 A 
ATOM     59  C   UNL A   1      41.067  34.002  33.458  1.00  0.00     0.074 A 
ATOM     60  C   UNL A   1      38.561  28.145  32.244  1.00  0.00     0.029 A 
ATOM     61  N   UNL A   1      39.268  29.496  33.838  1.00  0.00    -0.354 N 
ATOM     62  N   UNL A   1      39.800  33.808  33.210  1.00  0.00    -0.248 NA
ATOM     63  C   UNL A   1      41.658  33.060  34.400  1.00  0.00     0.031 C 
ATOM     64  C   UNL A   1      37.910  29.409  32.128  1.00  0.00     0.029 A 
ATOM     65  C   UNL A   1      38.534  30.302  33.003  1.00  0.00     0.049 A 
ATOM     66  H   UNL A   1      39.523  29.705  34.766  1.00  0.00     0.167 HD
ATOM     67  C   UNL A   1      39.542  32.504  33.618  1.00  0.00     0.074 A 
ATOM     68  C   UNL A   1      40.694  32.133  34.438  1.00  0.00     0.031 C 
ATOM     69  C   UNL A   1      38.568  31.753  33.022  1.00  0.00     0.031 A 
BRANCH  56  70
ATOM     70  C   UNL A   1      41.569  27.503  34.583  1.00  0.00    -0.014 A 
ATOM     71  C   UNL A   1      42.259  28.498  35.295  1.00  0.00     0.010 A 
ATOM     72  C   UNL A   1      41.738  26.166  35.010  1.00  0.00     0.010 A 
ATOM     73  C   UNL A   1      43.120  28.158  36.346  1.00  0.00     0.020 A 
ATOM     74  C   UNL A   1      42.548  25.822  36.085  1.00  0.00     0.020 A 
ATOM     75  C   UNL A   1      43.267  26.820  36.722  1.00  0.00     0.054 A 
BRANCH  75  76
ATOM     76  S   UNL A   1      44.471  26.375  37.991  1.00  0.00     0.124 S 
ATOM     77  O   UNL A   1      45.541  27.333  37.729  1.00  0.00    -0.237 OA
ATOM     78  O   UNL A   1      43.714  26.585  39.221  1.00  0.00    -0.237 OA
ATOM     79  O   UNL A   1      44.788  24.981  37.688  1.00  0.00    -0.744 OA
ENDBRANCH  75  76
ENDBRANCH  56  70
BRANCH  57  80
ATOM     80  C   UNL A   1      42.919  35.803  33.014  1.00  0.00    -0.014 A 
ATOM     81  C   UNL A   1      42.567  36.689  34.045  1.00  0.00     0.010 A 
ATOM     82  C   UNL A   1      44.274  35.762  32.618  1.00  0.00     0.010 A 
ATOM     83  C   UNL A   1      43.544  37.465  34.693  1.00  0.00     0.020 A 
ATOM     84  C   UNL A   1      45.250  36.537  33.251  1.00  0.00     0.020 A 
ATOM     85  C   UNL A   1      44.884  37.370  34.303  1.00  0.00     0.054 A 
BRANCH  85  86
ATOM     86  S   UNL A   1      46.160  38.243  35.255  1.00  0.00     0.124 S 
ATOM     87  O   UNL A   1      45.655  39.613  35.266  1.00  0.00    -0.237 OA
ATOM     88  O   UNL A   1      46.130  37.547  36.538  1.00  0.00    -0.237 OA
ATOM     89  O   UNL A   1      47.376  38.036  34.470  1.00  0.00    -0.744 OA
ENDBRANCH  85  86
ENDBRANCH  57  80
BRANCH  69  90
ATOM     90  C   UNL A   1      37.587  32.457  32.108  1.00  0.00    -0.014 A 
ATOM     91  C   UNL A   1      37.839  32.709  30.744  1.00  0.00     0.010 A 
ATOM     92  C   UNL A   1      36.306  32.742  32.612  1.00  0.00     0.010 A 
ATOM     93  C   UNL A   1      36.846  33.257  29.917  1.00  0.00     0.020 A 
ATOM     94  C   UNL A   1      35.306  33.272  31.789  1.00  0.00     0.020 A 
ATOM     95  C   UNL A   1      35.583  33.536  30.448  1.00  0.00     0.054 A 
BRANCH  95  96
ATOM     96  S   UNL A   1      34.287  34.202  29.365  1.00  0.00     0.124 S 
ATOM     97  O   UNL A   1      34.980  35.284  28.669  1.00  0.00    -0.237 OA
ATOM     98  O   UNL A   1      33.930  33.051  28.539  1.00  0.00    -0.237 OA
ATOM     99  O   UNL A   1      33.244  34.633  30.294  1.00  0.00    -0.744 OA
ENDBRANCH  95  96
ENDBRANCH  69  90
ENDBRANCH  43  44
ENDBRANCH  36  38
ENDBRANCH  35  36
ENDBRANCH  34  35
ENDBRANCH  33  34
ENDBRANCH  32  33
ENDBRANCH  31  32
ENDBRANCH  30  31
ENDBRANCH  29  30
ENDBRANCH   1  29
TORSDOF 27
ENDMDL
MODEL 2
REMARK VINA RESULT:      -9.0      4.263      9.236
REMARK SMILES O=C(CCc1cn(C2CCN(c3ncccc3Cl)CC2)nn1)OCCOCCOCCOCCOC(=O)c1ccc(-c2c3nc(c(-c4ccc(S(=O)(=O)[O-])cc4)c4ccc([nH]4)c(-c4ccc(S(=O)(=O)[O-])cc4)c4nc(c(-c5ccc(S(=O)(=O)[O-])cc5)c5ccc2[nH]5)C=C4)C=C3)cc1
REMARK SMILES IDX 28 1 27 2 26 3 25 4 24 5 23 6 2 7 1 8 3 9 4 10 5 11 6 12
REMARK SMILES IDX 22 13 7 14 21 15 8 16 9 17 20 18 10 19 19 20 11 21 12 22
REMARK SMILES IDX 13 23 17 24 14 25 16 26 18 27 15 28 29 29 30 30 31 31 32 32
REMARK SMILES IDX 33 33 34 34 35 35 36 36 37 37 38 38 39 39 97 40 40 41 96 42
REMARK SMILES IDX 41 43 42 44 43 45 90 46 44 47 95 48 89 49 91 50 45 51 94 52
REMARK SMILES IDX 88 53 87 54 46 56 76 57 57 58 75 59 58 60 61 61 74 62 92 63
REMARK SMILES IDX 59 64 60 65 73 67 93 68 62 69 47 70 48 71 56 72 49 73 55 74
REMARK SMILES IDX 50 75 51 76 52 77 53 78 54 79 77 80 78 81 86 82 79 83 85 84
REMARK SMILES IDX 80 85 81 86 82 87 83 88 84 89 63 90 64 91 72 92 65 93 71 94
REMARK SMILES IDX 66 95 67 96 68 97 69 98 70 99
REMARK H PARENT 91 55 61 66
REMARK Flexibility Score: inf
ROOT
ATOM      1  C   UNL A   1      31.218  31.540  26.075  1.00  0.00     0.188 C 
ENDROOT
BRANCH   1   2
ATOM      2  C   UNL A   1      30.569  30.710  24.958  1.00  0.00     0.188 C 
BRANCH   2   3
ATOM      3  O   UNL A   1      29.392  31.225  24.348  1.00  0.00    -0.376 OA
BRANCH   3   4
ATOM      4  C   UNL A   1      29.314  31.260  22.929  1.00  0.00     0.202 C 
BRANCH   4   5
ATOM      5  C   UNL A   1      29.745  30.009  22.188  1.00  0.00     0.261 C 
BRANCH   5   6
ATOM      6  O   UNL A   1      28.842  28.879  22.113  1.00  0.00    -0.463 OA
BRANCH   6   7
ATOM      7  C   UNL A   1      28.018  28.285  22.989  1.00  0.00     0.306 C 
ATOM      8  O   UNL A   1      26.947  28.836  23.248  1.00  0.00    -0.252 OA
BRANCH   7   9
ATOM      9  C   UNL A   1      28.325  26.948  23.606  1.00  0.00     0.129 C 
BRANCH   9  10
ATOM     10  C   UNL A   1      29.412  26.964  24.670  1.00  0.00     0.071 C 
BRANCH  10  11
ATOM     11  C   UNL A   1      30.694  26.347  24.262  1.00  0.00     0.083 A 
ATOM     12  C   UNL A   1      31.740  25.967  25.064  1.00  0.00     0.134 A 
ATOM     13  N   UNL A   1      30.994  26.022  22.967  1.00  0.00    -0.135 NA
ATOM     14  N   UNL A   1      32.627  25.368  24.225  1.00  0.00    -0.249 N 
ATOM     15  N   UNL A   1      32.176  25.415  22.956  1.00  0.00    -0.067 NA
BRANCH  14  16
ATOM     16  C   UNL A   1      33.972  24.884  24.499  1.00  0.00     0.112 C 
ATOM     17  C   UNL A   1      34.644  24.084  23.375  1.00  0.00     0.049 C 
ATOM     18  C   UNL A   1      33.974  24.062  25.784  1.00  0.00     0.049 C 
ATOM     19  C   UNL A   1      34.092  22.674  23.176  1.00  0.00     0.120 C 
ATOM     20  C   UNL A   1      33.174  22.787  25.588  1.00  0.00     0.120 C 
ATOM     21  N   UNL A   1      33.639  22.070  24.416  1.00  0.00    -0.355 N 
BRANCH  21  22
ATOM     22  C   UNL A   1      33.600  20.692  24.496  1.00  0.00     0.147 A 
ATOM     23  N   UNL A   1      32.404  20.142  24.185  1.00  0.00    -0.238 NA
ATOM     24  C   UNL A   1      34.739  19.899  24.716  1.00  0.00     0.083 A 
ATOM     25  C   UNL A   1      32.344  18.805  24.021  1.00  0.00     0.113 A 
ATOM     26  C   UNL A   1      34.646  18.519  24.544  1.00  0.00     0.026 A 
ATOM     27  Cl  UNL A   1      36.264  20.556  25.193  1.00  0.00    -0.080 Cl
ATOM     28  C   UNL A   1      33.430  17.962  24.169  1.00  0.00     0.022 A 
ENDBRANCH  21  22
ENDBRANCH  14  16
ENDBRANCH  10  11
ENDBRANCH   9  10
ENDBRANCH   7   9
ENDBRANCH   6   7
ENDBRANCH   5   6
ENDBRANCH   4   5
ENDBRANCH   3   4
ENDBRANCH   2   3
ENDBRANCH   1   2
BRANCH   1  29
ATOM     29  O   UNL A   1      32.109  30.779  26.881  1.00  0.00    -0.377 OA
BRANCH  29  30
ATOM     30  C   UNL A   1      32.101  29.361  26.705  1.00  0.00     0.188 C 
BRANCH  30  31
ATOM     31  C   UNL A   1      33.387  28.520  26.959  1.00  0.00     0.188 C 
BRANCH  31  32
ATOM     32  O   UNL A   1      34.581  29.278  26.850  1.00  0.00    -0.376 OA
BRANCH  32  33
ATOM     33  C   UNL A   1      35.108  29.991  27.954  1.00  0.00     0.202 C 
BRANCH  33  34
ATOM     34  C   UNL A   1      35.463  31.447  27.660  1.00  0.00     0.261 C 
BRANCH  34  35
ATOM     35  O   UNL A   1      35.800  32.165  28.829  1.00  0.00    -0.460 OA
BRANCH  35  36
ATOM     36  C   UNL A   1      34.792  32.401  29.675  1.00  0.00     0.338 C 
ATOM     37  O   UNL A   1      33.670  32.826  29.392  1.00  0.00    -0.246 OA
BRANCH  36  38
ATOM     38  C   UNL A   1      35.273  32.099  31.018  1.00  0.00     0.060 A 
ATOM     39  C   UNL A   1      35.102  33.102  31.963  1.00  0.00     0.016 A 
ATOM     40  C   UNL A   1      36.145  31.005  31.208  1.00  0.00     0.016 A 
ATOM     41  C   UNL A   1      36.106  33.239  32.877  1.00  0.00     0.010 A 
ATOM     42  C   UNL A   1      37.135  31.130  32.133  1.00  0.00     0.010 A 
ATOM     43  C   UNL A   1      37.172  32.334  32.813  1.00  0.00    -0.014 A 
BRANCH  43  44
ATOM     44  C   UNL A   1      38.412  32.767  33.386  1.00  0.00     0.031 A 
ATOM     45  C   UNL A   1      39.323  33.306  32.381  1.00  0.00     0.074 A 
ATOM     46  C   UNL A   1      38.647  32.653  34.704  1.00  0.00     0.049 A 
ATOM     47  N   UNL A   1      40.328  32.707  31.845  1.00  0.00    -0.248 NA
ATOM     48  C   UNL A   1      38.910  34.551  31.721  1.00  0.00     0.031 C 
ATOM     49  C   UNL A   1      37.697  32.388  35.791  1.00  0.00     0.029 A 
ATOM     50  N   UNL A   1      39.809  32.876  35.356  1.00  0.00    -0.354 N 
ATOM     51  C   UNL A   1      40.828  33.619  30.935  1.00  0.00     0.074 A 
ATOM     52  C   UNL A   1      39.790  34.598  30.723  1.00  0.00     0.031 C 
ATOM     53  C   UNL A   1      38.277  32.725  36.965  1.00  0.00     0.029 A 
ATOM     54  C   UNL A   1      39.663  33.091  36.715  1.00  0.00     0.049 A 
ATOM     55  H   UNL A   1      40.683  32.886  34.904  1.00  0.00     0.167 HD
ATOM     56  C   UNL A   1      42.161  33.693  30.683  1.00  0.00     0.031 A 
ATOM     57  C   UNL A   1      40.596  33.650  37.522  1.00  0.00     0.031 A 
ATOM     58  C   UNL A   1      42.864  32.519  31.134  1.00  0.00     0.049 A 
ATOM     59  C   UNL A   1      41.908  33.527  36.824  1.00  0.00     0.074 A 
ATOM     60  C   UNL A   1      42.775  31.171  30.845  1.00  0.00     0.029 A 
ATOM     61  N   UNL A   1      43.539  32.610  32.332  1.00  0.00    -0.354 N 
ATOM     62  N   UNL A   1      42.490  32.383  36.588  1.00  0.00    -0.248 NA
ATOM     63  C   UNL A   1      42.347  34.625  35.971  1.00  0.00     0.031 C 
ATOM     64  C   UNL A   1      43.011  30.505  32.083  1.00  0.00     0.029 A 
ATOM     65  C   UNL A   1      43.279  31.472  33.055  1.00  0.00     0.049 A 
ATOM     66  H   UNL A   1      44.109  33.361  32.618  1.00  0.00     0.167 HD
ATOM     67  C   UNL A   1      43.039  32.506  35.316  1.00  0.00     0.074 A 
ATOM     68  C   UNL A   1      43.010  33.940  35.034  1.00  0.00     0.031 C 
ATOM     69  C   UNL A   1      43.197  31.420  34.503  1.00  0.00     0.031 A 
BRANCH  56  70
ATOM     70  C   UNL A   1      42.838  35.014  30.446  1.00  0.00    -0.014 A 
ATOM     71  C   UNL A   1      43.424  35.263  29.195  1.00  0.00     0.010 A 
ATOM     72  C   UNL A   1      43.148  35.909  31.496  1.00  0.00     0.010 A 
ATOM     73  C   UNL A   1      44.322  36.324  29.025  1.00  0.00     0.020 A 
ATOM     74  C   UNL A   1      43.997  36.995  31.325  1.00  0.00     0.020 A 
ATOM     75  C   UNL A   1      44.612  37.172  30.097  1.00  0.00     0.054 A 
BRANCH  75  76
ATOM     76  S   UNL A   1      45.864  38.458  29.907  1.00  0.00     0.124 S 
ATOM     77  O   UNL A   1      45.307  39.253  28.817  1.00  0.00    -0.237 OA
ATOM     78  O   UNL A   1      45.860  39.089  31.223  1.00  0.00    -0.237 OA
ATOM     79  O   UNL A   1      47.076  37.709  29.582  1.00  0.00    -0.744 OA
ENDBRANCH  75  76
ENDBRANCH  56  70
BRANCH  57  80
ATOM     80  C   UNL A   1      40.337  34.618  38.617  1.00  0.00    -0.014 A 
ATOM     81  C   UNL A   1      41.060  34.558  39.820  1.00  0.00     0.010 A 
ATOM     82  C   UNL A   1      39.554  35.768  38.378  1.00  0.00     0.010 A 
ATOM     83  C   UNL A   1      41.042  35.634  40.725  1.00  0.00     0.020 A 
ATOM     84  C   UNL A   1      39.523  36.838  39.277  1.00  0.00     0.020 A 
ATOM     85  C   UNL A   1      40.287  36.776  40.438  1.00  0.00     0.054 A 
BRANCH  85  86
ATOM     86  S   UNL A   1      40.403  38.226  41.524  1.00  0.00     0.124 S 
ATOM     87  O   UNL A   1      39.273  39.037  41.081  1.00  0.00    -0.237 OA
ATOM     88  O   UNL A   1      40.277  37.637  42.854  1.00  0.00    -0.237 OA
ATOM     89  O   UNL A   1      41.721  38.780  41.218  1.00  0.00    -0.744 OA
ENDBRANCH  85  86
ENDBRANCH  57  80
BRANCH  69  90
ATOM     90  C   UNL A   1      43.031  30.044  35.114  1.00  0.00    -0.014 A 
ATOM     91  C   UNL A   1      44.084  29.332  35.724  1.00  0.00     0.010 A 
ATOM     92  C   UNL A   1      41.731  29.518  35.207  1.00  0.00     0.010 A 
ATOM     93  C   UNL A   1      43.846  28.115  36.381  1.00  0.00     0.020 A 
ATOM     94  C   UNL A   1      41.483  28.314  35.875  1.00  0.00     0.020 A 
ATOM     95  C   UNL A   1      42.542  27.613  36.450  1.00  0.00     0.054 A 
BRANCH  95  96
ATOM     96  S   UNL A   1      42.231  26.062  37.340  1.00  0.00     0.124 S 
ATOM     97  O   UNL A   1      42.641  25.051  36.370  1.00  0.00    -0.237 OA
ATOM     98  O   UNL A   1      43.085  26.185  38.519  1.00  0.00    -0.237 OA
ATOM     99  O   UNL A   1      40.797  26.103  37.620  1.00  0.00    -0.744 OA
ENDBRANCH  95  96
ENDBRANCH  69  90
ENDBRANCH  43  44
ENDBRANCH  36  38
ENDBRANCH  35  36
ENDBRANCH  34  35
ENDBRANCH  33  34
ENDBRANCH  32  33
ENDBRANCH  31  32
ENDBRANCH  30  31
ENDBRANCH  29  30
ENDBRANCH   1  29
TORSDOF 27
ENDMDL
MODEL 3
REMARK VINA RESULT:      -8.7      3.654     10.105
REMARK SMILES O=C(CCc1cn(C2CCN(c3ncccc3Cl)CC2)nn1)OCCOCCOCCOCCOC(=O)c1ccc(-c2c3nc(c(-c4ccc(S(=O)(=O)[O-])cc4)c4ccc([nH]4)c(-c4ccc(S(=O)(=O)[O-])cc4)c4nc(c(-c5ccc(S(=O)(=O)[O-])cc5)c5ccc2[nH]5)C=C4)C=C3)cc1
REMARK SMILES IDX 28 1 27 2 26 3 25 4 24 5 23 6 2 7 1 8 3 9 4 10 5 11 6 12
REMARK SMILES IDX 22 13 7 14 21 15 8 16 9 17 20 18 10 19 19 20 11 21 12 22
REMARK SMILES IDX 13 23 17 24 14 25 16 26 18 27 15 28 29 29 30 30 31 31 32 32
REMARK SMILES IDX 33 33 34 34 35 35 36 36 37 37 38 38 39 39 97 40 40 41 96 42
REMARK SMILES IDX 41 43 42 44 43 45 90 46 44 47 95 48 89 49 91 50 45 51 94 52
REMARK SMILES IDX 88 53 87 54 46 56 76 57 57 58 75 59 58 60 61 61 74 62 92 63
REMARK SMILES IDX 59 64 60 65 73 67 93 68 62 69 47 70 48 71 56 72 49 73 55 74
REMARK SMILES IDX 50 75 51 76 52 77 53 78 54 79 77 80 78 81 86 82 79 83 85 84
REMARK SMILES IDX 80 85 81 86 82 87 83 88 84 89 63 90 64 91 72 92 65 93 71 94
REMARK SMILES IDX 66 95 67 96 68 97 69 98 70 99
REMARK H PARENT 91 55 61 66
REMARK Flexibility Score: inf
ROOT
ATOM      1  C   UNL A   1      33.748  35.389  29.627  1.00  0.00     0.188 C 
ENDROOT
BRANCH   1   2
ATOM      2  C   UNL A   1      33.809  34.019  28.936  1.00  0.00     0.188 C 
BRANCH   2   3
ATOM      3  O   UNL A   1      34.140  32.889  29.734  1.00  0.00    -0.376 OA
BRANCH   3   4
ATOM      4  C   UNL A   1      34.851  31.813  29.137  1.00  0.00     0.202 C 
BRANCH   4   5
ATOM      5  C   UNL A   1      34.614  31.572  27.659  1.00  0.00     0.261 C 
BRANCH   5   6
ATOM      6  O   UNL A   1      33.479  30.775  27.239  1.00  0.00    -0.463 OA
BRANCH   6   7
ATOM      7  C   UNL A   1      33.342  29.534  26.748  1.00  0.00     0.306 C 
ATOM      8  O   UNL A   1      33.524  28.582  27.509  1.00  0.00    -0.252 OA
BRANCH   7   9
ATOM      9  C   UNL A   1      32.913  29.271  25.331  1.00  0.00     0.129 C 
BRANCH   9  10
ATOM     10  C   UNL A   1      31.430  28.981  25.150  1.00  0.00     0.071 C 
BRANCH  10  11
ATOM     11  C   UNL A   1      31.093  27.554  24.951  1.00  0.00     0.083 A 
ATOM     12  C   UNL A   1      31.339  26.503  25.798  1.00  0.00     0.134 A 
ATOM     13  N   UNL A   1      30.421  27.086  23.855  1.00  0.00    -0.135 NA
ATOM     14  N   UNL A   1      30.750  25.430  25.206  1.00  0.00    -0.249 N 
ATOM     15  N   UNL A   1      30.207  25.785  24.025  1.00  0.00    -0.067 NA
BRANCH  14  16
ATOM     16  C   UNL A   1      30.796  24.026  25.590  1.00  0.00     0.112 C 
ATOM     17  C   UNL A   1      31.694  23.683  26.787  1.00  0.00     0.049 C 
ATOM     18  C   UNL A   1      31.194  23.174  24.390  1.00  0.00     0.049 C 
ATOM     19  C   UNL A   1      33.192  23.734  26.495  1.00  0.00     0.120 C 
ATOM     20  C   UNL A   1      32.626  23.476  23.988  1.00  0.00     0.120 C 
ATOM     21  N   UNL A   1      33.511  23.353  25.130  1.00  0.00    -0.355 N 
BRANCH  21  22
ATOM     22  C   UNL A   1      34.775  22.869  24.865  1.00  0.00     0.147 A 
ATOM     23  N   UNL A   1      35.733  23.818  24.752  1.00  0.00    -0.238 NA
ATOM     24  C   UNL A   1      35.096  21.500  24.875  1.00  0.00     0.083 A 
ATOM     25  C   UNL A   1      37.020  23.420  24.718  1.00  0.00     0.113 A 
ATOM     26  C   UNL A   1      36.436  21.119  24.835  1.00  0.00     0.026 A 
ATOM     27  Cl  UNL A   1      33.899  20.255  24.938  1.00  0.00    -0.080 Cl
ATOM     28  C   UNL A   1      37.419  22.098  24.775  1.00  0.00     0.022 A 
ENDBRANCH  21  22
ENDBRANCH  14  16
ENDBRANCH  10  11
ENDBRANCH   9  10
ENDBRANCH   7   9
ENDBRANCH   6   7
ENDBRANCH   5   6
ENDBRANCH   4   5
ENDBRANCH   3   4
ENDBRANCH   2   3
ENDBRANCH   1   2
BRANCH   1  29
ATOM     29  O   UNL A   1      32.871  35.404  30.746  1.00  0.00    -0.377 OA
BRANCH  29  30
ATOM     30  C   UNL A   1      32.868  36.579  31.559  1.00  0.00     0.188 C 
BRANCH  30  31
ATOM     31  C   UNL A   1      33.255  36.507  33.066  1.00  0.00     0.188 C 
BRANCH  31  32
ATOM     32  O   UNL A   1      34.641  36.289  33.277  1.00  0.00    -0.376 OA
BRANCH  32  33
ATOM     33  C   UNL A   1      35.119  35.098  33.876  1.00  0.00     0.202 C 
BRANCH  33  34
ATOM     34  C   UNL A   1      35.342  33.943  32.902  1.00  0.00     0.261 C 
BRANCH  34  35
ATOM     35  O   UNL A   1      36.242  34.280  31.866  1.00  0.00    -0.460 OA
BRANCH  35  36
ATOM     36  C   UNL A   1      37.252  33.425  31.675  1.00  0.00     0.338 C 
ATOM     37  O   UNL A   1      37.198  32.193  31.705  1.00  0.00    -0.246 OA
BRANCH  36  38
ATOM     38  C   UNL A   1      38.457  34.218  31.459  1.00  0.00     0.060 A 
ATOM     39  C   UNL A   1      38.854  34.368  30.136  1.00  0.00     0.016 A 
ATOM     40  C   UNL A   1      39.306  34.493  32.553  1.00  0.00     0.016 A 
ATOM     41  C   UNL A   1      40.200  34.367  29.914  1.00  0.00     0.010 A 
ATOM     42  C   UNL A   1      40.648  34.513  32.331  1.00  0.00     0.010 A 
ATOM     43  C   UNL A   1      41.044  34.272  31.027  1.00  0.00    -0.014 A 
BRANCH  43  44
ATOM     44  C   UNL A   1      42.362  33.762  30.787  1.00  0.00     0.031 A 
ATOM     45  C   UNL A   1      43.187  34.704  30.036  1.00  0.00     0.074 A 
ATOM     46  C   UNL A   1      42.727  32.545  31.222  1.00  0.00     0.049 A 
ATOM     47  N   UNL A   1      43.458  34.667  28.778  1.00  0.00    -0.248 NA
ATOM     48  C   UNL A   1      43.530  35.961  30.714  1.00  0.00     0.031 C 
ATOM     49  C   UNL A   1      42.063  31.678  32.201  1.00  0.00     0.029 A 
ATOM     50  N   UNL A   1      43.870  31.879  30.944  1.00  0.00    -0.354 N 
ATOM     51  C   UNL A   1      44.228  35.793  28.558  1.00  0.00     0.074 A 
ATOM     52  C   UNL A   1      44.023  36.659  29.693  1.00  0.00     0.031 C 
ATOM     53  C   UNL A   1      42.943  30.739  32.617  1.00  0.00     0.029 A 
ATOM     54  C   UNL A   1      44.164  30.864  31.837  1.00  0.00     0.049 A 
ATOM     55  H   UNL A   1      44.443  32.098  30.175  1.00  0.00     0.167 HD
ATOM     56  C   UNL A   1      45.225  35.785  27.636  1.00  0.00     0.031 A 
ATOM     57  C   UNL A   1      45.377  30.279  31.980  1.00  0.00     0.031 A 
ATOM     58  C   UNL A   1      45.103  34.685  26.714  1.00  0.00     0.049 A 
ATOM     59  C   UNL A   1      46.147  30.555  30.733  1.00  0.00     0.074 A 
ATOM     60  C   UNL A   1      44.130  34.278  25.822  1.00  0.00     0.029 A 
ATOM     61  N   UNL A   1      45.905  33.586  26.934  1.00  0.00    -0.354 N 
ATOM     62  N   UNL A   1      45.816  30.074  29.566  1.00  0.00    -0.248 NA
ATOM     63  C   UNL A   1      46.999  31.737  30.691  1.00  0.00     0.031 C 
ATOM     64  C   UNL A   1      44.132  32.853  25.887  1.00  0.00     0.029 A 
ATOM     65  C   UNL A   1      45.135  32.459  26.776  1.00  0.00     0.049 A 
ATOM     66  H   UNL A   1      46.862  33.606  27.164  1.00  0.00     0.167 HD
ATOM     67  C   UNL A   1      46.054  31.105  28.664  1.00  0.00     0.074 A 
ATOM     68  C   UNL A   1      46.880  32.062  29.398  1.00  0.00     0.031 C 
ATOM     69  C   UNL A   1      45.328  31.224  27.512  1.00  0.00     0.031 A 
BRANCH  56  70
ATOM     70  C   UNL A   1      46.519  36.510  27.880  1.00  0.00    -0.014 A 
ATOM     71  C   UNL A   1      47.018  37.364  26.884  1.00  0.00     0.010 A 
ATOM     72  C   UNL A   1      47.391  36.174  28.941  1.00  0.00     0.010 A 
ATOM     73  C   UNL A   1      48.345  37.810  26.923  1.00  0.00     0.020 A 
ATOM     74  C   UNL A   1      48.693  36.653  29.018  1.00  0.00     0.020 A 
ATOM     75  C   UNL A   1      49.175  37.438  27.985  1.00  0.00     0.054 A 
BRANCH  75  76
ATOM     76  S   UNL A   1      50.917  37.910  27.965  1.00  0.00     0.124 S 
ATOM     77  O   UNL A   1      51.225  37.956  29.391  1.00  0.00    -0.237 OA
ATOM     78  O   UNL A   1      51.525  36.814  27.217  1.00  0.00    -0.237 OA
ATOM     79  O   UNL A   1      50.914  39.201  27.281  1.00  0.00    -0.744 OA
ENDBRANCH  75  76
ENDBRANCH  56  70
BRANCH  57  80
ATOM     80  C   UNL A   1      46.009  29.882  33.263  1.00  0.00    -0.014 A 
ATOM     81  C   UNL A   1      45.485  30.316  34.492  1.00  0.00     0.010 A 
ATOM     82  C   UNL A   1      46.982  28.859  33.289  1.00  0.00     0.010 A 
ATOM     83  C   UNL A   1      45.880  29.709  35.697  1.00  0.00     0.020 A 
ATOM     84  C   UNL A   1      47.388  28.258  34.484  1.00  0.00     0.020 A 
ATOM     85  C   UNL A   1      46.816  28.670  35.683  1.00  0.00     0.054 A 
BRANCH  85  86
ATOM     86  S   UNL A   1      47.192  27.779  37.220  1.00  0.00     0.124 S 
ATOM     87  O   UNL A   1      48.403  28.452  37.680  1.00  0.00    -0.237 OA
ATOM     88  O   UNL A   1      45.995  28.012  38.022  1.00  0.00    -0.237 OA
ATOM     89  O   UNL A   1      47.379  26.398  36.780  1.00  0.00    -0.744 OA
ENDBRANCH  85  86
ENDBRANCH  57  80
BRANCH  69  90
ATOM     90  C   UNL A   1      44.457  30.056  27.099  1.00  0.00    -0.014 A 
ATOM     91  C   UNL A   1      44.939  28.945  26.375  1.00  0.00     0.010 A 
ATOM     92  C   UNL A   1      43.140  30.010  27.588  1.00  0.00     0.010 A 
ATOM     93  C   UNL A   1      44.116  27.837  26.124  1.00  0.00     0.020 A 
ATOM     94  C   UNL A   1      42.320  28.901  27.357  1.00  0.00     0.020 A 
ATOM     95  C   UNL A   1      42.807  27.824  26.617  1.00  0.00     0.054 A 
BRANCH  95  96
ATOM     96  S   UNL A   1      41.761  26.368  26.330  1.00  0.00     0.124 S 
ATOM     97  O   UNL A   1      40.422  26.880  26.609  1.00  0.00    -0.237 OA
ATOM     98  O   UNL A   1      42.031  26.043  24.932  1.00  0.00    -0.237 OA
ATOM     99  O   UNL A   1      42.259  25.386  27.291  1.00  0.00    -0.744 OA
ENDBRANCH  95  96
ENDBRANCH  69  90
ENDBRANCH  43  44
ENDBRANCH  36  38
ENDBRANCH  35  36
ENDBRANCH  34  35
ENDBRANCH  33  34
ENDBRANCH  32  33
ENDBRANCH  31  32
ENDBRANCH  30  31
ENDBRANCH  29  30
ENDBRANCH   1  29
TORSDOF 27
ENDMDL
