MODEL 1
REMARK VINA RESULT:      -7.9      0.000      0.000
REMARK SMILES Cc1nccn1C1(C(=O)OCCOCCOCCOCCOC(=O)c2ccc(-c3c4nc(c(-c5ccc(S(=O)(=O)[O-])cc5)c5ccc([nH]5)c(-c5ccc(S(=O)(=O)[O-])cc5)c5nc(c(-c6ccc(S(=O)(=O)[O-])cc6)c6ccc3[nH]6)C=C5)C=C4)cc2)CCN(C(=O)[C@@H]2C[C@H]2c2ccccc2)CC1
REMARK SMILES IDX 17 1 16 2 15 3 14 4 13 5 12 6 11 7 10 8 8 9 9 10 7 11 85 12
REMARK SMILES IDX 100 13 86 14 99 15 87 16 88 17 89 18 6 19 1 20 2 21 3 22
REMARK SMILES IDX 4 23 5 24 90 25 91 26 92 27 93 28 94 29 98 30 95 31 97 32
REMARK SMILES IDX 96 33 18 34 19 35 20 36 21 37 22 38 23 39 24 40 25 41 26 42
REMARK SMILES IDX 84 43 27 44 83 45 28 46 29 47 30 48 77 49 31 50 82 51 76 52
REMARK SMILES IDX 78 53 32 54 81 55 75 56 74 57 33 59 63 60 44 61 62 62 45 63
REMARK SMILES IDX 48 64 61 65 79 66 46 67 47 68 60 70 80 71 49 72 34 73 35 74
REMARK SMILES IDX 43 75 36 76 42 77 37 78 38 79 39 80 40 81 41 82 64 83 65 84
REMARK SMILES IDX 73 85 66 86 72 87 67 88 68 89 69 90 70 91 71 92 50 93 51 94
REMARK SMILES IDX 59 95 52 96 58 97 53 98 54 99 55 100 56 101 57 102
REMARK H PARENT 78 58 48 69
REMARK Flexibility Score: inf
ROOT
ATOM      1  C   UNL A   1      44.638  44.667  32.884  1.00  0.00     0.188 C 
ENDROOT
BRANCH   1   2
ATOM      2  O   UNL A   1      45.449  43.503  33.044  1.00  0.00    -0.377 OA
BRANCH   2   3
ATOM      3  C   UNL A   1      45.755  42.805  31.850  1.00  0.00     0.188 C 
BRANCH   3   4
ATOM      4  C   UNL A   1      47.053  43.270  31.118  1.00  0.00     0.188 C 
BRANCH   4   5
ATOM      5  O   UNL A   1      48.085  42.335  30.800  1.00  0.00    -0.376 OA
BRANCH   5   6
ATOM      6  C   UNL A   1      49.066  42.680  29.826  1.00  0.00     0.202 C 
BRANCH   6   7
ATOM      7  C   UNL A   1      48.728  43.779  28.813  1.00  0.00     0.261 C 
BRANCH   7   8
ATOM      8  O   UNL A   1      48.252  43.190  27.598  1.00  0.00    -0.461 OA
BRANCH   8   9
ATOM      9  C   UNL A   1      47.131  43.664  26.991  1.00  0.00     0.332 C 
ATOM     10  O   UNL A   1      46.639  44.756  27.243  1.00  0.00    -0.249 OA
BRANCH   9  11
ATOM     11  C   UNL A   1      46.557  42.543  26.008  1.00  0.00     0.146 C 
ATOM     12  C   UNL A   1      45.690  41.430  25.306  1.00  0.00     0.062 C 
ATOM     13  C   UNL A   1      45.982  41.991  27.495  1.00  0.00     0.062 C 
ATOM     14  C   UNL A   1      44.164  41.528  25.473  1.00  0.00     0.122 C 
ATOM     15  C   UNL A   1      44.501  42.112  27.762  1.00  0.00     0.122 C 
ATOM     16  N   UNL A   1      43.820  41.241  26.850  1.00  0.00    -0.342 N 
ATOM     17  C   UNL A   1      43.071  40.097  27.117  1.00  0.00     0.226 C 
ATOM     18  O   UNL A   1      42.508  39.507  26.196  1.00  0.00    -0.275 OA
BRANCH  11  19
ATOM     19  N   UNL A   1      46.602  43.423  24.855  1.00  0.00    -0.318 N 
ATOM     20  C   UNL A   1      44.378  44.676  24.772  1.00  0.00     0.087 C 
ATOM     21  C   UNL A   1      45.720  44.309  24.271  1.00  0.00     0.106 A 
ATOM     22  N   UNL A   1      46.212  44.801  23.147  1.00  0.00    -0.242 NA
ATOM     23  C   UNL A   1      47.429  44.225  22.959  1.00  0.00     0.131 A 
ATOM     24  C   UNL A   1      47.694  43.365  23.986  1.00  0.00     0.108 A 
ENDBRANCH  11  19
BRANCH  17  25
ATOM     25  C   UNL A   1      42.940  39.447  28.453  1.00  0.00     0.087 C 
ATOM     26  C   UNL A   1      43.601  39.598  29.785  1.00  0.00     0.023 C 
ATOM     27  C   UNL A   1      44.022  38.461  28.894  1.00  0.00     0.032 C 
BRANCH  27  28
ATOM     28  C   UNL A   1      43.590  37.020  29.045  1.00  0.00    -0.044 A 
ATOM     29  C   UNL A   1      42.275  36.578  28.843  1.00  0.00     0.004 A 
ATOM     30  C   UNL A   1      44.543  36.057  29.428  1.00  0.00     0.004 A 
ATOM     31  C   UNL A   1      41.928  35.232  29.012  1.00  0.00     0.000 A 
ATOM     32  C   UNL A   1      44.202  34.715  29.605  1.00  0.00     0.000 A 
ATOM     33  C   UNL A   1      42.892  34.302  29.396  1.00  0.00     0.000 A 
ENDBRANCH  27  28
ENDBRANCH  17  25
ENDBRANCH   9  11
ENDBRANCH   8   9
ENDBRANCH   7   8
ENDBRANCH   6   7
ENDBRANCH   5   6
ENDBRANCH   4   5
ENDBRANCH   3   4
ENDBRANCH   2   3
ENDBRANCH   1   2
BRANCH   1  34
ATOM     34  C   UNL A   1      43.134  44.474  32.557  1.00  0.00     0.188 C 
BRANCH  34  35
ATOM     35  O   UNL A   1      42.410  43.649  33.461  1.00  0.00    -0.376 OA
BRANCH  35  36
ATOM     36  C   UNL A   1      42.185  42.263  33.275  1.00  0.00     0.202 C 
BRANCH  36  37
ATOM     37  C   UNL A   1      42.882  41.268  34.198  1.00  0.00     0.261 C 
BRANCH  37  38
ATOM     38  O   UNL A   1      42.903  39.950  33.693  1.00  0.00    -0.460 OA
BRANCH  38  39
ATOM     39  C   UNL A   1      44.128  39.435  33.558  1.00  0.00     0.338 C 
ATOM     40  O   UNL A   1      45.151  40.023  33.179  1.00  0.00    -0.246 OA
BRANCH  39  41
ATOM     41  C   UNL A   1      44.051  38.003  33.759  1.00  0.00     0.060 A 
ATOM     42  C   UNL A   1      43.708  37.248  32.639  1.00  0.00     0.016 A 
ATOM     43  C   UNL A   1      43.862  37.557  35.077  1.00  0.00     0.016 A 
ATOM     44  C   UNL A   1      42.910  36.154  32.842  1.00  0.00     0.010 A 
ATOM     45  C   UNL A   1      43.030  36.493  35.272  1.00  0.00     0.010 A 
ATOM     46  C   UNL A   1      42.501  35.865  34.149  1.00  0.00    -0.014 A 
BRANCH  46  47
ATOM     47  C   UNL A   1      41.615  34.750  34.350  1.00  0.00     0.031 A 
ATOM     48  C   UNL A   1      42.087  33.568  33.608  1.00  0.00     0.074 A 
ATOM     49  C   UNL A   1      40.566  34.796  35.188  1.00  0.00     0.049 A 
ATOM     50  N   UNL A   1      41.586  33.105  32.514  1.00  0.00    -0.248 NA
ATOM     51  C   UNL A   1      43.404  33.005  33.955  1.00  0.00     0.031 C 
ATOM     52  C   UNL A   1      40.197  35.855  36.130  1.00  0.00     0.029 A 
ATOM     53  N   UNL A   1      39.661  33.822  35.455  1.00  0.00    -0.354 N 
ATOM     54  C   UNL A   1      42.375  32.012  32.195  1.00  0.00     0.074 A 
ATOM     55  C   UNL A   1      43.597  32.165  32.939  1.00  0.00     0.031 C 
ATOM     56  C   UNL A   1      39.311  35.358  37.025  1.00  0.00     0.029 A 
ATOM     57  C   UNL A   1      38.970  33.994  36.649  1.00  0.00     0.049 A 
ATOM     58  H   UNL A   1      39.505  33.058  34.855  1.00  0.00     0.167 HD
ATOM     59  C   UNL A   1      41.825  30.912  31.618  1.00  0.00     0.031 A 
ATOM     60  C   UNL A   1      38.253  33.043  37.305  1.00  0.00     0.031 A 
ATOM     61  C   UNL A   1      40.511  31.195  31.096  1.00  0.00     0.049 A 
ATOM     62  C   UNL A   1      37.941  31.977  36.316  1.00  0.00     0.074 A 
ATOM     63  C   UNL A   1      40.010  32.100  30.180  1.00  0.00     0.029 A 
ATOM     64  N   UNL A   1      39.441  30.776  31.855  1.00  0.00    -0.354 N 
ATOM     65  N   UNL A   1      37.128  32.155  35.313  1.00  0.00    -0.248 NA
ATOM     66  C   UNL A   1      38.888  30.881  36.154  1.00  0.00     0.031 C 
ATOM     67  C   UNL A   1      38.757  32.512  30.714  1.00  0.00     0.029 A 
ATOM     68  C   UNL A   1      38.512  31.782  31.879  1.00  0.00     0.049 A 
ATOM     69  H   UNL A   1      39.357  29.904  32.303  1.00  0.00     0.167 HD
ATOM     70  C   UNL A   1      37.749  31.534  34.239  1.00  0.00     0.074 A 
ATOM     71  C   UNL A   1      38.769  30.674  34.839  1.00  0.00     0.031 C 
ATOM     72  C   UNL A   1      37.583  32.002  32.967  1.00  0.00     0.031 A 
BRANCH  59  73
ATOM     73  C   UNL A   1      42.268  29.510  31.952  1.00  0.00    -0.014 A 
ATOM     74  C   UNL A   1      42.294  29.128  33.305  1.00  0.00     0.010 A 
ATOM     75  C   UNL A   1      42.919  28.661  31.033  1.00  0.00     0.010 A 
ATOM     76  C   UNL A   1      43.003  27.997  33.724  1.00  0.00     0.020 A 
ATOM     77  C   UNL A   1      43.589  27.507  31.433  1.00  0.00     0.020 A 
ATOM     78  C   UNL A   1      43.654  27.202  32.783  1.00  0.00     0.054 A 
BRANCH  78  79
ATOM     79  S   UNL A   1      44.632  25.791  33.341  1.00  0.00     0.124 S 
ATOM     80  O   UNL A   1      45.898  26.012  32.648  1.00  0.00    -0.237 OA
ATOM     81  O   UNL A   1      44.654  25.989  34.788  1.00  0.00    -0.237 OA
ATOM     82  O   UNL A   1      43.859  24.638  32.886  1.00  0.00    -0.744 OA
ENDBRANCH  78  79
ENDBRANCH  59  73
BRANCH  60  83
ATOM     83  C   UNL A   1      38.092  32.841  38.770  1.00  0.00    -0.014 A 
ATOM     84  C   UNL A   1      36.967  32.161  39.280  1.00  0.00     0.010 A 
ATOM     85  C   UNL A   1      39.173  33.052  39.648  1.00  0.00     0.010 A 
ATOM     86  C   UNL A   1      36.968  31.625  40.579  1.00  0.00     0.020 A 
ATOM     87  C   UNL A   1      39.178  32.533  40.949  1.00  0.00     0.020 A 
ATOM     88  C   UNL A   1      38.089  31.788  41.396  1.00  0.00     0.054 A 
BRANCH  88  89
ATOM     89  S   UNL A   1      38.190  30.891  42.975  1.00  0.00     0.124 S 
ATOM     90  O   UNL A   1      38.338  29.506  42.538  1.00  0.00    -0.237 OA
ATOM     91  O   UNL A   1      39.367  31.487  43.603  1.00  0.00    -0.237 OA
ATOM     92  O   UNL A   1      36.920  31.206  43.629  1.00  0.00    -0.744 OA
ENDBRANCH  88  89
ENDBRANCH  60  83
BRANCH  72  93
ATOM     93  C   UNL A   1      36.473  32.996  32.705  1.00  0.00    -0.014 A 
ATOM     94  C   UNL A   1      35.156  32.641  32.353  1.00  0.00     0.010 A 
ATOM     95  C   UNL A   1      36.754  34.347  32.975  1.00  0.00     0.010 A 
ATOM     96  C   UNL A   1      34.158  33.622  32.238  1.00  0.00     0.020 A 
ATOM     97  C   UNL A   1      35.762  35.323  32.885  1.00  0.00     0.020 A 
ATOM     98  C   UNL A   1      34.471  34.959  32.503  1.00  0.00     0.054 A 
BRANCH  98  99
ATOM     99  S   UNL A   1      33.176  36.224  32.381  1.00  0.00     0.124 S 
ATOM    100  O   UNL A   1      33.535  36.925  31.151  1.00  0.00    -0.237 OA
ATOM    101  O   UNL A   1      31.951  35.431  32.320  1.00  0.00    -0.237 OA
ATOM    102  O   UNL A   1      33.337  37.005  33.607  1.00  0.00    -0.744 OA
ENDBRANCH  98  99
ENDBRANCH  72  93
ENDBRANCH  46  47
ENDBRANCH  39  41
ENDBRANCH  38  39
ENDBRANCH  37  38
ENDBRANCH  36  37
ENDBRANCH  35  36
ENDBRANCH  34  35
ENDBRANCH   1  34
TORSDOF 26
ENDMDL
MODEL 2
REMARK VINA RESULT:      -7.7      7.162     16.695
REMARK SMILES Cc1nccn1C1(C(=O)OCCOCCOCCOCCOC(=O)c2ccc(-c3c4nc(c(-c5ccc(S(=O)(=O)[O-])cc5)c5ccc([nH]5)c(-c5ccc(S(=O)(=O)[O-])cc5)c5nc(c(-c6ccc(S(=O)(=O)[O-])cc6)c6ccc3[nH]6)C=C5)C=C4)cc2)CCN(C(=O)[C@@H]2C[C@H]2c2ccccc2)CC1
REMARK SMILES IDX 17 1 16 2 15 3 14 4 13 5 12 6 11 7 10 8 8 9 9 10 7 11 85 12
REMARK SMILES IDX 100 13 86 14 99 15 87 16 88 17 89 18 6 19 1 20 2 21 3 22
REMARK SMILES IDX 4 23 5 24 90 25 91 26 92 27 93 28 94 29 98 30 95 31 97 32
REMARK SMILES IDX 96 33 18 34 19 35 20 36 21 37 22 38 23 39 24 40 25 41 26 42
REMARK SMILES IDX 84 43 27 44 83 45 28 46 29 47 30 48 77 49 31 50 82 51 76 52
REMARK SMILES IDX 78 53 32 54 81 55 75 56 74 57 33 59 63 60 44 61 62 62 45 63
REMARK SMILES IDX 48 64 61 65 79 66 46 67 47 68 60 70 80 71 49 72 34 73 35 74
REMARK SMILES IDX 43 75 36 76 42 77 37 78 38 79 39 80 40 81 41 82 64 83 65 84
REMARK SMILES IDX 73 85 66 86 72 87 67 88 68 89 69 90 70 91 71 92 50 93 51 94
REMARK SMILES IDX 59 95 52 96 58 97 53 98 54 99 55 100 56 101 57 102
REMARK H PARENT 78 58 48 69
REMARK Flexibility Score: inf
ROOT
ATOM      1  C   UNL A   1      44.267  25.211  30.052  1.00  0.00     0.188 C 
ENDROOT
BRANCH   1   2
ATOM      2  O   UNL A   1      43.977  25.574  31.402  1.00  0.00    -0.377 OA
BRANCH   2   3
ATOM      3  C   UNL A   1      45.079  25.548  32.290  1.00  0.00     0.188 C 
BRANCH   3   4
ATOM      4  C   UNL A   1      44.929  24.590  33.513  1.00  0.00     0.188 C 
BRANCH   4   5
ATOM      5  O   UNL A   1      46.082  24.046  34.159  1.00  0.00    -0.376 OA
BRANCH   5   6
ATOM      6  C   UNL A   1      45.913  23.120  35.230  1.00  0.00     0.202 C 
BRANCH   6   7
ATOM      7  C   UNL A   1      46.733  21.826  35.205  1.00  0.00     0.261 C 
BRANCH   7   8
ATOM      8  O   UNL A   1      47.643  21.806  36.309  1.00  0.00    -0.461 OA
BRANCH   8   9
ATOM      9  C   UNL A   1      47.813  20.676  37.047  1.00  0.00     0.332 C 
ATOM     10  O   UNL A   1      47.402  19.576  36.699  1.00  0.00    -0.249 OA
BRANCH   9  11
ATOM     11  C   UNL A   1      48.528  21.055  38.424  1.00  0.00     0.146 C 
ATOM     12  C   UNL A   1      49.124  21.055  39.883  1.00  0.00     0.062 C 
ATOM     13  C   UNL A   1      47.310  20.023  38.969  1.00  0.00     0.062 C 
ATOM     14  C   UNL A   1      49.629  19.709  40.428  1.00  0.00     0.122 C 
ATOM     15  C   UNL A   1      47.719  18.656  39.461  1.00  0.00     0.122 C 
ATOM     16  N   UNL A   1      48.497  18.834  40.652  1.00  0.00    -0.342 N 
ATOM     17  C   UNL A   1      48.204  18.456  41.960  1.00  0.00     0.226 C 
ATOM     18  O   UNL A   1      49.033  18.647  42.849  1.00  0.00    -0.275 OA
BRANCH  11  19
ATOM     19  N   UNL A   1      49.780  21.389  37.769  1.00  0.00    -0.318 N 
ATOM     20  C   UNL A   1      50.858  19.195  37.032  1.00  0.00     0.087 C 
ATOM     21  C   UNL A   1      50.805  20.663  37.199  1.00  0.00     0.106 A 
ATOM     22  N   UNL A   1      51.796  21.452  36.821  1.00  0.00    -0.242 NA
ATOM     23  C   UNL A   1      51.447  22.721  37.161  1.00  0.00     0.131 A 
ATOM     24  C   UNL A   1      50.217  22.716  37.755  1.00  0.00     0.108 A 
ENDBRANCH  11  19
BRANCH  17  25
ATOM     25  C   UNL A   1      46.904  17.889  42.422  1.00  0.00     0.087 C 
ATOM     26  C   UNL A   1      46.485  16.836  43.396  1.00  0.00     0.023 C 
ATOM     27  C   UNL A   1      46.499  16.500  41.929  1.00  0.00     0.032 C 
BRANCH  27  28
ATOM     28  C   UNL A   1      45.285  16.439  41.030  1.00  0.00    -0.044 A 
ATOM     29  C   UNL A   1      45.348  16.530  39.632  1.00  0.00     0.004 A 
ATOM     30  C   UNL A   1      44.009  16.304  41.611  1.00  0.00     0.004 A 
ATOM     31  C   UNL A   1      44.188  16.482  38.849  1.00  0.00     0.000 A 
ATOM     32  C   UNL A   1      42.849  16.264  40.837  1.00  0.00     0.000 A 
ATOM     33  C   UNL A   1      42.940  16.353  39.452  1.00  0.00     0.000 A 
ENDBRANCH  27  28
ENDBRANCH  17  25
ENDBRANCH   9  11
ENDBRANCH   8   9
ENDBRANCH   7   8
ENDBRANCH   6   7
ENDBRANCH   5   6
ENDBRANCH   4   5
ENDBRANCH   3   4
ENDBRANCH   2   3
ENDBRANCH   1   2
BRANCH   1  34
ATOM     34  C   UNL A   1      43.925  23.771  29.589  1.00  0.00     0.188 C 
BRANCH  34  35
ATOM     35  O   UNL A   1      42.683  23.622  28.913  1.00  0.00    -0.376 OA
BRANCH  35  36
ATOM     36  C   UNL A   1      42.203  22.399  28.381  1.00  0.00     0.202 C 
BRANCH  36  37
ATOM     37  C   UNL A   1      42.019  22.267  26.873  1.00  0.00     0.261 C 
BRANCH  37  38
ATOM     38  O   UNL A   1      41.545  23.446  26.257  1.00  0.00    -0.460 OA
BRANCH  38  39
ATOM     39  C   UNL A   1      42.405  23.998  25.397  1.00  0.00     0.338 C 
ATOM     40  O   UNL A   1      43.138  23.411  24.588  1.00  0.00    -0.246 OA
BRANCH  39  41
ATOM     41  C   UNL A   1      42.486  25.418  25.672  1.00  0.00     0.060 A 
ATOM     42  C   UNL A   1      43.678  25.861  26.241  1.00  0.00     0.016 A 
ATOM     43  C   UNL A   1      41.270  26.110  25.791  1.00  0.00     0.016 A 
ATOM     44  C   UNL A   1      43.593  26.861  27.173  1.00  0.00     0.010 A 
ATOM     45  C   UNL A   1      41.182  27.075  26.753  1.00  0.00     0.010 A 
ATOM     46  C   UNL A   1      42.327  27.371  27.485  1.00  0.00    -0.014 A 
BRANCH  46  47
ATOM     47  C   UNL A   1      42.237  28.379  28.506  1.00  0.00     0.031 A 
ATOM     48  C   UNL A   1      43.333  29.355  28.375  1.00  0.00     0.074 A 
ATOM     49  C   UNL A   1      41.219  28.440  29.380  1.00  0.00     0.049 A 
ATOM     50  N   UNL A   1      44.382  29.428  29.120  1.00  0.00    -0.248 NA
ATOM     51  C   UNL A   1      43.414  30.151  27.137  1.00  0.00     0.031 C 
ATOM     52  C   UNL A   1      39.986  27.650  29.401  1.00  0.00     0.029 A 
ATOM     53  N   UNL A   1      41.026  29.330  30.385  1.00  0.00    -0.354 N 
ATOM     54  C   UNL A   1      45.120  30.477  28.596  1.00  0.00     0.074 A 
ATOM     55  C   UNL A   1      44.626  30.690  27.262  1.00  0.00     0.031 C 
ATOM     56  C   UNL A   1      39.084  28.264  30.202  1.00  0.00     0.029 A 
ATOM     57  C   UNL A   1      39.712  29.415  30.831  1.00  0.00     0.049 A 
ATOM     58  H   UNL A   1      41.755  29.871  30.767  1.00  0.00     0.167 HD
ATOM     59  C   UNL A   1      45.831  31.295  29.416  1.00  0.00     0.031 A 
ATOM     60  C   UNL A   1      39.185  30.415  31.586  1.00  0.00     0.031 A 
ATOM     61  C   UNL A   1      45.985  30.716  30.728  1.00  0.00     0.049 A 
ATOM     62  C   UNL A   1      40.326  31.115  32.237  1.00  0.00     0.074 A 
ATOM     63  C   UNL A   1      46.522  29.537  31.206  1.00  0.00     0.029 A 
ATOM     64  N   UNL A   1      45.154  31.196  31.716  1.00  0.00    -0.354 N 
ATOM     65  N   UNL A   1      41.064  30.564  33.159  1.00  0.00    -0.248 NA
ATOM     66  C   UNL A   1      40.948  32.231  31.534  1.00  0.00     0.031 C 
ATOM     67  C   UNL A   1      45.657  29.139  32.264  1.00  0.00     0.029 A 
ATOM     68  C   UNL A   1      44.689  30.129  32.439  1.00  0.00     0.049 A 
ATOM     69  H   UNL A   1      44.933  32.141  31.876  1.00  0.00     0.167 HD
ATOM     70  C   UNL A   1      42.363  30.933  32.838  1.00  0.00     0.074 A 
ATOM     71  C   UNL A   1      42.220  32.045  31.899  1.00  0.00     0.031 C 
ATOM     72  C   UNL A   1      43.414  30.110  33.126  1.00  0.00     0.031 A 
BRANCH  59  73
ATOM     73  C   UNL A   1      45.957  32.777  29.175  1.00  0.00    -0.014 A 
ATOM     74  C   UNL A   1      44.947  33.619  29.675  1.00  0.00     0.010 A 
ATOM     75  C   UNL A   1      46.862  33.340  28.250  1.00  0.00     0.010 A 
ATOM     76  C   UNL A   1      44.804  34.931  29.212  1.00  0.00     0.020 A 
ATOM     77  C   UNL A   1      46.757  34.659  27.817  1.00  0.00     0.020 A 
ATOM     78  C   UNL A   1      45.707  35.437  28.277  1.00  0.00     0.054 A 
BRANCH  78  79
ATOM     79  S   UNL A   1      45.466  37.103  27.626  1.00  0.00     0.124 S 
ATOM     80  O   UNL A   1      46.359  37.105  26.472  1.00  0.00    -0.237 OA
ATOM     81  O   UNL A   1      44.036  37.110  27.327  1.00  0.00    -0.237 OA
ATOM     82  O   UNL A   1      45.871  37.964  28.735  1.00  0.00    -0.744 OA
ENDBRANCH  78  79
ENDBRANCH  59  73
BRANCH  60  83
ATOM     83  C   UNL A   1      37.817  30.998  31.540  1.00  0.00    -0.014 A 
ATOM     84  C   UNL A   1      37.021  31.051  32.701  1.00  0.00     0.010 A 
ATOM     85  C   UNL A   1      37.401  31.765  30.434  1.00  0.00     0.010 A 
ATOM     86  C   UNL A   1      35.915  31.915  32.787  1.00  0.00     0.020 A 
ATOM     87  C   UNL A   1      36.292  32.618  30.506  1.00  0.00     0.020 A 
ATOM     88  C   UNL A   1      35.576  32.717  31.696  1.00  0.00     0.054 A 
BRANCH  88  89
ATOM     89  S   UNL A   1      34.307  34.006  31.887  1.00  0.00     0.124 S 
ATOM     90  O   UNL A   1      33.398  33.407  32.860  1.00  0.00    -0.237 OA
ATOM     91  O   UNL A   1      35.083  35.148  32.363  1.00  0.00    -0.237 OA
ATOM     92  O   UNL A   1      33.764  34.153  30.536  1.00  0.00    -0.744 OA
ENDBRANCH  88  89
ENDBRANCH  60  83
BRANCH  72  93
ATOM     93  C   UNL A   1      43.186  28.953  34.073  1.00  0.00    -0.014 A 
ATOM     94  C   UNL A   1      43.559  28.954  35.432  1.00  0.00     0.010 A 
ATOM     95  C   UNL A   1      42.425  27.876  33.587  1.00  0.00     0.010 A 
ATOM     96  C   UNL A   1      43.209  27.883  36.269  1.00  0.00     0.020 A 
ATOM     97  C   UNL A   1      42.054  26.820  34.421  1.00  0.00     0.020 A 
ATOM     98  C   UNL A   1      42.459  26.820  35.755  1.00  0.00     0.054 A 
BRANCH  98  99
ATOM     99  S   UNL A   1      41.983  25.449  36.842  1.00  0.00     0.124 S 
ATOM    100  O   UNL A   1      41.807  24.347  35.901  1.00  0.00    -0.237 OA
ATOM    101  O   UNL A   1      43.129  25.334  37.742  1.00  0.00    -0.237 OA
ATOM    102  O   UNL A   1      40.753  25.921  37.479  1.00  0.00    -0.744 OA
ENDBRANCH  98  99
ENDBRANCH  72  93
ENDBRANCH  46  47
ENDBRANCH  39  41
ENDBRANCH  38  39
ENDBRANCH  37  38
ENDBRANCH  36  37
ENDBRANCH  35  36
ENDBRANCH  34  35
ENDBRANCH   1  34
TORSDOF 26
ENDMDL
MODEL 3
REMARK VINA RESULT:      -7.6      5.633     14.963
REMARK SMILES Cc1nccn1C1(C(=O)OCCOCCOCCOCCOC(=O)c2ccc(-c3c4nc(c(-c5ccc(S(=O)(=O)[O-])cc5)c5ccc([nH]5)c(-c5ccc(S(=O)(=O)[O-])cc5)c5nc(c(-c6ccc(S(=O)(=O)[O-])cc6)c6ccc3[nH]6)C=C5)C=C4)cc2)CCN(C(=O)[C@@H]2C[C@H]2c2ccccc2)CC1
REMARK SMILES IDX 17 1 16 2 15 3 14 4 13 5 12 6 11 7 10 8 8 9 9 10 7 11 85 12
REMARK SMILES IDX 100 13 86 14 99 15 87 16 88 17 89 18 6 19 1 20 2 21 3 22
REMARK SMILES IDX 4 23 5 24 90 25 91 26 92 27 93 28 94 29 98 30 95 31 97 32
REMARK SMILES IDX 96 33 18 34 19 35 20 36 21 37 22 38 23 39 24 40 25 41 26 42
REMARK SMILES IDX 84 43 27 44 83 45 28 46 29 47 30 48 77 49 31 50 82 51 76 52
REMARK SMILES IDX 78 53 32 54 81 55 75 56 74 57 33 59 63 60 44 61 62 62 45 63
REMARK SMILES IDX 48 64 61 65 79 66 46 67 47 68 60 70 80 71 49 72 34 73 35 74
REMARK SMILES IDX 43 75 36 76 42 77 37 78 38 79 39 80 40 81 41 82 64 83 65 84
REMARK SMILES IDX 73 85 66 86 72 87 67 88 68 89 69 90 70 91 71 92 50 93 51 94
REMARK SMILES IDX 59 95 52 96 58 97 53 98 54 99 55 100 56 101 57 102
REMARK H PARENT 78 58 48 69
REMARK Flexibility Score: inf
ROOT
ATOM      1  C   UNL A   1      36.192  30.170  30.331  1.00  0.00     0.188 C 
ENDROOT
BRANCH   1   2
ATOM      2  O   UNL A   1      36.964  29.125  30.921  1.00  0.00    -0.377 OA
BRANCH   2   3
ATOM      3  C   UNL A   1      38.162  28.794  30.241  1.00  0.00     0.188 C 
BRANCH   3   4
ATOM      4  C   UNL A   1      39.478  29.057  31.039  1.00  0.00     0.188 C 
BRANCH   4   5
ATOM      5  O   UNL A   1      40.753  28.905  30.413  1.00  0.00    -0.376 OA
BRANCH   5   6
ATOM      6  C   UNL A   1      41.927  28.862  31.219  1.00  0.00     0.202 C 
BRANCH   6   7
ATOM      7  C   UNL A   1      42.638  27.515  31.394  1.00  0.00     0.261 C 
BRANCH   7   8
ATOM      8  O   UNL A   1      43.656  27.370  30.399  1.00  0.00    -0.461 OA
BRANCH   8   9
ATOM      9  C   UNL A   1      43.335  27.027  29.124  1.00  0.00     0.332 C 
ATOM     10  O   UNL A   1      42.216  26.663  28.785  1.00  0.00    -0.249 OA
BRANCH   9  11
ATOM     11  C   UNL A   1      44.649  27.095  28.218  1.00  0.00     0.146 C 
ATOM     12  C   UNL A   1      45.758  26.871  27.121  1.00  0.00     0.062 C 
ATOM     13  C   UNL A   1      44.265  25.457  28.102  1.00  0.00     0.062 C 
ATOM     14  C   UNL A   1      45.280  26.427  25.728  1.00  0.00     0.122 C 
ATOM     15  C   UNL A   1      43.728  24.954  26.784  1.00  0.00     0.122 C 
ATOM     16  N   UNL A   1      44.774  25.072  25.811  1.00  0.00    -0.342 N 
ATOM     17  C   UNL A   1      45.455  24.071  25.125  1.00  0.00     0.226 C 
ATOM     18  O   UNL A   1      46.293  24.375  24.276  1.00  0.00    -0.275 OA
BRANCH  11  19
ATOM     19  N   UNL A   1      44.482  28.512  27.949  1.00  0.00    -0.318 N 
ATOM     20  C   UNL A   1      42.572  28.744  26.270  1.00  0.00     0.087 C 
ATOM     21  C   UNL A   1      43.660  29.257  27.129  1.00  0.00     0.106 A 
ATOM     22  N   UNL A   1      43.979  30.540  27.173  1.00  0.00    -0.242 NA
ATOM     23  C   UNL A   1      45.040  30.658  28.014  1.00  0.00     0.131 A 
ATOM     24  C   UNL A   1      45.381  29.428  28.500  1.00  0.00     0.108 A 
ENDBRANCH  11  19
BRANCH  17  25
ATOM     25  C   UNL A   1      45.320  22.607  25.379  1.00  0.00     0.087 C 
ATOM     26  C   UNL A   1      45.590  21.359  24.603  1.00  0.00     0.023 C 
ATOM     27  C   UNL A   1      44.172  21.853  24.708  1.00  0.00     0.032 C 
BRANCH  27  28
ATOM     28  C   UNL A   1      43.112  21.294  25.630  1.00  0.00    -0.044 A 
ATOM     29  C   UNL A   1      43.225  20.059  26.284  1.00  0.00     0.004 A 
ATOM     30  C   UNL A   1      41.931  22.030  25.839  1.00  0.00     0.004 A 
ATOM     31  C   UNL A   1      42.204  19.584  27.116  1.00  0.00     0.000 A 
ATOM     32  C   UNL A   1      40.906  21.558  26.661  1.00  0.00     0.000 A 
ATOM     33  C   UNL A   1      41.044  20.332  27.301  1.00  0.00     0.000 A 
ENDBRANCH  27  28
ENDBRANCH  17  25
ENDBRANCH   9  11
ENDBRANCH   8   9
ENDBRANCH   7   8
ENDBRANCH   6   7
ENDBRANCH   5   6
ENDBRANCH   4   5
ENDBRANCH   3   4
ENDBRANCH   2   3
ENDBRANCH   1   2
BRANCH   1  34
ATOM     34  C   UNL A   1      36.138  31.541  31.054  1.00  0.00     0.188 C 
BRANCH  34  35
ATOM     35  O   UNL A   1      35.761  32.648  30.245  1.00  0.00    -0.376 OA
BRANCH  35  36
ATOM     36  C   UNL A   1      36.485  33.093  29.112  1.00  0.00     0.202 C 
BRANCH  36  37
ATOM     37  C   UNL A   1      38.008  33.139  29.174  1.00  0.00     0.261 C 
BRANCH  37  38
ATOM     38  O   UNL A   1      38.529  34.448  29.261  1.00  0.00    -0.460 OA
BRANCH  38  39
ATOM     39  C   UNL A   1      39.516  34.587  30.151  1.00  0.00     0.338 C 
ATOM     40  O   UNL A   1      39.410  34.634  31.386  1.00  0.00    -0.246 OA
BRANCH  39  41
ATOM     41  C   UNL A   1      40.747  34.856  29.438  1.00  0.00     0.060 A 
ATOM     42  C   UNL A   1      41.870  35.092  30.229  1.00  0.00     0.016 A 
ATOM     43  C   UNL A   1      40.626  35.310  28.115  1.00  0.00     0.016 A 
ATOM     44  C   UNL A   1      42.763  36.030  29.784  1.00  0.00     0.010 A 
ATOM     45  C   UNL A   1      41.493  36.277  27.695  1.00  0.00     0.010 A 
ATOM     46  C   UNL A   1      42.494  36.679  28.573  1.00  0.00    -0.014 A 
BRANCH  46  47
ATOM     47  C   UNL A   1      43.404  37.706  28.139  1.00  0.00     0.031 A 
ATOM     48  C   UNL A   1      44.779  37.184  28.059  1.00  0.00     0.074 A 
ATOM     49  C   UNL A   1      42.996  38.932  27.773  1.00  0.00     0.049 A 
ATOM     50  N   UNL A   1      45.732  37.414  28.895  1.00  0.00    -0.248 NA
ATOM     51  C   UNL A   1      45.054  36.084  27.116  1.00  0.00     0.031 C 
ATOM     52  C   UNL A   1      41.627  39.424  27.601  1.00  0.00     0.029 A 
ATOM     53  N   UNL A   1      43.751  39.979  27.357  1.00  0.00    -0.354 N 
ATOM     54  C   UNL A   1      46.813  36.696  28.411  1.00  0.00     0.074 A 
ATOM     55  C   UNL A   1      46.274  35.716  27.506  1.00  0.00     0.031 C 
ATOM     56  C   UNL A   1      41.660  40.571  26.883  1.00  0.00     0.029 A 
ATOM     57  C   UNL A   1      43.047  40.947  26.650  1.00  0.00     0.049 A 
ATOM     58  H   UNL A   1      44.715  40.049  27.540  1.00  0.00     0.167 HD
ATOM     59  C   UNL A   1      48.075  37.186  28.532  1.00  0.00     0.031 A 
ATOM     60  C   UNL A   1      43.586  41.918  25.867  1.00  0.00     0.031 A 
ATOM     61  C   UNL A   1      48.128  38.266  29.486  1.00  0.00     0.049 A 
ATOM     62  C   UNL A   1      45.009  42.065  26.276  1.00  0.00     0.074 A 
ATOM     63  C   UNL A   1      47.800  38.392  30.822  1.00  0.00     0.029 A 
ATOM     64  N   UNL A   1      48.166  39.543  28.972  1.00  0.00    -0.354 N 
ATOM     65  N   UNL A   1      45.369  42.547  27.432  1.00  0.00    -0.248 NA
ATOM     66  C   UNL A   1      46.011  41.239  25.613  1.00  0.00     0.031 C 
ATOM     67  C   UNL A   1      47.226  39.689  30.942  1.00  0.00     0.029 A 
ATOM     68  C   UNL A   1      47.308  40.324  29.701  1.00  0.00     0.049 A 
ATOM     69  H   UNL A   1      48.714  39.844  28.212  1.00  0.00     0.167 HD
ATOM     70  C   UNL A   1      46.410  41.728  27.847  1.00  0.00     0.074 A 
ATOM     71  C   UNL A   1      46.833  41.014  26.643  1.00  0.00     0.031 C 
ATOM     72  C   UNL A   1      46.623  41.485  29.174  1.00  0.00     0.031 A 
BRANCH  59  73
ATOM     73  C   UNL A   1      49.121  37.012  27.462  1.00  0.00    -0.014 A 
ATOM     74  C   UNL A   1      50.265  36.252  27.769  1.00  0.00     0.010 A 
ATOM     75  C   UNL A   1      49.163  37.785  26.282  1.00  0.00     0.010 A 
ATOM     76  C   UNL A   1      51.416  36.327  26.979  1.00  0.00     0.020 A 
ATOM     77  C   UNL A   1      50.288  37.830  25.462  1.00  0.00     0.020 A 
ATOM     78  C   UNL A   1      51.420  37.125  25.836  1.00  0.00     0.054 A 
BRANCH  78  79
ATOM     79  S   UNL A   1      52.936  37.276  24.868  1.00  0.00     0.124 S 
ATOM     80  O   UNL A   1      52.530  36.707  23.586  1.00  0.00    -0.237 OA
ATOM     81  O   UNL A   1      53.165  38.718  24.882  1.00  0.00    -0.237 OA
ATOM     82  O   UNL A   1      53.905  36.488  25.626  1.00  0.00    -0.744 OA
ENDBRANCH  78  79
ENDBRANCH  59  73
BRANCH  60  83
ATOM     83  C   UNL A   1      43.059  42.497  24.602  1.00  0.00    -0.014 A 
ATOM     84  C   UNL A   1      43.615  43.677  24.067  1.00  0.00     0.010 A 
ATOM     85  C   UNL A   1      42.214  41.743  23.764  1.00  0.00     0.010 A 
ATOM     86  C   UNL A   1      43.416  44.030  22.721  1.00  0.00     0.020 A 
ATOM     87  C   UNL A   1      41.999  42.095  22.426  1.00  0.00     0.020 A 
ATOM     88  C   UNL A   1      42.633  43.218  21.899  1.00  0.00     0.054 A 
BRANCH  88  89
ATOM     89  S   UNL A   1      42.576  43.536  20.110  1.00  0.00     0.124 S 
ATOM     90  O   UNL A   1      41.312  44.250  19.960  1.00  0.00    -0.237 OA
ATOM     91  O   UNL A   1      43.782  44.330  19.890  1.00  0.00    -0.237 OA
ATOM     92  O   UNL A   1      42.608  42.196  19.523  1.00  0.00    -0.744 OA
ENDBRANCH  88  89
ENDBRANCH  60  83
BRANCH  72  93
ATOM     93  C   UNL A   1      45.922  42.362  30.188  1.00  0.00    -0.014 A 
ATOM     94  C   UNL A   1      44.566  42.737  30.110  1.00  0.00     0.010 A 
ATOM     95  C   UNL A   1      46.644  42.694  31.348  1.00  0.00     0.010 A 
ATOM     96  C   UNL A   1      43.963  43.460  31.152  1.00  0.00     0.020 A 
ATOM     97  C   UNL A   1      46.044  43.391  32.397  1.00  0.00     0.020 A 
ATOM     98  C   UNL A   1      44.711  43.784  32.289  1.00  0.00     0.054 A 
BRANCH  98  99
ATOM     99  S   UNL A   1      43.926  44.694  33.649  1.00  0.00     0.124 S 
ATOM    100  O   UNL A   1      42.868  45.433  32.965  1.00  0.00    -0.237 OA
ATOM    101  O   UNL A   1      43.477  43.626  34.538  1.00  0.00    -0.237 OA
ATOM    102  O   UNL A   1      45.009  45.519  34.185  1.00  0.00    -0.744 OA
ENDBRANCH  98  99
ENDBRANCH  72  93
ENDBRANCH  46  47
ENDBRANCH  39  41
ENDBRANCH  38  39
ENDBRANCH  37  38
ENDBRANCH  36  37
ENDBRANCH  35  36
ENDBRANCH  34  35
ENDBRANCH   1  34
TORSDOF 26
ENDMDL
