MODEL 1
REMARK VINA RESULT:      -9.6      0.000      0.000
REMARK SMILES Cc1cc2c(c(C)c1Cl)C=C(C(=O)OCCOCCOCCOCCOC(=O)c1ccc(-c3c4nc(c(-c5ccc(S(=O)(=O)[O-])cc5)c5ccc([nH]5)c(-c5ccc(S(=O)(=O)[O-])cc5)c5nc(c(-c6ccc(S(=O)(=O)[O-])cc6)c6ccc3[nH]6)C=C5)C=C4)cc1)[C@@H](C(F)(F)F)O2
REMARK SMILES IDX 21 1 20 2 19 3 18 4 17 5 16 6 15 7 14 8 12 9 13 10 11 11
REMARK SMILES IDX 1 12 2 13 3 14 8 15 4 16 6 17 9 18 5 19 94 20 7 21 10 22
REMARK SMILES IDX 89 23 90 24 91 25 92 26 93 27 22 28 23 29 24 30 25 31 26 32
REMARK SMILES IDX 27 33 28 34 29 35 30 36 88 37 31 38 87 39 32 40 33 41 34 42
REMARK SMILES IDX 81 43 35 44 86 45 80 46 82 47 36 48 85 49 79 50 78 51 37 53
REMARK SMILES IDX 67 54 48 55 66 56 49 57 52 58 65 59 83 60 50 61 51 62 64 64
REMARK SMILES IDX 84 65 53 66 38 67 39 68 47 69 40 70 46 71 41 72 42 73 43 74
REMARK SMILES IDX 44 75 45 76 68 77 69 78 77 79 70 80 76 81 71 82 72 83 73 84
REMARK SMILES IDX 74 85 75 86 54 87 55 88 63 89 56 90 62 91 57 92 58 93 59 94
REMARK SMILES IDX 60 95 61 96
REMARK H PARENT 82 52 52 63
REMARK Flexibility Score: inf
ROOT
ATOM      1  C   UNL A   1      31.342  30.798  25.068  1.00  0.00     0.188 C 
ENDROOT
BRANCH   1   2
ATOM      2  O   UNL A   1      30.365  30.042  24.354  1.00  0.00    -0.377 OA
BRANCH   2   3
ATOM      3  C   UNL A   1      30.720  28.733  23.946  1.00  0.00     0.188 C 
BRANCH   3   4
ATOM      4  C   UNL A   1      30.196  28.371  22.543  1.00  0.00     0.188 C 
BRANCH   4   5
ATOM      5  O   UNL A   1      30.695  27.181  21.965  1.00  0.00    -0.376 OA
BRANCH   5   6
ATOM      6  C   UNL A   1      31.080  26.045  22.722  1.00  0.00     0.202 C 
BRANCH   6   7
ATOM      7  C   UNL A   1      30.156  25.050  23.455  1.00  0.00     0.261 C 
BRANCH   7   8
ATOM      8  O   UNL A   1      30.624  23.720  23.649  1.00  0.00    -0.460 OA
BRANCH   8   9
ATOM      9  C   UNL A   1      31.032  23.392  24.887  1.00  0.00     0.338 C 
ATOM     10  O   UNL A   1      30.381  23.440  25.915  1.00  0.00    -0.246 OA
BRANCH   9  11
ATOM     11  C   UNL A   1      32.365  22.764  24.760  1.00  0.00     0.087 C 
ATOM     12  C   UNL A   1      37.603  19.013  25.011  1.00  0.00     0.046 C 
ATOM     13  C   UNL A   1      36.215  19.548  24.791  1.00  0.00    -0.028 A 
ATOM     14  C   UNL A   1      36.080  20.940  24.700  1.00  0.00     0.052 A 
ATOM     15  C   UNL A   1      35.062  18.746  24.675  1.00  0.00     0.047 A 
ATOM     16  C   UNL A   1      34.826  21.536  24.611  1.00  0.00     0.128 A 
ATOM     17  C   UNL A   1      33.779  19.333  24.557  1.00  0.00    -0.021 A 
ATOM     18  Cl  UNL A   1      35.231  17.017  24.705  1.00  0.00    -0.084 Cl
ATOM     19  C   UNL A   1      33.673  20.747  24.596  1.00  0.00     0.022 A 
ATOM     20  O   UNL A   1      34.837  22.899  24.562  1.00  0.00    -0.475 OA
ATOM     21  C   UNL A   1      32.531  18.499  24.373  1.00  0.00     0.047 C 
ATOM     22  C   UNL A   1      32.386  21.427  24.698  1.00  0.00     0.027 C 
ATOM     23  C   UNL A   1      33.585  23.632  24.630  1.00  0.00     0.316 C 
BRANCH  23  24
ATOM     24  C   UNL A   1      33.694  24.654  25.769  1.00  0.00     0.430 C 
ATOM     25  F   UNL A   1      34.950  25.153  25.863  1.00  0.00    -0.167 F 
ATOM     26  F   UNL A   1      32.864  25.705  25.588  1.00  0.00    -0.167 F 
ATOM     27  F   UNL A   1      33.389  24.097  26.965  1.00  0.00    -0.167 F 
ENDBRANCH  23  24
ENDBRANCH   9  11
ENDBRANCH   8   9
ENDBRANCH   7   8
ENDBRANCH   6   7
ENDBRANCH   5   6
ENDBRANCH   4   5
ENDBRANCH   3   4
ENDBRANCH   2   3
ENDBRANCH   1   2
BRANCH   1  28
ATOM     28  C   UNL A   1      31.863  30.317  26.444  1.00  0.00     0.188 C 
BRANCH  28  29
ATOM     29  O   UNL A   1      32.494  31.331  27.217  1.00  0.00    -0.376 OA
BRANCH  29  30
ATOM     30  C   UNL A   1      32.094  32.678  27.038  1.00  0.00     0.202 C 
BRANCH  30  31
ATOM     31  C   UNL A   1      33.013  33.753  27.634  1.00  0.00     0.261 C 
BRANCH  31  32
ATOM     32  O   UNL A   1      32.449  34.545  28.687  1.00  0.00    -0.460 OA
BRANCH  32  33
ATOM     33  C   UNL A   1      33.283  35.374  29.351  1.00  0.00     0.338 C 
ATOM     34  O   UNL A   1      33.111  36.559  29.580  1.00  0.00    -0.246 OA
BRANCH  33  35
ATOM     35  C   UNL A   1      34.365  34.550  29.923  1.00  0.00     0.060 A 
ATOM     36  C   UNL A   1      34.095  33.744  31.037  1.00  0.00     0.016 A 
ATOM     37  C   UNL A   1      35.639  34.571  29.351  1.00  0.00     0.016 A 
ATOM     38  C   UNL A   1      35.115  32.983  31.607  1.00  0.00     0.010 A 
ATOM     39  C   UNL A   1      36.663  33.826  29.937  1.00  0.00     0.010 A 
ATOM     40  C   UNL A   1      36.414  33.057  31.087  1.00  0.00    -0.014 A 
BRANCH  40  41
ATOM     41  C   UNL A   1      37.553  32.497  31.850  1.00  0.00     0.031 A 
ATOM     42  C   UNL A   1      38.216  31.253  31.325  1.00  0.00     0.074 A 
ATOM     43  C   UNL A   1      37.995  33.081  32.977  1.00  0.00     0.049 A 
ATOM     44  N   UNL A   1      39.175  30.540  31.852  1.00  0.00    -0.248 NA
ATOM     45  C   UNL A   1      37.729  30.747  30.029  1.00  0.00     0.031 C 
ATOM     46  C   UNL A   1      37.478  34.324  33.547  1.00  0.00     0.029 A 
ATOM     47  N   UNL A   1      38.986  32.698  33.846  1.00  0.00    -0.354 N 
ATOM     48  C   UNL A   1      39.406  29.502  30.956  1.00  0.00     0.074 A 
ATOM     49  C   UNL A   1      38.466  29.658  29.869  1.00  0.00     0.031 C 
ATOM     50  C   UNL A   1      38.154  34.598  34.677  1.00  0.00     0.029 A 
ATOM     51  C   UNL A   1      39.122  33.532  34.930  1.00  0.00     0.049 A 
ATOM     52  H   UNL A   1      39.546  31.900  33.706  1.00  0.00     0.167 HD
ATOM     53  C   UNL A   1      40.324  28.510  31.031  1.00  0.00     0.031 A 
ATOM     54  C   UNL A   1      39.921  33.432  36.011  1.00  0.00     0.031 A 
ATOM     55  C   UNL A   1      41.240  28.346  32.128  1.00  0.00     0.049 A 
ATOM     56  C   UNL A   1      40.864  32.262  36.123  1.00  0.00     0.074 A 
ATOM     57  C   UNL A   1      42.200  27.367  32.307  1.00  0.00     0.029 A 
ATOM     58  N   UNL A   1      41.309  29.181  33.234  1.00  0.00    -0.354 N 
ATOM     59  N   UNL A   1      41.063  31.278  35.278  1.00  0.00    -0.248 NA
ATOM     60  C   UNL A   1      41.697  32.193  37.333  1.00  0.00     0.031 C 
ATOM     61  C   UNL A   1      42.807  27.573  33.548  1.00  0.00     0.029 A 
ATOM     62  C   UNL A   1      42.281  28.727  34.109  1.00  0.00     0.049 A 
ATOM     63  H   UNL A   1      40.749  29.979  33.375  1.00  0.00     0.167 HD
ATOM     64  C   UNL A   1      42.071  30.496  35.835  1.00  0.00     0.074 A 
ATOM     65  C   UNL A   1      42.443  31.125  37.086  1.00  0.00     0.031 C 
ATOM     66  C   UNL A   1      42.642  29.364  35.350  1.00  0.00     0.031 A 
BRANCH  53  67
ATOM     67  C   UNL A   1      40.363  27.507  29.909  1.00  0.00    -0.014 A 
ATOM     68  C   UNL A   1      41.482  27.406  29.062  1.00  0.00     0.010 A 
ATOM     69  C   UNL A   1      39.290  26.614  29.733  1.00  0.00     0.010 A 
ATOM     70  C   UNL A   1      41.515  26.447  28.045  1.00  0.00     0.020 A 
ATOM     71  C   UNL A   1      39.332  25.636  28.737  1.00  0.00     0.020 A 
ATOM     72  C   UNL A   1      40.440  25.566  27.892  1.00  0.00     0.054 A 
BRANCH  72  73
ATOM     73  S   UNL A   1      40.532  24.307  26.589  1.00  0.00     0.124 S 
ATOM     74  O   UNL A   1      39.222  24.433  25.956  1.00  0.00    -0.237 OA
ATOM     75  O   UNL A   1      41.663  24.763  25.786  1.00  0.00    -0.237 OA
ATOM     76  O   UNL A   1      40.750  23.063  27.322  1.00  0.00    -0.744 OA
ENDBRANCH  72  73
ENDBRANCH  53  67
BRANCH  54  77
ATOM     77  C   UNL A   1      39.863  34.473  37.074  1.00  0.00    -0.014 A 
ATOM     78  C   UNL A   1      40.648  35.636  36.979  1.00  0.00     0.010 A 
ATOM     79  C   UNL A   1      39.009  34.317  38.183  1.00  0.00     0.010 A 
ATOM     80  C   UNL A   1      40.585  36.618  37.973  1.00  0.00     0.020 A 
ATOM     81  C   UNL A   1      38.921  35.310  39.163  1.00  0.00     0.020 A 
ATOM     82  C   UNL A   1      39.715  36.452  39.054  1.00  0.00     0.054 A 
BRANCH  82  83
ATOM     83  S   UNL A   1      39.605  37.773  40.294  1.00  0.00     0.124 S 
ATOM     84  O   UNL A   1      38.663  38.697  39.671  1.00  0.00    -0.237 OA
ATOM     85  O   UNL A   1      39.110  37.057  41.467  1.00  0.00    -0.237 OA
ATOM     86  O   UNL A   1      40.980  38.257  40.401  1.00  0.00    -0.744 OA
ENDBRANCH  82  83
ENDBRANCH  54  77
BRANCH  66  87
ATOM     87  C   UNL A   1      43.770  28.751  36.142  1.00  0.00    -0.014 A 
ATOM     88  C   UNL A   1      43.552  27.681  37.027  1.00  0.00     0.010 A 
ATOM     89  C   UNL A   1      45.083  29.216  35.940  1.00  0.00     0.010 A 
ATOM     90  C   UNL A   1      44.623  27.112  37.722  1.00  0.00     0.020 A 
ATOM     91  C   UNL A   1      46.160  28.627  36.606  1.00  0.00     0.020 A 
ATOM     92  C   UNL A   1      45.921  27.587  37.506  1.00  0.00     0.054 A 
BRANCH  92  93
ATOM     93  S   UNL A   1      47.294  26.805  38.395  1.00  0.00     0.124 S 
ATOM     94  O   UNL A   1      48.062  26.209  37.304  1.00  0.00    -0.237 OA
ATOM     95  O   UNL A   1      47.927  27.939  39.064  1.00  0.00    -0.237 OA
ATOM     96  O   UNL A   1      46.636  25.851  39.286  1.00  0.00    -0.744 OA
ENDBRANCH  92  93
ENDBRANCH  66  87
ENDBRANCH  40  41
ENDBRANCH  33  35
ENDBRANCH  32  33
ENDBRANCH  31  32
ENDBRANCH  30  31
ENDBRANCH  29  30
ENDBRANCH  28  29
ENDBRANCH   1  28
TORSDOF 24
ENDMDL
MODEL 2
REMARK VINA RESULT:      -9.2      2.746      9.254
REMARK SMILES Cc1cc2c(c(C)c1Cl)C=C(C(=O)OCCOCCOCCOCCOC(=O)c1ccc(-c3c4nc(c(-c5ccc(S(=O)(=O)[O-])cc5)c5ccc([nH]5)c(-c5ccc(S(=O)(=O)[O-])cc5)c5nc(c(-c6ccc(S(=O)(=O)[O-])cc6)c6ccc3[nH]6)C=C5)C=C4)cc1)[C@@H](C(F)(F)F)O2
REMARK SMILES IDX 21 1 20 2 19 3 18 4 17 5 16 6 15 7 14 8 12 9 13 10 11 11
REMARK SMILES IDX 1 12 2 13 3 14 8 15 4 16 6 17 9 18 5 19 94 20 7 21 10 22
REMARK SMILES IDX 89 23 90 24 91 25 92 26 93 27 22 28 23 29 24 30 25 31 26 32
REMARK SMILES IDX 27 33 28 34 29 35 30 36 88 37 31 38 87 39 32 40 33 41 34 42
REMARK SMILES IDX 81 43 35 44 86 45 80 46 82 47 36 48 85 49 79 50 78 51 37 53
REMARK SMILES IDX 67 54 48 55 66 56 49 57 52 58 65 59 83 60 50 61 51 62 64 64
REMARK SMILES IDX 84 65 53 66 38 67 39 68 47 69 40 70 46 71 41 72 42 73 43 74
REMARK SMILES IDX 44 75 45 76 68 77 69 78 77 79 70 80 76 81 71 82 72 83 73 84
REMARK SMILES IDX 74 85 75 86 54 87 55 88 63 89 56 90 62 91 57 92 58 93 59 94
REMARK SMILES IDX 60 95 61 96
REMARK H PARENT 82 52 52 63
REMARK Flexibility Score: inf
ROOT
ATOM      1  C   UNL A   1      43.393  21.800  25.701  1.00  0.00     0.188 C 
ENDROOT
BRANCH   1   2
ATOM      2  O   UNL A   1      42.024  21.675  26.084  1.00  0.00    -0.377 OA
BRANCH   2   3
ATOM      3  C   UNL A   1      41.275  22.868  26.234  1.00  0.00     0.188 C 
BRANCH   3   4
ATOM      4  C   UNL A   1      40.515  22.944  27.572  1.00  0.00     0.188 C 
BRANCH   4   5
ATOM      5  O   UNL A   1      39.237  23.550  27.545  1.00  0.00    -0.376 OA
BRANCH   5   6
ATOM      6  C   UNL A   1      38.531  23.834  26.348  1.00  0.00     0.202 C 
BRANCH   6   7
ATOM      7  C   UNL A   1      37.357  23.037  25.742  1.00  0.00     0.261 C 
BRANCH   7   8
ATOM      8  O   UNL A   1      36.156  23.740  25.441  1.00  0.00    -0.460 OA
BRANCH   8   9
ATOM      9  C   UNL A   1      35.077  23.448  26.186  1.00  0.00     0.338 C 
ATOM     10  O   UNL A   1      35.061  22.964  27.303  1.00  0.00    -0.246 OA
BRANCH   9  11
ATOM     11  C   UNL A   1      33.897  24.006  25.490  1.00  0.00     0.087 C 
ATOM     12  C   UNL A   1      28.782  27.393  23.505  1.00  0.00     0.046 C 
ATOM     13  C   UNL A   1      30.161  26.968  23.927  1.00  0.00    -0.028 A 
ATOM     14  C   UNL A   1      30.465  25.604  23.816  1.00  0.00     0.052 A 
ATOM     15  C   UNL A   1      31.148  27.844  24.421  1.00  0.00     0.047 A 
ATOM     16  C   UNL A   1      31.672  25.096  24.287  1.00  0.00     0.128 A 
ATOM     17  C   UNL A   1      32.393  27.350  24.879  1.00  0.00    -0.021 A 
ATOM     18  Cl  UNL A   1      30.809  29.547  24.484  1.00  0.00    -0.084 Cl
ATOM     19  C   UNL A   1      32.614  25.949  24.869  1.00  0.00     0.022 A 
ATOM     20  O   UNL A   1      31.824  23.748  24.147  1.00  0.00    -0.475 OA
ATOM     21  C   UNL A   1      33.492  28.271  25.360  1.00  0.00     0.047 C 
ATOM     22  C   UNL A   1      33.770  25.339  25.516  1.00  0.00     0.027 C 
ATOM     23  C   UNL A   1      32.971  23.087  24.745  1.00  0.00     0.316 C 
BRANCH  23  24
ATOM     24  C   UNL A   1      32.453  21.944  25.627  1.00  0.00     0.430 C 
ATOM     25  F   UNL A   1      31.343  21.377  25.097  1.00  0.00    -0.167 F 
ATOM     26  F   UNL A   1      33.369  20.960  25.771  1.00  0.00    -0.167 F 
ATOM     27  F   UNL A   1      32.131  22.383  26.867  1.00  0.00    -0.167 F 
ENDBRANCH  23  24
ENDBRANCH   9  11
ENDBRANCH   8   9
ENDBRANCH   7   8
ENDBRANCH   6   7
ENDBRANCH   5   6
ENDBRANCH   4   5
ENDBRANCH   3   4
ENDBRANCH   2   3
ENDBRANCH   1   2
BRANCH   1  28
ATOM     28  C   UNL A   1      44.283  22.916  26.298  1.00  0.00     0.188 C 
BRANCH  28  29
ATOM     29  O   UNL A   1      44.924  23.734  25.327  1.00  0.00    -0.376 OA
BRANCH  29  30
ATOM     30  C   UNL A   1      44.427  25.040  25.094  1.00  0.00     0.202 C 
BRANCH  30  31
ATOM     31  C   UNL A   1      42.938  25.157  24.744  1.00  0.00     0.261 C 
BRANCH  31  32
ATOM     32  O   UNL A   1      42.174  26.062  25.551  1.00  0.00    -0.460 OA
BRANCH  32  33
ATOM     33  C   UNL A   1      42.515  27.368  25.507  1.00  0.00     0.338 C 
ATOM     34  O   UNL A   1      42.689  28.048  24.510  1.00  0.00    -0.246 OA
BRANCH  33  35
ATOM     35  C   UNL A   1      42.457  27.889  26.886  1.00  0.00     0.060 A 
ATOM     36  C   UNL A   1      41.914  27.087  27.898  1.00  0.00     0.016 A 
ATOM     37  C   UNL A   1      42.948  29.164  27.175  1.00  0.00     0.016 A 
ATOM     38  C   UNL A   1      41.825  27.577  29.200  1.00  0.00     0.010 A 
ATOM     39  C   UNL A   1      42.837  29.661  28.474  1.00  0.00     0.010 A 
ATOM     40  C   UNL A   1      42.244  28.884  29.483  1.00  0.00    -0.014 A 
BRANCH  40  41
ATOM     41  C   UNL A   1      41.888  29.515  30.775  1.00  0.00     0.031 A 
ATOM     42  C   UNL A   1      40.660  30.382  30.826  1.00  0.00     0.074 A 
ATOM     43  C   UNL A   1      42.629  29.316  31.879  1.00  0.00     0.049 A 
ATOM     44  N   UNL A   1      40.189  31.095  31.815  1.00  0.00    -0.248 NA
ATOM     45  C   UNL A   1      39.855  30.454  29.594  1.00  0.00     0.031 C 
ATOM     46  C   UNL A   1      43.799  28.445  31.969  1.00  0.00     0.029 A 
ATOM     47  N   UNL A   1      42.502  29.842  33.140  1.00  0.00    -0.354 N 
ATOM     48  C   UNL A   1      39.038  31.701  31.326  1.00  0.00     0.074 A 
ATOM     49  C   UNL A   1      38.898  31.299  29.944  1.00  0.00     0.031 C 
ATOM     50  C   UNL A   1      44.287  28.501  33.221  1.00  0.00     0.029 A 
ATOM     51  C   UNL A   1      43.489  29.441  34.007  1.00  0.00     0.049 A 
ATOM     52  H   UNL A   1      41.771  30.450  33.398  1.00  0.00     0.167 HD
ATOM     53  C   UNL A   1      38.171  32.515  31.973  1.00  0.00     0.031 A 
ATOM     54  C   UNL A   1      43.732  29.808  35.282  1.00  0.00     0.031 A 
ATOM     55  C   UNL A   1      38.330  32.930  33.341  1.00  0.00     0.049 A 
ATOM     56  C   UNL A   1      42.811  30.796  35.951  1.00  0.00     0.074 A 
ATOM     57  C   UNL A   1      37.516  33.763  34.086  1.00  0.00     0.029 A 
ATOM     58  N   UNL A   1      39.374  32.545  34.169  1.00  0.00    -0.354 N 
ATOM     59  N   UNL A   1      41.734  31.375  35.473  1.00  0.00    -0.248 NA
ATOM     60  C   UNL A   1      43.134  31.176  37.333  1.00  0.00     0.031 C 
ATOM     61  C   UNL A   1      38.100  33.933  35.344  1.00  0.00     0.029 A 
ATOM     62  C   UNL A   1      39.237  33.141  35.411  1.00  0.00     0.049 A 
ATOM     63  H   UNL A   1      40.105  31.937  33.912  1.00  0.00     0.167 HD
ATOM     64  C   UNL A   1      41.230  32.155  36.511  1.00  0.00     0.074 A 
ATOM     65  C   UNL A   1      42.117  31.969  37.640  1.00  0.00     0.031 C 
ATOM     66  C   UNL A   1      40.127  32.946  36.528  1.00  0.00     0.031 A 
BRANCH  53  67
ATOM     67  C   UNL A   1      36.988  33.034  31.199  1.00  0.00    -0.014 A 
ATOM     68  C   UNL A   1      35.672  32.740  31.598  1.00  0.00     0.010 A 
ATOM     69  C   UNL A   1      37.195  33.874  30.090  1.00  0.00     0.010 A 
ATOM     70  C   UNL A   1      34.585  33.256  30.887  1.00  0.00     0.020 A 
ATOM     71  C   UNL A   1      36.111  34.417  29.395  1.00  0.00     0.020 A 
ATOM     72  C   UNL A   1      34.813  34.095  29.792  1.00  0.00     0.054 A 
BRANCH  72  73
ATOM     73  S   UNL A   1      33.381  34.782  28.915  1.00  0.00     0.124 S 
ATOM     74  O   UNL A   1      33.971  35.923  28.220  1.00  0.00    -0.237 OA
ATOM     75  O   UNL A   1      32.969  33.671  28.061  1.00  0.00    -0.237 OA
ATOM     76  O   UNL A   1      32.448  35.123  29.986  1.00  0.00    -0.744 OA
ENDBRANCH  72  73
ENDBRANCH  53  67
BRANCH  54  77
ATOM     77  C   UNL A   1      44.898  29.235  36.010  1.00  0.00    -0.014 A 
ATOM     78  C   UNL A   1      46.156  29.859  35.949  1.00  0.00     0.010 A 
ATOM     79  C   UNL A   1      44.753  28.067  36.784  1.00  0.00     0.010 A 
ATOM     80  C   UNL A   1      47.247  29.325  36.641  1.00  0.00     0.020 A 
ATOM     81  C   UNL A   1      45.834  27.548  37.502  1.00  0.00     0.020 A 
ATOM     82  C   UNL A   1      47.077  28.177  37.420  1.00  0.00     0.054 A 
BRANCH  82  83
ATOM     83  S   UNL A   1      48.494  27.546  38.361  1.00  0.00     0.124 S 
ATOM     84  O   UNL A   1      49.323  28.739  38.502  1.00  0.00    -0.237 OA
ATOM     85  O   UNL A   1      47.863  27.064  39.587  1.00  0.00    -0.237 OA
ATOM     86  O   UNL A   1      49.041  26.502  37.497  1.00  0.00    -0.744 OA
ENDBRANCH  82  83
ENDBRANCH  54  77
BRANCH  66  87
ATOM     87  C   UNL A   1      39.779  33.637  37.822  1.00  0.00    -0.014 A 
ATOM     88  C   UNL A   1      39.122  32.961  38.865  1.00  0.00     0.010 A 
ATOM     89  C   UNL A   1      40.181  34.972  38.019  1.00  0.00     0.010 A 
ATOM     90  C   UNL A   1      38.842  33.618  40.066  1.00  0.00     0.020 A 
ATOM     91  C   UNL A   1      39.934  35.621  39.229  1.00  0.00     0.020 A 
ATOM     92  C   UNL A   1      39.252  34.945  40.242  1.00  0.00     0.054 A 
BRANCH  92  93
ATOM     93  S   UNL A   1      38.907  35.761  41.824  1.00  0.00     0.124 S 
ATOM     94  O   UNL A   1      39.178  37.161  41.509  1.00  0.00    -0.237 OA
ATOM     95  O   UNL A   1      37.503  35.428  42.054  1.00  0.00    -0.237 OA
ATOM     96  O   UNL A   1      39.850  35.138  42.751  1.00  0.00    -0.744 OA
ENDBRANCH  92  93
ENDBRANCH  66  87
ENDBRANCH  40  41
ENDBRANCH  33  35
ENDBRANCH  32  33
ENDBRANCH  31  32
ENDBRANCH  30  31
ENDBRANCH  29  30
ENDBRANCH  28  29
ENDBRANCH   1  28
TORSDOF 24
ENDMDL
MODEL 3
REMARK VINA RESULT:      -9.2      2.466      3.796
REMARK SMILES Cc1cc2c(c(C)c1Cl)C=C(C(=O)OCCOCCOCCOCCOC(=O)c1ccc(-c3c4nc(c(-c5ccc(S(=O)(=O)[O-])cc5)c5ccc([nH]5)c(-c5ccc(S(=O)(=O)[O-])cc5)c5nc(c(-c6ccc(S(=O)(=O)[O-])cc6)c6ccc3[nH]6)C=C5)C=C4)cc1)[C@@H](C(F)(F)F)O2
REMARK SMILES IDX 21 1 20 2 19 3 18 4 17 5 16 6 15 7 14 8 12 9 13 10 11 11
REMARK SMILES IDX 1 12 2 13 3 14 8 15 4 16 6 17 9 18 5 19 94 20 7 21 10 22
REMARK SMILES IDX 89 23 90 24 91 25 92 26 93 27 22 28 23 29 24 30 25 31 26 32
REMARK SMILES IDX 27 33 28 34 29 35 30 36 88 37 31 38 87 39 32 40 33 41 34 42
REMARK SMILES IDX 81 43 35 44 86 45 80 46 82 47 36 48 85 49 79 50 78 51 37 53
REMARK SMILES IDX 67 54 48 55 66 56 49 57 52 58 65 59 83 60 50 61 51 62 64 64
REMARK SMILES IDX 84 65 53 66 38 67 39 68 47 69 40 70 46 71 41 72 42 73 43 74
REMARK SMILES IDX 44 75 45 76 68 77 69 78 77 79 70 80 76 81 71 82 72 83 73 84
REMARK SMILES IDX 74 85 75 86 54 87 55 88 63 89 56 90 62 91 57 92 58 93 59 94
REMARK SMILES IDX 60 95 61 96
REMARK H PARENT 82 52 52 63
REMARK Flexibility Score: inf
ROOT
ATOM      1  C   UNL A   1      30.158  32.160  24.700  1.00  0.00     0.188 C 
ENDROOT
BRANCH   1   2
ATOM      2  O   UNL A   1      29.231  31.155  24.290  1.00  0.00    -0.377 OA
BRANCH   2   3
ATOM      3  C   UNL A   1      29.292  30.718  22.944  1.00  0.00     0.188 C 
BRANCH   3   4
ATOM      4  C   UNL A   1      29.970  29.344  22.781  1.00  0.00     0.188 C 
BRANCH   4   5
ATOM      5  O   UNL A   1      31.113  29.100  23.575  1.00  0.00    -0.376 OA
BRANCH   5   6
ATOM      6  C   UNL A   1      32.399  28.838  23.036  1.00  0.00     0.202 C 
BRANCH   6   7
ATOM      7  C   UNL A   1      33.718  28.639  23.812  1.00  0.00     0.261 C 
BRANCH   7   8
ATOM      8  O   UNL A   1      34.035  27.328  24.267  1.00  0.00    -0.460 OA
BRANCH   8   9
ATOM      9  C   UNL A   1      33.489  26.938  25.431  1.00  0.00     0.338 C 
ATOM     10  O   UNL A   1      32.969  27.646  26.276  1.00  0.00    -0.246 OA
BRANCH   9  11
ATOM     11  C   UNL A   1      33.446  25.460  25.426  1.00  0.00     0.087 C 
ATOM     12  C   UNL A   1      34.409  19.140  24.589  1.00  0.00     0.046 C 
ATOM     13  C   UNL A   1      34.566  20.594  24.939  1.00  0.00    -0.028 A 
ATOM     14  C   UNL A   1      33.387  21.333  25.115  1.00  0.00     0.052 A 
ATOM     15  C   UNL A   1      35.805  21.246  25.096  1.00  0.00     0.047 A 
ATOM     16  C   UNL A   1      33.427  22.708  25.328  1.00  0.00     0.128 A 
ATOM     17  C   UNL A   1      35.865  22.640  25.340  1.00  0.00    -0.021 A 
ATOM     18  Cl  UNL A   1      37.269  20.321  24.961  1.00  0.00    -0.084 Cl
ATOM     19  C   UNL A   1      34.654  23.375  25.385  1.00  0.00     0.022 A 
ATOM     20  O   UNL A   1      32.208  23.307  25.449  1.00  0.00    -0.475 OA
ATOM     21  C   UNL A   1      37.177  23.356  25.569  1.00  0.00     0.047 C 
ATOM     22  C   UNL A   1      34.629  24.833  25.414  1.00  0.00     0.027 C 
ATOM     23  C   UNL A   1      32.122  24.755  25.513  1.00  0.00     0.316 C 
BRANCH  23  24
ATOM     24  C   UNL A   1      31.144  25.221  24.425  1.00  0.00     0.430 C 
ATOM     25  F   UNL A   1      31.794  25.518  23.275  1.00  0.00    -0.167 F 
ATOM     26  F   UNL A   1      30.227  24.274  24.129  1.00  0.00    -0.167 F 
ATOM     27  F   UNL A   1      30.471  26.332  24.809  1.00  0.00    -0.167 F 
ENDBRANCH  23  24
ENDBRANCH   9  11
ENDBRANCH   8   9
ENDBRANCH   7   8
ENDBRANCH   6   7
ENDBRANCH   5   6
ENDBRANCH   4   5
ENDBRANCH   3   4
ENDBRANCH   2   3
ENDBRANCH   1   2
BRANCH   1  28
ATOM     28  C   UNL A   1      30.920  32.032  26.040  1.00  0.00     0.188 C 
BRANCH  28  29
ATOM     29  O   UNL A   1      31.508  33.244  26.496  1.00  0.00    -0.376 OA
BRANCH  29  30
ATOM     30  C   UNL A   1      32.174  33.256  27.746  1.00  0.00     0.202 C 
BRANCH  30  31
ATOM     31  C   UNL A   1      33.703  33.382  27.710  1.00  0.00     0.261 C 
BRANCH  31  32
ATOM     32  O   UNL A   1      34.429  32.407  28.469  1.00  0.00    -0.460 OA
BRANCH  32  33
ATOM     33  C   UNL A   1      34.650  31.209  27.886  1.00  0.00     0.338 C 
ATOM     34  O   UNL A   1      34.007  30.702  26.983  1.00  0.00    -0.246 OA
BRANCH  33  35
ATOM     35  C   UNL A   1      35.932  30.694  28.403  1.00  0.00     0.060 A 
ATOM     36  C   UNL A   1      35.926  29.610  29.291  1.00  0.00     0.016 A 
ATOM     37  C   UNL A   1      37.136  31.279  28.003  1.00  0.00     0.016 A 
ATOM     38  C   UNL A   1      37.127  29.132  29.813  1.00  0.00     0.010 A 
ATOM     39  C   UNL A   1      38.335  30.813  28.543  1.00  0.00     0.010 A 
ATOM     40  C   UNL A   1      38.333  29.762  29.476  1.00  0.00    -0.014 A 
BRANCH  40  41
ATOM     41  C   UNL A   1      39.566  29.462  30.240  1.00  0.00     0.031 A 
ATOM     42  C   UNL A   1      40.451  28.350  29.749  1.00  0.00     0.074 A 
ATOM     43  C   UNL A   1      39.898  30.165  31.336  1.00  0.00     0.049 A 
ATOM     44  N   UNL A   1      41.536  27.856  30.285  1.00  0.00    -0.248 NA
ATOM     45  C   UNL A   1      40.059  27.708  28.482  1.00  0.00     0.031 C 
ATOM     46  C   UNL A   1      39.156  31.307  31.869  1.00  0.00     0.029 A 
ATOM     47  N   UNL A   1      40.953  30.015  32.202  1.00  0.00    -0.354 N 
ATOM     48  C   UNL A   1      41.954  26.847  29.426  1.00  0.00     0.074 A 
ATOM     49  C   UNL A   1      40.990  26.776  28.350  1.00  0.00     0.031 C 
ATOM     50  C   UNL A   1      39.778  31.751  32.975  1.00  0.00     0.029 A 
ATOM     51  C   UNL A   1      40.936  30.902  33.251  1.00  0.00     0.049 A 
ATOM     52  H   UNL A   1      41.655  29.335  32.081  1.00  0.00     0.167 HD
ATOM     53  C   UNL A   1      43.047  26.054  29.522  1.00  0.00     0.031 A 
ATOM     54  C   UNL A   1      41.750  31.001  34.322  1.00  0.00     0.031 A 
ATOM     55  C   UNL A   1      43.988  26.114  30.607  1.00  0.00     0.049 A 
ATOM     56  C   UNL A   1      42.903  30.040  34.460  1.00  0.00     0.074 A 
ATOM     57  C   UNL A   1      45.121  25.346  30.806  1.00  0.00     0.029 A 
ATOM     58  N   UNL A   1      43.905  26.990  31.680  1.00  0.00    -0.354 N 
ATOM     59  N   UNL A   1      43.279  29.079  33.649  1.00  0.00    -0.248 NA
ATOM     60  C   UNL A   1      43.745  30.181  35.657  1.00  0.00     0.031 C 
ATOM     61  C   UNL A   1      45.689  25.714  32.028  1.00  0.00     0.029 A 
ATOM     62  C   UNL A   1      44.955  26.766  32.554  1.00  0.00     0.049 A 
ATOM     63  H   UNL A   1      43.204  27.670  31.801  1.00  0.00     0.167 HD
ATOM     64  C   UNL A   1      44.425  28.529  34.217  1.00  0.00     0.074 A 
ATOM     65  C   UNL A   1      44.681  29.267  35.437  1.00  0.00     0.031 C 
ATOM     66  C   UNL A   1      45.199  27.510  33.765  1.00  0.00     0.031 A 
BRANCH  53  67
ATOM     67  C   UNL A   1      43.268  25.034  28.436  1.00  0.00    -0.014 A 
ATOM     68  C   UNL A   1      44.057  25.328  27.310  1.00  0.00     0.010 A 
ATOM     69  C   UNL A   1      42.725  23.743  28.572  1.00  0.00     0.010 A 
ATOM     70  C   UNL A   1      44.279  24.359  26.328  1.00  0.00     0.020 A 
ATOM     71  C   UNL A   1      42.969  22.762  27.607  1.00  0.00     0.020 A 
ATOM     72  C   UNL A   1      43.735  23.080  26.486  1.00  0.00     0.054 A 
BRANCH  72  73
ATOM     73  S   UNL A   1      44.075  21.833  25.214  1.00  0.00     0.124 S 
ATOM     74  O   UNL A   1      43.760  22.559  23.986  1.00  0.00    -0.237 OA
ATOM     75  O   UNL A   1      45.490  21.541  25.425  1.00  0.00    -0.237 OA
ATOM     76  O   UNL A   1      43.159  20.743  25.542  1.00  0.00    -0.744 OA
ENDBRANCH  72  73
ENDBRANCH  53  67
BRANCH  54  77
ATOM     77  C   UNL A   1      41.503  32.053  35.346  1.00  0.00    -0.014 A 
ATOM     78  C   UNL A   1      40.633  31.812  36.424  1.00  0.00     0.010 A 
ATOM     79  C   UNL A   1      42.151  33.300  35.259  1.00  0.00     0.010 A 
ATOM     80  C   UNL A   1      40.410  32.798  37.390  1.00  0.00     0.020 A 
ATOM     81  C   UNL A   1      41.955  34.277  36.240  1.00  0.00     0.020 A 
ATOM     82  C   UNL A   1      41.080  34.021  37.297  1.00  0.00     0.054 A 
BRANCH  82  83
ATOM     83  S   UNL A   1      40.823  35.255  38.602  1.00  0.00     0.124 S 
ATOM     84  O   UNL A   1      41.405  34.594  39.766  1.00  0.00    -0.237 OA
ATOM     85  O   UNL A   1      41.563  36.406  38.090  1.00  0.00    -0.237 OA
ATOM     86  O   UNL A   1      39.372  35.421  38.636  1.00  0.00    -0.744 OA
ENDBRANCH  82  83
ENDBRANCH  54  77
BRANCH  66  87
ATOM     87  C   UNL A   1      46.431  27.158  34.559  1.00  0.00    -0.014 A 
ATOM     88  C   UNL A   1      47.707  27.609  34.179  1.00  0.00     0.010 A 
ATOM     89  C   UNL A   1      46.294  26.419  35.750  1.00  0.00     0.010 A 
ATOM     90  C   UNL A   1      48.826  27.294  34.954  1.00  0.00     0.020 A 
ATOM     91  C   UNL A   1      47.405  26.132  36.545  1.00  0.00     0.020 A 
ATOM     92  C   UNL A   1      48.669  26.559  36.134  1.00  0.00     0.054 A 
BRANCH  92  93
ATOM     93  S   UNL A   1      50.135  26.197  37.138  1.00  0.00     0.124 S 
ATOM     94  O   UNL A   1      51.209  26.752  36.319  1.00  0.00    -0.237 OA
ATOM     95  O   UNL A   1      49.855  26.914  38.379  1.00  0.00    -0.237 OA
ATOM     96  O   UNL A   1      50.128  24.740  37.251  1.00  0.00    -0.744 OA
ENDBRANCH  92  93
ENDBRANCH  66  87
ENDBRANCH  40  41
ENDBRANCH  33  35
ENDBRANCH  32  33
ENDBRANCH  31  32
ENDBRANCH  30  31
ENDBRANCH  29  30
ENDBRANCH  28  29
ENDBRANCH   1  28
TORSDOF 24
ENDMDL
