MODEL 1
REMARK VINA RESULT:     -10.0      0.000      0.000
REMARK SMILES O=C(Cc1cccn1-c1ccccc1F)OCCOCCOCCOCCOC(=O)c1ccc(-c2c3nc(c(-c4ccc(S(=O)(=O)[O-])cc4)c4ccc([nH]4)c(-c4ccc(S(=O)(=O)[O-])cc4)c4nc(c(-c5ccc(S(=O)(=O)[O-])cc5)c5ccc2[nH]5)C=C4)C=C3)cc1
REMARK SMILES IDX 23 1 22 2 21 3 20 4 19 5 18 6 17 7 16 8 2 9 1 10 3 11 4 12
REMARK SMILES IDX 5 13 8 14 6 15 7 16 9 17 10 18 14 19 11 20 13 21 15 22 12 23
REMARK SMILES IDX 24 24 25 25 26 26 27 27 28 28 29 29 30 30 31 31 32 32 90 33
REMARK SMILES IDX 33 34 89 35 34 36 35 37 36 38 83 39 37 40 88 41 82 42 84 43
REMARK SMILES IDX 38 44 87 45 81 46 80 47 39 49 69 50 50 51 68 52 51 53 54 54
REMARK SMILES IDX 67 55 85 56 52 57 53 58 66 60 86 61 55 62 40 63 41 64 49 65
REMARK SMILES IDX 42 66 48 67 43 68 44 69 45 70 46 71 47 72 70 73 71 74 79 75
REMARK SMILES IDX 72 76 78 77 73 78 74 79 75 80 76 81 77 82 56 83 57 84 65 85
REMARK SMILES IDX 58 86 64 87 59 88 60 89 61 90 62 91 63 92
REMARK H PARENT 84 48 54 59
REMARK Flexibility Score: inf
ROOT
ATOM      1  C   UNL A   1      33.061  29.489  24.973  1.00  0.00     0.188 C 
ENDROOT
BRANCH   1   2
ATOM      2  O   UNL A   1      32.434  28.899  23.847  1.00  0.00    -0.377 OA
BRANCH   2   3
ATOM      3  C   UNL A   1      31.019  28.842  23.929  1.00  0.00     0.188 C 
BRANCH   3   4
ATOM      4  C   UNL A   1      30.367  27.680  23.175  1.00  0.00     0.188 C 
BRANCH   4   5
ATOM      5  O   UNL A   1      29.389  26.979  23.918  1.00  0.00    -0.376 OA
BRANCH   5   6
ATOM      6  C   UNL A   1      29.654  25.986  24.887  1.00  0.00     0.202 C 
BRANCH   6   7
ATOM      7  C   UNL A   1      30.589  26.240  26.062  1.00  0.00     0.261 C 
BRANCH   7   8
ATOM      8  O   UNL A   1      30.995  25.163  26.932  1.00  0.00    -0.463 OA
BRANCH   8   9
ATOM      9  C   UNL A   1      31.639  24.018  26.639  1.00  0.00     0.311 C 
ATOM     10  O   UNL A   1      31.036  22.950  26.752  1.00  0.00    -0.252 OA
BRANCH   9  11
ATOM     11  C   UNL A   1      33.093  24.044  26.250  1.00  0.00     0.177 C 
BRANCH  11  12
ATOM     12  C   UNL A   1      33.282  24.190  24.773  1.00  0.00     0.034 A 
ATOM     13  C   UNL A   1      33.482  25.325  24.007  1.00  0.00     0.024 A 
ATOM     14  N   UNL A   1      33.402  23.089  23.935  1.00  0.00    -0.318 N 
ATOM     15  C   UNL A   1      33.741  24.911  22.682  1.00  0.00     0.020 A 
ATOM     16  C   UNL A   1      33.724  23.535  22.674  1.00  0.00     0.091 A 
BRANCH  14  17
ATOM     17  C   UNL A   1      33.486  21.754  24.375  1.00  0.00     0.081 A 
ATOM     18  C   UNL A   1      32.390  20.915  24.162  1.00  0.00     0.030 A 
ATOM     19  C   UNL A   1      34.721  21.230  24.748  1.00  0.00     0.147 A 
ATOM     20  C   UNL A   1      32.564  19.535  24.274  1.00  0.00     0.002 A 
ATOM     21  C   UNL A   1      34.896  19.855  24.845  1.00  0.00     0.041 A 
ATOM     22  F   UNL A   1      35.757  22.043  25.000  1.00  0.00    -0.205 F 
ATOM     23  C   UNL A   1      33.818  19.005  24.593  1.00  0.00     0.003 A 
ENDBRANCH  14  17
ENDBRANCH  11  12
ENDBRANCH   9  11
ENDBRANCH   8   9
ENDBRANCH   7   8
ENDBRANCH   6   7
ENDBRANCH   5   6
ENDBRANCH   4   5
ENDBRANCH   3   4
ENDBRANCH   2   3
ENDBRANCH   1   2
BRANCH   1  24
ATOM     24  C   UNL A   1      32.212  29.511  26.262  1.00  0.00     0.188 C 
BRANCH  24  25
ATOM     25  O   UNL A   1      31.976  30.664  27.066  1.00  0.00    -0.376 OA
BRANCH  25  26
ATOM     26  C   UNL A   1      31.356  31.841  26.576  1.00  0.00     0.202 C 
BRANCH  26  27
ATOM     27  C   UNL A   1      31.893  33.236  26.908  1.00  0.00     0.261 C 
BRANCH  27  28
ATOM     28  O   UNL A   1      33.003  33.257  27.783  1.00  0.00    -0.460 OA
BRANCH  28  29
ATOM     29  C   UNL A   1      33.084  34.397  28.476  1.00  0.00     0.338 C 
ATOM     30  O   UNL A   1      32.335  35.376  28.417  1.00  0.00    -0.246 OA
BRANCH  29  31
ATOM     31  C   UNL A   1      34.240  34.353  29.353  1.00  0.00     0.060 A 
ATOM     32  C   UNL A   1      35.496  34.526  28.762  1.00  0.00     0.016 A 
ATOM     33  C   UNL A   1      34.073  33.860  30.651  1.00  0.00     0.016 A 
ATOM     34  C   UNL A   1      36.597  34.033  29.417  1.00  0.00     0.010 A 
ATOM     35  C   UNL A   1      35.167  33.314  31.280  1.00  0.00     0.010 A 
ATOM     36  C   UNL A   1      36.403  33.350  30.623  1.00  0.00    -0.014 A 
BRANCH  36  37
ATOM     37  C   UNL A   1      37.542  32.619  31.178  1.00  0.00     0.031 A 
ATOM     38  C   UNL A   1      37.846  31.363  30.392  1.00  0.00     0.074 A 
ATOM     39  C   UNL A   1      38.059  33.144  32.330  1.00  0.00     0.049 A 
ATOM     40  N   UNL A   1      38.381  30.261  30.806  1.00  0.00    -0.248 NA
ATOM     41  C   UNL A   1      37.412  31.262  28.971  1.00  0.00     0.031 C 
ATOM     42  C   UNL A   1      37.592  34.403  32.963  1.00  0.00     0.029 A 
ATOM     43  N   UNL A   1      39.042  32.747  33.208  1.00  0.00    -0.354 N 
ATOM     44  C   UNL A   1      38.494  29.410  29.695  1.00  0.00     0.074 A 
ATOM     45  C   UNL A   1      37.792  30.034  28.616  1.00  0.00     0.031 C 
ATOM     46  C   UNL A   1      38.226  34.618  34.135  1.00  0.00     0.029 A 
ATOM     47  C   UNL A   1      39.179  33.552  34.366  1.00  0.00     0.049 A 
ATOM     48  H   UNL A   1      39.610  31.960  33.042  1.00  0.00     0.167 HD
ATOM     49  C   UNL A   1      39.263  28.289  29.700  1.00  0.00     0.031 A 
ATOM     50  C   UNL A   1      39.974  33.355  35.459  1.00  0.00     0.031 A 
ATOM     51  C   UNL A   1      39.862  28.095  30.978  1.00  0.00     0.049 A 
ATOM     52  C   UNL A   1      40.793  32.165  35.165  1.00  0.00     0.074 A 
ATOM     53  C   UNL A   1      39.362  27.680  32.185  1.00  0.00     0.029 A 
ATOM     54  N   UNL A   1      41.081  28.699  31.180  1.00  0.00    -0.354 N 
ATOM     55  N   UNL A   1      41.766  32.114  34.308  1.00  0.00    -0.248 NA
ATOM     56  C   UNL A   1      40.457  30.895  35.826  1.00  0.00     0.031 C 
ATOM     57  C   UNL A   1      40.096  28.426  33.134  1.00  0.00     0.029 A 
ATOM     58  C   UNL A   1      41.093  29.156  32.478  1.00  0.00     0.049 A 
ATOM     59  H   UNL A   1      41.807  28.787  30.522  1.00  0.00     0.167 HD
ATOM     60  C   UNL A   1      41.880  30.768  34.060  1.00  0.00     0.074 A 
ATOM     61  C   UNL A   1      41.317  30.091  35.208  1.00  0.00     0.031 C 
ATOM     62  C   UNL A   1      41.899  30.320  32.777  1.00  0.00     0.031 A 
BRANCH  49  63
ATOM     63  C   UNL A   1      39.725  27.432  28.565  1.00  0.00    -0.014 A 
ATOM     64  C   UNL A   1      39.849  26.046  28.818  1.00  0.00     0.010 A 
ATOM     65  C   UNL A   1      40.329  27.948  27.408  1.00  0.00     0.010 A 
ATOM     66  C   UNL A   1      40.656  25.231  28.026  1.00  0.00     0.020 A 
ATOM     67  C   UNL A   1      41.112  27.125  26.585  1.00  0.00     0.020 A 
ATOM     68  C   UNL A   1      41.314  25.788  26.933  1.00  0.00     0.054 A 
BRANCH  68  69
ATOM     69  S   UNL A   1      42.505  24.760  26.036  1.00  0.00     0.124 S 
ATOM     70  O   UNL A   1      41.827  23.467  26.003  1.00  0.00    -0.237 OA
ATOM     71  O   UNL A   1      42.611  25.445  24.749  1.00  0.00    -0.237 OA
ATOM     72  O   UNL A   1      43.705  24.823  26.867  1.00  0.00    -0.744 OA
ENDBRANCH  68  69
ENDBRANCH  49  63
BRANCH  50  73
ATOM     73  C   UNL A   1      40.107  33.939  36.845  1.00  0.00    -0.014 A 
ATOM     74  C   UNL A   1      41.185  34.690  37.329  1.00  0.00     0.010 A 
ATOM     75  C   UNL A   1      38.997  33.819  37.727  1.00  0.00     0.010 A 
ATOM     76  C   UNL A   1      41.097  35.395  38.553  1.00  0.00     0.020 A 
ATOM     77  C   UNL A   1      38.877  34.543  38.914  1.00  0.00     0.020 A 
ATOM     78  C   UNL A   1      39.924  35.353  39.313  1.00  0.00     0.054 A 
BRANCH  78  79
ATOM     79  S   UNL A   1      39.688  36.441  40.745  1.00  0.00     0.124 S 
ATOM     80  O   UNL A   1      39.478  35.488  41.830  1.00  0.00    -0.237 OA
ATOM     81  O   UNL A   1      40.939  37.194  40.798  1.00  0.00    -0.237 OA
ATOM     82  O   UNL A   1      38.517  37.233  40.372  1.00  0.00    -0.744 OA
ENDBRANCH  78  79
ENDBRANCH  50  73
BRANCH  62  83
ATOM     83  C   UNL A   1      42.383  31.337  31.752  1.00  0.00    -0.014 A 
ATOM     84  C   UNL A   1      41.450  32.063  30.990  1.00  0.00     0.010 A 
ATOM     85  C   UNL A   1      43.746  31.519  31.448  1.00  0.00     0.010 A 
ATOM     86  C   UNL A   1      41.859  32.927  29.963  1.00  0.00     0.020 A 
ATOM     87  C   UNL A   1      44.169  32.383  30.422  1.00  0.00     0.020 A 
ATOM     88  C   UNL A   1      43.218  33.082  29.682  1.00  0.00     0.054 A 
BRANCH  88  89
ATOM     89  S   UNL A   1      43.715  34.188  28.326  1.00  0.00     0.124 S 
ATOM     90  O   UNL A   1      42.543  35.046  28.162  1.00  0.00    -0.237 OA
ATOM     91  O   UNL A   1      44.897  34.846  28.875  1.00  0.00    -0.237 OA
ATOM     92  O   UNL A   1      43.974  33.281  27.209  1.00  0.00    -0.744 OA
ENDBRANCH  88  89
ENDBRANCH  62  83
ENDBRANCH  36  37
ENDBRANCH  29  31
ENDBRANCH  28  29
ENDBRANCH  27  28
ENDBRANCH  26  27
ENDBRANCH  25  26
ENDBRANCH  24  25
ENDBRANCH   1  24
TORSDOF 25
ENDMDL
MODEL 2
REMARK VINA RESULT:      -9.7      5.174     11.202
REMARK SMILES O=C(Cc1cccn1-c1ccccc1F)OCCOCCOCCOCCOC(=O)c1ccc(-c2c3nc(c(-c4ccc(S(=O)(=O)[O-])cc4)c4ccc([nH]4)c(-c4ccc(S(=O)(=O)[O-])cc4)c4nc(c(-c5ccc(S(=O)(=O)[O-])cc5)c5ccc2[nH]5)C=C4)C=C3)cc1
REMARK SMILES IDX 23 1 22 2 21 3 20 4 19 5 18 6 17 7 16 8 2 9 1 10 3 11 4 12
REMARK SMILES IDX 5 13 8 14 6 15 7 16 9 17 10 18 14 19 11 20 13 21 15 22 12 23
REMARK SMILES IDX 24 24 25 25 26 26 27 27 28 28 29 29 30 30 31 31 32 32 90 33
REMARK SMILES IDX 33 34 89 35 34 36 35 37 36 38 83 39 37 40 88 41 82 42 84 43
REMARK SMILES IDX 38 44 87 45 81 46 80 47 39 49 69 50 50 51 68 52 51 53 54 54
REMARK SMILES IDX 67 55 85 56 52 57 53 58 66 60 86 61 55 62 40 63 41 64 49 65
REMARK SMILES IDX 42 66 48 67 43 68 44 69 45 70 46 71 47 72 70 73 71 74 79 75
REMARK SMILES IDX 72 76 78 77 73 78 74 79 75 80 76 81 77 82 56 83 57 84 65 85
REMARK SMILES IDX 58 86 64 87 59 88 60 89 61 90 62 91 63 92
REMARK H PARENT 84 48 54 59
REMARK Flexibility Score: inf
ROOT
ATOM      1  C   UNL A   1      35.633  22.299  25.508  1.00  0.00     0.188 C 
ENDROOT
BRANCH   1   2
ATOM      2  O   UNL A   1      35.103  21.477  24.482  1.00  0.00    -0.377 OA
BRANCH   2   3
ATOM      3  C   UNL A   1      33.807  20.968  24.751  1.00  0.00     0.188 C 
BRANCH   3   4
ATOM      4  C   UNL A   1      32.659  21.960  24.543  1.00  0.00     0.188 C 
BRANCH   4   5
ATOM      5  O   UNL A   1      32.390  22.263  23.188  1.00  0.00    -0.376 OA
BRANCH   5   6
ATOM      6  C   UNL A   1      33.218  23.032  22.341  1.00  0.00     0.202 C 
BRANCH   6   7
ATOM      7  C   UNL A   1      33.486  24.508  22.606  1.00  0.00     0.261 C 
BRANCH   7   8
ATOM      8  O   UNL A   1      34.319  24.923  23.709  1.00  0.00    -0.463 OA
BRANCH   8   9
ATOM      9  C   UNL A   1      34.066  25.807  24.693  1.00  0.00     0.311 C 
ATOM     10  O   UNL A   1      33.956  25.395  25.849  1.00  0.00    -0.252 OA
BRANCH   9  11
ATOM     11  C   UNL A   1      33.855  27.261  24.370  1.00  0.00     0.177 C 
BRANCH  11  12
ATOM     12  C   UNL A   1      33.622  28.086  25.595  1.00  0.00     0.034 A 
ATOM     13  C   UNL A   1      34.528  28.632  26.489  1.00  0.00     0.024 A 
ATOM     14  N   UNL A   1      32.358  28.538  25.949  1.00  0.00    -0.318 N 
ATOM     15  C   UNL A   1      33.807  29.440  27.395  1.00  0.00     0.020 A 
ATOM     16  C   UNL A   1      32.485  29.395  27.017  1.00  0.00     0.091 A 
BRANCH  14  17
ATOM     17  C   UNL A   1      31.204  28.387  25.157  1.00  0.00     0.081 A 
ATOM     18  C   UNL A   1      30.842  29.431  24.302  1.00  0.00     0.030 A 
ATOM     19  C   UNL A   1      30.618  27.129  25.030  1.00  0.00     0.147 A 
ATOM     20  C   UNL A   1      29.923  29.182  23.282  1.00  0.00     0.002 A 
ATOM     21  C   UNL A   1      29.715  26.879  24.005  1.00  0.00     0.041 A 
ATOM     22  F   UNL A   1      30.932  26.144  25.884  1.00  0.00    -0.205 F 
ATOM     23  C   UNL A   1      29.377  27.904  23.120  1.00  0.00     0.003 A 
ENDBRANCH  14  17
ENDBRANCH  11  12
ENDBRANCH   9  11
ENDBRANCH   8   9
ENDBRANCH   7   8
ENDBRANCH   6   7
ENDBRANCH   5   6
ENDBRANCH   4   5
ENDBRANCH   3   4
ENDBRANCH   2   3
ENDBRANCH   1   2
BRANCH   1  24
ATOM     24  C   UNL A   1      37.092  21.991  25.908  1.00  0.00     0.188 C 
BRANCH  24  25
ATOM     25  O   UNL A   1      38.040  21.315  25.086  1.00  0.00    -0.376 OA
BRANCH  25  26
ATOM     26  C   UNL A   1      38.086  19.905  24.950  1.00  0.00     0.202 C 
BRANCH  26  27
ATOM     27  C   UNL A   1      39.244  19.076  25.511  1.00  0.00     0.261 C 
BRANCH  27  28
ATOM     28  O   UNL A   1      40.163  19.796  26.308  1.00  0.00    -0.460 OA
BRANCH  28  29
ATOM     29  C   UNL A   1      41.420  19.368  26.150  1.00  0.00     0.338 C 
ATOM     30  O   UNL A   1      41.801  18.258  25.766  1.00  0.00    -0.246 OA
BRANCH  29  31
ATOM     31  C   UNL A   1      42.345  20.422  26.521  1.00  0.00     0.060 A 
ATOM     32  C   UNL A   1      42.252  20.924  27.823  1.00  0.00     0.016 A 
ATOM     33  C   UNL A   1      43.057  21.071  25.507  1.00  0.00     0.016 A 
ATOM     34  C   UNL A   1      42.735  22.185  28.073  1.00  0.00     0.010 A 
ATOM     35  C   UNL A   1      43.487  22.357  25.740  1.00  0.00     0.010 A 
ATOM     36  C   UNL A   1      43.260  22.919  27.002  1.00  0.00    -0.014 A 
BRANCH  36  37
ATOM     37  C   UNL A   1      43.536  24.338  27.225  1.00  0.00     0.031 A 
ATOM     38  C   UNL A   1      42.270  25.127  27.481  1.00  0.00     0.074 A 
ATOM     39  C   UNL A   1      44.846  24.701  27.080  1.00  0.00     0.049 A 
ATOM     40  N   UNL A   1      42.032  26.372  27.228  1.00  0.00    -0.248 NA
ATOM     41  C   UNL A   1      41.060  24.429  27.997  1.00  0.00     0.031 C 
ATOM     42  C   UNL A   1      45.955  23.754  26.802  1.00  0.00     0.029 A 
ATOM     43  N   UNL A   1      45.518  25.902  27.113  1.00  0.00    -0.354 N 
ATOM     44  C   UNL A   1      40.733  26.648  27.685  1.00  0.00     0.074 A 
ATOM     45  C   UNL A   1      40.145  25.397  28.055  1.00  0.00     0.031 C 
ATOM     46  C   UNL A   1      47.118  24.412  26.621  1.00  0.00     0.029 A 
ATOM     47  C   UNL A   1      46.895  25.833  26.790  1.00  0.00     0.049 A 
ATOM     48  H   UNL A   1      45.072  26.748  27.345  1.00  0.00     0.167 HD
ATOM     49  C   UNL A   1      40.259  27.913  27.841  1.00  0.00     0.031 A 
ATOM     50  C   UNL A   1      47.791  26.851  26.627  1.00  0.00     0.031 A 
ATOM     51  C   UNL A   1      41.230  28.869  27.427  1.00  0.00     0.049 A 
ATOM     52  C   UNL A   1      47.074  28.092  26.976  1.00  0.00     0.074 A 
ATOM     53  C   UNL A   1      41.683  29.260  26.194  1.00  0.00     0.029 A 
ATOM     54  N   UNL A   1      42.120  29.291  28.387  1.00  0.00    -0.354 N 
ATOM     55  N   UNL A   1      46.719  28.444  28.173  1.00  0.00    -0.248 NA
ATOM     56  C   UNL A   1      46.645  28.988  25.893  1.00  0.00     0.031 C 
ATOM     57  C   UNL A   1      43.052  29.536  26.404  1.00  0.00     0.029 A 
ATOM     58  C   UNL A   1      43.341  29.432  27.769  1.00  0.00     0.049 A 
ATOM     59  H   UNL A   1      41.920  29.461  29.336  1.00  0.00     0.167 HD
ATOM     60  C   UNL A   1      45.725  29.362  27.936  1.00  0.00     0.074 A 
ATOM     61  C   UNL A   1      45.952  29.874  26.602  1.00  0.00     0.031 C 
ATOM     62  C   UNL A   1      44.530  29.240  28.571  1.00  0.00     0.031 A 
BRANCH  49  63
ATOM     63  C   UNL A   1      39.043  28.404  28.560  1.00  0.00    -0.014 A 
ATOM     64  C   UNL A   1      38.280  29.408  27.917  1.00  0.00     0.010 A 
ATOM     65  C   UNL A   1      38.808  28.170  29.924  1.00  0.00     0.010 A 
ATOM     66  C   UNL A   1      37.418  30.236  28.634  1.00  0.00     0.020 A 
ATOM     67  C   UNL A   1      37.913  28.975  30.642  1.00  0.00     0.020 A 
ATOM     68  C   UNL A   1      37.270  30.037  30.003  1.00  0.00     0.054 A 
BRANCH  68  69
ATOM     69  S   UNL A   1      36.298  31.242  30.942  1.00  0.00     0.124 S 
ATOM     70  O   UNL A   1      35.266  31.619  29.980  1.00  0.00    -0.237 OA
ATOM     71  O   UNL A   1      35.833  30.456  32.083  1.00  0.00    -0.237 OA
ATOM     72  O   UNL A   1      37.268  32.284  31.269  1.00  0.00    -0.744 OA
ENDBRANCH  68  69
ENDBRANCH  49  63
BRANCH  50  73
ATOM     73  C   UNL A   1      49.191  27.012  26.087  1.00  0.00    -0.014 A 
ATOM     74  C   UNL A   1      49.576  26.930  24.742  1.00  0.00     0.010 A 
ATOM     75  C   UNL A   1      50.217  27.390  26.997  1.00  0.00     0.010 A 
ATOM     76  C   UNL A   1      50.863  27.340  24.322  1.00  0.00     0.020 A 
ATOM     77  C   UNL A   1      51.474  27.842  26.593  1.00  0.00     0.020 A 
ATOM     78  C   UNL A   1      51.786  27.838  25.246  1.00  0.00     0.054 A 
BRANCH  78  79
ATOM     79  S   UNL A   1      53.340  28.607  24.709  1.00  0.00     0.124 S 
ATOM     80  O   UNL A   1      53.645  27.871  23.487  1.00  0.00    -0.237 OA
ATOM     81  O   UNL A   1      52.969  30.008  24.529  1.00  0.00    -0.237 OA
ATOM     82  O   UNL A   1      54.241  28.355  25.834  1.00  0.00    -0.744 OA
ENDBRANCH  78  79
ENDBRANCH  50  73
BRANCH  62  83
ATOM     83  C   UNL A   1      44.582  28.485  29.892  1.00  0.00    -0.014 A 
ATOM     84  C   UNL A   1      44.252  27.119  29.933  1.00  0.00     0.010 A 
ATOM     85  C   UNL A   1      44.852  29.121  31.120  1.00  0.00     0.010 A 
ATOM     86  C   UNL A   1      44.184  26.419  31.148  1.00  0.00     0.020 A 
ATOM     87  C   UNL A   1      44.788  28.431  32.343  1.00  0.00     0.020 A 
ATOM     88  C   UNL A   1      44.451  27.080  32.349  1.00  0.00     0.054 A 
BRANCH  88  89
ATOM     89  S   UNL A   1      44.328  26.152  33.908  1.00  0.00     0.124 S 
ATOM     90  O   UNL A   1      45.726  25.883  34.237  1.00  0.00    -0.237 OA
ATOM     91  O   UNL A   1      43.653  27.103  34.786  1.00  0.00    -0.237 OA
ATOM     92  O   UNL A   1      43.542  24.971  33.553  1.00  0.00    -0.744 OA
ENDBRANCH  88  89
ENDBRANCH  62  83
ENDBRANCH  36  37
ENDBRANCH  29  31
ENDBRANCH  28  29
ENDBRANCH  27  28
ENDBRANCH  26  27
ENDBRANCH  25  26
ENDBRANCH  24  25
ENDBRANCH   1  24
TORSDOF 25
ENDMDL
MODEL 3
REMARK VINA RESULT:      -9.7      5.186     11.365
REMARK SMILES O=C(Cc1cccn1-c1ccccc1F)OCCOCCOCCOCCOC(=O)c1ccc(-c2c3nc(c(-c4ccc(S(=O)(=O)[O-])cc4)c4ccc([nH]4)c(-c4ccc(S(=O)(=O)[O-])cc4)c4nc(c(-c5ccc(S(=O)(=O)[O-])cc5)c5ccc2[nH]5)C=C4)C=C3)cc1
REMARK SMILES IDX 23 1 22 2 21 3 20 4 19 5 18 6 17 7 16 8 2 9 1 10 3 11 4 12
REMARK SMILES IDX 5 13 8 14 6 15 7 16 9 17 10 18 14 19 11 20 13 21 15 22 12 23
REMARK SMILES IDX 24 24 25 25 26 26 27 27 28 28 29 29 30 30 31 31 32 32 90 33
REMARK SMILES IDX 33 34 89 35 34 36 35 37 36 38 83 39 37 40 88 41 82 42 84 43
REMARK SMILES IDX 38 44 87 45 81 46 80 47 39 49 69 50 50 51 68 52 51 53 54 54
REMARK SMILES IDX 67 55 85 56 52 57 53 58 66 60 86 61 55 62 40 63 41 64 49 65
REMARK SMILES IDX 42 66 48 67 43 68 44 69 45 70 46 71 47 72 70 73 71 74 79 75
REMARK SMILES IDX 72 76 78 77 73 78 74 79 75 80 76 81 77 82 56 83 57 84 65 85
REMARK SMILES IDX 58 86 64 87 59 88 60 89 61 90 62 91 63 92
REMARK H PARENT 84 48 54 59
REMARK Flexibility Score: inf
ROOT
ATOM      1  C   UNL A   1      35.784  23.618  25.933  1.00  0.00     0.188 C 
ENDROOT
BRANCH   1   2
ATOM      2  O   UNL A   1      34.915  22.642  25.384  1.00  0.00    -0.377 OA
BRANCH   2   3
ATOM      3  C   UNL A   1      33.714  22.451  26.114  1.00  0.00     0.188 C 
BRANCH   3   4
ATOM      4  C   UNL A   1      32.962  23.734  26.482  1.00  0.00     0.188 C 
BRANCH   4   5
ATOM      5  O   UNL A   1      31.562  23.574  26.598  1.00  0.00    -0.376 OA
BRANCH   5   6
ATOM      6  C   UNL A   1      30.592  24.299  25.872  1.00  0.00     0.202 C 
BRANCH   6   7
ATOM      7  C   UNL A   1      30.331  25.777  26.137  1.00  0.00     0.261 C 
BRANCH   7   8
ATOM      8  O   UNL A   1      31.416  26.729  26.150  1.00  0.00    -0.463 OA
BRANCH   8   9
ATOM      9  C   UNL A   1      31.569  27.847  26.884  1.00  0.00     0.311 C 
ATOM     10  O   UNL A   1      31.546  27.760  28.113  1.00  0.00    -0.252 OA
BRANCH   9  11
ATOM     11  C   UNL A   1      31.697  29.186  26.209  1.00  0.00     0.177 C 
BRANCH  11  12
ATOM     12  C   UNL A   1      32.306  29.078  24.847  1.00  0.00     0.034 A 
ATOM     13  C   UNL A   1      33.589  28.720  24.469  1.00  0.00     0.024 A 
ATOM     14  N   UNL A   1      31.553  29.228  23.690  1.00  0.00    -0.318 N 
ATOM     15  C   UNL A   1      33.616  28.639  23.060  1.00  0.00     0.020 A 
ATOM     16  C   UNL A   1      32.346  28.918  22.611  1.00  0.00     0.091 A 
BRANCH  14  17
ATOM     17  C   UNL A   1      30.152  29.370  23.661  1.00  0.00     0.081 A 
ATOM     18  C   UNL A   1      29.612  30.656  23.743  1.00  0.00     0.030 A 
ATOM     19  C   UNL A   1      29.361  28.290  23.278  1.00  0.00     0.147 A 
ATOM     20  C   UNL A   1      28.279  30.854  23.382  1.00  0.00     0.002 A 
ATOM     21  C   UNL A   1      28.038  28.490  22.905  1.00  0.00     0.041 A 
ATOM     22  F   UNL A   1      29.871  27.050  23.249  1.00  0.00    -0.205 F 
ATOM     23  C   UNL A   1      27.500  29.778  22.944  1.00  0.00     0.003 A 
ENDBRANCH  14  17
ENDBRANCH  11  12
ENDBRANCH   9  11
ENDBRANCH   8   9
ENDBRANCH   7   8
ENDBRANCH   6   7
ENDBRANCH   5   6
ENDBRANCH   4   5
ENDBRANCH   3   4
ENDBRANCH   2   3
ENDBRANCH   1   2
BRANCH   1  24
ATOM     24  C   UNL A   1      37.290  23.329  25.757  1.00  0.00     0.188 C 
BRANCH  24  25
ATOM     25  O   UNL A   1      37.844  22.434  24.797  1.00  0.00    -0.376 OA
BRANCH  25  26
ATOM     26  C   UNL A   1      37.641  21.031  24.832  1.00  0.00     0.202 C 
BRANCH  26  27
ATOM     27  C   UNL A   1      38.585  20.096  25.592  1.00  0.00     0.261 C 
BRANCH  27  28
ATOM     28  O   UNL A   1      39.635  20.741  26.285  1.00  0.00    -0.460 OA
BRANCH  28  29
ATOM     29  C   UNL A   1      40.797  20.089  26.175  1.00  0.00     0.338 C 
ATOM     30  O   UNL A   1      40.975  18.900  25.893  1.00  0.00    -0.246 OA
BRANCH  29  31
ATOM     31  C   UNL A   1      41.894  20.995  26.456  1.00  0.00     0.060 A 
ATOM     32  C   UNL A   1      42.147  21.292  27.800  1.00  0.00     0.016 A 
ATOM     33  C   UNL A   1      42.435  21.735  25.400  1.00  0.00     0.016 A 
ATOM     34  C   UNL A   1      42.813  22.455  28.096  1.00  0.00     0.010 A 
ATOM     35  C   UNL A   1      43.049  22.929  25.697  1.00  0.00     0.010 A 
ATOM     36  C   UNL A   1      43.171  23.304  27.041  1.00  0.00    -0.014 A 
BRANCH  36  37
ATOM     37  C   UNL A   1      43.648  24.643  27.381  1.00  0.00     0.031 A 
ATOM     38  C   UNL A   1      42.507  25.595  27.670  1.00  0.00     0.074 A 
ATOM     39  C   UNL A   1      45.002  24.813  27.294  1.00  0.00     0.049 A 
ATOM     40  N   UNL A   1      42.467  26.877  27.512  1.00  0.00    -0.248 NA
ATOM     41  C   UNL A   1      41.190  25.052  28.102  1.00  0.00     0.031 C 
ATOM     42  C   UNL A   1      45.965  23.731  26.967  1.00  0.00     0.029 A 
ATOM     43  N   UNL A   1      45.845  25.892  27.437  1.00  0.00    -0.354 N 
ATOM     44  C   UNL A   1      41.209  27.312  27.960  1.00  0.00     0.074 A 
ATOM     45  C   UNL A   1      40.428  26.141  28.217  1.00  0.00     0.031 C 
ATOM     46  C   UNL A   1      47.219  24.217  26.864  1.00  0.00     0.029 A 
ATOM     47  C   UNL A   1      47.207  25.639  27.140  1.00  0.00     0.049 A 
ATOM     48  H   UNL A   1      45.523  26.777  27.724  1.00  0.00     0.167 HD
ATOM     49  C   UNL A   1      40.925  28.619  28.205  1.00  0.00     0.031 A 
ATOM     50  C   UNL A   1      48.250  26.518  27.078  1.00  0.00     0.031 A 
ATOM     51  C   UNL A   1      42.042  29.445  27.890  1.00  0.00     0.049 A 
ATOM     52  C   UNL A   1      47.715  27.824  27.507  1.00  0.00     0.074 A 
ATOM     53  C   UNL A   1      42.590  29.853  26.701  1.00  0.00     0.029 A 
ATOM     54  N   UNL A   1      42.952  29.654  28.899  1.00  0.00    -0.354 N 
ATOM     55  N   UNL A   1      47.377  28.135  28.721  1.00  0.00    -0.248 NA
ATOM     56  C   UNL A   1      47.462  28.853  26.489  1.00  0.00     0.031 C 
ATOM     57  C   UNL A   1      43.977  29.901  26.963  1.00  0.00     0.029 A 
ATOM     58  C   UNL A   1      44.201  29.653  28.322  1.00  0.00     0.049 A 
ATOM     59  H   UNL A   1      42.749  29.780  29.854  1.00  0.00     0.167 HD
ATOM     60  C   UNL A   1      46.541  29.209  28.535  1.00  0.00     0.074 A 
ATOM     61  C   UNL A   1      46.887  29.779  27.251  1.00  0.00     0.031 C 
ATOM     62  C   UNL A   1      45.320  29.222  29.131  1.00  0.00     0.031 A 
BRANCH  49  63
ATOM     63  C   UNL A   1      39.773  29.234  28.934  1.00  0.00    -0.014 A 
ATOM     64  C   UNL A   1      38.671  29.653  28.152  1.00  0.00     0.010 A 
ATOM     65  C   UNL A   1      39.858  29.698  30.255  1.00  0.00     0.010 A 
ATOM     66  C   UNL A   1      37.765  30.602  28.622  1.00  0.00     0.020 A 
ATOM     67  C   UNL A   1      38.928  30.625  30.748  1.00  0.00     0.020 A 
ATOM     68  C   UNL A   1      37.924  31.111  29.908  1.00  0.00     0.054 A 
BRANCH  68  69
ATOM     69  S   UNL A   1      36.855  32.478  30.425  1.00  0.00     0.124 S 
ATOM     70  O   UNL A   1      35.923  31.811  31.330  1.00  0.00    -0.237 OA
ATOM     71  O   UNL A   1      37.798  33.396  31.062  1.00  0.00    -0.237 OA
ATOM     72  O   UNL A   1      36.283  32.959  29.170  1.00  0.00    -0.744 OA
ENDBRANCH  68  69
ENDBRANCH  49  63
BRANCH  50  73
ATOM     73  C   UNL A   1      49.675  26.504  26.583  1.00  0.00    -0.014 A 
ATOM     74  C   UNL A   1      50.814  26.198  27.339  1.00  0.00     0.010 A 
ATOM     75  C   UNL A   1      49.900  26.713  25.193  1.00  0.00     0.010 A 
ATOM     76  C   UNL A   1      52.067  25.974  26.721  1.00  0.00     0.020 A 
ATOM     77  C   UNL A   1      51.117  26.451  24.563  1.00  0.00     0.020 A 
ATOM     78  C   UNL A   1      52.197  26.055  25.331  1.00  0.00     0.054 A 
BRANCH  78  79
ATOM     79  S   UNL A   1      53.716  25.526  24.492  1.00  0.00     0.124 S 
ATOM     80  O   UNL A   1      53.423  25.829  23.095  1.00  0.00    -0.237 OA
ATOM     81  O   UNL A   1      54.744  26.354  25.118  1.00  0.00    -0.237 OA
ATOM     82  O   UNL A   1      53.798  24.103  24.821  1.00  0.00    -0.744 OA
ENDBRANCH  78  79
ENDBRANCH  50  73
BRANCH  62  83
ATOM     83  C   UNL A   1      45.214  28.372  30.390  1.00  0.00    -0.014 A 
ATOM     84  C   UNL A   1      44.596  27.110  30.333  1.00  0.00     0.010 A 
ATOM     85  C   UNL A   1      45.621  28.836  31.656  1.00  0.00     0.010 A 
ATOM     86  C   UNL A   1      44.384  26.347  31.492  1.00  0.00     0.020 A 
ATOM     87  C   UNL A   1      45.415  28.081  32.824  1.00  0.00     0.020 A 
ATOM     88  C   UNL A   1      44.793  26.838  32.734  1.00  0.00     0.054 A 
BRANCH  88  89
ATOM     89  S   UNL A   1      44.480  25.837  34.220  1.00  0.00     0.124 S 
ATOM     90  O   UNL A   1      44.679  26.796  35.304  1.00  0.00    -0.237 OA
ATOM     91  O   UNL A   1      43.100  25.402  34.019  1.00  0.00    -0.237 OA
ATOM     92  O   UNL A   1      45.481  24.775  34.147  1.00  0.00    -0.744 OA
ENDBRANCH  88  89
ENDBRANCH  62  83
ENDBRANCH  36  37
ENDBRANCH  29  31
ENDBRANCH  28  29
ENDBRANCH  27  28
ENDBRANCH  26  27
ENDBRANCH  25  26
ENDBRANCH  24  25
ENDBRANCH   1  24
TORSDOF 25
ENDMDL
