MODEL 1
REMARK VINA RESULT:      -6.6      0.000      0.000
REMARK SMILES CC(C)C[C@H](NC(=O)CNC(=O)[C@@H](NC(=O)OCc1ccccc1)C(C)C)C(=O)OCCOCCOCCOCCOC(=O)c1ccc(-c2c3nc(c(-c4ccc(S(=O)(=O)[O-])cc4)c4ccc([nH]4)c(-c4ccc(S(=O)(=O)[O-])cc4)c4nc(c(-c5ccc(S(=O)(=O)[O-])cc5)c5ccc2[nH]5)C=C4)C=C3)cc1
REMARK SMILES IDX 34 1 33 2 32 3 31 4 30 5 28 6 29 7 5 8 4 9 2 10 1 11 3 12
REMARK SMILES IDX 6 13 7 14 8 16 9 17 10 18 11 19 12 21 13 22 14 23 15 24
REMARK SMILES IDX 16 26 17 27 18 28 19 29 20 30 24 31 21 32 23 33 22 34 25 35
REMARK SMILES IDX 26 36 27 37 35 38 36 39 37 40 38 41 39 42 40 43 41 44 42 45
REMARK SMILES IDX 43 46 44 47 45 48 46 49 104 50 47 51 103 52 48 53 49 54
REMARK SMILES IDX 50 55 97 56 51 57 102 58 96 59 98 60 52 61 101 62 95 63
REMARK SMILES IDX 94 64 53 66 83 67 64 68 82 69 65 70 68 71 81 72 99 73 66 74
REMARK SMILES IDX 67 75 80 77 100 78 69 79 54 80 55 81 63 82 56 83 62 84 57 85
REMARK SMILES IDX 58 86 59 87 60 88 61 89 84 90 85 91 93 92 86 93 92 94 87 95
REMARK SMILES IDX 88 96 89 97 90 98 91 99 70 100 71 101 79 102 72 103 78 104
REMARK SMILES IDX 73 105 74 106 75 107 76 108 77 109
REMARK H PARENT 6 15 10 20 14 25 98 65 68 76
REMARK Flexibility Score: inf
ROOT
ATOM      1  C   UNL A   1      31.050  32.159  25.790  1.00  0.00     0.188 C 
ENDROOT
BRANCH   1   2
ATOM      2  O   UNL A   1      31.251  32.789  27.050  1.00  0.00    -0.376 OA
BRANCH   2   3
ATOM      3  C   UNL A   1      32.547  33.209  27.449  1.00  0.00     0.202 C 
BRANCH   3   4
ATOM      4  C   UNL A   1      33.353  32.243  28.321  1.00  0.00     0.261 C 
BRANCH   4   5
ATOM      5  O   UNL A   1      34.484  32.835  28.988  1.00  0.00    -0.462 OA
BRANCH   5   6
ATOM      6  C   UNL A   1      34.495  34.195  29.044  1.00  0.00     0.328 C 
ATOM      7  O   UNL A   1      34.794  34.929  28.109  1.00  0.00    -0.250 OA
BRANCH   6   8
ATOM      8  C   UNL A   1      34.231  34.741  30.467  1.00  0.00     0.192 C 
BRANCH   8   9
ATOM      9  C   UNL A   1      33.441  36.054  30.333  1.00  0.00     0.040 C 
BRANCH   9  10
ATOM     10  C   UNL A   1      32.817  36.516  31.662  1.00  0.00    -0.015 C 
ATOM     11  C   UNL A   1      32.673  35.345  32.634  1.00  0.00     0.007 C 
ATOM     12  C   UNL A   1      33.662  37.623  32.287  1.00  0.00     0.007 C 
ENDBRANCH   9  10
ENDBRANCH   8   9
BRANCH   8  13
ATOM     13  N   UNL A   1      35.432  35.000  31.270  1.00  0.00    -0.341 N 
ATOM     14  C   UNL A   1      36.088  34.286  32.222  1.00  0.00     0.240 C 
ATOM     15  H   UNL A   1      35.848  35.871  31.079  1.00  0.00     0.164 HD
ATOM     16  O   UNL A   1      37.045  34.849  32.766  1.00  0.00    -0.273 OA
BRANCH  14  17
ATOM     17  C   UNL A   1      35.693  32.869  32.704  1.00  0.00     0.216 C 
BRANCH  17  18
ATOM     18  N   UNL A   1      36.284  32.250  33.879  1.00  0.00    -0.345 N 
ATOM     19  C   UNL A   1      37.544  31.946  34.286  1.00  0.00     0.243 C 
ATOM     20  H   UNL A   1      35.605  31.988  34.543  1.00  0.00     0.164 HD
ATOM     21  O   UNL A   1      37.607  31.472  35.429  1.00  0.00    -0.273 OA
BRANCH  19  22
ATOM     22  C   UNL A   1      38.848  32.133  33.441  1.00  0.00     0.177 C 
BRANCH  22  23
ATOM     23  N   UNL A   1      40.012  32.318  34.308  1.00  0.00    -0.309 N 
ATOM     24  C   UNL A   1      41.302  32.683  34.077  1.00  0.00     0.408 C 
ATOM     25  H   UNL A   1      39.822  32.139  35.258  1.00  0.00     0.167 HD
ATOM     26  O   UNL A   1      42.164  32.300  34.849  1.00  0.00    -0.225 OA
BRANCH  24  27
ATOM     27  O   UNL A   1      41.514  33.469  33.002  1.00  0.00    -0.445 OA
BRANCH  27  28
ATOM     28  C   UNL A   1      42.896  33.761  32.721  1.00  0.00     0.270 C 
BRANCH  28  29
ATOM     29  C   UNL A   1      43.118  34.516  31.427  1.00  0.00    -0.011 A 
ATOM     30  C   UNL A   1      44.362  35.055  31.072  1.00  0.00     0.007 A 
ATOM     31  C   UNL A   1      42.036  34.710  30.551  1.00  0.00     0.007 A 
ATOM     32  C   UNL A   1      44.535  35.724  29.857  1.00  0.00     0.000 A 
ATOM     33  C   UNL A   1      42.208  35.386  29.340  1.00  0.00     0.000 A 
ATOM     34  C   UNL A   1      43.459  35.882  28.987  1.00  0.00     0.000 A 
ENDBRANCH  28  29
ENDBRANCH  27  28
ENDBRANCH  24  27
ENDBRANCH  22  23
BRANCH  22  35
ATOM     35  C   UNL A   1      39.005  31.114  32.277  1.00  0.00     0.015 C 
ATOM     36  C   UNL A   1      37.882  30.076  32.164  1.00  0.00     0.010 C 
ATOM     37  C   UNL A   1      39.074  31.844  30.923  1.00  0.00     0.010 C 
ENDBRANCH  22  35
ENDBRANCH  19  22
ENDBRANCH  17  18
ENDBRANCH  14  17
ENDBRANCH   8  13
ENDBRANCH   6   8
ENDBRANCH   5   6
ENDBRANCH   4   5
ENDBRANCH   3   4
ENDBRANCH   2   3
ENDBRANCH   1   2
BRANCH   1  38
ATOM     38  C   UNL A   1      30.990  30.630  25.649  1.00  0.00     0.188 C 
BRANCH  38  39
ATOM     39  O   UNL A   1      32.181  29.980  25.277  1.00  0.00    -0.377 OA
BRANCH  39  40
ATOM     40  C   UNL A   1      32.801  29.099  26.197  1.00  0.00     0.188 C 
BRANCH  40  41
ATOM     41  C   UNL A   1      34.331  28.998  26.212  1.00  0.00     0.188 C 
BRANCH  41  42
ATOM     42  O   UNL A   1      35.028  29.769  27.186  1.00  0.00    -0.376 OA
BRANCH  42  43
ATOM     43  C   UNL A   1      35.640  29.111  28.296  1.00  0.00     0.202 C 
BRANCH  43  44
ATOM     44  C   UNL A   1      37.080  29.529  28.581  1.00  0.00     0.261 C 
BRANCH  44  45
ATOM     45  O   UNL A   1      37.935  28.421  28.311  1.00  0.00    -0.460 OA
BRANCH  45  46
ATOM     46  C   UNL A   1      38.821  28.127  29.285  1.00  0.00     0.338 C 
ATOM     47  O   UNL A   1      38.653  27.397  30.247  1.00  0.00    -0.246 OA
BRANCH  46  48
ATOM     48  C   UNL A   1      40.133  28.627  28.829  1.00  0.00     0.060 A 
ATOM     49  C   UNL A   1      40.295  28.911  27.464  1.00  0.00     0.016 A 
ATOM     50  C   UNL A   1      41.159  28.896  29.742  1.00  0.00     0.016 A 
ATOM     51  C   UNL A   1      41.506  29.410  27.000  1.00  0.00     0.010 A 
ATOM     52  C   UNL A   1      42.373  29.380  29.281  1.00  0.00     0.010 A 
ATOM     53  C   UNL A   1      42.560  29.577  27.904  1.00  0.00    -0.014 A 
BRANCH  53  54
ATOM     54  C   UNL A   1      43.949  29.597  27.419  1.00  0.00     0.031 A 
ATOM     55  C   UNL A   1      44.489  28.295  26.900  1.00  0.00     0.074 A 
ATOM     56  C   UNL A   1      44.716  30.687  27.561  1.00  0.00     0.049 A 
ATOM     57  N   UNL A   1      45.713  27.968  26.592  1.00  0.00    -0.248 NA
ATOM     58  C   UNL A   1      43.512  27.200  26.740  1.00  0.00     0.031 C 
ATOM     59  C   UNL A   1      44.263  31.983  28.064  1.00  0.00     0.029 A 
ATOM     60  N   UNL A   1      46.055  30.853  27.340  1.00  0.00    -0.354 N 
ATOM     61  C   UNL A   1      45.654  26.627  26.230  1.00  0.00     0.074 A 
ATOM     62  C   UNL A   1      44.285  26.197  26.367  1.00  0.00     0.031 C 
ATOM     63  C   UNL A   1      45.323  32.805  28.153  1.00  0.00     0.029 A 
ATOM     64  C   UNL A   1      46.525  32.077  27.747  1.00  0.00     0.049 A 
ATOM     65  H   UNL A   1      46.627  30.164  26.929  1.00  0.00     0.167 HD
ATOM     66  C   UNL A   1      46.664  25.821  25.830  1.00  0.00     0.031 A 
ATOM     67  C   UNL A   1      47.790  32.532  27.819  1.00  0.00     0.031 A 
ATOM     68  C   UNL A   1      48.025  26.261  25.752  1.00  0.00     0.049 A 
ATOM     69  C   UNL A   1      48.906  31.622  27.382  1.00  0.00     0.074 A 
ATOM     70  C   UNL A   1      49.141  25.556  25.346  1.00  0.00     0.029 A 
ATOM     71  N   UNL A   1      48.454  27.534  26.109  1.00  0.00    -0.354 N 
ATOM     72  N   UNL A   1      48.837  30.372  26.982  1.00  0.00    -0.248 NA
ATOM     73  C   UNL A   1      50.264  32.179  27.395  1.00  0.00     0.031 C 
ATOM     74  C   UNL A   1      50.252  26.392  25.498  1.00  0.00     0.029 A 
ATOM     75  C   UNL A   1      49.821  27.631  25.949  1.00  0.00     0.049 A 
ATOM     76  H   UNL A   1      47.868  28.257  26.428  1.00  0.00     0.167 HD
ATOM     77  C   UNL A   1      50.140  29.999  26.673  1.00  0.00     0.074 A 
ATOM     78  C   UNL A   1      50.974  31.159  26.930  1.00  0.00     0.031 C 
ATOM     79  C   UNL A   1      50.608  28.812  26.214  1.00  0.00     0.031 A 
BRANCH  66  80
ATOM     80  C   UNL A   1      46.311  24.392  25.524  1.00  0.00    -0.014 A 
ATOM     81  C   UNL A   1      45.770  23.547  26.512  1.00  0.00     0.010 A 
ATOM     82  C   UNL A   1      46.585  23.866  24.249  1.00  0.00     0.010 A 
ATOM     83  C   UNL A   1      45.571  22.189  26.250  1.00  0.00     0.020 A 
ATOM     84  C   UNL A   1      46.361  22.514  23.975  1.00  0.00     0.020 A 
ATOM     85  C   UNL A   1      45.880  21.679  24.986  1.00  0.00     0.054 A 
BRANCH  85  86
ATOM     86  S   UNL A   1      45.644  19.907  24.676  1.00  0.00     0.124 S 
ATOM     87  O   UNL A   1      44.942  19.482  25.884  1.00  0.00    -0.237 OA
ATOM     88  O   UNL A   1      44.846  19.897  23.452  1.00  0.00    -0.237 OA
ATOM     89  O   UNL A   1      47.005  19.396  24.532  1.00  0.00    -0.744 OA
ENDBRANCH  85  86
ENDBRANCH  66  80
BRANCH  67  90
ATOM     90  C   UNL A   1      48.042  33.902  28.337  1.00  0.00    -0.014 A 
ATOM     91  C   UNL A   1      47.784  35.027  27.536  1.00  0.00     0.010 A 
ATOM     92  C   UNL A   1      48.457  34.091  29.669  1.00  0.00     0.010 A 
ATOM     93  C   UNL A   1      47.924  36.316  28.061  1.00  0.00     0.020 A 
ATOM     94  C   UNL A   1      48.579  35.378  30.202  1.00  0.00     0.020 A 
ATOM     95  C   UNL A   1      48.310  36.484  29.394  1.00  0.00     0.054 A 
BRANCH  95  96
ATOM     96  S   UNL A   1      48.370  38.161  30.085  1.00  0.00     0.124 S 
ATOM     97  O   UNL A   1      47.474  38.891  29.193  1.00  0.00    -0.237 OA
ATOM     98  O   UNL A   1      47.883  37.960  31.447  1.00  0.00    -0.237 OA
ATOM     99  O   UNL A   1      49.784  38.520  29.987  1.00  0.00    -0.744 OA
ENDBRANCH  95  96
ENDBRANCH  67  90
BRANCH  79 100
ATOM    100  C   UNL A   1      52.078  28.713  25.922  1.00  0.00    -0.014 A 
ATOM    101  C   UNL A   1      52.977  28.237  26.890  1.00  0.00     0.010 A 
ATOM    102  C   UNL A   1      52.540  28.993  24.624  1.00  0.00     0.010 A 
ATOM    103  C   UNL A   1      54.322  28.051  26.565  1.00  0.00     0.020 A 
ATOM    104  C   UNL A   1      53.878  28.788  24.289  1.00  0.00     0.020 A 
ATOM    105  C   UNL A   1      54.763  28.323  25.265  1.00  0.00     0.054 A 
BRANCH 105 106
ATOM    106  S   UNL A   1      56.495  27.994  24.841  1.00  0.00     0.124 S 
ATOM    107  O   UNL A   1      57.185  29.086  25.523  1.00  0.00    -0.237 OA
ATOM    108  O   UNL A   1      56.716  26.663  25.401  1.00  0.00    -0.237 OA
ATOM    109  O   UNL A   1      56.512  28.060  23.382  1.00  0.00    -0.744 OA
ENDBRANCH 105 106
ENDBRANCH  79 100
ENDBRANCH  53  54
ENDBRANCH  46  48
ENDBRANCH  45  46
ENDBRANCH  44  45
ENDBRANCH  43  44
ENDBRANCH  42  43
ENDBRANCH  41  42
ENDBRANCH  40  41
ENDBRANCH  39  40
ENDBRANCH  38  39
ENDBRANCH   1  38
TORSDOF 34
ENDMDL
MODEL 2
REMARK VINA RESULT:      -6.3      4.143      7.828
REMARK SMILES CC(C)C[C@H](NC(=O)CNC(=O)[C@@H](NC(=O)OCc1ccccc1)C(C)C)C(=O)OCCOCCOCCOCCOC(=O)c1ccc(-c2c3nc(c(-c4ccc(S(=O)(=O)[O-])cc4)c4ccc([nH]4)c(-c4ccc(S(=O)(=O)[O-])cc4)c4nc(c(-c5ccc(S(=O)(=O)[O-])cc5)c5ccc2[nH]5)C=C4)C=C3)cc1
REMARK SMILES IDX 34 1 33 2 32 3 31 4 30 5 28 6 29 7 5 8 4 9 2 10 1 11 3 12
REMARK SMILES IDX 6 13 7 14 8 16 9 17 10 18 11 19 12 21 13 22 14 23 15 24
REMARK SMILES IDX 16 26 17 27 18 28 19 29 20 30 24 31 21 32 23 33 22 34 25 35
REMARK SMILES IDX 26 36 27 37 35 38 36 39 37 40 38 41 39 42 40 43 41 44 42 45
REMARK SMILES IDX 43 46 44 47 45 48 46 49 104 50 47 51 103 52 48 53 49 54
REMARK SMILES IDX 50 55 97 56 51 57 102 58 96 59 98 60 52 61 101 62 95 63
REMARK SMILES IDX 94 64 53 66 83 67 64 68 82 69 65 70 68 71 81 72 99 73 66 74
REMARK SMILES IDX 67 75 80 77 100 78 69 79 54 80 55 81 63 82 56 83 62 84 57 85
REMARK SMILES IDX 58 86 59 87 60 88 61 89 84 90 85 91 93 92 86 93 92 94 87 95
REMARK SMILES IDX 88 96 89 97 90 98 91 99 70 100 71 101 79 102 72 103 78 104
REMARK SMILES IDX 73 105 74 106 75 107 76 108 77 109
REMARK H PARENT 6 15 10 20 14 25 98 65 68 76
REMARK Flexibility Score: inf
ROOT
ATOM      1  C   UNL A   1      40.500  32.589  34.640  1.00  0.00     0.188 C 
ENDROOT
BRANCH   1   2
ATOM      2  O   UNL A   1      41.478  31.556  34.597  1.00  0.00    -0.376 OA
BRANCH   2   3
ATOM      3  C   UNL A   1      41.087  30.195  34.489  1.00  0.00     0.202 C 
BRANCH   3   4
ATOM      4  C   UNL A   1      41.905  29.172  35.282  1.00  0.00     0.261 C 
BRANCH   4   5
ATOM      5  O   UNL A   1      41.702  27.803  34.886  1.00  0.00    -0.462 OA
BRANCH   5   6
ATOM      6  C   UNL A   1      41.964  26.864  35.836  1.00  0.00     0.328 C 
ATOM      7  O   UNL A   1      41.213  26.582  36.764  1.00  0.00    -0.250 OA
BRANCH   6   8
ATOM      8  C   UNL A   1      43.389  26.273  35.722  1.00  0.00     0.192 C 
BRANCH   8   9
ATOM      9  C   UNL A   1      43.425  24.962  36.526  1.00  0.00     0.040 C 
BRANCH   9  10
ATOM     10  C   UNL A   1      44.838  24.599  37.017  1.00  0.00    -0.015 C 
ATOM     11  C   UNL A   1      44.897  24.583  38.545  1.00  0.00     0.007 C 
ATOM     12  C   UNL A   1      45.262  23.245  36.457  1.00  0.00     0.007 C 
ENDBRANCH   9  10
ENDBRANCH   8   9
BRANCH   8  13
ATOM     13  N   UNL A   1      44.467  27.144  36.203  1.00  0.00    -0.341 N 
ATOM     14  C   UNL A   1      45.560  27.689  35.607  1.00  0.00     0.240 C 
ATOM     15  H   UNL A   1      44.381  27.382  37.154  1.00  0.00     0.164 HD
ATOM     16  O   UNL A   1      46.324  28.326  36.343  1.00  0.00    -0.273 OA
BRANCH  14  17
ATOM     17  C   UNL A   1      45.938  27.525  34.115  1.00  0.00     0.216 C 
BRANCH  17  18
ATOM     18  N   UNL A   1      46.102  28.658  33.220  1.00  0.00    -0.345 N 
ATOM     19  C   UNL A   1      46.122  28.835  31.873  1.00  0.00     0.243 C 
ATOM     20  H   UNL A   1      46.228  29.504  33.708  1.00  0.00     0.164 HD
ATOM     21  O   UNL A   1      46.219  30.018  31.519  1.00  0.00    -0.273 OA
BRANCH  19  22
ATOM     22  C   UNL A   1      46.051  27.698  30.800  1.00  0.00     0.177 C 
BRANCH  22  23
ATOM     23  N   UNL A   1      47.353  27.497  30.163  1.00  0.00    -0.309 N 
ATOM     24  C   UNL A   1      48.624  27.411  30.641  1.00  0.00     0.408 C 
ATOM     25  H   UNL A   1      47.298  27.405  29.185  1.00  0.00     0.167 HD
ATOM     26  O   UNL A   1      49.545  27.727  29.907  1.00  0.00    -0.225 OA
BRANCH  24  27
ATOM     27  O   UNL A   1      48.757  26.957  31.903  1.00  0.00    -0.445 OA
BRANCH  27  28
ATOM     28  C   UNL A   1      48.745  25.524  32.043  1.00  0.00     0.270 C 
BRANCH  28  29
ATOM     29  C   UNL A   1      49.836  24.982  32.944  1.00  0.00    -0.011 A 
ATOM     30  C   UNL A   1      51.029  24.444  32.442  1.00  0.00     0.007 A 
ATOM     31  C   UNL A   1      49.645  24.992  34.336  1.00  0.00     0.007 A 
ATOM     32  C   UNL A   1      52.023  23.976  33.306  1.00  0.00     0.000 A 
ATOM     33  C   UNL A   1      50.637  24.517  35.198  1.00  0.00     0.000 A 
ATOM     34  C   UNL A   1      51.831  24.021  34.684  1.00  0.00     0.000 A 
ENDBRANCH  28  29
ENDBRANCH  27  28
ENDBRANCH  24  27
ENDBRANCH  22  23
BRANCH  22  35
ATOM     35  C   UNL A   1      45.306  26.419  31.275  1.00  0.00     0.015 C 
ATOM     36  C   UNL A   1      43.780  26.546  31.361  1.00  0.00     0.010 C 
ATOM     37  C   UNL A   1      45.601  25.237  30.332  1.00  0.00     0.010 C 
ENDBRANCH  22  35
ENDBRANCH  19  22
ENDBRANCH  17  18
ENDBRANCH  14  17
ENDBRANCH   8  13
ENDBRANCH   6   8
ENDBRANCH   5   6
ENDBRANCH   4   5
ENDBRANCH   3   4
ENDBRANCH   2   3
ENDBRANCH   1   2
BRANCH   1  38
ATOM     38  C   UNL A   1      39.651  32.848  35.895  1.00  0.00     0.188 C 
BRANCH  38  39
ATOM     39  O   UNL A   1      38.305  32.439  35.846  1.00  0.00    -0.377 OA
BRANCH  39  40
ATOM     40  C   UNL A   1      37.720  32.144  34.590  1.00  0.00     0.188 C 
BRANCH  40  41
ATOM     41  C   UNL A   1      37.152  33.292  33.749  1.00  0.00     0.188 C 
BRANCH  41  42
ATOM     42  O   UNL A   1      36.024  33.006  32.927  1.00  0.00    -0.376 OA
BRANCH  42  43
ATOM     43  C   UNL A   1      36.228  32.580  31.579  1.00  0.00     0.202 C 
BRANCH  43  44
ATOM     44  C   UNL A   1      35.574  31.250  31.217  1.00  0.00     0.261 C 
BRANCH  44  45
ATOM     45  O   UNL A   1      36.514  30.467  30.484  1.00  0.00    -0.460 OA
BRANCH  45  46
ATOM     46  C   UNL A   1      37.255  29.616  31.223  1.00  0.00     0.338 C 
ATOM     47  O   UNL A   1      36.855  28.743  31.975  1.00  0.00    -0.246 OA
BRANCH  46  48
ATOM     48  C   UNL A   1      38.646  29.741  30.745  1.00  0.00     0.060 A 
ATOM     49  C   UNL A   1      38.906  30.630  29.691  1.00  0.00     0.016 A 
ATOM     50  C   UNL A   1      39.691  29.061  31.381  1.00  0.00     0.016 A 
ATOM     51  C   UNL A   1      40.207  30.797  29.231  1.00  0.00     0.010 A 
ATOM     52  C   UNL A   1      40.987  29.213  30.916  1.00  0.00     0.010 A 
ATOM     53  C   UNL A   1      41.230  30.035  29.805  1.00  0.00    -0.014 A 
BRANCH  53  54
ATOM     54  C   UNL A   1      42.471  29.787  29.053  1.00  0.00     0.031 A 
ATOM     55  C   UNL A   1      42.641  28.403  28.493  1.00  0.00     0.074 A 
ATOM     56  C   UNL A   1      43.441  30.709  28.996  1.00  0.00     0.049 A 
ATOM     57  N   UNL A   1      43.693  27.846  27.963  1.00  0.00    -0.248 NA
ATOM     58  C   UNL A   1      41.464  27.516  28.575  1.00  0.00     0.031 C 
ATOM     59  C   UNL A   1      43.350  32.069  29.523  1.00  0.00     0.029 A 
ATOM     60  N   UNL A   1      44.715  30.614  28.506  1.00  0.00    -0.354 N 
ATOM     61  C   UNL A   1      43.312  26.540  27.675  1.00  0.00     0.074 A 
ATOM     62  C   UNL A   1      41.943  26.382  28.098  1.00  0.00     0.031 C 
ATOM     63  C   UNL A   1      44.541  32.673  29.367  1.00  0.00     0.029 A 
ATOM     64  C   UNL A   1      45.478  31.727  28.761  1.00  0.00     0.049 A 
ATOM     65  H   UNL A   1      45.052  29.826  28.020  1.00  0.00     0.167 HD
ATOM     66  C   UNL A   1      44.051  25.554  27.118  1.00  0.00     0.031 A 
ATOM     67  C   UNL A   1      46.794  31.930  28.563  1.00  0.00     0.031 A 
ATOM     68  C   UNL A   1      45.426  25.724  26.754  1.00  0.00     0.049 A 
ATOM     69  C   UNL A   1      47.608  30.821  27.952  1.00  0.00     0.074 A 
ATOM     70  C   UNL A   1      46.285  24.817  26.165  1.00  0.00     0.029 A 
ATOM     71  N   UNL A   1      46.149  26.892  26.965  1.00  0.00    -0.354 N 
ATOM     72  N   UNL A   1      47.226  29.607  27.625  1.00  0.00    -0.248 NA
ATOM     73  C   UNL A   1      49.020  31.108  27.672  1.00  0.00     0.031 C 
ATOM     74  C   UNL A   1      47.540  25.425  26.058  1.00  0.00     0.029 A 
ATOM     75  C   UNL A   1      47.449  26.725  26.534  1.00  0.00     0.049 A 
ATOM     76  H   UNL A   1      45.786  27.715  27.364  1.00  0.00     0.167 HD
ATOM     77  C   UNL A   1      48.346  28.989  27.081  1.00  0.00     0.074 A 
ATOM     78  C   UNL A   1      49.417  29.969  27.119  1.00  0.00     0.031 C 
ATOM     79  C   UNL A   1      48.481  27.733  26.588  1.00  0.00     0.031 A 
BRANCH  66  80
ATOM     80  C   UNL A   1      43.382  24.219  26.947  1.00  0.00    -0.014 A 
ATOM     81  C   UNL A   1      43.118  23.389  28.055  1.00  0.00     0.010 A 
ATOM     82  C   UNL A   1      43.072  23.756  25.657  1.00  0.00     0.010 A 
ATOM     83  C   UNL A   1      42.618  22.098  27.868  1.00  0.00     0.020 A 
ATOM     84  C   UNL A   1      42.546  22.476  25.468  1.00  0.00     0.020 A 
ATOM     85  C   UNL A   1      42.347  21.645  26.573  1.00  0.00     0.054 A 
BRANCH  85  86
ATOM     86  S   UNL A   1      41.727  19.954  26.350  1.00  0.00     0.124 S 
ATOM     87  O   UNL A   1      42.454  19.524  25.159  1.00  0.00    -0.237 OA
ATOM     88  O   UNL A   1      42.121  19.299  27.595  1.00  0.00    -0.237 OA
ATOM     89  O   UNL A   1      40.288  20.135  26.173  1.00  0.00    -0.744 OA
ENDBRANCH  85  86
ENDBRANCH  66  80
BRANCH  67  90
ATOM     90  C   UNL A   1      47.398  33.228  28.963  1.00  0.00    -0.014 A 
ATOM     91  C   UNL A   1      47.987  33.381  30.229  1.00  0.00     0.010 A 
ATOM     92  C   UNL A   1      47.466  34.291  28.043  1.00  0.00     0.010 A 
ATOM     93  C   UNL A   1      48.645  34.568  30.564  1.00  0.00     0.020 A 
ATOM     94  C   UNL A   1      48.140  35.472  28.368  1.00  0.00     0.020 A 
ATOM     95  C   UNL A   1      48.727  35.604  29.627  1.00  0.00     0.054 A 
BRANCH  95  96
ATOM     96  S   UNL A   1      49.686  37.088  30.042  1.00  0.00     0.124 S 
ATOM     97  O   UNL A   1      48.957  38.132  29.328  1.00  0.00    -0.237 OA
ATOM     98  O   UNL A   1      49.589  37.131  31.499  1.00  0.00    -0.237 OA
ATOM     99  O   UNL A   1      51.020  36.788  29.526  1.00  0.00    -0.744 OA
ENDBRANCH  95  96
ENDBRANCH  67  90
BRANCH  79 100
ATOM    100  C   UNL A   1      49.816  27.353  26.015  1.00  0.00    -0.014 A 
ATOM    101  C   UNL A   1      50.458  26.166  26.404  1.00  0.00     0.010 A 
ATOM    102  C   UNL A   1      50.373  28.142  24.993  1.00  0.00     0.010 A 
ATOM    103  C   UNL A   1      51.646  25.777  25.781  1.00  0.00     0.020 A 
ATOM    104  C   UNL A   1      51.548  27.745  24.354  1.00  0.00     0.020 A 
ATOM    105  C   UNL A   1      52.180  26.567  24.757  1.00  0.00     0.054 A 
BRANCH 105 106
ATOM    106  S   UNL A   1      53.678  25.999  23.906  1.00  0.00     0.124 S 
ATOM    107  O   UNL A   1      54.513  27.196  23.935  1.00  0.00    -0.237 OA
ATOM    108  O   UNL A   1      54.128  24.895  24.749  1.00  0.00    -0.237 OA
ATOM    109  O   UNL A   1      53.195  25.608  22.583  1.00  0.00    -0.744 OA
ENDBRANCH 105 106
ENDBRANCH  79 100
ENDBRANCH  53  54
ENDBRANCH  46  48
ENDBRANCH  45  46
ENDBRANCH  44  45
ENDBRANCH  43  44
ENDBRANCH  42  43
ENDBRANCH  41  42
ENDBRANCH  40  41
ENDBRANCH  39  40
ENDBRANCH  38  39
ENDBRANCH   1  38
TORSDOF 34
ENDMDL
MODEL 3
REMARK VINA RESULT:      -5.6      4.253      7.947
REMARK SMILES CC(C)C[C@H](NC(=O)CNC(=O)[C@@H](NC(=O)OCc1ccccc1)C(C)C)C(=O)OCCOCCOCCOCCOC(=O)c1ccc(-c2c3nc(c(-c4ccc(S(=O)(=O)[O-])cc4)c4ccc([nH]4)c(-c4ccc(S(=O)(=O)[O-])cc4)c4nc(c(-c5ccc(S(=O)(=O)[O-])cc5)c5ccc2[nH]5)C=C4)C=C3)cc1
REMARK SMILES IDX 34 1 33 2 32 3 31 4 30 5 28 6 29 7 5 8 4 9 2 10 1 11 3 12
REMARK SMILES IDX 6 13 7 14 8 16 9 17 10 18 11 19 12 21 13 22 14 23 15 24
REMARK SMILES IDX 16 26 17 27 18 28 19 29 20 30 24 31 21 32 23 33 22 34 25 35
REMARK SMILES IDX 26 36 27 37 35 38 36 39 37 40 38 41 39 42 40 43 41 44 42 45
REMARK SMILES IDX 43 46 44 47 45 48 46 49 104 50 47 51 103 52 48 53 49 54
REMARK SMILES IDX 50 55 97 56 51 57 102 58 96 59 98 60 52 61 101 62 95 63
REMARK SMILES IDX 94 64 53 66 83 67 64 68 82 69 65 70 68 71 81 72 99 73 66 74
REMARK SMILES IDX 67 75 80 77 100 78 69 79 54 80 55 81 63 82 56 83 62 84 57 85
REMARK SMILES IDX 58 86 59 87 60 88 61 89 84 90 85 91 93 92 86 93 92 94 87 95
REMARK SMILES IDX 88 96 89 97 90 98 91 99 70 100 71 101 79 102 72 103 78 104
REMARK SMILES IDX 73 105 74 106 75 107 76 108 77 109
REMARK H PARENT 6 15 10 20 14 25 98 65 68 76
REMARK Flexibility Score: inf
ROOT
ATOM      1  C   UNL A   1      40.502  32.673  34.617  1.00  0.00     0.188 C 
ENDROOT
BRANCH   1   2
ATOM      2  O   UNL A   1      41.314  31.536  34.887  1.00  0.00    -0.376 OA
BRANCH   2   3
ATOM      3  C   UNL A   1      41.652  31.190  36.222  1.00  0.00     0.202 C 
BRANCH   3   4
ATOM      4  C   UNL A   1      43.133  30.942  36.523  1.00  0.00     0.261 C 
BRANCH   4   5
ATOM      5  O   UNL A   1      43.402  30.441  37.845  1.00  0.00    -0.462 OA
BRANCH   5   6
ATOM      6  C   UNL A   1      44.560  30.869  38.419  1.00  0.00     0.328 C 
ATOM      7  O   UNL A   1      44.683  31.916  39.044  1.00  0.00    -0.250 OA
BRANCH   6   8
ATOM      8  C   UNL A   1      45.770  29.966  38.079  1.00  0.00     0.192 C 
BRANCH   8   9
ATOM      9  C   UNL A   1      46.798  30.104  39.213  1.00  0.00     0.040 C 
BRANCH   9  10
ATOM     10  C   UNL A   1      48.176  29.524  38.847  1.00  0.00    -0.015 C 
ATOM     11  C   UNL A   1      49.302  30.403  39.394  1.00  0.00     0.007 C 
ATOM     12  C   UNL A   1      48.310  28.100  39.378  1.00  0.00     0.007 C 
ENDBRANCH   9  10
ENDBRANCH   8   9
BRANCH   8  13
ATOM     13  N   UNL A   1      46.436  30.266  36.807  1.00  0.00    -0.341 N 
ATOM     14  C   UNL A   1      46.684  29.534  35.689  1.00  0.00     0.240 C 
ATOM     15  H   UNL A   1      46.773  31.189  36.751  1.00  0.00     0.164 HD
ATOM     16  O   UNL A   1      47.357  30.087  34.811  1.00  0.00    -0.273 OA
BRANCH  14  17
ATOM     17  C   UNL A   1      46.243  28.067  35.468  1.00  0.00     0.216 C 
BRANCH  17  18
ATOM     18  N   UNL A   1      45.236  27.692  34.489  1.00  0.00    -0.345 N 
ATOM     19  C   UNL A   1      44.963  26.582  33.754  1.00  0.00     0.243 C 
ATOM     20  H   UNL A   1      44.593  28.418  34.318  1.00  0.00     0.164 HD
ATOM     21  O   UNL A   1      43.932  26.666  33.073  1.00  0.00    -0.273 OA
BRANCH  19  22
ATOM     22  C   UNL A   1      45.833  25.282  33.704  1.00  0.00     0.177 C 
BRANCH  22  23
ATOM     23  N   UNL A   1      46.606  25.217  32.463  1.00  0.00    -0.309 N 
ATOM     24  C   UNL A   1      47.333  26.131  31.765  1.00  0.00     0.408 C 
ATOM     25  H   UNL A   1      46.597  24.326  32.045  1.00  0.00     0.167 HD
ATOM     26  O   UNL A   1      47.463  25.977  30.562  1.00  0.00    -0.225 OA
BRANCH  24  27
ATOM     27  O   UNL A   1      47.872  27.137  32.482  1.00  0.00    -0.445 OA
BRANCH  27  28
ATOM     28  C   UNL A   1      49.151  26.847  33.077  1.00  0.00     0.270 C 
BRANCH  28  29
ATOM     29  C   UNL A   1      50.323  27.497  32.371  1.00  0.00    -0.011 A 
ATOM     30  C   UNL A   1      50.712  28.821  32.619  1.00  0.00     0.007 A 
ATOM     31  C   UNL A   1      51.042  26.762  31.414  1.00  0.00     0.007 A 
ATOM     32  C   UNL A   1      51.815  29.378  31.967  1.00  0.00     0.000 A 
ATOM     33  C   UNL A   1      52.140  27.323  30.756  1.00  0.00     0.000 A 
ATOM     34  C   UNL A   1      52.534  28.627  31.042  1.00  0.00     0.000 A 
ENDBRANCH  28  29
ENDBRANCH  27  28
ENDBRANCH  24  27
ENDBRANCH  22  23
BRANCH  22  35
ATOM     35  C   UNL A   1      46.607  24.981  35.018  1.00  0.00     0.015 C 
ATOM     36  C   UNL A   1      45.753  24.429  36.166  1.00  0.00     0.010 C 
ATOM     37  C   UNL A   1      47.729  23.956  34.765  1.00  0.00     0.010 C 
ENDBRANCH  22  35
ENDBRANCH  19  22
ENDBRANCH  17  18
ENDBRANCH  14  17
ENDBRANCH   8  13
ENDBRANCH   6   8
ENDBRANCH   5   6
ENDBRANCH   4   5
ENDBRANCH   3   4
ENDBRANCH   2   3
ENDBRANCH   1   2
BRANCH   1  38
ATOM     38  C   UNL A   1      39.685  33.365  35.719  1.00  0.00     0.188 C 
BRANCH  38  39
ATOM     39  O   UNL A   1      38.308  33.075  35.764  1.00  0.00    -0.377 OA
BRANCH  39  40
ATOM     40  C   UNL A   1      37.703  32.432  34.656  1.00  0.00     0.188 C 
BRANCH  40  41
ATOM     41  C   UNL A   1      37.224  33.283  33.475  1.00  0.00     0.188 C 
BRANCH  41  42
ATOM     42  O   UNL A   1      36.106  32.804  32.733  1.00  0.00    -0.376 OA
BRANCH  42  43
ATOM     43  C   UNL A   1      36.326  32.030  31.553  1.00  0.00     0.202 C 
BRANCH  43  44
ATOM     44  C   UNL A   1      35.816  30.593  31.621  1.00  0.00     0.261 C 
BRANCH  44  45
ATOM     45  O   UNL A   1      36.847  29.724  31.158  1.00  0.00    -0.460 OA
BRANCH  45  46
ATOM     46  C   UNL A   1      37.620  29.184  32.122  1.00  0.00     0.338 C 
ATOM     47  O   UNL A   1      37.259  28.522  33.081  1.00  0.00    -0.246 OA
BRANCH  46  48
ATOM     48  C   UNL A   1      39.017  29.298  31.658  1.00  0.00     0.060 A 
ATOM     49  C   UNL A   1      39.296  30.198  30.618  1.00  0.00     0.016 A 
ATOM     50  C   UNL A   1      40.048  28.597  32.295  1.00  0.00     0.016 A 
ATOM     51  C   UNL A   1      40.603  30.355  30.172  1.00  0.00     0.010 A 
ATOM     52  C   UNL A   1      41.350  28.740  31.842  1.00  0.00     0.010 A 
ATOM     53  C   UNL A   1      41.612  29.573  30.744  1.00  0.00    -0.014 A 
BRANCH  53  54
ATOM     54  C   UNL A   1      42.856  29.319  29.999  1.00  0.00     0.031 A 
ATOM     55  C   UNL A   1      42.974  27.973  29.344  1.00  0.00     0.074 A 
ATOM     56  C   UNL A   1      43.870  30.196  30.027  1.00  0.00     0.049 A 
ATOM     57  N   UNL A   1      44.011  27.405  28.795  1.00  0.00    -0.248 NA
ATOM     58  C   UNL A   1      41.755  27.139  29.340  1.00  0.00     0.031 C 
ATOM     59  C   UNL A   1      43.831  31.518  30.650  1.00  0.00     0.029 A 
ATOM     60  N   UNL A   1      45.148  30.075  29.556  1.00  0.00    -0.354 N 
ATOM     61  C   UNL A   1      43.576  26.142  28.407  1.00  0.00     0.074 A 
ATOM     62  C   UNL A   1      42.192  26.020  28.792  1.00  0.00     0.031 C 
ATOM     63  C   UNL A   1      45.052  32.073  30.560  1.00  0.00     0.029 A 
ATOM     64  C   UNL A   1      45.956  31.128  29.905  1.00  0.00     0.049 A 
ATOM     65  H   UNL A   1      45.459  29.308  29.021  1.00  0.00     0.167 HD
ATOM     66  C   UNL A   1      44.280  25.164  27.794  1.00  0.00     0.031 A 
ATOM     67  C   UNL A   1      47.285  31.282  29.747  1.00  0.00     0.031 A 
ATOM     68  C   UNL A   1      45.669  25.294  27.468  1.00  0.00     0.049 A 
ATOM     69  C   UNL A   1      48.059  30.181  29.073  1.00  0.00     0.074 A 
ATOM     70  C   UNL A   1      46.497  24.390  26.832  1.00  0.00     0.029 A 
ATOM     71  N   UNL A   1      46.441  26.407  27.778  1.00  0.00    -0.354 N 
ATOM     72  N   UNL A   1      47.629  29.013  28.652  1.00  0.00    -0.248 NA
ATOM     73  C   UNL A   1      49.489  30.418  28.841  1.00  0.00     0.031 C 
ATOM     74  C   UNL A   1      47.781  24.943  26.793  1.00  0.00     0.029 A 
ATOM     75  C   UNL A   1      47.741  26.209  27.360  1.00  0.00     0.049 A 
ATOM     76  H   UNL A   1      46.108  27.216  28.228  1.00  0.00     0.167 HD
ATOM     77  C   UNL A   1      48.730  28.382  28.086  1.00  0.00     0.074 A 
ATOM     78  C   UNL A   1      49.845  29.304  28.214  1.00  0.00     0.031 C 
ATOM     79  C   UNL A   1      48.817  27.160  27.506  1.00  0.00     0.031 A 
BRANCH  66  80
ATOM     80  C   UNL A   1      43.553  23.878  27.515  1.00  0.00    -0.014 A 
ATOM     81  C   UNL A   1      42.893  23.176  28.542  1.00  0.00     0.010 A 
ATOM     82  C   UNL A   1      43.585  23.328  26.221  1.00  0.00     0.010 A 
ATOM     83  C   UNL A   1      42.336  21.919  28.295  1.00  0.00     0.020 A 
ATOM     84  C   UNL A   1      43.005  22.083  25.964  1.00  0.00     0.020 A 
ATOM     85  C   UNL A   1      42.408  21.374  27.010  1.00  0.00     0.054 A 
BRANCH  85  86
ATOM     86  S   UNL A   1      41.705  19.727  26.717  1.00  0.00     0.124 S 
ATOM     87  O   UNL A   1      40.350  19.883  27.236  1.00  0.00    -0.237 OA
ATOM     88  O   UNL A   1      41.809  19.586  25.266  1.00  0.00    -0.237 OA
ATOM     89  O   UNL A   1      42.572  18.840  27.489  1.00  0.00    -0.744 OA
ENDBRANCH  85  86
ENDBRANCH  66  80
BRANCH  67  90
ATOM     90  C   UNL A   1      47.940  32.517  30.251  1.00  0.00    -0.014 A 
ATOM     91  C   UNL A   1      48.442  32.574  31.562  1.00  0.00     0.010 A 
ATOM     92  C   UNL A   1      48.144  33.612  29.391  1.00  0.00     0.010 A 
ATOM     93  C   UNL A   1      49.149  33.699  31.999  1.00  0.00     0.020 A 
ATOM     94  C   UNL A   1      48.867  34.729  29.819  1.00  0.00     0.020 A 
ATOM     95  C   UNL A   1      49.366  34.766  31.122  1.00  0.00     0.054 A 
BRANCH  95  96
ATOM     96  S   UNL A   1      50.385  36.162  31.675  1.00  0.00     0.124 S 
ATOM     97  O   UNL A   1      49.789  36.482  32.968  1.00  0.00    -0.237 OA
ATOM     98  O   UNL A   1      51.724  35.579  31.721  1.00  0.00    -0.237 OA
ATOM     99  O   UNL A   1      50.190  37.163  30.628  1.00  0.00    -0.744 OA
ENDBRANCH  95  96
ENDBRANCH  67  90
BRANCH  79 100
ATOM    100  C   UNL A   1      50.146  26.757  26.933  1.00  0.00    -0.014 A 
ATOM    101  C   UNL A   1      50.995  25.878  27.623  1.00  0.00     0.010 A 
ATOM    102  C   UNL A   1      50.489  27.179  25.636  1.00  0.00     0.010 A 
ATOM    103  C   UNL A   1      52.175  25.432  27.026  1.00  0.00     0.020 A 
ATOM    104  C   UNL A   1      51.656  26.719  25.028  1.00  0.00     0.020 A 
ATOM    105  C   UNL A   1      52.496  25.851  25.730  1.00  0.00     0.054 A 
BRANCH 105 106
ATOM    106  S   UNL A   1      53.991  25.193  24.942  1.00  0.00     0.124 S 
ATOM    107  O   UNL A   1      54.137  26.075  23.788  1.00  0.00    -0.237 OA
ATOM    108  O   UNL A   1      55.000  25.351  25.986  1.00  0.00    -0.237 OA
ATOM    109  O   UNL A   1      53.637  23.810  24.630  1.00  0.00    -0.744 OA
ENDBRANCH 105 106
ENDBRANCH  79 100
ENDBRANCH  53  54
ENDBRANCH  46  48
ENDBRANCH  45  46
ENDBRANCH  44  45
ENDBRANCH  43  44
ENDBRANCH  42  43
ENDBRANCH  41  42
ENDBRANCH  40  41
ENDBRANCH  39  40
ENDBRANCH  38  39
ENDBRANCH   1  38
TORSDOF 34
ENDMDL
