MODEL 1
REMARK VINA RESULT:      -9.9      0.000      0.000
REMARK SMILES CCC(=O)Nc1cc(NC(=O)/C=C/C(=O)OCCOCCOCCOCCOC(=O)c2ccc(-c3c4nc(c(-c5ccc(S(=O)(=O)[O-])cc5)c5ccc([nH]5)c(-c5ccc(S(=O)(=O)[O-])cc5)c5nc(c(-c6ccc(S(=O)(=O)[O-])cc6)c6ccc3[nH]6)C=C5)C=C4)cc2)ccc1C
REMARK SMILES IDX 21 1 20 2 19 3 18 4 17 5 16 6 14 7 15 8 13 9 12 10 10 11
REMARK SMILES IDX 9 12 11 14 8 15 6 16 7 17 93 18 92 19 94 20 91 21 5 22 3 23
REMARK SMILES IDX 4 24 2 26 1 27 22 28 23 29 24 30 25 31 26 32 27 33 28 34
REMARK SMILES IDX 29 35 30 36 31 37 32 38 90 39 33 40 89 41 34 42 35 43 36 44
REMARK SMILES IDX 83 45 37 46 88 47 82 48 84 49 38 50 87 51 81 52 80 53 39 55
REMARK SMILES IDX 69 56 50 57 68 58 51 59 54 60 67 61 85 62 52 63 53 64 66 66
REMARK SMILES IDX 86 67 55 68 40 69 41 70 49 71 42 72 48 73 43 74 44 75 45 76
REMARK SMILES IDX 46 77 47 78 70 79 71 80 79 81 72 82 78 83 73 84 74 85 75 86
REMARK SMILES IDX 76 87 77 88 56 89 57 90 65 91 58 92 64 93 59 94 60 95 61 96
REMARK SMILES IDX 62 97 63 98
REMARK H PARENT 9 13 5 25 84 54 54 65
REMARK Flexibility Score: inf
ROOT
ATOM      1  C   UNL A   1      41.314  22.653  28.340  1.00  0.00     0.188 C 
ENDROOT
BRANCH   1   2
ATOM      2  C   UNL A   1      40.684  23.982  27.890  1.00  0.00     0.188 C 
BRANCH   2   3
ATOM      3  O   UNL A   1      39.265  23.906  27.785  1.00  0.00    -0.376 OA
BRANCH   3   4
ATOM      4  C   UNL A   1      38.764  24.275  26.490  1.00  0.00     0.202 C 
BRANCH   4   5
ATOM      5  C   UNL A   1      37.960  23.082  25.935  1.00  0.00     0.261 C 
BRANCH   5   6
ATOM      6  O   UNL A   1      37.091  23.585  24.907  1.00  0.00    -0.460 OA
BRANCH   6   7
ATOM      7  C   UNL A   1      35.859  23.971  25.177  1.00  0.00     0.331 C 
ATOM      8  O   UNL A   1      35.225  24.951  24.777  1.00  0.00    -0.247 OA
BRANCH   7   9
ATOM      9  C   UNL A   1      35.247  22.785  25.782  1.00  0.00     0.099 C 
ATOM     10  C   UNL A   1      34.395  22.952  26.792  1.00  0.00     0.079 C 
BRANCH  10  11
ATOM     11  C   UNL A   1      33.362  21.942  27.017  1.00  0.00     0.248 C 
ATOM     12  N   UNL A   1      32.052  22.152  26.673  1.00  0.00    -0.322 N 
ATOM     13  H   UNL A   1      31.465  21.439  27.015  1.00  0.00     0.170 HD
ATOM     14  O   UNL A   1      33.669  20.894  27.589  1.00  0.00    -0.270 OA
BRANCH  12  15
ATOM     15  C   UNL A   1      31.323  23.134  25.951  1.00  0.00     0.043 A 
ATOM     16  C   UNL A   1      30.400  25.382  25.670  1.00  0.00     0.046 A 
ATOM     17  C   UNL A   1      30.699  24.263  26.472  1.00  0.00     0.052 A 
ATOM     18  C   UNL A   1      30.590  25.312  24.287  1.00  0.00    -0.027 A 
ATOM     19  C   UNL A   1      30.956  24.079  23.736  1.00  0.00     0.008 A 
ATOM     20  C   UNL A   1      30.581  26.518  23.385  1.00  0.00     0.046 C 
ATOM     21  C   UNL A   1      31.347  23.015  24.560  1.00  0.00     0.026 A 
BRANCH  16  22
ATOM     22  N   UNL A   1      30.548  26.618  26.304  1.00  0.00    -0.326 N 
ATOM     23  C   UNL A   1      31.597  27.215  26.937  1.00  0.00     0.224 C 
ATOM     24  O   UNL A   1      31.383  27.907  27.935  1.00  0.00    -0.275 OA
ATOM     25  H   UNL A   1      29.731  27.168  26.292  1.00  0.00     0.169 HD
BRANCH  23  26
ATOM     26  C   UNL A   1      32.960  27.102  26.335  1.00  0.00     0.097 C 
ATOM     27  C   UNL A   1      33.356  28.398  25.678  1.00  0.00     0.014 C 
ENDBRANCH  23  26
ENDBRANCH  16  22
ENDBRANCH  12  15
ENDBRANCH  10  11
ENDBRANCH   7   9
ENDBRANCH   6   7
ENDBRANCH   5   6
ENDBRANCH   4   5
ENDBRANCH   3   4
ENDBRANCH   2   3
ENDBRANCH   1   2
BRANCH   1  28
ATOM     28  O   UNL A   1      40.733  21.452  27.849  1.00  0.00    -0.377 OA
BRANCH  28  29
ATOM     29  C   UNL A   1      41.067  20.992  26.530  1.00  0.00     0.188 C 
BRANCH  29  30
ATOM     30  C   UNL A   1      40.365  19.739  25.999  1.00  0.00     0.188 C 
BRANCH  30  31
ATOM     31  O   UNL A   1      41.369  18.754  25.748  1.00  0.00    -0.376 OA
BRANCH  31  32
ATOM     32  C   UNL A   1      42.514  18.778  26.585  1.00  0.00     0.202 C 
BRANCH  32  33
ATOM     33  C   UNL A   1      43.769  18.192  25.938  1.00  0.00     0.261 C 
BRANCH  33  34
ATOM     34  O   UNL A   1      44.132  18.960  24.777  1.00  0.00    -0.460 OA
BRANCH  34  35
ATOM     35  C   UNL A   1      45.283  19.672  24.918  1.00  0.00     0.338 C 
ATOM     36  O   UNL A   1      46.389  19.163  25.026  1.00  0.00    -0.246 OA
BRANCH  35  37
ATOM     37  C   UNL A   1      44.986  21.127  24.967  1.00  0.00     0.060 A 
ATOM     38  C   UNL A   1      45.300  21.960  23.883  1.00  0.00     0.016 A 
ATOM     39  C   UNL A   1      44.563  21.688  26.169  1.00  0.00     0.016 A 
ATOM     40  C   UNL A   1      45.274  23.355  24.030  1.00  0.00     0.010 A 
ATOM     41  C   UNL A   1      44.641  23.055  26.335  1.00  0.00     0.010 A 
ATOM     42  C   UNL A   1      44.980  23.913  25.272  1.00  0.00    -0.014 A 
BRANCH  42  43
ATOM     43  C   UNL A   1      45.135  25.337  25.627  1.00  0.00     0.031 A 
ATOM     44  C   UNL A   1      43.880  26.180  25.827  1.00  0.00     0.074 A 
ATOM     45  C   UNL A   1      46.290  25.675  26.251  1.00  0.00     0.049 A 
ATOM     46  N   UNL A   1      43.775  27.304  26.464  1.00  0.00    -0.248 NA
ATOM     47  C   UNL A   1      42.589  25.783  25.237  1.00  0.00     0.031 C 
ATOM     48  C   UNL A   1      46.307  26.092  27.628  1.00  0.00     0.029 A 
ATOM     49  N   UNL A   1      47.635  25.419  26.059  1.00  0.00    -0.354 N 
ATOM     50  C   UNL A   1      42.420  27.614  26.601  1.00  0.00     0.074 A 
ATOM     51  C   UNL A   1      41.736  26.674  25.751  1.00  0.00     0.031 C 
ATOM     52  C   UNL A   1      47.518  26.372  28.095  1.00  0.00     0.029 A 
ATOM     53  C   UNL A   1      48.375  26.209  26.979  1.00  0.00     0.049 A 
ATOM     54  H   UNL A   1      48.015  24.795  25.399  1.00  0.00     0.167 HD
ATOM     55  C   UNL A   1      41.975  28.553  27.494  1.00  0.00     0.031 A 
ATOM     56  C   UNL A   1      49.240  27.175  26.591  1.00  0.00     0.031 A 
ATOM     57  C   UNL A   1      43.061  29.317  28.126  1.00  0.00     0.049 A 
ATOM     58  C   UNL A   1      48.761  28.590  26.895  1.00  0.00     0.074 A 
ATOM     59  C   UNL A   1      43.308  29.718  29.429  1.00  0.00     0.029 A 
ATOM     60  N   UNL A   1      44.201  29.667  27.398  1.00  0.00    -0.354 N 
ATOM     61  N   UNL A   1      47.524  28.928  27.202  1.00  0.00    -0.248 NA
ATOM     62  C   UNL A   1      49.655  29.742  26.910  1.00  0.00     0.031 C 
ATOM     63  C   UNL A   1      44.630  30.227  29.491  1.00  0.00     0.029 A 
ATOM     64  C   UNL A   1      45.158  30.230  28.211  1.00  0.00     0.049 A 
ATOM     65  H   UNL A   1      44.306  29.528  26.429  1.00  0.00     0.167 HD
ATOM     66  C   UNL A   1      47.438  30.296  27.383  1.00  0.00     0.074 A 
ATOM     67  C   UNL A   1      48.809  30.745  27.206  1.00  0.00     0.031 C 
ATOM     68  C   UNL A   1      46.278  30.978  27.656  1.00  0.00     0.031 A 
BRANCH  55  69
ATOM     69  C   UNL A   1      40.520  28.693  27.997  1.00  0.00    -0.014 A 
ATOM     70  C   UNL A   1      39.555  29.337  27.180  1.00  0.00     0.010 A 
ATOM     71  C   UNL A   1      40.079  28.375  29.299  1.00  0.00     0.010 A 
ATOM     72  C   UNL A   1      38.281  29.715  27.652  1.00  0.00     0.020 A 
ATOM     73  C   UNL A   1      38.784  28.699  29.768  1.00  0.00     0.020 A 
ATOM     74  C   UNL A   1      37.908  29.411  28.955  1.00  0.00     0.054 A 
BRANCH  74  75
ATOM     75  S   UNL A   1      36.292  29.957  29.589  1.00  0.00     0.124 S 
ATOM     76  O   UNL A   1      36.253  29.346  30.915  1.00  0.00    -0.237 OA
ATOM     77  O   UNL A   1      36.401  31.413  29.576  1.00  0.00    -0.237 OA
ATOM     78  O   UNL A   1      35.341  29.406  28.624  1.00  0.00    -0.744 OA
ENDBRANCH  74  75
ENDBRANCH  55  69
BRANCH  56  79
ATOM     79  C   UNL A   1      50.261  26.568  25.669  1.00  0.00    -0.014 A 
ATOM     80  C   UNL A   1      49.852  26.631  24.306  1.00  0.00     0.010 A 
ATOM     81  C   UNL A   1      51.614  26.848  25.960  1.00  0.00     0.010 A 
ATOM     82  C   UNL A   1      50.621  27.344  23.373  1.00  0.00     0.020 A 
ATOM     83  C   UNL A   1      52.394  27.552  25.017  1.00  0.00     0.020 A 
ATOM     84  C   UNL A   1      51.847  27.881  23.771  1.00  0.00     0.054 A 
BRANCH  84  85
ATOM     85  S   UNL A   1      52.506  29.294  22.815  1.00  0.00     0.124 S 
ATOM     86  O   UNL A   1      51.334  29.756  22.081  1.00  0.00    -0.237 OA
ATOM     87  O   UNL A   1      52.983  30.180  23.878  1.00  0.00    -0.237 OA
ATOM     88  O   UNL A   1      53.566  28.697  22.007  1.00  0.00    -0.744 OA
ENDBRANCH  84  85
ENDBRANCH  56  79
BRANCH  68  89
ATOM     89  C   UNL A   1      45.993  32.481  27.501  1.00  0.00    -0.014 A 
ATOM     90  C   UNL A   1      45.312  33.097  26.448  1.00  0.00     0.010 A 
ATOM     91  C   UNL A   1      46.393  33.349  28.562  1.00  0.00     0.010 A 
ATOM     92  C   UNL A   1      45.033  34.478  26.463  1.00  0.00     0.020 A 
ATOM     93  C   UNL A   1      46.125  34.718  28.593  1.00  0.00     0.020 A 
ATOM     94  C   UNL A   1      45.429  35.276  27.539  1.00  0.00     0.054 A 
BRANCH  94  95
ATOM     95  S   UNL A   1      44.967  37.022  27.571  1.00  0.00     0.124 S 
ATOM     96  O   UNL A   1      45.778  37.577  26.489  1.00  0.00    -0.237 OA
ATOM     97  O   UNL A   1      43.530  36.965  27.310  1.00  0.00    -0.237 OA
ATOM     98  O   UNL A   1      45.333  37.464  28.914  1.00  0.00    -0.744 OA
ENDBRANCH  94  95
ENDBRANCH  68  89
ENDBRANCH  42  43
ENDBRANCH  35  37
ENDBRANCH  34  35
ENDBRANCH  33  34
ENDBRANCH  32  33
ENDBRANCH  31  32
ENDBRANCH  30  31
ENDBRANCH  29  30
ENDBRANCH  28  29
ENDBRANCH   1  28
TORSDOF 27
ENDMDL
MODEL 2
REMARK VINA RESULT:      -9.1      1.378      2.258
REMARK SMILES CCC(=O)Nc1cc(NC(=O)/C=C/C(=O)OCCOCCOCCOCCOC(=O)c2ccc(-c3c4nc(c(-c5ccc(S(=O)(=O)[O-])cc5)c5ccc([nH]5)c(-c5ccc(S(=O)(=O)[O-])cc5)c5nc(c(-c6ccc(S(=O)(=O)[O-])cc6)c6ccc3[nH]6)C=C5)C=C4)cc2)ccc1C
REMARK SMILES IDX 21 1 20 2 19 3 18 4 17 5 16 6 14 7 15 8 13 9 12 10 10 11
REMARK SMILES IDX 9 12 11 14 8 15 6 16 7 17 93 18 92 19 94 20 91 21 5 22 3 23
REMARK SMILES IDX 4 24 2 26 1 27 22 28 23 29 24 30 25 31 26 32 27 33 28 34
REMARK SMILES IDX 29 35 30 36 31 37 32 38 90 39 33 40 89 41 34 42 35 43 36 44
REMARK SMILES IDX 83 45 37 46 88 47 82 48 84 49 38 50 87 51 81 52 80 53 39 55
REMARK SMILES IDX 69 56 50 57 68 58 51 59 54 60 67 61 85 62 52 63 53 64 66 66
REMARK SMILES IDX 86 67 55 68 40 69 41 70 49 71 42 72 48 73 43 74 44 75 45 76
REMARK SMILES IDX 46 77 47 78 70 79 71 80 79 81 72 82 78 83 73 84 74 85 75 86
REMARK SMILES IDX 76 87 77 88 56 89 57 90 65 91 58 92 64 93 59 94 60 95 61 96
REMARK SMILES IDX 62 97 63 98
REMARK H PARENT 9 13 5 25 84 54 54 65
REMARK Flexibility Score: inf
ROOT
ATOM      1  C   UNL A   1      41.074  22.654  28.288  1.00  0.00     0.188 C 
ENDROOT
BRANCH   1   2
ATOM      2  C   UNL A   1      40.403  23.946  27.793  1.00  0.00     0.188 C 
BRANCH   2   3
ATOM      3  O   UNL A   1      38.993  23.809  27.647  1.00  0.00    -0.376 OA
BRANCH   3   4
ATOM      4  C   UNL A   1      38.523  24.087  26.319  1.00  0.00     0.202 C 
BRANCH   4   5
ATOM      5  C   UNL A   1      37.634  22.909  25.873  1.00  0.00     0.261 C 
BRANCH   5   6
ATOM      6  O   UNL A   1      36.869  23.347  24.738  1.00  0.00    -0.460 OA
BRANCH   6   7
ATOM      7  C   UNL A   1      35.552  23.393  24.773  1.00  0.00     0.331 C 
ATOM      8  O   UNL A   1      34.785  23.539  25.729  1.00  0.00    -0.247 OA
BRANCH   7   9
ATOM      9  C   UNL A   1      35.173  23.601  23.373  1.00  0.00     0.099 C 
ATOM     10  C   UNL A   1      33.896  23.449  23.029  1.00  0.00     0.079 C 
BRANCH  10  11
ATOM     11  C   UNL A   1      33.385  24.183  21.872  1.00  0.00     0.248 C 
ATOM     12  N   UNL A   1      32.781  25.407  21.996  1.00  0.00    -0.322 N 
ATOM     13  H   UNL A   1      32.372  25.701  21.149  1.00  0.00     0.170 HD
ATOM     14  O   UNL A   1      33.446  23.656  20.759  1.00  0.00    -0.270 OA
BRANCH  12  15
ATOM     15  C   UNL A   1      32.593  26.361  23.030  1.00  0.00     0.043 A 
ATOM     16  C   UNL A   1      31.572  27.128  25.117  1.00  0.00     0.046 A 
ATOM     17  C   UNL A   1      31.490  26.477  23.870  1.00  0.00     0.052 A 
ATOM     18  C   UNL A   1      32.741  27.810  25.466  1.00  0.00    -0.027 A 
ATOM     19  C   UNL A   1      33.748  27.924  24.500  1.00  0.00     0.008 A 
ATOM     20  C   UNL A   1      33.042  28.283  26.863  1.00  0.00     0.046 C 
ATOM     21  C   UNL A   1      33.686  27.184  23.312  1.00  0.00     0.026 A 
BRANCH  16  22
ATOM     22  N   UNL A   1      30.804  26.553  26.133  1.00  0.00    -0.326 N 
ATOM     23  C   UNL A   1      30.330  25.291  26.336  1.00  0.00     0.224 C 
ATOM     24  O   UNL A   1      29.216  25.142  26.843  1.00  0.00    -0.275 OA
ATOM     25  H   UNL A   1      30.556  27.186  26.845  1.00  0.00     0.169 HD
BRANCH  23  26
ATOM     26  C   UNL A   1      31.224  24.131  26.040  1.00  0.00     0.097 C 
ATOM     27  C   UNL A   1      30.803  22.924  26.838  1.00  0.00     0.014 C 
ENDBRANCH  23  26
ENDBRANCH  16  22
ENDBRANCH  12  15
ENDBRANCH  10  11
ENDBRANCH   7   9
ENDBRANCH   6   7
ENDBRANCH   5   6
ENDBRANCH   4   5
ENDBRANCH   3   4
ENDBRANCH   2   3
ENDBRANCH   1   2
BRANCH   1  28
ATOM     28  O   UNL A   1      40.563  21.420  27.799  1.00  0.00    -0.377 OA
BRANCH  28  29
ATOM     29  C   UNL A   1      40.934  20.972  26.486  1.00  0.00     0.188 C 
BRANCH  29  30
ATOM     30  C   UNL A   1      40.271  19.706  25.937  1.00  0.00     0.188 C 
BRANCH  30  31
ATOM     31  O   UNL A   1      41.308  18.772  25.628  1.00  0.00    -0.376 OA
BRANCH  31  32
ATOM     32  C   UNL A   1      42.540  18.934  26.312  1.00  0.00     0.202 C 
BRANCH  32  33
ATOM     33  C   UNL A   1      43.758  18.465  25.516  1.00  0.00     0.261 C 
BRANCH  33  34
ATOM     34  O   UNL A   1      44.016  19.371  24.428  1.00  0.00    -0.460 OA
BRANCH  34  35
ATOM     35  C   UNL A   1      45.187  20.056  24.541  1.00  0.00     0.338 C 
ATOM     36  O   UNL A   1      46.290  19.533  24.482  1.00  0.00    -0.246 OA
BRANCH  35  37
ATOM     37  C   UNL A   1      44.918  21.497  24.788  1.00  0.00     0.060 A 
ATOM     38  C   UNL A   1      45.018  22.434  23.749  1.00  0.00     0.016 A 
ATOM     39  C   UNL A   1      44.746  21.935  26.098  1.00  0.00     0.016 A 
ATOM     40  C   UNL A   1      45.035  23.808  24.031  1.00  0.00     0.010 A 
ATOM     41  C   UNL A   1      44.868  23.280  26.377  1.00  0.00     0.010 A 
ATOM     42  C   UNL A   1      44.997  24.240  25.355  1.00  0.00    -0.014 A 
BRANCH  42  43
ATOM     43  C   UNL A   1      45.233  25.624  25.808  1.00  0.00     0.031 A 
ATOM     44  C   UNL A   1      44.040  26.450  26.282  1.00  0.00     0.074 A 
ATOM     45  C   UNL A   1      46.478  25.901  26.267  1.00  0.00     0.049 A 
ATOM     46  N   UNL A   1      44.059  27.511  27.027  1.00  0.00    -0.248 NA
ATOM     47  C   UNL A   1      42.665  26.112  25.873  1.00  0.00     0.031 C 
ATOM     48  C   UNL A   1      46.721  26.189  27.655  1.00  0.00     0.029 A 
ATOM     49  N   UNL A   1      47.770  25.659  25.839  1.00  0.00    -0.354 N 
ATOM     50  C   UNL A   1      42.748  27.810  27.406  1.00  0.00     0.074 A 
ATOM     51  C   UNL A   1      41.921  26.955  26.595  1.00  0.00     0.031 C 
ATOM     52  C   UNL A   1      47.996  26.420  27.945  1.00  0.00     0.029 A 
ATOM     53  C   UNL A   1      48.661  26.358  26.696  1.00  0.00     0.049 A 
ATOM     54  H   UNL A   1      48.029  25.098  25.073  1.00  0.00     0.167 HD
ATOM     55  C   UNL A   1      42.468  28.664  28.440  1.00  0.00     0.031 A 
ATOM     56  C   UNL A   1      49.471  27.353  26.263  1.00  0.00     0.031 A 
ATOM     57  C   UNL A   1      43.654  29.364  28.957  1.00  0.00     0.049 A 
ATOM     58  C   UNL A   1      49.071  28.736  26.767  1.00  0.00     0.074 A 
ATOM     59  C   UNL A   1      44.113  29.642  30.234  1.00  0.00     0.029 A 
ATOM     60  N   UNL A   1      44.670  29.776  28.090  1.00  0.00    -0.354 N 
ATOM     61  N   UNL A   1      47.905  29.048  27.298  1.00  0.00    -0.248 NA
ATOM     62  C   UNL A   1      49.977  29.879  26.743  1.00  0.00     0.031 C 
ATOM     63  C   UNL A   1      45.436  30.140  30.130  1.00  0.00     0.029 A 
ATOM     64  C   UNL A   1      45.754  30.259  28.787  1.00  0.00     0.049 A 
ATOM     65  H   UNL A   1      44.616  29.727  27.109  1.00  0.00     0.167 HD
ATOM     66  C   UNL A   1      47.873  30.394  27.614  1.00  0.00     0.074 A 
ATOM     67  C   UNL A   1      49.207  30.853  27.261  1.00  0.00     0.031 C 
ATOM     68  C   UNL A   1      46.784  31.052  28.129  1.00  0.00     0.031 A 
BRANCH  55  69
ATOM     69  C   UNL A   1      41.114  28.763  29.180  1.00  0.00    -0.014 A 
ATOM     70  C   UNL A   1      40.632  30.030  29.594  1.00  0.00     0.010 A 
ATOM     71  C   UNL A   1      40.361  27.661  29.641  1.00  0.00     0.010 A 
ATOM     72  C   UNL A   1      39.539  30.186  30.472  1.00  0.00     0.020 A 
ATOM     73  C   UNL A   1      39.230  27.805  30.478  1.00  0.00     0.020 A 
ATOM     74  C   UNL A   1      38.853  29.067  30.928  1.00  0.00     0.054 A 
BRANCH  74  75
ATOM     75  S   UNL A   1      37.486  29.259  32.113  1.00  0.00     0.124 S 
ATOM     76  O   UNL A   1      37.638  28.078  32.960  1.00  0.00    -0.237 OA
ATOM     77  O   UNL A   1      37.782  30.534  32.762  1.00  0.00    -0.237 OA
ATOM     78  O   UNL A   1      36.295  29.266  31.265  1.00  0.00    -0.744 OA
ENDBRANCH  74  75
ENDBRANCH  55  69
BRANCH  56  79
ATOM     79  C   UNL A   1      50.321  26.831  25.139  1.00  0.00    -0.014 A 
ATOM     80  C   UNL A   1      49.598  26.762  23.913  1.00  0.00     0.010 A 
ATOM     81  C   UNL A   1      51.652  27.299  25.088  1.00  0.00     0.010 A 
ATOM     82  C   UNL A   1      50.020  27.514  22.805  1.00  0.00     0.020 A 
ATOM     83  C   UNL A   1      52.083  28.042  23.969  1.00  0.00     0.020 A 
ATOM     84  C   UNL A   1      51.219  28.226  22.883  1.00  0.00     0.054 A 
BRANCH  84  85
ATOM     85  S   UNL A   1      51.432  29.654  21.762  1.00  0.00     0.124 S 
ATOM     86  O   UNL A   1      52.509  29.212  20.884  1.00  0.00    -0.237 OA
ATOM     87  O   UNL A   1      50.108  29.754  21.146  1.00  0.00    -0.237 OA
ATOM     88  O   UNL A   1      51.762  30.754  22.665  1.00  0.00    -0.744 OA
ENDBRANCH  84  85
ENDBRANCH  56  79
BRANCH  68  89
ATOM     89  C   UNL A   1      46.505  32.563  28.158  1.00  0.00    -0.014 A 
ATOM     90  C   UNL A   1      45.874  33.314  27.164  1.00  0.00     0.010 A 
ATOM     91  C   UNL A   1      46.852  33.283  29.342  1.00  0.00     0.010 A 
ATOM     92  C   UNL A   1      45.593  34.683  27.346  1.00  0.00     0.020 A 
ATOM     93  C   UNL A   1      46.580  34.638  29.539  1.00  0.00     0.020 A 
ATOM     94  C   UNL A   1      45.935  35.332  28.535  1.00  0.00     0.054 A 
BRANCH  94  95
ATOM     95  S   UNL A   1      45.470  37.061  28.772  1.00  0.00     0.124 S 
ATOM     96  O   UNL A   1      45.095  37.090  30.185  1.00  0.00    -0.237 OA
ATOM     97  O   UNL A   1      46.707  37.762  28.438  1.00  0.00    -0.237 OA
ATOM     98  O   UNL A   1      44.371  37.267  27.833  1.00  0.00    -0.744 OA
ENDBRANCH  94  95
ENDBRANCH  68  89
ENDBRANCH  42  43
ENDBRANCH  35  37
ENDBRANCH  34  35
ENDBRANCH  33  34
ENDBRANCH  32  33
ENDBRANCH  31  32
ENDBRANCH  30  31
ENDBRANCH  29  30
ENDBRANCH  28  29
ENDBRANCH   1  28
TORSDOF 27
ENDMDL
MODEL 3
REMARK VINA RESULT:      -8.9      1.595      2.864
REMARK SMILES CCC(=O)Nc1cc(NC(=O)/C=C/C(=O)OCCOCCOCCOCCOC(=O)c2ccc(-c3c4nc(c(-c5ccc(S(=O)(=O)[O-])cc5)c5ccc([nH]5)c(-c5ccc(S(=O)(=O)[O-])cc5)c5nc(c(-c6ccc(S(=O)(=O)[O-])cc6)c6ccc3[nH]6)C=C5)C=C4)cc2)ccc1C
REMARK SMILES IDX 21 1 20 2 19 3 18 4 17 5 16 6 14 7 15 8 13 9 12 10 10 11
REMARK SMILES IDX 9 12 11 14 8 15 6 16 7 17 93 18 92 19 94 20 91 21 5 22 3 23
REMARK SMILES IDX 4 24 2 26 1 27 22 28 23 29 24 30 25 31 26 32 27 33 28 34
REMARK SMILES IDX 29 35 30 36 31 37 32 38 90 39 33 40 89 41 34 42 35 43 36 44
REMARK SMILES IDX 83 45 37 46 88 47 82 48 84 49 38 50 87 51 81 52 80 53 39 55
REMARK SMILES IDX 69 56 50 57 68 58 51 59 54 60 67 61 85 62 52 63 53 64 66 66
REMARK SMILES IDX 86 67 55 68 40 69 41 70 49 71 42 72 48 73 43 74 44 75 45 76
REMARK SMILES IDX 46 77 47 78 70 79 71 80 79 81 72 82 78 83 73 84 74 85 75 86
REMARK SMILES IDX 76 87 77 88 56 89 57 90 65 91 58 92 64 93 59 94 60 95 61 96
REMARK SMILES IDX 62 97 63 98
REMARK H PARENT 9 13 5 25 84 54 54 65
REMARK Flexibility Score: inf
ROOT
ATOM      1  C   UNL A   1      40.773  22.969  27.852  1.00  0.00     0.188 C 
ENDROOT
BRANCH   1   2
ATOM      2  C   UNL A   1      39.916  24.100  27.258  1.00  0.00     0.188 C 
BRANCH   2   3
ATOM      3  O   UNL A   1      38.519  23.856  27.395  1.00  0.00    -0.376 OA
BRANCH   3   4
ATOM      4  C   UNL A   1      37.777  24.068  26.184  1.00  0.00     0.202 C 
BRANCH   4   5
ATOM      5  C   UNL A   1      37.634  22.708  25.471  1.00  0.00     0.261 C 
BRANCH   5   6
ATOM      6  O   UNL A   1      37.075  22.956  24.170  1.00  0.00    -0.460 OA
BRANCH   6   7
ATOM      7  C   UNL A   1      35.910  22.450  23.816  1.00  0.00     0.331 C 
ATOM      8  O   UNL A   1      35.406  21.354  24.074  1.00  0.00    -0.247 OA
BRANCH   7   9
ATOM      9  C   UNL A   1      35.156  23.612  23.339  1.00  0.00     0.099 C 
ATOM     10  C   UNL A   1      34.363  23.467  22.280  1.00  0.00     0.079 C 
BRANCH  10  11
ATOM     11  C   UNL A   1      33.206  24.350  22.139  1.00  0.00     0.248 C 
ATOM     12  N   UNL A   1      32.167  24.337  23.033  1.00  0.00    -0.322 N 
ATOM     13  H   UNL A   1      31.409  24.886  22.723  1.00  0.00     0.170 HD
ATOM     14  O   UNL A   1      33.136  25.086  21.153  1.00  0.00    -0.270 OA
BRANCH  12  15
ATOM     15  C   UNL A   1      31.900  23.735  24.292  1.00  0.00     0.043 A 
ATOM     16  C   UNL A   1      31.991  21.866  25.867  1.00  0.00     0.046 A 
ATOM     17  C   UNL A   1      31.811  22.375  24.566  1.00  0.00     0.052 A 
ATOM     18  C   UNL A   1      32.113  22.749  26.944  1.00  0.00    -0.027 A 
ATOM     19  C   UNL A   1      31.925  24.115  26.698  1.00  0.00     0.008 A 
ATOM     20  C   UNL A   1      32.593  22.334  28.310  1.00  0.00     0.046 C 
ATOM     21  C   UNL A   1      31.851  24.601  25.387  1.00  0.00     0.026 A 
BRANCH  16  22
ATOM     22  N   UNL A   1      32.650  20.636  25.933  1.00  0.00    -0.326 N 
ATOM     23  C   UNL A   1      32.475  19.454  25.279  1.00  0.00     0.224 C 
ATOM     24  O   UNL A   1      32.650  18.397  25.889  1.00  0.00    -0.275 OA
ATOM     25  H   UNL A   1      33.390  20.620  26.584  1.00  0.00     0.169 HD
BRANCH  23  26
ATOM     26  C   UNL A   1      32.184  19.479  23.813  1.00  0.00     0.097 C 
ATOM     27  C   UNL A   1      32.771  18.268  23.138  1.00  0.00     0.014 C 
ENDBRANCH  23  26
ENDBRANCH  16  22
ENDBRANCH  12  15
ENDBRANCH  10  11
ENDBRANCH   7   9
ENDBRANCH   6   7
ENDBRANCH   5   6
ENDBRANCH   4   5
ENDBRANCH   3   4
ENDBRANCH   2   3
ENDBRANCH   1   2
BRANCH   1  28
ATOM     28  O   UNL A   1      40.387  21.632  27.563  1.00  0.00    -0.377 OA
BRANCH  28  29
ATOM     29  C   UNL A   1      41.038  20.922  26.497  1.00  0.00     0.188 C 
BRANCH  29  30
ATOM     30  C   UNL A   1      40.438  19.589  26.041  1.00  0.00     0.188 C 
BRANCH  30  31
ATOM     31  O   UNL A   1      41.514  18.759  25.598  1.00  0.00    -0.376 OA
BRANCH  31  32
ATOM     32  C   UNL A   1      42.789  19.006  26.167  1.00  0.00     0.202 C 
BRANCH  32  33
ATOM     33  C   UNL A   1      43.956  18.492  25.321  1.00  0.00     0.261 C 
BRANCH  33  34
ATOM     34  O   UNL A   1      44.285  19.451  24.299  1.00  0.00    -0.460 OA
BRANCH  34  35
ATOM     35  C   UNL A   1      45.421  20.159  24.546  1.00  0.00     0.338 C 
ATOM     36  O   UNL A   1      46.545  19.683  24.492  1.00  0.00    -0.246 OA
BRANCH  35  37
ATOM     37  C   UNL A   1      45.083  21.555  24.927  1.00  0.00     0.060 A 
ATOM     38  C   UNL A   1      44.771  22.510  23.949  1.00  0.00     0.016 A 
ATOM     39  C   UNL A   1      45.260  21.953  26.249  1.00  0.00     0.016 A 
ATOM     40  C   UNL A   1      44.722  23.873  24.278  1.00  0.00     0.010 A 
ATOM     41  C   UNL A   1      45.312  23.300  26.543  1.00  0.00     0.010 A 
ATOM     42  C   UNL A   1      45.030  24.281  25.574  1.00  0.00    -0.014 A 
BRANCH  42  43
ATOM     43  C   UNL A   1      45.238  25.678  26.003  1.00  0.00     0.031 A 
ATOM     44  C   UNL A   1      44.033  26.481  26.482  1.00  0.00     0.074 A 
ATOM     45  C   UNL A   1      46.483  25.992  26.438  1.00  0.00     0.049 A 
ATOM     46  N   UNL A   1      44.036  27.553  27.211  1.00  0.00    -0.248 NA
ATOM     47  C   UNL A   1      42.660  26.104  26.099  1.00  0.00     0.031 C 
ATOM     48  C   UNL A   1      46.740  26.307  27.818  1.00  0.00     0.029 A 
ATOM     49  N   UNL A   1      47.774  25.775  25.995  1.00  0.00    -0.354 N 
ATOM     50  C   UNL A   1      42.725  27.827  27.606  1.00  0.00     0.074 A 
ATOM     51  C   UNL A   1      41.906  26.939  26.821  1.00  0.00     0.031 C 
ATOM     52  C   UNL A   1      48.013  26.574  28.085  1.00  0.00     0.029 A 
ATOM     53  C   UNL A   1      48.660  26.509  26.827  1.00  0.00     0.049 A 
ATOM     54  H   UNL A   1      48.035  25.208  25.233  1.00  0.00     0.167 HD
ATOM     55  C   UNL A   1      42.438  28.689  28.631  1.00  0.00     0.031 A 
ATOM     56  C   UNL A   1      49.439  27.517  26.367  1.00  0.00     0.031 A 
ATOM     57  C   UNL A   1      43.615  29.426  29.119  1.00  0.00     0.049 A 
ATOM     58  C   UNL A   1      49.012  28.896  26.856  1.00  0.00     0.074 A 
ATOM     59  C   UNL A   1      44.086  29.735  30.384  1.00  0.00     0.029 A 
ATOM     60  N   UNL A   1      44.607  29.848  28.231  1.00  0.00    -0.354 N 
ATOM     61  N   UNL A   1      47.847  29.188  27.400  1.00  0.00    -0.248 NA
ATOM     62  C   UNL A   1      49.889  30.060  26.802  1.00  0.00     0.031 C 
ATOM     63  C   UNL A   1      45.395  30.263  30.253  1.00  0.00     0.029 A 
ATOM     64  C   UNL A   1      45.689  30.368  28.904  1.00  0.00     0.049 A 
ATOM     65  H   UNL A   1      44.540  29.783  27.251  1.00  0.00     0.167 HD
ATOM     66  C   UNL A   1      47.787  30.538  27.696  1.00  0.00     0.074 A 
ATOM     67  C   UNL A   1      49.103  31.023  27.316  1.00  0.00     0.031 C 
ATOM     68  C   UNL A   1      46.689  31.176  28.218  1.00  0.00     0.031 A 
BRANCH  55  69
ATOM     69  C   UNL A   1      41.094  28.766  29.390  1.00  0.00    -0.014 A 
ATOM     70  C   UNL A   1      40.320  29.952  29.328  1.00  0.00     0.010 A 
ATOM     71  C   UNL A   1      40.621  27.795  30.300  1.00  0.00     0.010 A 
ATOM     72  C   UNL A   1      39.214  30.192  30.169  1.00  0.00     0.020 A 
ATOM     73  C   UNL A   1      39.481  28.000  31.111  1.00  0.00     0.020 A 
ATOM     74  C   UNL A   1      38.811  29.219  31.075  1.00  0.00     0.054 A 
BRANCH  74  75
ATOM     75  S   UNL A   1      37.427  29.550  32.209  1.00  0.00     0.124 S 
ATOM     76  O   UNL A   1      37.424  28.359  33.056  1.00  0.00    -0.237 OA
ATOM     77  O   UNL A   1      37.828  30.787  32.875  1.00  0.00    -0.237 OA
ATOM     78  O   UNL A   1      36.276  29.680  31.317  1.00  0.00    -0.744 OA
ENDBRANCH  74  75
ENDBRANCH  55  69
BRANCH  56  79
ATOM     79  C   UNL A   1      50.284  26.998  25.238  1.00  0.00    -0.014 A 
ATOM     80  C   UNL A   1      49.607  27.075  23.986  1.00  0.00     0.010 A 
ATOM     81  C   UNL A   1      51.651  27.350  25.265  1.00  0.00     0.010 A 
ATOM     82  C   UNL A   1      50.135  27.859  22.949  1.00  0.00     0.020 A 
ATOM     83  C   UNL A   1      52.188  28.125  24.215  1.00  0.00     0.020 A 
ATOM     84  C   UNL A   1      51.386  28.456  23.117  1.00  0.00     0.054 A 
BRANCH  84  85
ATOM     85  S   UNL A   1      51.765  29.932  22.106  1.00  0.00     0.124 S 
ATOM     86  O   UNL A   1      53.036  29.576  21.486  1.00  0.00    -0.237 OA
ATOM     87  O   UNL A   1      50.610  29.986  21.208  1.00  0.00    -0.237 OA
ATOM     88  O   UNL A   1      51.818  31.015  23.084  1.00  0.00    -0.744 OA
ENDBRANCH  84  85
ENDBRANCH  56  79
BRANCH  68  89
ATOM     89  C   UNL A   1      46.373  32.681  28.229  1.00  0.00    -0.014 A 
ATOM     90  C   UNL A   1      45.621  33.382  27.285  1.00  0.00     0.010 A 
ATOM     91  C   UNL A   1      46.825  33.449  29.345  1.00  0.00     0.010 A 
ATOM     92  C   UNL A   1      45.323  34.749  27.452  1.00  0.00     0.020 A 
ATOM     93  C   UNL A   1      46.538  34.803  29.527  1.00  0.00     0.020 A 
ATOM     94  C   UNL A   1      45.771  35.446  28.576  1.00  0.00     0.054 A 
BRANCH  94  95
ATOM     95  S   UNL A   1      45.286  37.171  28.807  1.00  0.00     0.124 S 
ATOM     96  O   UNL A   1      46.280  37.647  29.767  1.00  0.00    -0.237 OA
ATOM     97  O   UNL A   1      45.412  37.710  27.455  1.00  0.00    -0.237 OA
ATOM     98  O   UNL A   1      43.919  37.093  29.314  1.00  0.00    -0.744 OA
ENDBRANCH  94  95
ENDBRANCH  68  89
ENDBRANCH  42  43
ENDBRANCH  35  37
ENDBRANCH  34  35
ENDBRANCH  33  34
ENDBRANCH  32  33
ENDBRANCH  31  32
ENDBRANCH  30  31
ENDBRANCH  29  30
ENDBRANCH  28  29
ENDBRANCH   1  28
TORSDOF 27
ENDMDL
