MODEL 1
REMARK VINA RESULT:      -9.3      0.000      0.000
REMARK SMILES Cc1ccc(S(=O)(=O)n2cc(C(=O)C(=O)N[C@@H](Cc3c[nH]c4ccccc34)C(=O)OCCOCCOCCOCCOC(=O)c3ccc(-c4c5nc(c(-c6ccc(S(=O)(=O)[O-])cc6)c6ccc([nH]6)c(-c6ccc(S(=O)(=O)[O-])cc6)c6nc(c(-c7ccc(S(=O)(=O)[O-])cc7)c7ccc4[nH]7)C=C6)C=C5)cc3)c3ccccc32)cc1
REMARK SMILES IDX 35 1 34 2 33 3 32 4 31 5 30 6 28 7 29 8 17 9 16 10 14 11
REMARK SMILES IDX 15 12 12 14 13 15 11 16 9 17 10 18 110 19 105 20 109 21
REMARK SMILES IDX 106 22 108 23 107 24 6 25 7 26 8 27 5 28 1 29 2 30 3 31
REMARK SMILES IDX 112 32 4 33 111 34 18 35 19 36 20 37 27 38 21 39 22 40 26 41
REMARK SMILES IDX 23 43 25 44 24 45 36 46 37 47 38 48 39 49 40 50 41 51 42 52
REMARK SMILES IDX 43 53 44 54 45 55 46 56 104 57 47 58 103 59 48 60 49 61
REMARK SMILES IDX 50 62 97 63 51 64 102 65 96 66 98 67 52 68 101 69 95 70
REMARK SMILES IDX 94 71 53 73 83 74 64 75 82 76 65 77 68 78 81 79 99 80 66 81
REMARK SMILES IDX 67 82 80 84 100 85 69 86 54 87 55 88 63 89 56 90 62 91 57 92
REMARK SMILES IDX 58 93 59 94 60 95 61 96 84 97 85 98 93 99 86 100 92 101
REMARK SMILES IDX 87 102 88 103 89 104 90 105 91 106 70 107 71 108 79 109
REMARK SMILES IDX 72 110 78 111 73 112 74 113 75 114 76 115 77 116
REMARK H PARENT 16 13 21 42 98 72 68 83
REMARK Flexibility Score: inf
ROOT
ATOM      1  C   UNL A   1      38.819  31.887  30.316  1.00  0.00     0.188 C 
ENDROOT
BRANCH   1   2
ATOM      2  C   UNL A   1      37.898  30.753  29.827  1.00  0.00     0.188 C 
BRANCH   2   3
ATOM      3  O   UNL A   1      37.417  31.093  28.528  1.00  0.00    -0.376 OA
BRANCH   3   4
ATOM      4  C   UNL A   1      36.018  31.340  28.475  1.00  0.00     0.202 C 
BRANCH   4   5
ATOM      5  C   UNL A   1      35.241  30.166  27.931  1.00  0.00     0.261 C 
BRANCH   5   6
ATOM      6  O   UNL A   1      34.699  30.458  26.664  1.00  0.00    -0.462 OA
BRANCH   6   7
ATOM      7  C   UNL A   1      33.350  30.350  26.653  1.00  0.00     0.329 C 
ATOM      8  O   UNL A   1      32.541  31.022  27.288  1.00  0.00    -0.250 OA
BRANCH   7   9
ATOM      9  C   UNL A   1      32.978  29.059  25.965  1.00  0.00     0.197 C 
BRANCH   9  10
ATOM     10  N   UNL A   1      31.877  28.285  26.598  1.00  0.00    -0.335 N 
ATOM     11  C   UNL A   1      31.645  26.911  26.523  1.00  0.00     0.293 C 
ATOM     12  O   UNL A   1      30.589  26.407  26.882  1.00  0.00    -0.265 OA
ATOM     13  H   UNL A   1      31.235  28.804  27.133  1.00  0.00     0.164 HD
BRANCH  11  14
ATOM     14  C   UNL A   1      32.790  26.027  26.068  1.00  0.00     0.252 C 
ATOM     15  O   UNL A   1      33.886  26.579  26.146  1.00  0.00    -0.283 OA
BRANCH  14  16
ATOM     16  C   UNL A   1      32.740  24.715  25.413  1.00  0.00     0.054 A 
ATOM     17  N   UNL A   1      32.366  22.962  24.069  1.00  0.00    -0.240 N 
ATOM     18  C   UNL A   1      31.742  23.845  24.954  1.00  0.00     0.117 A 
ATOM     19  C   UNL A   1      33.705  23.362  23.940  1.00  0.00     0.065 A 
ATOM     20  C   UNL A   1      33.972  24.063  25.098  1.00  0.00     0.012 A 
ATOM     21  C   UNL A   1      34.744  22.927  23.095  1.00  0.00     0.028 A 
ATOM     22  C   UNL A   1      35.304  24.133  25.560  1.00  0.00     0.011 A 
ATOM     23  C   UNL A   1      36.047  22.972  23.586  1.00  0.00     0.002 A 
ATOM     24  C   UNL A   1      36.321  23.517  24.832  1.00  0.00     0.001 A 
BRANCH  17  25
ATOM     25  S   UNL A   1      32.242  21.250  23.910  1.00  0.00     0.268 S 
ATOM     26  O   UNL A   1      31.849  21.069  22.523  1.00  0.00    -0.201 OA
ATOM     27  O   UNL A   1      31.315  20.949  24.999  1.00  0.00    -0.201 OA
BRANCH  25  28
ATOM     28  C   UNL A   1      33.421  19.989  24.188  1.00  0.00     0.088 A 
ATOM     29  C   UNL A   1      35.307  16.184  24.938  1.00  0.00     0.044 C 
ATOM     30  C   UNL A   1      34.718  17.528  24.627  1.00  0.00    -0.051 A 
ATOM     31  C   UNL A   1      33.470  17.536  24.026  1.00  0.00     0.005 A 
ATOM     32  C   UNL A   1      35.329  18.760  24.962  1.00  0.00     0.005 A 
ATOM     33  C   UNL A   1      32.852  18.746  23.796  1.00  0.00     0.022 A 
ATOM     34  C   UNL A   1      34.682  20.008  24.749  1.00  0.00     0.022 A 
ENDBRANCH  25  28
ENDBRANCH  17  25
ENDBRANCH  14  16
ENDBRANCH  11  14
ENDBRANCH   9  10
BRANCH   9  35
ATOM     35  C   UNL A   1      32.709  29.515  24.499  1.00  0.00     0.074 C 
BRANCH  35  36
ATOM     36  C   UNL A   1      31.475  28.955  23.825  1.00  0.00    -0.020 A 
ATOM     37  C   UNL A   1      31.330  27.723  23.208  1.00  0.00     0.087 A 
ATOM     38  C   UNL A   1      30.209  29.611  23.709  1.00  0.00     0.003 A 
ATOM     39  N   UNL A   1      30.053  27.626  22.717  1.00  0.00    -0.361 N 
ATOM     40  C   UNL A   1      29.345  28.767  23.011  1.00  0.00     0.046 A 
ATOM     41  C   UNL A   1      29.735  30.874  24.116  1.00  0.00     0.010 A 
ATOM     42  H   UNL A   1      29.695  26.851  22.226  1.00  0.00     0.166 HD
ATOM     43  C   UNL A   1      28.027  29.129  22.706  1.00  0.00     0.026 A 
ATOM     44  C   UNL A   1      28.448  31.276  23.766  1.00  0.00     0.001 A 
ATOM     45  C   UNL A   1      27.602  30.408  23.085  1.00  0.00     0.002 A 
ENDBRANCH  35  36
ENDBRANCH   9  35
ENDBRANCH   7   9
ENDBRANCH   6   7
ENDBRANCH   5   6
ENDBRANCH   4   5
ENDBRANCH   3   4
ENDBRANCH   2   3
ENDBRANCH   1   2
BRANCH   1  46
ATOM     46  O   UNL A   1      38.788  33.082  29.532  1.00  0.00    -0.377 OA
BRANCH  46  47
ATOM     47  C   UNL A   1      39.253  34.262  30.167  1.00  0.00     0.188 C 
BRANCH  47  48
ATOM     48  C   UNL A   1      40.718  34.560  29.870  1.00  0.00     0.188 C 
BRANCH  48  49
ATOM     49  O   UNL A   1      41.034  35.731  29.134  1.00  0.00    -0.376 OA
BRANCH  49  50
ATOM     50  C   UNL A   1      41.927  35.653  28.022  1.00  0.00     0.202 C 
BRANCH  50  51
ATOM     51  C   UNL A   1      43.411  35.269  28.244  1.00  0.00     0.261 C 
BRANCH  51  52
ATOM     52  O   UNL A   1      43.825  34.150  27.434  1.00  0.00    -0.460 OA
BRANCH  52  53
ATOM     53  C   UNL A   1      45.009  34.303  26.747  1.00  0.00     0.338 C 
ATOM     54  O   UNL A   1      45.500  35.354  26.439  1.00  0.00    -0.246 OA
BRANCH  53  55
ATOM     55  C   UNL A   1      45.807  33.044  26.819  1.00  0.00     0.060 A 
ATOM     56  C   UNL A   1      45.470  31.895  26.110  1.00  0.00     0.016 A 
ATOM     57  C   UNL A   1      46.909  33.010  27.663  1.00  0.00     0.016 A 
ATOM     58  C   UNL A   1      46.070  30.673  26.470  1.00  0.00     0.010 A 
ATOM     59  C   UNL A   1      47.397  31.786  28.108  1.00  0.00     0.010 A 
ATOM     60  C   UNL A   1      46.795  30.600  27.678  1.00  0.00    -0.014 A 
BRANCH  60  61
ATOM     61  C   UNL A   1      46.304  29.666  28.772  1.00  0.00     0.031 A 
ATOM     62  C   UNL A   1      45.442  30.057  29.962  1.00  0.00     0.074 A 
ATOM     63  C   UNL A   1      46.442  28.365  28.394  1.00  0.00     0.049 A 
ATOM     64  N   UNL A   1      45.464  29.482  31.141  1.00  0.00    -0.248 NA
ATOM     65  C   UNL A   1      44.576  31.238  29.971  1.00  0.00     0.031 C 
ATOM     66  C   UNL A   1      45.587  27.209  28.513  1.00  0.00     0.029 A 
ATOM     67  N   UNL A   1      47.661  27.773  28.060  1.00  0.00    -0.354 N 
ATOM     68  C   UNL A   1      44.502  30.088  31.965  1.00  0.00     0.074 A 
ATOM     69  C   UNL A   1      44.090  31.245  31.215  1.00  0.00     0.031 C 
ATOM     70  C   UNL A   1      46.297  26.089  28.652  1.00  0.00     0.029 A 
ATOM     71  C   UNL A   1      47.660  26.512  28.620  1.00  0.00     0.049 A 
ATOM     72  H   UNL A   1      48.382  28.179  27.528  1.00  0.00     0.167 HD
ATOM     73  C   UNL A   1      44.042  29.570  33.157  1.00  0.00     0.031 A 
ATOM     74  C   UNL A   1      48.665  25.674  28.851  1.00  0.00     0.031 A 
ATOM     75  C   UNL A   1      44.783  28.374  33.639  1.00  0.00     0.049 A 
ATOM     76  C   UNL A   1      48.828  25.623  30.351  1.00  0.00     0.074 A 
ATOM     77  C   UNL A   1      44.403  27.232  34.331  1.00  0.00     0.029 A 
ATOM     78  N   UNL A   1      46.136  28.170  33.317  1.00  0.00    -0.354 N 
ATOM     79  N   UNL A   1      47.960  26.070  31.247  1.00  0.00    -0.248 NA
ATOM     80  C   UNL A   1      50.032  25.093  30.969  1.00  0.00     0.031 C 
ATOM     81  C   UNL A   1      45.499  26.329  34.359  1.00  0.00     0.029 A 
ATOM     82  C   UNL A   1      46.573  26.914  33.701  1.00  0.00     0.049 A 
ATOM     83  H   UNL A   1      46.704  28.839  32.871  1.00  0.00     0.167 HD
ATOM     84  C   UNL A   1      48.529  26.011  32.515  1.00  0.00     0.074 A 
ATOM     85  C   UNL A   1      49.796  25.332  32.269  1.00  0.00     0.031 C 
ATOM     86  C   UNL A   1      47.988  26.525  33.677  1.00  0.00     0.031 A 
BRANCH  73  87
ATOM     87  C   UNL A   1      42.720  30.059  33.873  1.00  0.00    -0.014 A 
ATOM     88  C   UNL A   1      42.744  30.731  35.123  1.00  0.00     0.010 A 
ATOM     89  C   UNL A   1      41.408  29.799  33.410  1.00  0.00     0.010 A 
ATOM     90  C   UNL A   1      41.576  31.085  35.851  1.00  0.00     0.020 A 
ATOM     91  C   UNL A   1      40.233  30.212  34.081  1.00  0.00     0.020 A 
ATOM     92  C   UNL A   1      40.318  30.834  35.315  1.00  0.00     0.054 A 
BRANCH  92  93
ATOM     93  S   UNL A   1      38.811  31.349  36.196  1.00  0.00     0.124 S 
ATOM     94  O   UNL A   1      38.098  32.118  35.180  1.00  0.00    -0.237 OA
ATOM     95  O   UNL A   1      38.197  30.077  36.569  1.00  0.00    -0.237 OA
ATOM     96  O   UNL A   1      39.321  32.133  37.319  1.00  0.00    -0.744 OA
ENDBRANCH  92  93
ENDBRANCH  73  87
BRANCH  74  97
ATOM     97  C   UNL A   1      49.340  25.285  27.578  1.00  0.00    -0.014 A 
ATOM     98  C   UNL A   1      48.545  25.500  26.423  1.00  0.00     0.010 A 
ATOM     99  C   UNL A   1      50.736  25.470  27.428  1.00  0.00     0.010 A 
ATOM    100  C   UNL A   1      49.071  26.068  25.250  1.00  0.00     0.020 A 
ATOM    101  C   UNL A   1      51.267  26.055  26.256  1.00  0.00     0.020 A 
ATOM    102  C   UNL A   1      50.421  26.399  25.196  1.00  0.00     0.054 A 
BRANCH 102 103
ATOM    103  S   UNL A   1      51.004  27.544  23.896  1.00  0.00     0.124 S 
ATOM    104  O   UNL A   1      51.911  26.701  23.125  1.00  0.00    -0.237 OA
ATOM    105  O   UNL A   1      49.770  27.936  23.219  1.00  0.00    -0.237 OA
ATOM    106  O   UNL A   1      51.624  28.609  24.678  1.00  0.00    -0.744 OA
ENDBRANCH 102 103
ENDBRANCH  74  97
BRANCH  86 107
ATOM    107  C   UNL A   1      48.688  26.677  35.049  1.00  0.00    -0.014 A 
ATOM    108  C   UNL A   1      49.858  26.029  35.464  1.00  0.00     0.010 A 
ATOM    109  C   UNL A   1      48.176  27.637  35.972  1.00  0.00     0.010 A 
ATOM    110  C   UNL A   1      50.453  26.296  36.713  1.00  0.00     0.020 A 
ATOM    111  C   UNL A   1      48.759  27.922  37.210  1.00  0.00     0.020 A 
ATOM    112  C   UNL A   1      49.905  27.246  37.574  1.00  0.00     0.054 A 
BRANCH 112 113
ATOM    113  S   UNL A   1      50.764  27.668  39.107  1.00  0.00     0.124 S 
ATOM    114  O   UNL A   1      49.800  28.542  39.767  1.00  0.00    -0.237 OA
ATOM    115  O   UNL A   1      50.953  26.358  39.727  1.00  0.00    -0.237 OA
ATOM    116  O   UNL A   1      51.991  28.319  38.654  1.00  0.00    -0.744 OA
ENDBRANCH 112 113
ENDBRANCH  86 107
ENDBRANCH  60  61
ENDBRANCH  53  55
ENDBRANCH  52  53
ENDBRANCH  51  52
ENDBRANCH  50  51
ENDBRANCH  49  50
ENDBRANCH  48  49
ENDBRANCH  47  48
ENDBRANCH  46  47
ENDBRANCH   1  46
TORSDOF 30
ENDMDL
MODEL 2
REMARK VINA RESULT:      -9.2      5.391     11.484
REMARK SMILES Cc1ccc(S(=O)(=O)n2cc(C(=O)C(=O)N[C@@H](Cc3c[nH]c4ccccc34)C(=O)OCCOCCOCCOCCOC(=O)c3ccc(-c4c5nc(c(-c6ccc(S(=O)(=O)[O-])cc6)c6ccc([nH]6)c(-c6ccc(S(=O)(=O)[O-])cc6)c6nc(c(-c7ccc(S(=O)(=O)[O-])cc7)c7ccc4[nH]7)C=C6)C=C5)cc3)c3ccccc32)cc1
REMARK SMILES IDX 35 1 34 2 33 3 32 4 31 5 30 6 28 7 29 8 17 9 16 10 14 11
REMARK SMILES IDX 15 12 12 14 13 15 11 16 9 17 10 18 110 19 105 20 109 21
REMARK SMILES IDX 106 22 108 23 107 24 6 25 7 26 8 27 5 28 1 29 2 30 3 31
REMARK SMILES IDX 112 32 4 33 111 34 18 35 19 36 20 37 27 38 21 39 22 40 26 41
REMARK SMILES IDX 23 43 25 44 24 45 36 46 37 47 38 48 39 49 40 50 41 51 42 52
REMARK SMILES IDX 43 53 44 54 45 55 46 56 104 57 47 58 103 59 48 60 49 61
REMARK SMILES IDX 50 62 97 63 51 64 102 65 96 66 98 67 52 68 101 69 95 70
REMARK SMILES IDX 94 71 53 73 83 74 64 75 82 76 65 77 68 78 81 79 99 80 66 81
REMARK SMILES IDX 67 82 80 84 100 85 69 86 54 87 55 88 63 89 56 90 62 91 57 92
REMARK SMILES IDX 58 93 59 94 60 95 61 96 84 97 85 98 93 99 86 100 92 101
REMARK SMILES IDX 87 102 88 103 89 104 90 105 91 106 70 107 71 108 79 109
REMARK SMILES IDX 72 110 78 111 73 112 74 113 75 114 76 115 77 116
REMARK H PARENT 16 13 21 42 98 72 68 83
REMARK Flexibility Score: inf
ROOT
ATOM      1  C   UNL A   1      40.916  30.167  31.770  1.00  0.00     0.188 C 
ENDROOT
BRANCH   1   2
ATOM      2  C   UNL A   1      40.287  28.784  31.511  1.00  0.00     0.188 C 
BRANCH   2   3
ATOM      3  O   UNL A   1      40.485  28.451  30.138  1.00  0.00    -0.376 OA
BRANCH   3   4
ATOM      4  C   UNL A   1      39.680  27.372  29.683  1.00  0.00     0.202 C 
BRANCH   4   5
ATOM      5  C   UNL A   1      40.150  26.813  28.362  1.00  0.00     0.261 C 
BRANCH   5   6
ATOM      6  O   UNL A   1      39.099  26.174  27.676  1.00  0.00    -0.462 OA
BRANCH   6   7
ATOM      7  C   UNL A   1      39.553  25.383  26.676  1.00  0.00     0.329 C 
ATOM      8  O   UNL A   1      40.322  25.691  25.770  1.00  0.00    -0.250 OA
BRANCH   7   9
ATOM      9  C   UNL A   1      38.730  24.118  26.655  1.00  0.00     0.197 C 
BRANCH   9  10
ATOM     10  N   UNL A   1      38.407  23.581  25.307  1.00  0.00    -0.335 N 
ATOM     11  C   UNL A   1      37.150  23.258  24.793  1.00  0.00     0.293 C 
ATOM     12  O   UNL A   1      37.013  22.609  23.765  1.00  0.00    -0.265 OA
ATOM     13  H   UNL A   1      39.171  23.435  24.705  1.00  0.00     0.164 HD
BRANCH  11  14
ATOM     14  C   UNL A   1      35.934  23.826  25.499  1.00  0.00     0.252 C 
ATOM     15  O   UNL A   1      36.062  23.869  26.721  1.00  0.00    -0.283 OA
BRANCH  14  16
ATOM     16  C   UNL A   1      34.615  24.153  24.946  1.00  0.00     0.054 A 
ATOM     17  N   UNL A   1      32.476  24.183  24.280  1.00  0.00    -0.240 N 
ATOM     18  C   UNL A   1      33.707  23.557  24.062  1.00  0.00     0.117 A 
ATOM     19  C   UNL A   1      32.637  25.083  25.345  1.00  0.00     0.065 A 
ATOM     20  C   UNL A   1      33.987  25.370  25.356  1.00  0.00     0.012 A 
ATOM     21  C   UNL A   1      31.718  25.869  26.065  1.00  0.00     0.028 A 
ATOM     22  C   UNL A   1      34.416  26.601  25.897  1.00  0.00     0.011 A 
ATOM     23  C   UNL A   1      32.155  27.097  26.558  1.00  0.00     0.002 A 
ATOM     24  C   UNL A   1      33.479  27.488  26.425  1.00  0.00     0.001 A 
BRANCH  17  25
ATOM     25  S   UNL A   1      31.306  24.788  23.167  1.00  0.00     0.268 S 
ATOM     26  O   UNL A   1      30.294  23.745  23.144  1.00  0.00    -0.201 OA
ATOM     27  O   UNL A   1      32.153  25.038  22.002  1.00  0.00    -0.201 OA
BRANCH  25  28
ATOM     28  C   UNL A   1      30.388  26.274  23.172  1.00  0.00     0.088 A 
ATOM     29  C   UNL A   1      29.250  30.433  23.305  1.00  0.00     0.044 C 
ATOM     30  C   UNL A   1      29.581  28.973  23.203  1.00  0.00    -0.051 A 
ATOM     31  C   UNL A   1      30.855  28.654  22.762  1.00  0.00     0.005 A 
ATOM     32  C   UNL A   1      28.702  27.931  23.582  1.00  0.00     0.005 A 
ATOM     33  C   UNL A   1      31.233  27.329  22.731  1.00  0.00     0.022 A 
ATOM     34  C   UNL A   1      29.100  26.566  23.574  1.00  0.00     0.022 A 
ENDBRANCH  25  28
ENDBRANCH  17  25
ENDBRANCH  14  16
ENDBRANCH  11  14
ENDBRANCH   9  10
BRANCH   9  35
ATOM     35  C   UNL A   1      39.549  23.158  27.572  1.00  0.00     0.074 C 
BRANCH  35  36
ATOM     36  C   UNL A   1      40.528  22.230  26.886  1.00  0.00    -0.020 A 
ATOM     37  C   UNL A   1      40.279  20.971  26.364  1.00  0.00     0.087 A 
ATOM     38  C   UNL A   1      41.912  22.497  26.644  1.00  0.00     0.003 A 
ATOM     39  N   UNL A   1      41.448  20.473  25.846  1.00  0.00    -0.361 N 
ATOM     40  C   UNL A   1      42.463  21.387  26.003  1.00  0.00     0.046 A 
ATOM     41  C   UNL A   1      42.753  23.585  26.949  1.00  0.00     0.010 A 
ATOM     42  H   UNL A   1      41.546  19.590  25.422  1.00  0.00     0.166 HD
ATOM     43  C   UNL A   1      43.816  21.320  25.650  1.00  0.00     0.026 A 
ATOM     44  C   UNL A   1      44.114  23.510  26.663  1.00  0.00     0.001 A 
ATOM     45  C   UNL A   1      44.634  22.400  26.007  1.00  0.00     0.002 A 
ENDBRANCH  35  36
ENDBRANCH   9  35
ENDBRANCH   7   9
ENDBRANCH   6   7
ENDBRANCH   5   6
ENDBRANCH   4   5
ENDBRANCH   3   4
ENDBRANCH   2   3
ENDBRANCH   1   2
BRANCH   1  46
ATOM     46  O   UNL A   1      41.230  30.926  30.601  1.00  0.00    -0.377 OA
BRANCH  46  47
ATOM     47  C   UNL A   1      40.241  31.844  30.164  1.00  0.00     0.188 C 
BRANCH  47  48
ATOM     48  C   UNL A   1      39.327  32.315  31.288  1.00  0.00     0.188 C 
BRANCH  48  49
ATOM     49  O   UNL A   1      39.678  33.493  31.997  1.00  0.00    -0.376 OA
BRANCH  49  50
ATOM     50  C   UNL A   1      39.329  33.623  33.376  1.00  0.00     0.202 C 
BRANCH  50  51
ATOM     51  C   UNL A   1      40.412  33.995  34.419  1.00  0.00     0.261 C 
BRANCH  51  52
ATOM     52  O   UNL A   1      40.516  35.417  34.632  1.00  0.00    -0.460 OA
BRANCH  52  53
ATOM     53  C   UNL A   1      41.346  35.818  35.657  1.00  0.00     0.338 C 
ATOM     54  O   UNL A   1      41.264  35.454  36.797  1.00  0.00    -0.246 OA
BRANCH  53  55
ATOM     55  C   UNL A   1      42.599  36.403  35.098  1.00  0.00     0.060 A 
ATOM     56  C   UNL A   1      42.669  37.697  34.590  1.00  0.00     0.016 A 
ATOM     57  C   UNL A   1      43.734  35.604  35.047  1.00  0.00     0.016 A 
ATOM     58  C   UNL A   1      43.777  38.061  33.801  1.00  0.00     0.010 A 
ATOM     59  C   UNL A   1      44.757  35.917  34.158  1.00  0.00     0.010 A 
ATOM     60  C   UNL A   1      44.650  37.050  33.346  1.00  0.00    -0.014 A 
BRANCH  60  61
ATOM     61  C   UNL A   1      44.781  36.815  31.850  1.00  0.00     0.031 A 
ATOM     62  C   UNL A   1      44.946  35.466  31.168  1.00  0.00     0.074 A 
ATOM     63  C   UNL A   1      44.400  37.920  31.152  1.00  0.00     0.049 A 
ATOM     64  N   UNL A   1      45.589  35.254  30.044  1.00  0.00    -0.248 NA
ATOM     65  C   UNL A   1      44.524  34.203  31.776  1.00  0.00     0.031 C 
ATOM     66  C   UNL A   1      43.605  38.108  29.964  1.00  0.00     0.029 A 
ATOM     67  N   UNL A   1      45.001  39.172  31.283  1.00  0.00    -0.354 N 
ATOM     68  C   UNL A   1      45.492  33.894  29.709  1.00  0.00     0.074 A 
ATOM     69  C   UNL A   1      44.933  33.291  30.891  1.00  0.00     0.031 C 
ATOM     70  C   UNL A   1      44.015  39.167  29.264  1.00  0.00     0.029 A 
ATOM     71  C   UNL A   1      45.108  39.700  30.013  1.00  0.00     0.049 A 
ATOM     72  H   UNL A   1      45.293  39.597  32.121  1.00  0.00     0.167 HD
ATOM     73  C   UNL A   1      45.788  33.360  28.473  1.00  0.00     0.031 A 
ATOM     74  C   UNL A   1      45.853  40.702  29.557  1.00  0.00     0.031 A 
ATOM     75  C   UNL A   1      46.420  34.313  27.523  1.00  0.00     0.049 A 
ATOM     76  C   UNL A   1      46.903  40.074  28.674  1.00  0.00     0.074 A 
ATOM     77  C   UNL A   1      46.345  34.478  26.147  1.00  0.00     0.029 A 
ATOM     78  N   UNL A   1      47.205  35.388  27.975  1.00  0.00    -0.354 N 
ATOM     79  N   UNL A   1      46.890  38.834  28.207  1.00  0.00    -0.248 NA
ATOM     80  C   UNL A   1      48.099  40.799  28.278  1.00  0.00     0.031 C 
ATOM     81  C   UNL A   1      47.020  35.678  25.792  1.00  0.00     0.029 A 
ATOM     82  C   UNL A   1      47.534  36.253  26.947  1.00  0.00     0.049 A 
ATOM     83  H   UNL A   1      47.485  35.512  28.911  1.00  0.00     0.167 HD
ATOM     84  C   UNL A   1      48.101  38.562  27.580  1.00  0.00     0.074 A 
ATOM     85  C   UNL A   1      48.777  39.854  27.607  1.00  0.00     0.031 C 
ATOM     86  C   UNL A   1      48.516  37.334  27.102  1.00  0.00     0.031 A 
BRANCH  73  87
ATOM     87  C   UNL A   1      45.328  31.921  28.007  1.00  0.00    -0.014 A 
ATOM     88  C   UNL A   1      43.957  31.577  27.867  1.00  0.00     0.010 A 
ATOM     89  C   UNL A   1      46.198  30.827  27.786  1.00  0.00     0.010 A 
ATOM     90  C   UNL A   1      43.501  30.266  27.561  1.00  0.00     0.020 A 
ATOM     91  C   UNL A   1      45.768  29.535  27.404  1.00  0.00     0.020 A 
ATOM     92  C   UNL A   1      44.416  29.249  27.316  1.00  0.00     0.054 A 
BRANCH  92  93
ATOM     93  S   UNL A   1      43.853  27.582  26.848  1.00  0.00     0.124 S 
ATOM     94  O   UNL A   1      44.992  27.063  26.097  1.00  0.00    -0.237 OA
ATOM     95  O   UNL A   1      43.605  26.944  28.139  1.00  0.00    -0.237 OA
ATOM     96  O   UNL A   1      42.653  27.837  26.053  1.00  0.00    -0.744 OA
ENDBRANCH  92  93
ENDBRANCH  73  87
BRANCH  74  97
ATOM     97  C   UNL A   1      45.494  41.984  30.234  1.00  0.00    -0.014 A 
ATOM     98  C   UNL A   1      44.170  42.418  29.967  1.00  0.00     0.010 A 
ATOM     99  C   UNL A   1      46.007  42.277  31.521  1.00  0.00     0.010 A 
ATOM    100  C   UNL A   1      43.332  42.920  30.976  1.00  0.00     0.020 A 
ATOM    101  C   UNL A   1      45.164  42.767  32.543  1.00  0.00     0.020 A 
ATOM    102  C   UNL A   1      43.817  43.035  32.275  1.00  0.00     0.054 A 
BRANCH 102 103
ATOM    103  S   UNL A   1      42.631  43.228  33.652  1.00  0.00     0.124 S 
ATOM    104  O   UNL A   1      41.887  44.418  33.257  1.00  0.00    -0.237 OA
ATOM    105  O   UNL A   1      41.884  41.972  33.628  1.00  0.00    -0.237 OA
ATOM    106  O   UNL A   1      43.518  43.376  34.803  1.00  0.00    -0.744 OA
ENDBRANCH 102 103
ENDBRANCH  74  97
BRANCH  86 107
ATOM    107  C   UNL A   1      49.932  36.950  26.609  1.00  0.00    -0.014 A 
ATOM    108  C   UNL A   1      50.934  36.322  27.358  1.00  0.00     0.010 A 
ATOM    109  C   UNL A   1      50.251  37.151  25.232  1.00  0.00     0.010 A 
ATOM    110  C   UNL A   1      52.168  35.951  26.787  1.00  0.00     0.020 A 
ATOM    111  C   UNL A   1      51.464  36.780  24.646  1.00  0.00     0.020 A 
ATOM    112  C   UNL A   1      52.421  36.174  25.433  1.00  0.00     0.054 A 
BRANCH 112 113
ATOM    113  S   UNL A   1      53.955  35.565  24.696  1.00  0.00     0.124 S 
ATOM    114  O   UNL A   1      53.543  35.280  23.325  1.00  0.00    -0.237 OA
ATOM    115  O   UNL A   1      54.852  36.706  24.860  1.00  0.00    -0.237 OA
ATOM    116  O   UNL A   1      54.292  34.395  25.504  1.00  0.00    -0.744 OA
ENDBRANCH 112 113
ENDBRANCH  86 107
ENDBRANCH  60  61
ENDBRANCH  53  55
ENDBRANCH  52  53
ENDBRANCH  51  52
ENDBRANCH  50  51
ENDBRANCH  49  50
ENDBRANCH  48  49
ENDBRANCH  47  48
ENDBRANCH  46  47
ENDBRANCH   1  46
TORSDOF 30
ENDMDL
MODEL 3
REMARK VINA RESULT:      -8.7      7.748     14.174
REMARK SMILES Cc1ccc(S(=O)(=O)n2cc(C(=O)C(=O)N[C@@H](Cc3c[nH]c4ccccc34)C(=O)OCCOCCOCCOCCOC(=O)c3ccc(-c4c5nc(c(-c6ccc(S(=O)(=O)[O-])cc6)c6ccc([nH]6)c(-c6ccc(S(=O)(=O)[O-])cc6)c6nc(c(-c7ccc(S(=O)(=O)[O-])cc7)c7ccc4[nH]7)C=C6)C=C5)cc3)c3ccccc32)cc1
REMARK SMILES IDX 35 1 34 2 33 3 32 4 31 5 30 6 28 7 29 8 17 9 16 10 14 11
REMARK SMILES IDX 15 12 12 14 13 15 11 16 9 17 10 18 110 19 105 20 109 21
REMARK SMILES IDX 106 22 108 23 107 24 6 25 7 26 8 27 5 28 1 29 2 30 3 31
REMARK SMILES IDX 112 32 4 33 111 34 18 35 19 36 20 37 27 38 21 39 22 40 26 41
REMARK SMILES IDX 23 43 25 44 24 45 36 46 37 47 38 48 39 49 40 50 41 51 42 52
REMARK SMILES IDX 43 53 44 54 45 55 46 56 104 57 47 58 103 59 48 60 49 61
REMARK SMILES IDX 50 62 97 63 51 64 102 65 96 66 98 67 52 68 101 69 95 70
REMARK SMILES IDX 94 71 53 73 83 74 64 75 82 76 65 77 68 78 81 79 99 80 66 81
REMARK SMILES IDX 67 82 80 84 100 85 69 86 54 87 55 88 63 89 56 90 62 91 57 92
REMARK SMILES IDX 58 93 59 94 60 95 61 96 84 97 85 98 93 99 86 100 92 101
REMARK SMILES IDX 87 102 88 103 89 104 90 105 91 106 70 107 71 108 79 109
REMARK SMILES IDX 72 110 78 111 73 112 74 113 75 114 76 115 77 116
REMARK H PARENT 16 13 21 42 98 72 68 83
REMARK Flexibility Score: inf
ROOT
ATOM      1  C   UNL A   1      53.077  24.531  33.274  1.00  0.00     0.188 C 
ENDROOT
BRANCH   1   2
ATOM      2  C   UNL A   1      53.348  23.084  33.733  1.00  0.00     0.188 C 
BRANCH   2   3
ATOM      3  O   UNL A   1      53.004  22.203  32.665  1.00  0.00    -0.376 OA
BRANCH   3   4
ATOM      4  C   UNL A   1      52.008  21.247  33.003  1.00  0.00     0.202 C 
BRANCH   4   5
ATOM      5  C   UNL A   1      51.198  21.654  34.210  1.00  0.00     0.261 C 
BRANCH   5   6
ATOM      6  O   UNL A   1      50.083  20.811  34.383  1.00  0.00    -0.462 OA
BRANCH   6   7
ATOM      7  C   UNL A   1      50.118  20.162  35.570  1.00  0.00     0.329 C 
ATOM      8  O   UNL A   1      50.829  19.210  35.881  1.00  0.00    -0.250 OA
BRANCH   7   9
ATOM      9  C   UNL A   1      48.919  20.586  36.384  1.00  0.00     0.197 C 
BRANCH   9  10
ATOM     10  N   UNL A   1      47.791  19.619  36.421  1.00  0.00    -0.335 N 
ATOM     11  C   UNL A   1      46.498  19.830  36.904  1.00  0.00     0.293 C 
ATOM     12  O   UNL A   1      45.717  18.909  37.104  1.00  0.00    -0.265 OA
ATOM     13  H   UNL A   1      47.977  18.722  36.062  1.00  0.00     0.164 HD
BRANCH  11  14
ATOM     14  C   UNL A   1      46.041  21.264  37.088  1.00  0.00     0.252 C 
ATOM     15  O   UNL A   1      45.820  21.553  38.263  1.00  0.00    -0.283 OA
BRANCH  14  16
ATOM     16  C   UNL A   1      45.677  22.254  36.069  1.00  0.00     0.054 A 
ATOM     17  N   UNL A   1      44.860  23.371  34.305  1.00  0.00    -0.240 N 
ATOM     18  C   UNL A   1      45.738  22.346  34.672  1.00  0.00     0.117 A 
ATOM     19  C   UNL A   1      44.222  23.822  35.470  1.00  0.00     0.065 A 
ATOM     20  C   UNL A   1      45.083  23.483  36.493  1.00  0.00     0.012 A 
ATOM     21  C   UNL A   1      43.164  24.729  35.676  1.00  0.00     0.028 A 
ATOM     22  C   UNL A   1      45.049  24.234  37.688  1.00  0.00     0.011 A 
ATOM     23  C   UNL A   1      43.172  25.485  36.847  1.00  0.00     0.002 A 
ATOM     24  C   UNL A   1      44.139  25.283  37.820  1.00  0.00     0.001 A 
BRANCH  17  25
ATOM     25  S   UNL A   1      45.051  24.672  33.192  1.00  0.00     0.268 S 
ATOM     26  O   UNL A   1      44.262  24.251  32.046  1.00  0.00    -0.201 OA
ATOM     27  O   UNL A   1      46.508  24.745  33.114  1.00  0.00    -0.201 OA
BRANCH  25  28
ATOM     28  C   UNL A   1      44.692  26.375  33.355  1.00  0.00     0.088 A 
ATOM     29  C   UNL A   1      44.475  30.437  34.790  1.00  0.00     0.044 C 
ATOM     30  C   UNL A   1      44.553  29.055  34.210  1.00  0.00    -0.051 A 
ATOM     31  C   UNL A   1      45.631  28.277  34.599  1.00  0.00     0.005 A 
ATOM     32  C   UNL A   1      43.574  28.497  33.353  1.00  0.00     0.005 A 
ATOM     33  C   UNL A   1      45.701  26.974  34.159  1.00  0.00     0.022 A 
ATOM     34  C   UNL A   1      43.633  27.144  32.919  1.00  0.00     0.022 A 
ENDBRANCH  25  28
ENDBRANCH  17  25
ENDBRANCH  14  16
ENDBRANCH  11  14
ENDBRANCH   9  10
BRANCH   9  35
ATOM     35  C   UNL A   1      49.546  20.926  37.770  1.00  0.00     0.074 C 
BRANCH  35  36
ATOM     36  C   UNL A   1      49.169  22.258  38.381  1.00  0.00    -0.020 A 
ATOM     37  C   UNL A   1      48.995  22.557  39.722  1.00  0.00     0.087 A 
ATOM     38  C   UNL A   1      48.925  23.473  37.666  1.00  0.00     0.003 A 
ATOM     39  N   UNL A   1      48.642  23.878  39.835  1.00  0.00    -0.361 N 
ATOM     40  C   UNL A   1      48.594  24.462  38.591  1.00  0.00     0.046 A 
ATOM     41  C   UNL A   1      48.930  23.804  36.297  1.00  0.00     0.010 A 
ATOM     42  H   UNL A   1      48.453  24.341  40.683  1.00  0.00     0.166 HD
ATOM     43  C   UNL A   1      48.271  25.770  38.208  1.00  0.00     0.026 A 
ATOM     44  C   UNL A   1      48.550  25.082  35.893  1.00  0.00     0.001 A 
ATOM     45  C   UNL A   1      48.241  26.055  36.838  1.00  0.00     0.002 A 
ENDBRANCH  35  36
ENDBRANCH   9  35
ENDBRANCH   7   9
ENDBRANCH   6   7
ENDBRANCH   5   6
ENDBRANCH   4   5
ENDBRANCH   3   4
ENDBRANCH   2   3
ENDBRANCH   1   2
BRANCH   1  46
ATOM     46  O   UNL A   1      51.708  24.842  33.007  1.00  0.00    -0.377 OA
BRANCH  46  47
ATOM     47  C   UNL A   1      51.431  25.423  31.743  1.00  0.00     0.188 C 
BRANCH  47  48
ATOM     48  C   UNL A   1      49.998  25.190  31.281  1.00  0.00     0.188 C 
BRANCH  48  49
ATOM     49  O   UNL A   1      49.736  25.146  29.887  1.00  0.00    -0.376 OA
BRANCH  49  50
ATOM     50  C   UNL A   1      48.466  25.569  29.388  1.00  0.00     0.202 C 
BRANCH  50  51
ATOM     51  C   UNL A   1      47.869  24.905  28.123  1.00  0.00     0.261 C 
BRANCH  51  52
ATOM     52  O   UNL A   1      47.003  25.791  27.385  1.00  0.00    -0.460 OA
BRANCH  52  53
ATOM     53  C   UNL A   1      45.885  25.216  26.821  1.00  0.00     0.338 C 
ATOM     54  O   UNL A   1      45.845  24.127  26.317  1.00  0.00    -0.246 OA
BRANCH  53  55
ATOM     55  C   UNL A   1      44.656  25.916  27.296  1.00  0.00     0.060 A 
ATOM     56  C   UNL A   1      44.013  26.902  26.553  1.00  0.00     0.016 A 
ATOM     57  C   UNL A   1      44.159  25.596  28.552  1.00  0.00     0.016 A 
ATOM     58  C   UNL A   1      43.068  27.728  27.191  1.00  0.00     0.010 A 
ATOM     59  C   UNL A   1      43.332  26.497  29.215  1.00  0.00     0.010 A 
ATOM     60  C   UNL A   1      42.981  27.701  28.599  1.00  0.00    -0.014 A 
BRANCH  60  61
ATOM     61  C   UNL A   1      43.302  28.967  29.377  1.00  0.00     0.031 A 
ATOM     62  C   UNL A   1      42.344  29.727  30.282  1.00  0.00     0.074 A 
ATOM     63  C   UNL A   1      44.646  29.169  29.439  1.00  0.00     0.049 A 
ATOM     64  N   UNL A   1      42.368  31.020  30.501  1.00  0.00    -0.248 NA
ATOM     65  C   UNL A   1      41.174  29.111  30.909  1.00  0.00     0.031 C 
ATOM     66  C   UNL A   1      45.532  29.580  30.501  1.00  0.00     0.029 A 
ATOM     67  N   UNL A   1      45.467  29.323  28.321  1.00  0.00    -0.354 N 
ATOM     68  C   UNL A   1      41.360  31.348  31.422  1.00  0.00     0.074 A 
ATOM     69  C   UNL A   1      40.586  30.139  31.525  1.00  0.00     0.031 C 
ATOM     70  C   UNL A   1      46.567  30.278  30.031  1.00  0.00     0.029 A 
ATOM     71  C   UNL A   1      46.365  30.327  28.619  1.00  0.00     0.049 A 
ATOM     72  H   UNL A   1      45.413  28.814  27.481  1.00  0.00     0.167 HD
ATOM     73  C   UNL A   1      41.269  32.544  32.104  1.00  0.00     0.031 A 
ATOM     74  C   UNL A   1      47.143  31.050  27.820  1.00  0.00     0.031 A 
ATOM     75  C   UNL A   1      42.231  33.585  31.657  1.00  0.00     0.049 A 
ATOM     76  C   UNL A   1      46.578  32.449  27.842  1.00  0.00     0.074 A 
ATOM     77  C   UNL A   1      42.921  34.592  32.318  1.00  0.00     0.029 A 
ATOM     78  N   UNL A   1      42.714  33.621  30.337  1.00  0.00    -0.354 N 
ATOM     79  N   UNL A   1      45.694  32.920  28.709  1.00  0.00    -0.248 NA
ATOM     80  C   UNL A   1      46.940  33.433  26.835  1.00  0.00     0.031 C 
ATOM     81  C   UNL A   1      43.854  35.174  31.419  1.00  0.00     0.029 A 
ATOM     82  C   UNL A   1      43.734  34.544  30.187  1.00  0.00     0.049 A 
ATOM     83  H   UNL A   1      42.369  33.057  29.608  1.00  0.00     0.167 HD
ATOM     84  C   UNL A   1      45.282  34.188  28.309  1.00  0.00     0.074 A 
ATOM     85  C   UNL A   1      46.149  34.465  27.170  1.00  0.00     0.031 C 
ATOM     86  C   UNL A   1      44.266  34.932  28.875  1.00  0.00     0.031 A 
BRANCH  73  87
ATOM     87  C   UNL A   1      40.368  32.754  33.385  1.00  0.00    -0.014 A 
ATOM     88  C   UNL A   1      40.747  32.263  34.662  1.00  0.00     0.010 A 
ATOM     89  C   UNL A   1      39.082  33.346  33.380  1.00  0.00     0.010 A 
ATOM     90  C   UNL A   1      39.915  32.332  35.813  1.00  0.00     0.020 A 
ATOM     91  C   UNL A   1      38.271  33.495  34.530  1.00  0.00     0.020 A 
ATOM     92  C   UNL A   1      38.679  32.964  35.742  1.00  0.00     0.054 A 
BRANCH  92  93
ATOM     93  S   UNL A   1      37.632  33.131  37.222  1.00  0.00     0.124 S 
ATOM     94  O   UNL A   1      38.254  34.249  37.925  1.00  0.00    -0.237 OA
ATOM     95  O   UNL A   1      36.310  33.397  36.661  1.00  0.00    -0.237 OA
ATOM     96  O   UNL A   1      37.764  31.834  37.883  1.00  0.00    -0.744 OA
ENDBRANCH  92  93
ENDBRANCH  73  87
BRANCH  74  97
ATOM     97  C   UNL A   1      48.111  30.180  27.087  1.00  0.00    -0.014 A 
ATOM     98  C   UNL A   1      49.284  30.860  26.670  1.00  0.00     0.010 A 
ATOM     99  C   UNL A   1      48.264  28.821  27.453  1.00  0.00     0.010 A 
ATOM    100  C   UNL A   1      50.563  30.295  26.809  1.00  0.00     0.020 A 
ATOM    101  C   UNL A   1      49.549  28.253  27.609  1.00  0.00     0.020 A 
ATOM    102  C   UNL A   1      50.692  29.014  27.336  1.00  0.00     0.054 A 
BRANCH 102 103
ATOM    103  S   UNL A   1      52.323  28.466  27.951  1.00  0.00     0.124 S 
ATOM    104  O   UNL A   1      52.034  27.123  28.442  1.00  0.00    -0.237 OA
ATOM    105  O   UNL A   1      53.170  28.540  26.763  1.00  0.00    -0.237 OA
ATOM    106  O   UNL A   1      52.623  29.471  28.965  1.00  0.00    -0.744 OA
ENDBRANCH 102 103
ENDBRANCH  74  97
BRANCH  86 107
ATOM    107  C   UNL A   1      43.637  36.233  28.321  1.00  0.00    -0.014 A 
ATOM    108  C   UNL A   1      42.626  36.326  27.357  1.00  0.00     0.010 A 
ATOM    109  C   UNL A   1      44.032  37.479  28.895  1.00  0.00     0.010 A 
ATOM    110  C   UNL A   1      42.073  37.565  26.975  1.00  0.00     0.020 A 
ATOM    111  C   UNL A   1      43.487  38.715  28.537  1.00  0.00     0.020 A 
ATOM    112  C   UNL A   1      42.500  38.749  27.573  1.00  0.00     0.054 A 
BRANCH 112 113
ATOM    113  S   UNL A   1      41.679  40.307  27.165  1.00  0.00     0.124 S 
ATOM    114  O   UNL A   1      40.767  39.902  26.100  1.00  0.00    -0.237 OA
ATOM    115  O   UNL A   1      41.047  40.665  28.432  1.00  0.00    -0.237 OA
ATOM    116  O   UNL A   1      42.773  41.182  26.752  1.00  0.00    -0.744 OA
ENDBRANCH 112 113
ENDBRANCH  86 107
ENDBRANCH  60  61
ENDBRANCH  53  55
ENDBRANCH  52  53
ENDBRANCH  51  52
ENDBRANCH  50  51
ENDBRANCH  49  50
ENDBRANCH  48  49
ENDBRANCH  47  48
ENDBRANCH  46  47
ENDBRANCH   1  46
TORSDOF 30
ENDMDL
