MODEL 1
REMARK VINA RESULT:     -10.1      0.000      0.000
REMARK SMILES CCn1cc(C(=O)OCCOCCOCCOCCOC(=O)c2ccc(-c3c4nc(c(-c5ccc(S(=O)(=O)[O-])cc5)c5ccc([nH]5)c(-c5ccc(S(=O)(=O)[O-])cc5)c5nc(c(-c6ccc(S(=O)(=O)[O-])cc6)c6ccc3[nH]6)C=C5)C=C4)cc2)c(=O)c2cc(F)c(NC3CCCCC3)cc21
REMARK SMILES IDX 15 1 14 2 13 3 12 4 11 5 10 6 9 7 8 8 6 9 7 10 5 11 3 12
REMARK SMILES IDX 4 13 98 14 85 15 97 16 83 17 86 18 89 19 84 20 87 21 88 22
REMARK SMILES IDX 2 23 1 24 90 25 91 27 92 28 96 29 93 30 95 31 94 32 16 33
REMARK SMILES IDX 17 34 18 35 19 36 20 37 21 38 22 39 23 40 24 41 82 42 25 43
REMARK SMILES IDX 81 44 26 45 27 46 28 47 75 48 29 49 80 50 74 51 76 52 30 53
REMARK SMILES IDX 79 54 73 55 72 56 31 58 61 59 42 60 60 61 43 62 46 63 59 64
REMARK SMILES IDX 77 65 44 66 45 67 58 69 78 70 47 71 32 72 33 73 41 74 34 75
REMARK SMILES IDX 40 76 35 77 36 78 37 79 38 80 39 81 62 82 63 83 71 84 64 85
REMARK SMILES IDX 70 86 65 87 66 88 67 89 68 90 69 91 48 92 49 93 57 94 50 95
REMARK SMILES IDX 56 96 51 97 52 98 53 99 54 100 55 101
REMARK H PARENT 90 26 76 57 46 68
REMARK Flexibility Score: inf
ROOT
ATOM      1  C   UNL A   1      35.536  24.442  25.262  1.00  0.00     0.188 C 
ENDROOT
BRANCH   1   2
ATOM      2  O   UNL A   1      34.388  25.071  25.823  1.00  0.00    -0.377 OA
BRANCH   2   3
ATOM      3  C   UNL A   1      34.034  26.379  25.410  1.00  0.00     0.188 C 
BRANCH   3   4
ATOM      4  C   UNL A   1      33.483  27.355  26.468  1.00  0.00     0.188 C 
BRANCH   4   5
ATOM      5  O   UNL A   1      32.373  28.132  26.027  1.00  0.00    -0.376 OA
BRANCH   5   6
ATOM      6  C   UNL A   1      32.682  29.275  25.240  1.00  0.00     0.202 C 
BRANCH   6   7
ATOM      7  C   UNL A   1      32.036  29.275  23.850  1.00  0.00     0.261 C 
BRANCH   7   8
ATOM      8  O   UNL A   1      30.616  29.080  23.875  1.00  0.00    -0.459 OA
BRANCH   8   9
ATOM      9  C   UNL A   1      30.087  28.243  22.947  1.00  0.00     0.343 C 
ATOM     10  O   UNL A   1      29.344  28.562  22.035  1.00  0.00    -0.246 OA
BRANCH   9  11
ATOM     11  C   UNL A   1      30.670  26.904  23.149  1.00  0.00     0.124 A 
ATOM     12  N   UNL A   1      32.082  25.134  22.264  1.00  0.00    -0.347 N 
ATOM     13  C   UNL A   1      31.517  26.398  22.240  1.00  0.00     0.105 A 
ATOM     14  C   UNL A   1      31.875  24.332  23.417  1.00  0.00     0.054 A 
ATOM     15  C   UNL A   1      30.943  24.719  24.394  1.00  0.00     0.050 A 
ATOM     16  C   UNL A   1      32.583  23.143  23.652  1.00  0.00     0.055 A 
ATOM     17  C   UNL A   1      30.256  26.025  24.266  1.00  0.00     0.204 A 
ATOM     18  C   UNL A   1      30.658  23.897  25.491  1.00  0.00     0.055 A 
ATOM     19  C   UNL A   1      32.353  22.303  24.751  1.00  0.00     0.073 A 
ATOM     20  O   UNL A   1      29.357  26.324  25.044  1.00  0.00    -0.288 OA
ATOM     21  C   UNL A   1      31.354  22.702  25.648  1.00  0.00     0.147 A 
ATOM     22  F   UNL A   1      31.073  21.927  26.709  1.00  0.00    -0.205 F 
BRANCH  12  23
ATOM     23  C   UNL A   1      32.934  24.582  21.184  1.00  0.00     0.119 C 
ATOM     24  C   UNL A   1      32.746  25.223  19.815  1.00  0.00     0.027 C 
ENDBRANCH  12  23
BRANCH  19  25
ATOM     25  N   UNL A   1      33.061  21.129  24.968  1.00  0.00    -0.380 N 
ATOM     26  H   UNL A   1      33.374  20.974  25.888  1.00  0.00     0.160 HD
BRANCH  25  27
ATOM     27  C   UNL A   1      33.400  20.095  23.987  1.00  0.00     0.079 C 
ATOM     28  C   UNL A   1      34.249  18.979  24.626  1.00  0.00     0.025 C 
ATOM     29  C   UNL A   1      32.150  19.652  23.200  1.00  0.00     0.025 C 
ATOM     30  C   UNL A   1      34.313  17.697  23.805  1.00  0.00     0.002 C 
ATOM     31  C   UNL A   1      32.334  18.350  22.433  1.00  0.00     0.002 C 
ATOM     32  C   UNL A   1      32.939  17.265  23.312  1.00  0.00     0.000 C 
ENDBRANCH  25  27
ENDBRANCH  19  25
ENDBRANCH   9  11
ENDBRANCH   8   9
ENDBRANCH   7   8
ENDBRANCH   6   7
ENDBRANCH   5   6
ENDBRANCH   4   5
ENDBRANCH   3   4
ENDBRANCH   2   3
ENDBRANCH   1   2
BRANCH   1  33
ATOM     33  C   UNL A   1      36.342  23.370  26.031  1.00  0.00     0.188 C 
BRANCH  33  34
ATOM     34  O   UNL A   1      37.644  23.120  25.519  1.00  0.00    -0.376 OA
BRANCH  34  35
ATOM     35  C   UNL A   1      38.174  21.822  25.734  1.00  0.00     0.202 C 
BRANCH  35  36
ATOM     36  C   UNL A   1      39.630  21.807  26.207  1.00  0.00     0.261 C 
BRANCH  36  37
ATOM     37  O   UNL A   1      40.167  20.510  26.501  1.00  0.00    -0.460 OA
BRANCH  37  38
ATOM     38  C   UNL A   1      41.453  20.268  26.161  1.00  0.00     0.338 C 
ATOM     39  O   UNL A   1      41.891  19.294  25.573  1.00  0.00    -0.246 OA
BRANCH  38  40
ATOM     40  C   UNL A   1      42.216  21.497  26.463  1.00  0.00     0.060 A 
ATOM     41  C   UNL A   1      42.606  22.345  25.424  1.00  0.00     0.016 A 
ATOM     42  C   UNL A   1      42.583  21.775  27.785  1.00  0.00     0.016 A 
ATOM     43  C   UNL A   1      43.346  23.490  25.713  1.00  0.00     0.010 A 
ATOM     44  C   UNL A   1      43.329  22.922  28.073  1.00  0.00     0.010 A 
ATOM     45  C   UNL A   1      43.694  23.799  27.040  1.00  0.00    -0.014 A 
BRANCH  45  46
ATOM     46  C   UNL A   1      44.249  25.138  27.347  1.00  0.00     0.031 A 
ATOM     47  C   UNL A   1      45.705  25.457  27.203  1.00  0.00     0.074 A 
ATOM     48  C   UNL A   1      43.382  26.088  27.749  1.00  0.00     0.049 A 
ATOM     49  N   UNL A   1      46.297  26.618  27.318  1.00  0.00    -0.248 NA
ATOM     50  C   UNL A   1      46.613  24.344  26.892  1.00  0.00     0.031 C 
ATOM     51  C   UNL A   1      41.944  25.876  27.936  1.00  0.00     0.029 A 
ATOM     52  N   UNL A   1      43.566  27.413  28.049  1.00  0.00    -0.354 N 
ATOM     53  C   UNL A   1      47.644  26.386  27.070  1.00  0.00     0.074 A 
ATOM     54  C   UNL A   1      47.789  24.962  26.844  1.00  0.00     0.031 C 
ATOM     55  C   UNL A   1      41.372  27.037  28.281  1.00  0.00     0.029 A 
ATOM     56  C   UNL A   1      42.402  28.069  28.371  1.00  0.00     0.049 A 
ATOM     57  H   UNL A   1      44.448  27.853  28.036  1.00  0.00     0.167 HD
ATOM     58  C   UNL A   1      48.654  27.287  27.018  1.00  0.00     0.031 A 
ATOM     59  C   UNL A   1      42.176  29.358  28.690  1.00  0.00     0.031 A 
ATOM     60  C   UNL A   1      48.492  28.700  27.269  1.00  0.00     0.049 A 
ATOM     61  C   UNL A   1      43.322  30.327  28.672  1.00  0.00     0.074 A 
ATOM     62  C   UNL A   1      49.453  29.695  27.199  1.00  0.00     0.029 A 
ATOM     63  N   UNL A   1      47.309  29.319  27.648  1.00  0.00    -0.354 N 
ATOM     64  N   UNL A   1      44.575  30.106  28.353  1.00  0.00    -0.248 NA
ATOM     65  C   UNL A   1      43.028  31.717  29.040  1.00  0.00     0.031 C 
ATOM     66  C   UNL A   1      48.872  30.897  27.608  1.00  0.00     0.029 A 
ATOM     67  C   UNL A   1      47.526  30.672  27.854  1.00  0.00     0.049 A 
ATOM     68  H   UNL A   1      46.443  28.863  27.754  1.00  0.00     0.167 HD
ATOM     69  C   UNL A   1      45.216  31.334  28.464  1.00  0.00     0.074 A 
ATOM     70  C   UNL A   1      44.209  32.297  28.861  1.00  0.00     0.031 C 
ATOM     71  C   UNL A   1      46.523  31.628  28.259  1.00  0.00     0.031 A 
BRANCH  58  72
ATOM     72  C   UNL A   1      50.036  26.805  26.654  1.00  0.00    -0.014 A 
ATOM     73  C   UNL A   1      50.469  26.847  25.315  1.00  0.00     0.010 A 
ATOM     74  C   UNL A   1      50.844  26.162  27.610  1.00  0.00     0.010 A 
ATOM     75  C   UNL A   1      51.661  26.226  24.932  1.00  0.00     0.020 A 
ATOM     76  C   UNL A   1      52.051  25.564  27.236  1.00  0.00     0.020 A 
ATOM     77  C   UNL A   1      52.439  25.577  25.894  1.00  0.00     0.054 A 
BRANCH  77  78
ATOM     78  S   UNL A   1      53.962  24.740  25.372  1.00  0.00     0.124 S 
ATOM     79  O   UNL A   1      54.797  24.845  26.564  1.00  0.00    -0.237 OA
ATOM     80  O   UNL A   1      53.491  23.396  25.046  1.00  0.00    -0.237 OA
ATOM     81  O   UNL A   1      54.409  25.528  24.225  1.00  0.00    -0.744 OA
ENDBRANCH  77  78
ENDBRANCH  58  72
BRANCH  59  82
ATOM     82  C   UNL A   1      40.783  29.789  28.992  1.00  0.00    -0.014 A 
ATOM     83  C   UNL A   1      40.457  30.303  30.262  1.00  0.00     0.010 A 
ATOM     84  C   UNL A   1      39.758  29.588  28.052  1.00  0.00     0.010 A 
ATOM     85  C   UNL A   1      39.126  30.547  30.608  1.00  0.00     0.020 A 
ATOM     86  C   UNL A   1      38.428  29.862  28.384  1.00  0.00     0.020 A 
ATOM     87  C   UNL A   1      38.119  30.310  29.671  1.00  0.00     0.054 A 
BRANCH  87  88
ATOM     88  S   UNL A   1      36.393  30.572  30.165  1.00  0.00     0.124 S 
ATOM     89  O   UNL A   1      35.713  30.588  28.872  1.00  0.00    -0.237 OA
ATOM     90  O   UNL A   1      36.122  29.407  31.003  1.00  0.00    -0.237 OA
ATOM     91  O   UNL A   1      36.428  31.850  30.869  1.00  0.00    -0.744 OA
ENDBRANCH  87  88
ENDBRANCH  59  82
BRANCH  71  92
ATOM     92  C   UNL A   1      46.973  33.053  28.469  1.00  0.00    -0.014 A 
ATOM     93  C   UNL A   1      46.669  33.714  29.674  1.00  0.00     0.010 A 
ATOM     94  C   UNL A   1      47.571  33.780  27.425  1.00  0.00     0.010 A 
ATOM     95  C   UNL A   1      46.912  35.081  29.817  1.00  0.00     0.020 A 
ATOM     96  C   UNL A   1      47.846  35.143  27.575  1.00  0.00     0.020 A 
ATOM     97  C   UNL A   1      47.487  35.792  28.760  1.00  0.00     0.054 A 
BRANCH  97  98
ATOM     98  S   UNL A   1      47.748  37.577  28.943  1.00  0.00     0.124 S 
ATOM     99  O   UNL A   1      47.482  37.782  30.363  1.00  0.00    -0.237 OA
ATOM    100  O   UNL A   1      49.142  37.741  28.533  1.00  0.00    -0.237 OA
ATOM    101  O   UNL A   1      46.767  38.163  28.032  1.00  0.00    -0.744 OA
ENDBRANCH  97  98
ENDBRANCH  71  92
ENDBRANCH  45  46
ENDBRANCH  38  40
ENDBRANCH  37  38
ENDBRANCH  36  37
ENDBRANCH  35  36
ENDBRANCH  34  35
ENDBRANCH  33  34
ENDBRANCH   1  33
TORSDOF 26
ENDMDL
MODEL 2
REMARK VINA RESULT:     -10.0      3.910      8.447
REMARK SMILES CCn1cc(C(=O)OCCOCCOCCOCCOC(=O)c2ccc(-c3c4nc(c(-c5ccc(S(=O)(=O)[O-])cc5)c5ccc([nH]5)c(-c5ccc(S(=O)(=O)[O-])cc5)c5nc(c(-c6ccc(S(=O)(=O)[O-])cc6)c6ccc3[nH]6)C=C5)C=C4)cc2)c(=O)c2cc(F)c(NC3CCCCC3)cc21
REMARK SMILES IDX 15 1 14 2 13 3 12 4 11 5 10 6 9 7 8 8 6 9 7 10 5 11 3 12
REMARK SMILES IDX 4 13 98 14 85 15 97 16 83 17 86 18 89 19 84 20 87 21 88 22
REMARK SMILES IDX 2 23 1 24 90 25 91 27 92 28 96 29 93 30 95 31 94 32 16 33
REMARK SMILES IDX 17 34 18 35 19 36 20 37 21 38 22 39 23 40 24 41 82 42 25 43
REMARK SMILES IDX 81 44 26 45 27 46 28 47 75 48 29 49 80 50 74 51 76 52 30 53
REMARK SMILES IDX 79 54 73 55 72 56 31 58 61 59 42 60 60 61 43 62 46 63 59 64
REMARK SMILES IDX 77 65 44 66 45 67 58 69 78 70 47 71 32 72 33 73 41 74 34 75
REMARK SMILES IDX 40 76 35 77 36 78 37 79 38 80 39 81 62 82 63 83 71 84 64 85
REMARK SMILES IDX 70 86 65 87 66 88 67 89 68 90 69 91 48 92 49 93 57 94 50 95
REMARK SMILES IDX 56 96 51 97 52 98 53 99 54 100 55 101
REMARK H PARENT 90 26 76 57 46 68
REMARK Flexibility Score: inf
ROOT
ATOM      1  C   UNL A   1      35.593  24.033  25.119  1.00  0.00     0.188 C 
ENDROOT
BRANCH   1   2
ATOM      2  O   UNL A   1      34.584  24.818  25.745  1.00  0.00    -0.377 OA
BRANCH   2   3
ATOM      3  C   UNL A   1      34.204  26.057  25.170  1.00  0.00     0.188 C 
BRANCH   3   4
ATOM      4  C   UNL A   1      33.616  27.141  26.094  1.00  0.00     0.188 C 
BRANCH   4   5
ATOM      5  O   UNL A   1      32.308  27.576  25.731  1.00  0.00    -0.376 OA
BRANCH   5   6
ATOM      6  C   UNL A   1      32.106  28.983  25.687  1.00  0.00     0.202 C 
BRANCH   6   7
ATOM      7  C   UNL A   1      31.512  29.491  24.369  1.00  0.00     0.261 C 
BRANCH   7   8
ATOM      8  O   UNL A   1      30.194  28.993  24.101  1.00  0.00    -0.459 OA
BRANCH   8   9
ATOM      9  C   UNL A   1      29.993  28.375  22.911  1.00  0.00     0.343 C 
ATOM     10  O   UNL A   1      29.497  28.877  21.916  1.00  0.00    -0.246 OA
BRANCH   9  11
ATOM     11  C   UNL A   1      30.599  27.033  22.981  1.00  0.00     0.124 A 
ATOM     12  N   UNL A   1      32.055  25.389  21.936  1.00  0.00    -0.347 N 
ATOM     13  C   UNL A   1      31.467  26.639  22.036  1.00  0.00     0.105 A 
ATOM     14  C   UNL A   1      31.850  24.469  22.997  1.00  0.00     0.054 A 
ATOM     15  C   UNL A   1      30.900  24.735  23.996  1.00  0.00     0.050 A 
ATOM     16  C   UNL A   1      32.578  23.275  23.118  1.00  0.00     0.055 A 
ATOM     17  C   UNL A   1      30.189  26.035  23.995  1.00  0.00     0.204 A 
ATOM     18  C   UNL A   1      30.617  23.798  24.998  1.00  0.00     0.055 A 
ATOM     19  C   UNL A   1      32.351  22.320  24.119  1.00  0.00     0.073 A 
ATOM     20  O   UNL A   1      29.275  26.235  24.787  1.00  0.00    -0.288 OA
ATOM     21  C   UNL A   1      31.334  22.607  25.040  1.00  0.00     0.147 A 
ATOM     22  F   UNL A   1      31.055  21.720  26.011  1.00  0.00    -0.205 F 
BRANCH  12  23
ATOM     23  C   UNL A   1      32.930  24.968  20.817  1.00  0.00     0.119 C 
ATOM     24  C   UNL A   1      32.482  25.421  19.434  1.00  0.00     0.027 C 
ENDBRANCH  12  23
BRANCH  19  25
ATOM     25  N   UNL A   1      33.079  21.143  24.224  1.00  0.00    -0.380 N 
ATOM     26  H   UNL A   1      34.034  21.241  24.441  1.00  0.00     0.160 HD
BRANCH  25  27
ATOM     27  C   UNL A   1      32.592  19.773  24.047  1.00  0.00     0.079 C 
ATOM     28  C   UNL A   1      32.451  19.422  22.553  1.00  0.00     0.025 C 
ATOM     29  C   UNL A   1      33.394  18.786  24.919  1.00  0.00     0.025 C 
ATOM     30  C   UNL A   1      32.334  17.930  22.270  1.00  0.00     0.002 C 
ATOM     31  C   UNL A   1      33.205  17.326  24.530  1.00  0.00     0.002 C 
ATOM     32  C   UNL A   1      33.375  17.121  23.032  1.00  0.00     0.000 C 
ENDBRANCH  25  27
ENDBRANCH  19  25
ENDBRANCH   9  11
ENDBRANCH   8   9
ENDBRANCH   7   8
ENDBRANCH   6   7
ENDBRANCH   5   6
ENDBRANCH   4   5
ENDBRANCH   3   4
ENDBRANCH   2   3
ENDBRANCH   1   2
BRANCH   1  33
ATOM     33  C   UNL A   1      36.339  22.906  25.871  1.00  0.00     0.188 C 
BRANCH  33  34
ATOM     34  O   UNL A   1      37.748  22.894  25.683  1.00  0.00    -0.376 OA
BRANCH  34  35
ATOM     35  C   UNL A   1      38.370  21.621  25.620  1.00  0.00     0.202 C 
BRANCH  35  36
ATOM     36  C   UNL A   1      39.672  21.516  26.419  1.00  0.00     0.261 C 
BRANCH  36  37
ATOM     37  O   UNL A   1      40.649  20.611  25.886  1.00  0.00    -0.460 OA
BRANCH  37  38
ATOM     38  C   UNL A   1      41.948  20.986  25.933  1.00  0.00     0.338 C 
ATOM     39  O   UNL A   1      42.881  20.490  25.327  1.00  0.00    -0.246 OA
BRANCH  38  40
ATOM     40  C   UNL A   1      42.006  22.239  26.714  1.00  0.00     0.060 A 
ATOM     41  C   UNL A   1      41.616  22.240  28.055  1.00  0.00     0.016 A 
ATOM     42  C   UNL A   1      42.406  23.426  26.087  1.00  0.00     0.016 A 
ATOM     43  C   UNL A   1      41.650  23.430  28.779  1.00  0.00     0.010 A 
ATOM     44  C   UNL A   1      42.436  24.619  26.815  1.00  0.00     0.010 A 
ATOM     45  C   UNL A   1      42.081  24.623  28.172  1.00  0.00    -0.014 A 
BRANCH  45  46
ATOM     46  C   UNL A   1      42.353  25.807  29.021  1.00  0.00     0.031 A 
ATOM     47  C   UNL A   1      41.394  26.950  29.137  1.00  0.00     0.074 A 
ATOM     48  C   UNL A   1      43.507  25.814  29.718  1.00  0.00     0.049 A 
ATOM     49  N   UNL A   1      41.454  27.983  29.938  1.00  0.00    -0.248 NA
ATOM     50  C   UNL A   1      40.222  26.942  28.250  1.00  0.00     0.031 C 
ATOM     51  C   UNL A   1      44.517  24.755  29.663  1.00  0.00     0.029 A 
ATOM     52  N   UNL A   1      44.015  26.716  30.616  1.00  0.00    -0.354 N 
ATOM     53  C   UNL A   1      40.320  28.739  29.675  1.00  0.00     0.074 A 
ATOM     54  C   UNL A   1      39.610  28.068  28.603  1.00  0.00     0.031 C 
ATOM     55  C   UNL A   1      45.505  25.048  30.519  1.00  0.00     0.029 A 
ATOM     56  C   UNL A   1      45.217  26.328  31.160  1.00  0.00     0.049 A 
ATOM     57  H   UNL A   1      43.565  27.560  30.849  1.00  0.00     0.167 HD
ATOM     58  C   UNL A   1      39.906  29.873  30.289  1.00  0.00     0.031 A 
ATOM     59  C   UNL A   1      46.000  26.922  32.082  1.00  0.00     0.031 A 
ATOM     60  C   UNL A   1      40.639  30.538  31.339  1.00  0.00     0.049 A 
ATOM     61  C   UNL A   1      45.540  28.205  32.712  1.00  0.00     0.074 A 
ATOM     62  C   UNL A   1      40.278  31.671  32.048  1.00  0.00     0.029 A 
ATOM     63  N   UNL A   1      41.880  30.148  31.825  1.00  0.00    -0.354 N 
ATOM     64  N   UNL A   1      44.423  28.861  32.511  1.00  0.00    -0.248 NA
ATOM     65  C   UNL A   1      46.434  28.820  33.702  1.00  0.00     0.031 C 
ATOM     66  C   UNL A   1      41.328  32.009  32.904  1.00  0.00     0.029 A 
ATOM     67  C   UNL A   1      42.313  31.041  32.793  1.00  0.00     0.049 A 
ATOM     68  H   UNL A   1      42.379  29.354  31.526  1.00  0.00     0.167 HD
ATOM     69  C   UNL A   1      44.470  29.959  33.362  1.00  0.00     0.074 A 
ATOM     70  C   UNL A   1      45.717  29.867  34.094  1.00  0.00     0.031 C 
ATOM     71  C   UNL A   1      43.561  30.953  33.514  1.00  0.00     0.031 A 
BRANCH  58  72
ATOM     72  C   UNL A   1      38.588  30.480  29.876  1.00  0.00    -0.014 A 
ATOM     73  C   UNL A   1      38.562  31.636  29.073  1.00  0.00     0.010 A 
ATOM     74  C   UNL A   1      37.381  29.998  30.415  1.00  0.00     0.010 A 
ATOM     75  C   UNL A   1      37.364  32.319  28.848  1.00  0.00     0.020 A 
ATOM     76  C   UNL A   1      36.176  30.664  30.169  1.00  0.00     0.020 A 
ATOM     77  C   UNL A   1      36.179  31.835  29.408  1.00  0.00     0.054 A 
BRANCH  77  78
ATOM     78  S   UNL A   1      34.640  32.758  29.141  1.00  0.00     0.124 S 
ATOM     79  O   UNL A   1      34.170  32.977  30.505  1.00  0.00    -0.237 OA
ATOM     80  O   UNL A   1      35.102  33.949  28.431  1.00  0.00    -0.237 OA
ATOM     81  O   UNL A   1      33.828  31.844  28.340  1.00  0.00    -0.744 OA
ENDBRANCH  77  78
ENDBRANCH  58  72
BRANCH  59  82
ATOM     82  C   UNL A   1      47.266  26.253  32.487  1.00  0.00    -0.014 A 
ATOM     83  C   UNL A   1      48.439  26.432  31.730  1.00  0.00     0.010 A 
ATOM     84  C   UNL A   1      47.279  25.351  33.565  1.00  0.00     0.010 A 
ATOM     85  C   UNL A   1      49.582  25.677  32.002  1.00  0.00     0.020 A 
ATOM     86  C   UNL A   1      48.431  24.616  33.861  1.00  0.00     0.020 A 
ATOM     87  C   UNL A   1      49.565  24.762  33.057  1.00  0.00     0.054 A 
BRANCH  87  88
ATOM     88  S   UNL A   1      51.037  23.745  33.350  1.00  0.00     0.124 S 
ATOM     89  O   UNL A   1      52.042  24.758  33.666  1.00  0.00    -0.237 OA
ATOM     90  O   UNL A   1      50.623  22.900  34.467  1.00  0.00    -0.237 OA
ATOM     91  O   UNL A   1      51.230  23.047  32.082  1.00  0.00    -0.744 OA
ENDBRANCH  87  88
ENDBRANCH  59  82
BRANCH  71  92
ATOM     92  C   UNL A   1      43.865  32.050  34.503  1.00  0.00    -0.014 A 
ATOM     93  C   UNL A   1      43.456  31.920  35.843  1.00  0.00     0.010 A 
ATOM     94  C   UNL A   1      44.431  33.266  34.078  1.00  0.00     0.010 A 
ATOM     95  C   UNL A   1      43.563  32.995  36.728  1.00  0.00     0.020 A 
ATOM     96  C   UNL A   1      44.570  34.335  34.969  1.00  0.00     0.020 A 
ATOM     97  C   UNL A   1      44.108  34.202  36.280  1.00  0.00     0.054 A 
BRANCH  97  98
ATOM     98  S   UNL A   1      44.192  35.604  37.428  1.00  0.00     0.124 S 
ATOM     99  O   UNL A   1      42.856  36.180  37.308  1.00  0.00    -0.237 OA
ATOM    100  O   UNL A   1      44.485  34.955  38.705  1.00  0.00    -0.237 OA
ATOM    101  O   UNL A   1      45.276  36.423  36.892  1.00  0.00    -0.744 OA
ENDBRANCH  97  98
ENDBRANCH  71  92
ENDBRANCH  45  46
ENDBRANCH  38  40
ENDBRANCH  37  38
ENDBRANCH  36  37
ENDBRANCH  35  36
ENDBRANCH  34  35
ENDBRANCH  33  34
ENDBRANCH   1  33
TORSDOF 26
ENDMDL
MODEL 3
REMARK VINA RESULT:      -9.7      1.881      2.656
REMARK SMILES CCn1cc(C(=O)OCCOCCOCCOCCOC(=O)c2ccc(-c3c4nc(c(-c5ccc(S(=O)(=O)[O-])cc5)c5ccc([nH]5)c(-c5ccc(S(=O)(=O)[O-])cc5)c5nc(c(-c6ccc(S(=O)(=O)[O-])cc6)c6ccc3[nH]6)C=C5)C=C4)cc2)c(=O)c2cc(F)c(NC3CCCCC3)cc21
REMARK SMILES IDX 15 1 14 2 13 3 12 4 11 5 10 6 9 7 8 8 6 9 7 10 5 11 3 12
REMARK SMILES IDX 4 13 98 14 85 15 97 16 83 17 86 18 89 19 84 20 87 21 88 22
REMARK SMILES IDX 2 23 1 24 90 25 91 27 92 28 96 29 93 30 95 31 94 32 16 33
REMARK SMILES IDX 17 34 18 35 19 36 20 37 21 38 22 39 23 40 24 41 82 42 25 43
REMARK SMILES IDX 81 44 26 45 27 46 28 47 75 48 29 49 80 50 74 51 76 52 30 53
REMARK SMILES IDX 79 54 73 55 72 56 31 58 61 59 42 60 60 61 43 62 46 63 59 64
REMARK SMILES IDX 77 65 44 66 45 67 58 69 78 70 47 71 32 72 33 73 41 74 34 75
REMARK SMILES IDX 40 76 35 77 36 78 37 79 38 80 39 81 62 82 63 83 71 84 64 85
REMARK SMILES IDX 70 86 65 87 66 88 67 89 68 90 69 91 48 92 49 93 57 94 50 95
REMARK SMILES IDX 56 96 51 97 52 98 53 99 54 100 55 101
REMARK H PARENT 90 26 76 57 46 68
REMARK Flexibility Score: inf
ROOT
ATOM      1  C   UNL A   1      34.438  25.525  25.041  1.00  0.00     0.188 C 
ENDROOT
BRANCH   1   2
ATOM      2  O   UNL A   1      34.061  26.563  25.940  1.00  0.00    -0.377 OA
BRANCH   2   3
ATOM      3  C   UNL A   1      34.128  27.914  25.517  1.00  0.00     0.188 C 
BRANCH   3   4
ATOM      4  C   UNL A   1      33.604  29.005  26.471  1.00  0.00     0.188 C 
BRANCH   4   5
ATOM      5  O   UNL A   1      32.184  29.082  26.551  1.00  0.00    -0.376 OA
BRANCH   5   6
ATOM      6  C   UNL A   1      31.568  30.104  25.776  1.00  0.00     0.202 C 
BRANCH   6   7
ATOM      7  C   UNL A   1      31.338  29.727  24.309  1.00  0.00     0.261 C 
BRANCH   7   8
ATOM      8  O   UNL A   1      30.014  29.249  24.037  1.00  0.00    -0.459 OA
BRANCH   8   9
ATOM      9  C   UNL A   1      29.795  28.680  22.825  1.00  0.00     0.343 C 
ATOM     10  O   UNL A   1      29.267  29.217  21.865  1.00  0.00    -0.246 OA
BRANCH   9  11
ATOM     11  C   UNL A   1      30.423  27.347  22.822  1.00  0.00     0.124 A 
ATOM     12  N   UNL A   1      31.900  25.785  21.685  1.00  0.00    -0.347 N 
ATOM     13  C   UNL A   1      31.292  27.018  21.853  1.00  0.00     0.105 A 
ATOM     14  C   UNL A   1      31.717  24.807  22.697  1.00  0.00     0.054 A 
ATOM     15  C   UNL A   1      30.768  25.004  23.714  1.00  0.00     0.050 A 
ATOM     16  C   UNL A   1      32.465  23.621  22.751  1.00  0.00     0.055 A 
ATOM     17  C   UNL A   1      30.036  26.290  23.784  1.00  0.00     0.204 A 
ATOM     18  C   UNL A   1      30.507  24.012  24.666  1.00  0.00     0.055 A 
ATOM     19  C   UNL A   1      32.260  22.612  23.703  1.00  0.00     0.073 A 
ATOM     20  O   UNL A   1      29.124  26.434  24.591  1.00  0.00    -0.288 OA
ATOM     21  C   UNL A   1      31.244  22.832  24.642  1.00  0.00     0.147 A 
ATOM     22  F   UNL A   1      30.986  21.891  25.567  1.00  0.00    -0.205 F 
BRANCH  12  23
ATOM     23  C   UNL A   1      32.776  25.438  20.540  1.00  0.00     0.119 C 
ATOM     24  C   UNL A   1      32.072  25.318  19.196  1.00  0.00     0.027 C 
ENDBRANCH  12  23
BRANCH  19  25
ATOM     25  N   UNL A   1      33.008  21.443  23.742  1.00  0.00    -0.380 N 
ATOM     26  H   UNL A   1      33.985  21.550  23.685  1.00  0.00     0.160 HD
BRANCH  25  27
ATOM     27  C   UNL A   1      32.513  20.069  23.855  1.00  0.00     0.079 C 
ATOM     28  C   UNL A   1      32.418  19.397  22.471  1.00  0.00     0.025 C 
ATOM     29  C   UNL A   1      33.276  19.297  24.951  1.00  0.00     0.025 C 
ATOM     30  C   UNL A   1      32.295  17.879  22.522  1.00  0.00     0.002 C 
ATOM     31  C   UNL A   1      33.085  17.788  24.888  1.00  0.00     0.002 C 
ATOM     32  C   UNL A   1      33.303  17.256  23.479  1.00  0.00     0.000 C 
ENDBRANCH  25  27
ENDBRANCH  19  25
ENDBRANCH   9  11
ENDBRANCH   8   9
ENDBRANCH   7   8
ENDBRANCH   6   7
ENDBRANCH   5   6
ENDBRANCH   4   5
ENDBRANCH   3   4
ENDBRANCH   2   3
ENDBRANCH   1   2
BRANCH   1  33
ATOM     33  C   UNL A   1      34.851  24.121  25.538  1.00  0.00     0.188 C 
BRANCH  33  34
ATOM     34  O   UNL A   1      36.210  24.005  25.938  1.00  0.00    -0.376 OA
BRANCH  34  35
ATOM     35  C   UNL A   1      37.041  23.180  25.138  1.00  0.00     0.202 C 
BRANCH  35  36
ATOM     36  C   UNL A   1      37.890  22.183  25.933  1.00  0.00     0.261 C 
BRANCH  36  37
ATOM     37  O   UNL A   1      39.309  22.323  25.776  1.00  0.00    -0.460 OA
BRANCH  37  38
ATOM     38  C   UNL A   1      40.092  22.037  26.841  1.00  0.00     0.338 C 
ATOM     39  O   UNL A   1      40.313  20.939  27.321  1.00  0.00    -0.246 OA
BRANCH  38  40
ATOM     40  C   UNL A   1      40.791  23.286  27.207  1.00  0.00     0.060 A 
ATOM     41  C   UNL A   1      40.780  24.372  26.330  1.00  0.00     0.016 A 
ATOM     42  C   UNL A   1      41.502  23.352  28.413  1.00  0.00     0.016 A 
ATOM     43  C   UNL A   1      41.462  25.538  26.671  1.00  0.00     0.010 A 
ATOM     44  C   UNL A   1      42.189  24.522  28.751  1.00  0.00     0.010 A 
ATOM     45  C   UNL A   1      42.152  25.631  27.893  1.00  0.00    -0.014 A 
BRANCH  45  46
ATOM     46  C   UNL A   1      42.645  26.953  28.345  1.00  0.00     0.031 A 
ATOM     47  C   UNL A   1      44.096  27.321  28.317  1.00  0.00     0.074 A 
ATOM     48  C   UNL A   1      41.726  27.842  28.771  1.00  0.00     0.049 A 
ATOM     49  N   UNL A   1      44.643  28.484  28.566  1.00  0.00    -0.248 NA
ATOM     50  C   UNL A   1      45.056  26.264  27.970  1.00  0.00     0.031 C 
ATOM     51  C   UNL A   1      40.287  27.575  28.851  1.00  0.00     0.029 A 
ATOM     52  N   UNL A   1      41.849  29.140  29.192  1.00  0.00    -0.354 N 
ATOM     53  C   UNL A   1      46.008  28.311  28.383  1.00  0.00     0.074 A 
ATOM     54  C   UNL A   1      46.212  26.916  28.047  1.00  0.00     0.031 C 
ATOM     55  C   UNL A   1      39.659  28.687  29.256  1.00  0.00     0.029 A 
ATOM     56  C   UNL A   1      40.647  29.734  29.496  1.00  0.00     0.049 A 
ATOM     57  H   UNL A   1      42.715  29.603  29.270  1.00  0.00     0.167 HD
ATOM     58  C   UNL A   1      46.991  29.240  28.469  1.00  0.00     0.031 A 
ATOM     59  C   UNL A   1      40.362  30.985  29.907  1.00  0.00     0.031 A 
ATOM     60  C   UNL A   1      46.769  30.621  28.827  1.00  0.00     0.049 A 
ATOM     61  C   UNL A   1      41.476  31.982  30.041  1.00  0.00     0.074 A 
ATOM     62  C   UNL A   1      47.700  31.644  28.900  1.00  0.00     0.029 A 
ATOM     63  N   UNL A   1      45.547  31.173  29.183  1.00  0.00    -0.354 N 
ATOM     64  N   UNL A   1      42.751  31.823  29.782  1.00  0.00    -0.248 NA
ATOM     65  C   UNL A   1      41.116  33.328  30.505  1.00  0.00     0.031 C 
ATOM     66  C   UNL A   1      47.057  32.790  29.373  1.00  0.00     0.029 A 
ATOM     67  C   UNL A   1      45.708  32.509  29.515  1.00  0.00     0.049 A 
ATOM     68  H   UNL A   1      44.691  30.687  29.197  1.00  0.00     0.167 HD
ATOM     69  C   UNL A   1      43.345  33.053  30.036  1.00  0.00     0.074 A 
ATOM     70  C   UNL A   1      42.286  33.951  30.449  1.00  0.00     0.031 C 
ATOM     71  C   UNL A   1      44.652  33.400  29.937  1.00  0.00     0.031 A 
BRANCH  58  72
ATOM     72  C   UNL A   1      48.406  28.827  28.151  1.00  0.00    -0.014 A 
ATOM     73  C   UNL A   1      48.928  29.030  26.859  1.00  0.00     0.010 A 
ATOM     74  C   UNL A   1      49.164  28.096  29.083  1.00  0.00     0.010 A 
ATOM     75  C   UNL A   1      50.160  28.479  26.494  1.00  0.00     0.020 A 
ATOM     76  C   UNL A   1      50.409  27.566  28.731  1.00  0.00     0.020 A 
ATOM     77  C   UNL A   1      50.887  27.739  27.430  1.00  0.00     0.054 A 
BRANCH  77  78
ATOM     78  S   UNL A   1      52.463  26.995  26.926  1.00  0.00     0.124 S 
ATOM     79  O   UNL A   1      52.531  27.341  25.510  1.00  0.00    -0.237 OA
ATOM     80  O   UNL A   1      53.426  27.672  27.791  1.00  0.00    -0.237 OA
ATOM     81  O   UNL A   1      52.276  25.573  27.212  1.00  0.00    -0.744 OA
ENDBRANCH  77  78
ENDBRANCH  58  72
BRANCH  59  82
ATOM     82  C   UNL A   1      38.941  31.350  30.158  1.00  0.00    -0.014 A 
ATOM     83  C   UNL A   1      38.183  31.989  29.158  1.00  0.00     0.010 A 
ATOM     84  C   UNL A   1      38.372  31.162  31.430  1.00  0.00     0.010 A 
ATOM     85  C   UNL A   1      36.910  32.488  29.441  1.00  0.00     0.020 A 
ATOM     86  C   UNL A   1      37.085  31.630  31.708  1.00  0.00     0.020 A 
ATOM     87  C   UNL A   1      36.376  32.318  30.720  1.00  0.00     0.054 A 
BRANCH  87  88
ATOM     88  S   UNL A   1      34.748  33.032  31.084  1.00  0.00     0.124 S 
ATOM     89  O   UNL A   1      34.373  32.314  32.300  1.00  0.00    -0.237 OA
ATOM     90  O   UNL A   1      35.055  34.449  31.260  1.00  0.00    -0.237 OA
ATOM     91  O   UNL A   1      33.960  32.710  29.898  1.00  0.00    -0.744 OA
ENDBRANCH  87  88
ENDBRANCH  59  82
BRANCH  71  92
ATOM     92  C   UNL A   1      45.043  34.812  30.293  1.00  0.00    -0.014 A 
ATOM     93  C   UNL A   1      44.978  35.242  31.632  1.00  0.00     0.010 A 
ATOM     94  C   UNL A   1      45.339  35.752  29.289  1.00  0.00     0.010 A 
ATOM     95  C   UNL A   1      45.156  36.588  31.957  1.00  0.00     0.020 A 
ATOM     96  C   UNL A   1      45.551  37.096  29.615  1.00  0.00     0.020 A 
ATOM     97  C   UNL A   1      45.428  37.510  30.943  1.00  0.00     0.054 A 
BRANCH  97  98
ATOM     98  S   UNL A   1      45.606  39.262  31.377  1.00  0.00     0.124 S 
ATOM     99  O   UNL A   1      46.873  39.272  32.101  1.00  0.00    -0.237 OA
ATOM    100  O   UNL A   1      45.622  39.916  30.070  1.00  0.00    -0.237 OA
ATOM    101  O   UNL A   1      44.421  39.538  32.187  1.00  0.00    -0.744 OA
ENDBRANCH  97  98
ENDBRANCH  71  92
ENDBRANCH  45  46
ENDBRANCH  38  40
ENDBRANCH  37  38
ENDBRANCH  36  37
ENDBRANCH  35  36
ENDBRANCH  34  35
ENDBRANCH  33  34
ENDBRANCH   1  33
TORSDOF 26
ENDMDL
