MODEL 1
REMARK VINA RESULT:      -9.6      0.000      0.000
REMARK SMILES Cc1cc(C(=O)OCCOCCOCCOCCOC(=O)c2ccc(-c3c4nc(c(-c5ccc(S(=O)(=O)[O-])cc5)c5ccc([nH]5)c(-c5ccc(S(=O)(=O)[O-])cc5)c5nc(c(-c6ccc(S(=O)(=O)[O-])cc6)c6ccc3[nH]6)C=C5)C=C4)cc2)ccc1NC(=O)c1ccc(=O)n(CCOc2ccccc2)n1
REMARK SMILES IDX 11 1 10 2 9 3 8 4 7 5 5 6 6 7 4 8 1 9 2 10 3 11 84 12 83 13
REMARK SMILES IDX 82 14 85 15 86 16 87 18 88 19 89 20 103 21 90 22 93 23 91 24
REMARK SMILES IDX 92 25 94 26 95 27 96 28 97 29 98 30 102 31 99 32 101 33
REMARK SMILES IDX 100 34 12 35 13 36 14 37 15 38 16 39 17 40 18 41 19 42 20 43
REMARK SMILES IDX 21 44 22 45 23 46 81 47 24 48 80 49 25 50 26 51 27 52 74 53
REMARK SMILES IDX 28 54 79 55 73 56 75 57 29 58 78 59 72 60 71 61 30 63 60 64
REMARK SMILES IDX 41 65 59 66 42 67 45 68 58 69 76 70 43 71 44 72 57 74 77 75
REMARK SMILES IDX 46 76 31 77 32 78 40 79 33 80 39 81 34 82 35 83 36 84 37 85
REMARK SMILES IDX 38 86 61 87 62 88 70 89 63 90 69 91 64 92 65 93 66 94 67 95
REMARK SMILES IDX 68 96 47 97 48 98 56 99 49 100 55 101 50 102 51 103 52 104
REMARK SMILES IDX 53 105 54 106
REMARK H PARENT 85 17 75 62 45 73
REMARK Flexibility Score: inf
ROOT
ATOM      1  C   UNL A   1      33.069  24.168  26.130  1.00  0.00     0.188 C 
ENDROOT
BRANCH   1   2
ATOM      2  O   UNL A   1      32.341  23.283  26.971  1.00  0.00    -0.376 OA
BRANCH   2   3
ATOM      3  C   UNL A   1      33.147  22.462  27.818  1.00  0.00     0.202 C 
BRANCH   3   4
ATOM      4  C   UNL A   1      34.447  21.930  27.210  1.00  0.00     0.261 C 
BRANCH   4   5
ATOM      5  O   UNL A   1      34.130  20.916  26.260  1.00  0.00    -0.460 OA
BRANCH   5   6
ATOM      6  C   UNL A   1      35.028  20.754  25.269  1.00  0.00     0.338 C 
ATOM      7  O   UNL A   1      35.903  19.920  25.170  1.00  0.00    -0.246 OA
BRANCH   6   8
ATOM      8  C   UNL A   1      34.520  21.559  24.146  1.00  0.00     0.060 A 
ATOM      9  C   UNL A   1      31.046  22.490  23.036  1.00  0.00     0.046 C 
ATOM     10  C   UNL A   1      32.549  22.433  23.003  1.00  0.00    -0.027 A 
ATOM     11  C   UNL A   1      33.146  21.536  23.909  1.00  0.00     0.021 A 
ATOM     12  C   UNL A   1      33.370  23.314  22.271  1.00  0.00     0.044 A 
ATOM     13  C   UNL A   1      34.707  23.410  22.655  1.00  0.00     0.027 A 
ATOM     14  C   UNL A   1      35.302  22.528  23.542  1.00  0.00     0.018 A 
BRANCH  12  15
ATOM     15  N   UNL A   1      32.851  23.990  21.139  1.00  0.00    -0.320 N 
ATOM     16  C   UNL A   1      32.606  25.336  20.902  1.00  0.00     0.276 C 
ATOM     17  H   UNL A   1      32.625  23.399  20.384  1.00  0.00     0.170 HD
ATOM     18  O   UNL A   1      32.331  25.747  19.778  1.00  0.00    -0.267 OA
BRANCH  16  19
ATOM     19  C   UNL A   1      32.535  26.306  22.062  1.00  0.00     0.149 A 
ATOM     20  C   UNL A   1      33.858  26.749  22.540  1.00  0.00     0.042 A 
ATOM     21  N   UNL A   1      31.390  26.752  22.494  1.00  0.00    -0.164 NA
ATOM     22  C   UNL A   1      33.880  27.925  23.165  1.00  0.00     0.076 A 
ATOM     23  N   UNL A   1      31.452  27.896  23.299  1.00  0.00    -0.226 N 
ATOM     24  C   UNL A   1      32.618  28.650  23.445  1.00  0.00     0.266 A 
ATOM     25  O   UNL A   1      32.672  29.800  23.869  1.00  0.00    -0.268 OA
BRANCH  23  26
ATOM     26  C   UNL A   1      30.188  28.434  23.810  1.00  0.00     0.190 C 
BRANCH  26  27
ATOM     27  C   UNL A   1      28.959  27.922  23.040  1.00  0.00     0.253 C 
BRANCH  27  28
ATOM     28  O   UNL A   1      27.783  28.736  23.247  1.00  0.00    -0.492 OA
BRANCH  28  29
ATOM     29  C   UNL A   1      27.928  29.982  22.703  1.00  0.00     0.119 A 
ATOM     30  C   UNL A   1      28.108  30.158  21.337  1.00  0.00     0.046 A 
ATOM     31  C   UNL A   1      27.975  31.084  23.546  1.00  0.00     0.046 A 
ATOM     32  C   UNL A   1      28.208  31.454  20.818  1.00  0.00     0.004 A 
ATOM     33  C   UNL A   1      27.990  32.377  23.034  1.00  0.00     0.004 A 
ATOM     34  C   UNL A   1      28.100  32.563  21.662  1.00  0.00     0.000 A 
ENDBRANCH  28  29
ENDBRANCH  27  28
ENDBRANCH  26  27
ENDBRANCH  23  26
ENDBRANCH  16  19
ENDBRANCH  12  15
ENDBRANCH   6   8
ENDBRANCH   5   6
ENDBRANCH   4   5
ENDBRANCH   3   4
ENDBRANCH   2   3
ENDBRANCH   1   2
BRANCH   1  35
ATOM     35  C   UNL A   1      32.577  25.613  25.990  1.00  0.00     0.188 C 
BRANCH  35  36
ATOM     36  O   UNL A   1      33.110  26.583  26.881  1.00  0.00    -0.377 OA
BRANCH  36  37
ATOM     37  C   UNL A   1      32.500  27.883  26.915  1.00  0.00     0.188 C 
BRANCH  37  38
ATOM     38  C   UNL A   1      33.418  29.099  27.025  1.00  0.00     0.188 C 
BRANCH  38  39
ATOM     39  O   UNL A   1      32.623  30.215  27.453  1.00  0.00    -0.376 OA
BRANCH  39  40
ATOM     40  C   UNL A   1      33.248  31.486  27.347  1.00  0.00     0.202 C 
BRANCH  40  41
ATOM     41  C   UNL A   1      34.378  31.723  28.354  1.00  0.00     0.261 C 
BRANCH  41  42
ATOM     42  O   UNL A   1      34.784  33.107  28.387  1.00  0.00    -0.460 OA
BRANCH  42  43
ATOM     43  C   UNL A   1      34.763  33.695  29.618  1.00  0.00     0.338 C 
ATOM     44  O   UNL A   1      33.753  34.131  30.140  1.00  0.00    -0.246 OA
BRANCH  43  45
ATOM     45  C   UNL A   1      36.079  33.567  30.293  1.00  0.00     0.060 A 
ATOM     46  C   UNL A   1      37.275  33.918  29.653  1.00  0.00     0.016 A 
ATOM     47  C   UNL A   1      36.122  33.010  31.563  1.00  0.00     0.016 A 
ATOM     48  C   UNL A   1      38.515  33.576  30.227  1.00  0.00     0.010 A 
ATOM     49  C   UNL A   1      37.338  32.628  32.091  1.00  0.00     0.010 A 
ATOM     50  C   UNL A   1      38.553  32.863  31.429  1.00  0.00    -0.014 A 
BRANCH  50  51
ATOM     51  C   UNL A   1      39.726  32.159  31.998  1.00  0.00     0.031 A 
ATOM     52  C   UNL A   1      40.228  30.877  31.387  1.00  0.00     0.074 A 
ATOM     53  C   UNL A   1      40.576  32.886  32.772  1.00  0.00     0.049 A 
ATOM     54  N   UNL A   1      41.296  30.252  31.762  1.00  0.00    -0.248 NA
ATOM     55  C   UNL A   1      39.568  30.177  30.279  1.00  0.00     0.031 C 
ATOM     56  C   UNL A   1      42.030  32.712  32.874  1.00  0.00     0.029 A 
ATOM     57  N   UNL A   1      40.345  33.969  33.614  1.00  0.00    -0.354 N 
ATOM     58  C   UNL A   1      41.659  29.369  30.764  1.00  0.00     0.074 A 
ATOM     59  C   UNL A   1      40.490  29.271  29.927  1.00  0.00     0.031 C 
ATOM     60  C   UNL A   1      42.535  33.550  33.789  1.00  0.00     0.029 A 
ATOM     61  C   UNL A   1      41.406  34.073  34.520  1.00  0.00     0.049 A 
ATOM     62  H   UNL A   1      39.563  34.566  33.578  1.00  0.00     0.167 HD
ATOM     63  C   UNL A   1      42.958  28.950  30.670  1.00  0.00     0.031 A 
ATOM     64  C   UNL A   1      41.267  33.918  35.869  1.00  0.00     0.031 A 
ATOM     65  C   UNL A   1      43.766  29.365  31.832  1.00  0.00     0.049 A 
ATOM     66  C   UNL A   1      41.998  32.672  36.334  1.00  0.00     0.074 A 
ATOM     67  C   UNL A   1      44.978  30.016  31.985  1.00  0.00     0.029 A 
ATOM     68  N   UNL A   1      43.240  29.240  33.121  1.00  0.00    -0.354 N 
ATOM     69  N   UNL A   1      42.276  31.680  35.522  1.00  0.00    -0.248 NA
ATOM     70  C   UNL A   1      42.567  32.459  37.662  1.00  0.00     0.031 C 
ATOM     71  C   UNL A   1      45.098  30.411  33.348  1.00  0.00     0.029 A 
ATOM     72  C   UNL A   1      44.009  29.911  34.046  1.00  0.00     0.049 A 
ATOM     73  H   UNL A   1      42.423  28.736  33.339  1.00  0.00     0.167 HD
ATOM     74  C   UNL A   1      43.125  30.805  36.127  1.00  0.00     0.074 A 
ATOM     75  C   UNL A   1      43.222  31.292  37.493  1.00  0.00     0.031 C 
ATOM     76  C   UNL A   1      43.739  29.776  35.472  1.00  0.00     0.031 A 
BRANCH  63  77
ATOM     77  C   UNL A   1      43.588  28.336  29.414  1.00  0.00    -0.014 A 
ATOM     78  C   UNL A   1      44.037  29.174  28.367  1.00  0.00     0.010 A 
ATOM     79  C   UNL A   1      43.673  26.950  29.152  1.00  0.00     0.010 A 
ATOM     80  C   UNL A   1      44.534  28.670  27.146  1.00  0.00     0.020 A 
ATOM     81  C   UNL A   1      44.206  26.430  27.954  1.00  0.00     0.020 A 
ATOM     82  C   UNL A   1      44.622  27.295  26.948  1.00  0.00     0.054 A 
BRANCH  82  83
ATOM     83  S   UNL A   1      45.297  26.652  25.388  1.00  0.00     0.124 S 
ATOM     84  O   UNL A   1      46.570  26.073  25.805  1.00  0.00    -0.237 OA
ATOM     85  O   UNL A   1      44.278  25.694  24.965  1.00  0.00    -0.237 OA
ATOM     86  O   UNL A   1      45.407  27.840  24.542  1.00  0.00    -0.744 OA
ENDBRANCH  82  83
ENDBRANCH  63  77
BRANCH  64  87
ATOM     87  C   UNL A   1      40.104  34.662  36.440  1.00  0.00    -0.014 A 
ATOM     88  C   UNL A   1      39.295  33.872  37.289  1.00  0.00     0.010 A 
ATOM     89  C   UNL A   1      40.218  36.040  36.717  1.00  0.00     0.010 A 
ATOM     90  C   UNL A   1      38.883  34.361  38.533  1.00  0.00     0.020 A 
ATOM     91  C   UNL A   1      39.803  36.533  37.969  1.00  0.00     0.020 A 
ATOM     92  C   UNL A   1      39.221  35.662  38.899  1.00  0.00     0.054 A 
BRANCH  92  93
ATOM     93  S   UNL A   1      39.194  36.079  40.677  1.00  0.00     0.124 S 
ATOM     94  O   UNL A   1      40.613  36.139  41.008  1.00  0.00    -0.237 OA
ATOM     95  O   UNL A   1      38.484  37.358  40.693  1.00  0.00    -0.237 OA
ATOM     96  O   UNL A   1      38.454  34.967  41.267  1.00  0.00    -0.744 OA
ENDBRANCH  92  93
ENDBRANCH  64  87
BRANCH  76  97
ATOM     97  C   UNL A   1      44.200  28.508  36.142  1.00  0.00    -0.014 A 
ATOM     98  C   UNL A   1      43.337  27.694  36.887  1.00  0.00     0.010 A 
ATOM     99  C   UNL A   1      45.473  27.977  35.813  1.00  0.00     0.010 A 
ATOM    100  C   UNL A   1      43.734  26.423  37.315  1.00  0.00     0.020 A 
ATOM    101  C   UNL A   1      45.863  26.696  36.199  1.00  0.00     0.020 A 
ATOM    102  C   UNL A   1      44.993  25.932  36.965  1.00  0.00     0.054 A 
BRANCH 102 103
ATOM    103  S   UNL A   1      45.445  24.251  37.450  1.00  0.00     0.124 S 
ATOM    104  O   UNL A   1      46.903  24.306  37.382  1.00  0.00    -0.237 OA
ATOM    105  O   UNL A   1      44.885  24.140  38.796  1.00  0.00    -0.237 OA
ATOM    106  O   UNL A   1      44.800  23.413  36.444  1.00  0.00    -0.744 OA
ENDBRANCH 102 103
ENDBRANCH  76  97
ENDBRANCH  50  51
ENDBRANCH  43  45
ENDBRANCH  42  43
ENDBRANCH  41  42
ENDBRANCH  40  41
ENDBRANCH  39  40
ENDBRANCH  38  39
ENDBRANCH  37  38
ENDBRANCH  36  37
ENDBRANCH  35  36
ENDBRANCH   1  35
TORSDOF 29
ENDMDL
MODEL 2
REMARK VINA RESULT:      -9.3      5.030      8.650
REMARK SMILES Cc1cc(C(=O)OCCOCCOCCOCCOC(=O)c2ccc(-c3c4nc(c(-c5ccc(S(=O)(=O)[O-])cc5)c5ccc([nH]5)c(-c5ccc(S(=O)(=O)[O-])cc5)c5nc(c(-c6ccc(S(=O)(=O)[O-])cc6)c6ccc3[nH]6)C=C5)C=C4)cc2)ccc1NC(=O)c1ccc(=O)n(CCOc2ccccc2)n1
REMARK SMILES IDX 11 1 10 2 9 3 8 4 7 5 5 6 6 7 4 8 1 9 2 10 3 11 84 12 83 13
REMARK SMILES IDX 82 14 85 15 86 16 87 18 88 19 89 20 103 21 90 22 93 23 91 24
REMARK SMILES IDX 92 25 94 26 95 27 96 28 97 29 98 30 102 31 99 32 101 33
REMARK SMILES IDX 100 34 12 35 13 36 14 37 15 38 16 39 17 40 18 41 19 42 20 43
REMARK SMILES IDX 21 44 22 45 23 46 81 47 24 48 80 49 25 50 26 51 27 52 74 53
REMARK SMILES IDX 28 54 79 55 73 56 75 57 29 58 78 59 72 60 71 61 30 63 60 64
REMARK SMILES IDX 41 65 59 66 42 67 45 68 58 69 76 70 43 71 44 72 57 74 77 75
REMARK SMILES IDX 46 76 31 77 32 78 40 79 33 80 39 81 34 82 35 83 36 84 37 85
REMARK SMILES IDX 38 86 61 87 62 88 70 89 63 90 69 91 64 92 65 93 66 94 67 95
REMARK SMILES IDX 68 96 47 97 48 98 56 99 49 100 55 101 50 102 51 103 52 104
REMARK SMILES IDX 53 105 54 106
REMARK H PARENT 85 17 75 62 45 73
REMARK Flexibility Score: inf
ROOT
ATOM      1  C   UNL A   1      33.096  36.712  30.443  1.00  0.00     0.188 C 
ENDROOT
BRANCH   1   2
ATOM      2  O   UNL A   1      32.565  36.249  29.207  1.00  0.00    -0.376 OA
BRANCH   2   3
ATOM      3  C   UNL A   1      33.034  34.962  28.799  1.00  0.00     0.202 C 
BRANCH   3   4
ATOM      4  C   UNL A   1      34.531  34.848  28.500  1.00  0.00     0.261 C 
BRANCH   4   5
ATOM      5  O   UNL A   1      34.727  33.853  27.499  1.00  0.00    -0.460 OA
BRANCH   5   6
ATOM      6  C   UNL A   1      35.574  32.860  27.832  1.00  0.00     0.338 C 
ATOM      7  O   UNL A   1      36.691  32.943  28.296  1.00  0.00    -0.246 OA
BRANCH   6   8
ATOM      8  C   UNL A   1      34.751  31.640  27.865  1.00  0.00     0.060 A 
ATOM      9  C   UNL A   1      31.452  30.740  26.293  1.00  0.00     0.046 C 
ATOM     10  C   UNL A   1      32.695  30.557  27.120  1.00  0.00    -0.027 A 
ATOM     11  C   UNL A   1      33.468  31.716  27.326  1.00  0.00     0.021 A 
ATOM     12  C   UNL A   1      33.204  29.312  27.540  1.00  0.00     0.044 A 
ATOM     13  C   UNL A   1      34.544  29.266  27.923  1.00  0.00     0.027 A 
ATOM     14  C   UNL A   1      35.309  30.402  28.133  1.00  0.00     0.018 A 
BRANCH  12  15
ATOM     15  N   UNL A   1      32.342  28.193  27.645  1.00  0.00    -0.320 N 
ATOM     16  C   UNL A   1      32.246  27.029  26.894  1.00  0.00     0.276 C 
ATOM     17  H   UNL A   1      31.695  28.250  28.385  1.00  0.00     0.170 HD
ATOM     18  O   UNL A   1      31.554  26.085  27.263  1.00  0.00    -0.267 OA
BRANCH  16  19
ATOM     19  C   UNL A   1      32.888  26.961  25.523  1.00  0.00     0.149 A 
ATOM     20  C   UNL A   1      33.965  25.959  25.428  1.00  0.00     0.042 A 
ATOM     21  N   UNL A   1      32.429  27.670  24.532  1.00  0.00    -0.164 NA
ATOM     22  C   UNL A   1      34.211  25.491  24.205  1.00  0.00     0.076 A 
ATOM     23  N   UNL A   1      32.843  27.265  23.257  1.00  0.00    -0.226 N 
ATOM     24  C   UNL A   1      33.505  26.057  23.030  1.00  0.00     0.266 A 
ATOM     25  O   UNL A   1      33.622  25.503  21.942  1.00  0.00    -0.268 OA
BRANCH  23  26
ATOM     26  C   UNL A   1      32.352  28.034  22.110  1.00  0.00     0.190 C 
BRANCH  26  27
ATOM     27  C   UNL A   1      30.821  28.183  22.093  1.00  0.00     0.253 C 
BRANCH  27  28
ATOM     28  O   UNL A   1      30.380  29.409  21.468  1.00  0.00    -0.492 OA
BRANCH  28  29
ATOM     29  C   UNL A   1      29.361  29.994  22.166  1.00  0.00     0.119 A 
ATOM     30  C   UNL A   1      28.323  29.240  22.699  1.00  0.00     0.046 A 
ATOM     31  C   UNL A   1      29.324  31.378  22.274  1.00  0.00     0.046 A 
ATOM     32  C   UNL A   1      27.322  29.876  23.444  1.00  0.00     0.004 A 
ATOM     33  C   UNL A   1      28.384  32.009  23.081  1.00  0.00     0.004 A 
ATOM     34  C   UNL A   1      27.381  31.253  23.675  1.00  0.00     0.000 A 
ENDBRANCH  28  29
ENDBRANCH  27  28
ENDBRANCH  26  27
ENDBRANCH  23  26
ENDBRANCH  16  19
ENDBRANCH  12  15
ENDBRANCH   6   8
ENDBRANCH   5   6
ENDBRANCH   4   5
ENDBRANCH   3   4
ENDBRANCH   2   3
ENDBRANCH   1   2
BRANCH   1  35
ATOM     35  C   UNL A   1      32.805  35.900  31.711  1.00  0.00     0.188 C 
BRANCH  35  36
ATOM     36  O   UNL A   1      33.691  36.049  32.811  1.00  0.00    -0.377 OA
BRANCH  36  37
ATOM     37  C   UNL A   1      34.695  35.044  33.017  1.00  0.00     0.188 C 
BRANCH  37  38
ATOM     38  C   UNL A   1      34.417  33.639  32.486  1.00  0.00     0.188 C 
BRANCH  38  39
ATOM     39  O   UNL A   1      35.437  33.319  31.528  1.00  0.00    -0.376 OA
BRANCH  39  40
ATOM     40  C   UNL A   1      35.822  31.952  31.479  1.00  0.00     0.202 C 
BRANCH  40  41
ATOM     41  C   UNL A   1      36.500  31.438  32.753  1.00  0.00     0.261 C 
BRANCH  41  42
ATOM     42  O   UNL A   1      37.812  30.902  32.482  1.00  0.00    -0.460 OA
BRANCH  42  43
ATOM     43  C   UNL A   1      38.480  31.482  31.445  1.00  0.00     0.338 C 
ATOM     44  O   UNL A   1      38.278  32.622  31.064  1.00  0.00    -0.246 OA
BRANCH  43  45
ATOM     45  C   UNL A   1      39.589  30.616  30.972  1.00  0.00     0.060 A 
ATOM     46  C   UNL A   1      40.620  30.204  31.827  1.00  0.00     0.016 A 
ATOM     47  C   UNL A   1      39.640  30.277  29.628  1.00  0.00     0.016 A 
ATOM     48  C   UNL A   1      41.769  29.578  31.304  1.00  0.00     0.010 A 
ATOM     49  C   UNL A   1      40.791  29.715  29.116  1.00  0.00     0.010 A 
ATOM     50  C   UNL A   1      41.892  29.387  29.925  1.00  0.00    -0.014 A 
BRANCH  50  51
ATOM     51  C   UNL A   1      43.133  29.048  29.190  1.00  0.00     0.031 A 
ATOM     52  C   UNL A   1      43.616  27.623  29.109  1.00  0.00     0.074 A 
ATOM     53  C   UNL A   1      43.569  29.936  28.257  1.00  0.00     0.049 A 
ATOM     54  N   UNL A   1      44.631  27.230  28.412  1.00  0.00    -0.248 NA
ATOM     55  C   UNL A   1      42.987  26.497  29.807  1.00  0.00     0.031 C 
ATOM     56  C   UNL A   1      44.257  29.617  27.000  1.00  0.00     0.029 A 
ATOM     57  N   UNL A   1      43.466  31.323  28.197  1.00  0.00    -0.354 N 
ATOM     58  C   UNL A   1      44.549  25.861  28.254  1.00  0.00     0.074 A 
ATOM     59  C   UNL A   1      43.585  25.442  29.240  1.00  0.00     0.031 C 
ATOM     60  C   UNL A   1      44.609  30.741  26.365  1.00  0.00     0.029 A 
ATOM     61  C   UNL A   1      44.439  31.812  27.318  1.00  0.00     0.049 A 
ATOM     62  H   UNL A   1      42.815  31.871  28.691  1.00  0.00     0.167 HD
ATOM     63  C   UNL A   1      45.183  25.261  27.201  1.00  0.00     0.031 A 
ATOM     64  C   UNL A   1      45.465  32.626  27.702  1.00  0.00     0.031 A 
ATOM     65  C   UNL A   1      46.071  26.191  26.478  1.00  0.00     0.049 A 
ATOM     66  C   UNL A   1      46.792  31.905  27.556  1.00  0.00     0.074 A 
ATOM     67  C   UNL A   1      46.227  26.544  25.149  1.00  0.00     0.029 A 
ATOM     68  N   UNL A   1      46.900  27.057  27.197  1.00  0.00    -0.354 N 
ATOM     69  N   UNL A   1      46.880  30.596  27.544  1.00  0.00    -0.248 NA
ATOM     70  C   UNL A   1      48.086  32.536  27.308  1.00  0.00     0.031 C 
ATOM     71  C   UNL A   1      47.032  27.718  25.095  1.00  0.00     0.029 A 
ATOM     72  C   UNL A   1      47.451  28.020  26.382  1.00  0.00     0.049 A 
ATOM     73  H   UNL A   1      47.068  26.986  28.165  1.00  0.00     0.167 HD
ATOM     74  C   UNL A   1      48.134  30.215  27.174  1.00  0.00     0.074 A 
ATOM     75  C   UNL A   1      48.878  31.461  27.109  1.00  0.00     0.031 C 
ATOM     76  C   UNL A   1      48.475  28.925  26.890  1.00  0.00     0.031 A 
BRANCH  63  77
ATOM     77  C   UNL A   1      44.850  23.864  26.661  1.00  0.00    -0.014 A 
ATOM     78  C   UNL A   1      45.892  22.956  26.360  1.00  0.00     0.010 A 
ATOM     79  C   UNL A   1      43.551  23.420  26.327  1.00  0.00     0.010 A 
ATOM     80  C   UNL A   1      45.659  21.697  25.768  1.00  0.00     0.020 A 
ATOM     81  C   UNL A   1      43.298  22.148  25.773  1.00  0.00     0.020 A 
ATOM     82  C   UNL A   1      44.357  21.296  25.483  1.00  0.00     0.054 A 
BRANCH  82  83
ATOM     83  S   UNL A   1      44.061  19.657  24.754  1.00  0.00     0.124 S 
ATOM     84  O   UNL A   1      42.636  19.451  25.000  1.00  0.00    -0.237 OA
ATOM     85  O   UNL A   1      44.436  19.852  23.356  1.00  0.00    -0.237 OA
ATOM     86  O   UNL A   1      44.951  18.775  25.509  1.00  0.00    -0.744 OA
ENDBRANCH  82  83
ENDBRANCH  63  77
BRANCH  64  87
ATOM     87  C   UNL A   1      45.035  33.754  28.582  1.00  0.00    -0.014 A 
ATOM     88  C   UNL A   1      45.236  33.498  29.959  1.00  0.00     0.010 A 
ATOM     89  C   UNL A   1      45.146  35.083  28.125  1.00  0.00     0.010 A 
ATOM     90  C   UNL A   1      45.832  34.461  30.779  1.00  0.00     0.020 A 
ATOM     91  C   UNL A   1      45.746  36.054  28.952  1.00  0.00     0.020 A 
ATOM     92  C   UNL A   1      46.164  35.703  30.242  1.00  0.00     0.054 A 
BRANCH  92  93
ATOM     93  S   UNL A   1      47.420  36.700  31.117  1.00  0.00     0.124 S 
ATOM     94  O   UNL A   1      48.109  35.700  31.924  1.00  0.00    -0.237 OA
ATOM     95  O   UNL A   1      48.195  37.272  30.017  1.00  0.00    -0.237 OA
ATOM     96  O   UNL A   1      46.616  37.666  31.860  1.00  0.00    -0.744 OA
ENDBRANCH  92  93
ENDBRANCH  64  87
BRANCH  76  97
ATOM     97  C   UNL A   1      49.870  28.373  27.030  1.00  0.00    -0.014 A 
ATOM     98  C   UNL A   1      50.141  26.998  27.003  1.00  0.00     0.010 A 
ATOM     99  C   UNL A   1      50.975  29.255  26.935  1.00  0.00     0.010 A 
ATOM    100  C   UNL A   1      51.454  26.523  26.920  1.00  0.00     0.020 A 
ATOM    101  C   UNL A   1      52.284  28.792  26.809  1.00  0.00     0.020 A 
ATOM    102  C   UNL A   1      52.516  27.423  26.820  1.00  0.00     0.054 A 
BRANCH 102 103
ATOM    103  S   UNL A   1      54.193  26.784  26.619  1.00  0.00     0.124 S 
ATOM    104  O   UNL A   1      54.100  26.107  25.328  1.00  0.00    -0.237 OA
ATOM    105  O   UNL A   1      55.007  27.998  26.632  1.00  0.00    -0.237 OA
ATOM    106  O   UNL A   1      54.373  25.910  27.774  1.00  0.00    -0.744 OA
ENDBRANCH 102 103
ENDBRANCH  76  97
ENDBRANCH  50  51
ENDBRANCH  43  45
ENDBRANCH  42  43
ENDBRANCH  41  42
ENDBRANCH  40  41
ENDBRANCH  39  40
ENDBRANCH  38  39
ENDBRANCH  37  38
ENDBRANCH  36  37
ENDBRANCH  35  36
ENDBRANCH   1  35
TORSDOF 29
ENDMDL
MODEL 3
REMARK VINA RESULT:      -9.1      4.841     10.027
REMARK SMILES Cc1cc(C(=O)OCCOCCOCCOCCOC(=O)c2ccc(-c3c4nc(c(-c5ccc(S(=O)(=O)[O-])cc5)c5ccc([nH]5)c(-c5ccc(S(=O)(=O)[O-])cc5)c5nc(c(-c6ccc(S(=O)(=O)[O-])cc6)c6ccc3[nH]6)C=C5)C=C4)cc2)ccc1NC(=O)c1ccc(=O)n(CCOc2ccccc2)n1
REMARK SMILES IDX 11 1 10 2 9 3 8 4 7 5 5 6 6 7 4 8 1 9 2 10 3 11 84 12 83 13
REMARK SMILES IDX 82 14 85 15 86 16 87 18 88 19 89 20 103 21 90 22 93 23 91 24
REMARK SMILES IDX 92 25 94 26 95 27 96 28 97 29 98 30 102 31 99 32 101 33
REMARK SMILES IDX 100 34 12 35 13 36 14 37 15 38 16 39 17 40 18 41 19 42 20 43
REMARK SMILES IDX 21 44 22 45 23 46 81 47 24 48 80 49 25 50 26 51 27 52 74 53
REMARK SMILES IDX 28 54 79 55 73 56 75 57 29 58 78 59 72 60 71 61 30 63 60 64
REMARK SMILES IDX 41 65 59 66 42 67 45 68 58 69 76 70 43 71 44 72 57 74 77 75
REMARK SMILES IDX 46 76 31 77 32 78 40 79 33 80 39 81 34 82 35 83 36 84 37 85
REMARK SMILES IDX 38 86 61 87 62 88 70 89 63 90 69 91 64 92 65 93 66 94 67 95
REMARK SMILES IDX 68 96 47 97 48 98 56 99 49 100 55 101 50 102 51 103 52 104
REMARK SMILES IDX 53 105 54 106
REMARK H PARENT 85 17 75 62 45 73
REMARK Flexibility Score: inf
ROOT
ATOM      1  C   UNL A   1      33.753  34.931  28.877  1.00  0.00     0.188 C 
ENDROOT
BRANCH   1   2
ATOM      2  O   UNL A   1      34.729  34.207  29.615  1.00  0.00    -0.376 OA
BRANCH   2   3
ATOM      3  C   UNL A   1      35.722  33.559  28.818  1.00  0.00     0.202 C 
BRANCH   3   4
ATOM      4  C   UNL A   1      35.957  32.072  29.101  1.00  0.00     0.261 C 
BRANCH   4   5
ATOM      5  O   UNL A   1      36.525  31.467  27.943  1.00  0.00    -0.460 OA
BRANCH   5   6
ATOM      6  C   UNL A   1      36.407  30.127  27.877  1.00  0.00     0.338 C 
ATOM      7  O   UNL A   1      35.558  29.469  27.314  1.00  0.00    -0.246 OA
BRANCH   6   8
ATOM      8  C   UNL A   1      37.710  29.599  28.313  1.00  0.00     0.060 A 
ATOM      9  C   UNL A   1      38.736  27.364  31.163  1.00  0.00     0.046 C 
ATOM     10  C   UNL A   1      38.903  28.232  29.946  1.00  0.00    -0.027 A 
ATOM     11  C   UNL A   1      37.760  28.951  29.547  1.00  0.00     0.021 A 
ATOM     12  C   UNL A   1      40.039  28.236  29.113  1.00  0.00     0.044 A 
ATOM     13  C   UNL A   1      39.888  28.759  27.829  1.00  0.00     0.027 A 
ATOM     14  C   UNL A   1      38.768  29.472  27.431  1.00  0.00     0.018 A 
BRANCH  12  15
ATOM     15  N   UNL A   1      41.291  27.806  29.618  1.00  0.00    -0.320 N 
ATOM     16  C   UNL A   1      42.233  26.920  29.114  1.00  0.00     0.276 C 
ATOM     17  H   UNL A   1      41.537  28.209  30.482  1.00  0.00     0.170 HD
ATOM     18  O   UNL A   1      43.351  26.823  29.612  1.00  0.00    -0.267 OA
BRANCH  16  19
ATOM     19  C   UNL A   1      41.845  25.948  28.019  1.00  0.00     0.149 A 
ATOM     20  C   UNL A   1      42.272  26.376  26.674  1.00  0.00     0.042 A 
ATOM     21  N   UNL A   1      41.277  24.810  28.302  1.00  0.00    -0.164 NA
ATOM     22  C   UNL A   1      42.429  25.400  25.781  1.00  0.00     0.076 A 
ATOM     23  N   UNL A   1      41.299  23.853  27.281  1.00  0.00    -0.226 N 
ATOM     24  C   UNL A   1      42.071  24.003  26.127  1.00  0.00     0.266 A 
ATOM     25  O   UNL A   1      42.377  23.101  25.354  1.00  0.00    -0.268 OA
BRANCH  23  26
ATOM     26  C   UNL A   1      40.672  22.557  27.554  1.00  0.00     0.190 C 
BRANCH  26  27
ATOM     27  C   UNL A   1      39.504  22.240  26.604  1.00  0.00     0.253 C 
BRANCH  27  28
ATOM     28  O   UNL A   1      38.651  23.381  26.356  1.00  0.00    -0.492 OA
BRANCH  28  29
ATOM     29  C   UNL A   1      37.506  23.024  25.701  1.00  0.00     0.119 A 
ATOM     30  C   UNL A   1      36.619  23.981  25.223  1.00  0.00     0.046 A 
ATOM     31  C   UNL A   1      37.188  21.678  25.583  1.00  0.00     0.046 A 
ATOM     32  C   UNL A   1      35.480  23.571  24.520  1.00  0.00     0.004 A 
ATOM     33  C   UNL A   1      36.106  21.262  24.815  1.00  0.00     0.004 A 
ATOM     34  C   UNL A   1      35.251  22.215  24.274  1.00  0.00     0.000 A 
ENDBRANCH  28  29
ENDBRANCH  27  28
ENDBRANCH  26  27
ENDBRANCH  23  26
ENDBRANCH  16  19
ENDBRANCH  12  15
ENDBRANCH   6   8
ENDBRANCH   5   6
ENDBRANCH   4   5
ENDBRANCH   3   4
ENDBRANCH   2   3
ENDBRANCH   1   2
BRANCH   1  35
ATOM     35  C   UNL A   1      33.310  36.302  29.402  1.00  0.00     0.188 C 
BRANCH  35  36
ATOM     36  O   UNL A   1      32.629  36.346  30.648  1.00  0.00    -0.377 OA
BRANCH  36  37
ATOM     37  C   UNL A   1      33.355  36.788  31.805  1.00  0.00     0.188 C 
BRANCH  37  38
ATOM     38  C   UNL A   1      33.920  35.724  32.743  1.00  0.00     0.188 C 
BRANCH  38  39
ATOM     39  O   UNL A   1      35.327  35.611  32.486  1.00  0.00    -0.376 OA
BRANCH  39  40
ATOM     40  C   UNL A   1      35.938  34.411  32.941  1.00  0.00     0.202 C 
BRANCH  40  41
ATOM     41  C   UNL A   1      37.444  34.326  32.673  1.00  0.00     0.261 C 
BRANCH  41  42
ATOM     42  O   UNL A   1      37.911  32.961  32.677  1.00  0.00    -0.460 OA
BRANCH  42  43
ATOM     43  C   UNL A   1      38.640  32.593  33.770  1.00  0.00     0.338 C 
ATOM     44  O   UNL A   1      38.196  32.586  34.905  1.00  0.00    -0.246 OA
BRANCH  43  45
ATOM     45  C   UNL A   1      39.960  32.043  33.372  1.00  0.00     0.060 A 
ATOM     46  C   UNL A   1      41.161  32.635  33.782  1.00  0.00     0.016 A 
ATOM     47  C   UNL A   1      39.993  30.960  32.505  1.00  0.00     0.016 A 
ATOM     48  C   UNL A   1      42.383  32.233  33.209  1.00  0.00     0.010 A 
ATOM     49  C   UNL A   1      41.186  30.611  31.907  1.00  0.00     0.010 A 
ATOM     50  C   UNL A   1      42.396  31.255  32.210  1.00  0.00    -0.014 A 
BRANCH  50  51
ATOM     51  C   UNL A   1      43.520  30.946  31.295  1.00  0.00     0.031 A 
ATOM     52  C   UNL A   1      43.732  31.746  30.037  1.00  0.00     0.074 A 
ATOM     53  C   UNL A   1      44.570  30.250  31.807  1.00  0.00     0.049 A 
ATOM     54  N   UNL A   1      44.737  31.604  29.236  1.00  0.00    -0.248 NA
ATOM     55  C   UNL A   1      42.825  32.797  29.564  1.00  0.00     0.031 C 
ATOM     56  C   UNL A   1      45.981  30.394  31.431  1.00  0.00     0.029 A 
ATOM     57  N   UNL A   1      44.625  29.284  32.808  1.00  0.00    -0.354 N 
ATOM     58  C   UNL A   1      44.819  32.725  28.434  1.00  0.00     0.074 A 
ATOM     59  C   UNL A   1      43.542  33.374  28.590  1.00  0.00     0.031 C 
ATOM     60  C   UNL A   1      46.730  29.496  32.082  1.00  0.00     0.029 A 
ATOM     61  C   UNL A   1      45.807  28.550  32.664  1.00  0.00     0.049 A 
ATOM     62  H   UNL A   1      43.944  29.140  33.504  1.00  0.00     0.167 HD
ATOM     63  C   UNL A   1      46.014  33.061  27.858  1.00  0.00     0.031 A 
ATOM     64  C   UNL A   1      45.839  27.216  32.373  1.00  0.00     0.031 A 
ATOM     65  C   UNL A   1      47.032  32.006  28.025  1.00  0.00     0.049 A 
ATOM     66  C   UNL A   1      46.434  26.991  30.996  1.00  0.00     0.074 A 
ATOM     67  C   UNL A   1      48.337  31.984  28.486  1.00  0.00     0.029 A 
ATOM     68  N   UNL A   1      46.682  30.668  27.823  1.00  0.00    -0.354 N 
ATOM     69  N   UNL A   1      46.444  27.927  30.076  1.00  0.00    -0.248 NA
ATOM     70  C   UNL A   1      47.148  25.795  30.557  1.00  0.00     0.031 C 
ATOM     71  C   UNL A   1      48.707  30.626  28.701  1.00  0.00     0.029 A 
ATOM     72  C   UNL A   1      47.666  29.816  28.274  1.00  0.00     0.049 A 
ATOM     73  H   UNL A   1      45.838  30.372  27.411  1.00  0.00     0.167 HD
ATOM     74  C   UNL A   1      47.230  27.548  29.031  1.00  0.00     0.074 A 
ATOM     75  C   UNL A   1      47.591  26.174  29.340  1.00  0.00     0.031 C 
ATOM     76  C   UNL A   1      47.583  28.384  28.013  1.00  0.00     0.031 A 
BRANCH  63  77
ATOM     77  C   UNL A   1      46.361  34.452  27.315  1.00  0.00    -0.014 A 
ATOM     78  C   UNL A   1      46.922  35.426  28.173  1.00  0.00     0.010 A 
ATOM     79  C   UNL A   1      46.067  34.902  26.008  1.00  0.00     0.010 A 
ATOM     80  C   UNL A   1      47.171  36.753  27.762  1.00  0.00     0.020 A 
ATOM     81  C   UNL A   1      46.348  36.212  25.570  1.00  0.00     0.020 A 
ATOM     82  C   UNL A   1      46.888  37.138  26.455  1.00  0.00     0.054 A 
BRANCH  82  83
ATOM     83  S   UNL A   1      47.245  38.838  25.921  1.00  0.00     0.124 S 
ATOM     84  O   UNL A   1      48.026  39.366  27.036  1.00  0.00    -0.237 OA
ATOM     85  O   UNL A   1      47.982  38.638  24.676  1.00  0.00    -0.237 OA
ATOM     86  O   UNL A   1      45.921  39.436  25.757  1.00  0.00    -0.744 OA
ENDBRANCH  82  83
ENDBRANCH  63  77
BRANCH  64  87
ATOM     87  C   UNL A   1      44.893  26.403  33.196  1.00  0.00    -0.014 A 
ATOM     88  C   UNL A   1      45.352  26.174  34.514  1.00  0.00     0.010 A 
ATOM     89  C   UNL A   1      43.504  26.507  32.978  1.00  0.00     0.010 A 
ATOM     90  C   UNL A   1      44.496  26.362  35.604  1.00  0.00     0.020 A 
ATOM     91  C   UNL A   1      42.642  26.696  34.077  1.00  0.00     0.020 A 
ATOM     92  C   UNL A   1      43.167  26.711  35.375  1.00  0.00     0.054 A 
BRANCH  92  93
ATOM     93  S   UNL A   1      42.247  27.497  36.744  1.00  0.00     0.124 S 
ATOM     94  O   UNL A   1      42.068  26.392  37.678  1.00  0.00    -0.237 OA
ATOM     95  O   UNL A   1      43.163  28.553  37.177  1.00  0.00    -0.237 OA
ATOM     96  O   UNL A   1      41.032  27.977  36.093  1.00  0.00    -0.744 OA
ENDBRANCH  92  93
ENDBRANCH  64  87
BRANCH  76  97
ATOM     97  C   UNL A   1      47.941  27.918  26.626  1.00  0.00    -0.014 A 
ATOM     98  C   UNL A   1      47.001  27.858  25.587  1.00  0.00     0.010 A 
ATOM     99  C   UNL A   1      49.307  27.771  26.276  1.00  0.00     0.010 A 
ATOM    100  C   UNL A   1      47.400  27.629  24.267  1.00  0.00     0.020 A 
ATOM    101  C   UNL A   1      49.718  27.584  24.958  1.00  0.00     0.020 A 
ATOM    102  C   UNL A   1      48.755  27.497  23.961  1.00  0.00     0.054 A 
BRANCH 102 103
ATOM    103  S   UNL A   1      49.251  27.296  22.235  1.00  0.00     0.124 S 
ATOM    104  O   UNL A   1      48.572  26.054  21.875  1.00  0.00    -0.237 OA
ATOM    105  O   UNL A   1      48.724  28.504  21.603  1.00  0.00    -0.237 OA
ATOM    106  O   UNL A   1      50.708  27.220  22.298  1.00  0.00    -0.744 OA
ENDBRANCH 102 103
ENDBRANCH  76  97
ENDBRANCH  50  51
ENDBRANCH  43  45
ENDBRANCH  42  43
ENDBRANCH  41  42
ENDBRANCH  40  41
ENDBRANCH  39  40
ENDBRANCH  38  39
ENDBRANCH  37  38
ENDBRANCH  36  37
ENDBRANCH  35  36
ENDBRANCH   1  35
TORSDOF 29
ENDMDL
