MODEL 1
REMARK VINA RESULT:      -8.1      0.000      0.000
REMARK SMILES O=C(OCCOCCOCCOCCOC(=O)[C@H]1CC2(CC[NH+](S(=O)(=O)N3CCOCC3)CC2)C[NH2+]1)c1ccc(-c2c3nc(c(-c4ccc(S(=O)(=O)[O-])cc4)c4ccc([nH]4)c(-c4ccc(S(=O)(=O)[O-])cc4)c4nc(c(-c5ccc(S(=O)(=O)[O-])cc5)c5ccc2[nH]5)C=C4)C=C3)cc1
REMARK SMILES IDX 8 1 7 2 6 3 5 4 4 5 3 6 2 7 1 8 37 9 38 10 96 11 39 12 95 13
REMARK SMILES IDX 40 14 41 15 42 16 89 17 43 18 94 19 88 20 90 21 44 22 93 23
REMARK SMILES IDX 87 24 86 25 45 27 75 28 56 29 74 30 57 31 60 32 73 33 91 34
REMARK SMILES IDX 58 35 59 36 72 38 92 39 61 40 46 41 47 42 55 43 48 44 54 45
REMARK SMILES IDX 49 46 50 47 51 48 52 49 53 50 76 51 77 52 85 53 78 54 84 55
REMARK SMILES IDX 79 56 80 57 81 58 82 59 83 60 62 61 63 62 71 63 64 64 70 65
REMARK SMILES IDX 65 66 66 67 67 68 68 69 69 70 9 71 10 72 11 73 12 74 13 75
REMARK SMILES IDX 14 76 15 77 16 78 17 79 18 80 19 81 36 82 20 83 35 84 21 87
REMARK SMILES IDX 34 88 22 89 33 90 23 91 24 93 25 94 26 95 27 96 28 97 32 98
REMARK SMILES IDX 29 99 31 100 30 101
REMARK H PARENT 90 26 60 37 36 85 36 86 23 92
REMARK Flexibility Score: inf
ROOT
ATOM      1  C   UNL A   1      35.466  29.365  27.267  1.00  0.00     0.188 C 
ENDROOT
BRANCH   1   2
ATOM      2  C   UNL A   1      36.605  29.716  28.226  1.00  0.00     0.188 C 
BRANCH   2   3
ATOM      3  O   UNL A   1      37.717  28.839  28.046  1.00  0.00    -0.376 OA
BRANCH   3   4
ATOM      4  C   UNL A   1      39.024  29.408  27.983  1.00  0.00     0.202 C 
BRANCH   4   5
ATOM      5  C   UNL A   1      39.812  29.111  26.711  1.00  0.00     0.261 C 
BRANCH   5   6
ATOM      6  O   UNL A   1      40.789  28.076  26.866  1.00  0.00    -0.460 OA
BRANCH   6   7
ATOM      7  C   UNL A   1      41.914  28.077  27.623  1.00  0.00     0.338 C 
ATOM      8  O   UNL A   1      42.948  27.648  27.113  1.00  0.00    -0.246 OA
BRANCH   7   9
ATOM      9  C   UNL A   1      41.983  28.539  29.045  1.00  0.00     0.060 A 
ATOM     10  C   UNL A   1      41.575  27.808  30.160  1.00  0.00     0.016 A 
ATOM     11  C   UNL A   1      42.582  29.786  29.275  1.00  0.00     0.016 A 
ATOM     12  C   UNL A   1      41.699  28.285  31.446  1.00  0.00     0.010 A 
ATOM     13  C   UNL A   1      42.718  30.288  30.572  1.00  0.00     0.010 A 
ATOM     14  C   UNL A   1      42.243  29.538  31.652  1.00  0.00    -0.014 A 
BRANCH  14  15
ATOM     15  C   UNL A   1      42.041  30.105  32.986  1.00  0.00     0.031 A 
ATOM     16  C   UNL A   1      40.756  30.836  33.214  1.00  0.00     0.074 A 
ATOM     17  C   UNL A   1      42.879  29.779  33.984  1.00  0.00     0.049 A 
ATOM     18  N   UNL A   1      40.362  31.504  34.258  1.00  0.00    -0.248 NA
ATOM     19  C   UNL A   1      39.770  30.795  32.115  1.00  0.00     0.031 C 
ATOM     20  C   UNL A   1      44.030  28.876  33.863  1.00  0.00     0.029 A 
ATOM     21  N   UNL A   1      42.873  30.136  35.301  1.00  0.00    -0.354 N 
ATOM     22  C   UNL A   1      39.117  32.016  33.917  1.00  0.00     0.074 A 
ATOM     23  C   UNL A   1      38.809  31.573  32.580  1.00  0.00     0.031 C 
ATOM     24  C   UNL A   1      44.619  28.754  35.063  1.00  0.00     0.029 A 
ATOM     25  C   UNL A   1      43.944  29.638  36.003  1.00  0.00     0.049 A 
ATOM     26  H   UNL A   1      42.172  30.695  35.707  1.00  0.00     0.167 HD
ATOM     27  C   UNL A   1      38.324  32.811  34.666  1.00  0.00     0.031 A 
ATOM     28  C   UNL A   1      44.355  29.932  37.249  1.00  0.00     0.031 A 
ATOM     29  C   UNL A   1      38.694  33.225  35.989  1.00  0.00     0.049 A 
ATOM     30  C   UNL A   1      43.528  30.928  38.017  1.00  0.00     0.074 A 
ATOM     31  C   UNL A   1      38.043  34.090  36.842  1.00  0.00     0.029 A 
ATOM     32  N   UNL A   1      39.839  32.786  36.647  1.00  0.00    -0.354 N 
ATOM     33  N   UNL A   1      42.403  31.510  37.661  1.00  0.00    -0.248 NA
ATOM     34  C   UNL A   1      44.023  31.323  39.338  1.00  0.00     0.031 C 
ATOM     35  C   UNL A   1      38.830  34.224  37.991  1.00  0.00     0.029 A 
ATOM     36  C   UNL A   1      39.930  33.382  37.886  1.00  0.00     0.049 A 
ATOM     37  H   UNL A   1      40.489  32.143  36.280  1.00  0.00     0.167 HD
ATOM     38  C   UNL A   1      42.042  32.324  38.724  1.00  0.00     0.074 A 
ATOM     39  C   UNL A   1      43.062  32.142  39.742  1.00  0.00     0.031 C 
ATOM     40  C   UNL A   1      40.974  33.151  38.856  1.00  0.00     0.031 A 
BRANCH  27  41
ATOM     41  C   UNL A   1      37.084  33.354  34.012  1.00  0.00    -0.014 A 
ATOM     42  C   UNL A   1      35.980  32.536  33.707  1.00  0.00     0.010 A 
ATOM     43  C   UNL A   1      37.053  34.710  33.639  1.00  0.00     0.010 A 
ATOM     44  C   UNL A   1      34.888  33.057  33.006  1.00  0.00     0.020 A 
ATOM     45  C   UNL A   1      35.950  35.242  32.966  1.00  0.00     0.020 A 
ATOM     46  C   UNL A   1      34.881  34.406  32.639  1.00  0.00     0.054 A 
BRANCH  46  47
ATOM     47  S   UNL A   1      33.445  35.060  31.744  1.00  0.00     0.124 S 
ATOM     48  O   UNL A   1      33.797  36.469  31.597  1.00  0.00    -0.237 OA
ATOM     49  O   UNL A   1      33.458  34.278  30.510  1.00  0.00    -0.237 OA
ATOM     50  O   UNL A   1      32.324  34.787  32.640  1.00  0.00    -0.744 OA
ENDBRANCH  46  47
ENDBRANCH  27  41
BRANCH  28  51
ATOM     51  C   UNL A   1      45.624  29.365  37.782  1.00  0.00    -0.014 A 
ATOM     52  C   UNL A   1      46.854  30.014  37.585  1.00  0.00     0.010 A 
ATOM     53  C   UNL A   1      45.608  28.154  38.505  1.00  0.00     0.010 A 
ATOM     54  C   UNL A   1      48.039  29.458  38.080  1.00  0.00     0.020 A 
ATOM     55  C   UNL A   1      46.783  27.611  39.030  1.00  0.00     0.020 A 
ATOM     56  C   UNL A   1      47.996  28.260  38.800  1.00  0.00     0.054 A 
BRANCH  56  57
ATOM     57  S   UNL A   1      49.543  27.575  39.455  1.00  0.00     0.124 S 
ATOM     58  O   UNL A   1      49.219  26.157  39.579  1.00  0.00    -0.237 OA
ATOM     59  O   UNL A   1      50.505  27.917  38.412  1.00  0.00    -0.237 OA
ATOM     60  O   UNL A   1      49.726  28.287  40.719  1.00  0.00    -0.744 OA
ENDBRANCH  56  57
ENDBRANCH  28  51
BRANCH  40  61
ATOM     61  C   UNL A   1      40.839  33.872  40.166  1.00  0.00    -0.014 A 
ATOM     62  C   UNL A   1      41.481  35.100  40.392  1.00  0.00     0.010 A 
ATOM     63  C   UNL A   1      39.987  33.339  41.150  1.00  0.00     0.010 A 
ATOM     64  C   UNL A   1      41.293  35.773  41.599  1.00  0.00     0.020 A 
ATOM     65  C   UNL A   1      39.768  34.026  42.341  1.00  0.00     0.020 A 
ATOM     66  C   UNL A   1      40.434  35.234  42.563  1.00  0.00     0.054 A 
BRANCH  66  67
ATOM     67  S   UNL A   1      40.159  36.158  44.096  1.00  0.00     0.124 S 
ATOM     68  O   UNL A   1      41.212  37.167  44.032  1.00  0.00    -0.237 OA
ATOM     69  O   UNL A   1      38.797  36.656  43.927  1.00  0.00    -0.237 OA
ATOM     70  O   UNL A   1      40.322  35.151  45.142  1.00  0.00    -0.744 OA
ENDBRANCH  66  67
ENDBRANCH  40  61
ENDBRANCH  14  15
ENDBRANCH   7   9
ENDBRANCH   6   7
ENDBRANCH   5   6
ENDBRANCH   4   5
ENDBRANCH   3   4
ENDBRANCH   2   3
ENDBRANCH   1   2
BRANCH   1  71
ATOM     71  O   UNL A   1      34.163  29.519  27.816  1.00  0.00    -0.377 OA
BRANCH  71  72
ATOM     72  C   UNL A   1      33.546  30.771  27.548  1.00  0.00     0.188 C 
BRANCH  72  73
ATOM     73  C   UNL A   1      32.351  30.804  26.566  1.00  0.00     0.188 C 
BRANCH  73  74
ATOM     74  O   UNL A   1      32.563  30.015  25.422  1.00  0.00    -0.376 OA
BRANCH  74  75
ATOM     75  C   UNL A   1      31.435  29.324  24.910  1.00  0.00     0.202 C 
BRANCH  75  76
ATOM     76  C   UNL A   1      31.354  27.775  24.785  1.00  0.00     0.261 C 
BRANCH  76  77
ATOM     77  O   UNL A   1      30.484  27.178  23.792  1.00  0.00    -0.459 OA
BRANCH  77  78
ATOM     78  C   UNL A   1      29.499  26.315  24.144  1.00  0.00     0.364 C 
ATOM     79  O   UNL A   1      28.305  26.560  24.005  1.00  0.00    -0.245 OA
BRANCH  78  80
ATOM     80  C   UNL A   1      30.003  24.928  24.651  1.00  0.00     0.294 C 
ATOM     81  C   UNL A   1      31.434  24.589  24.208  1.00  0.00     0.090 C 
ATOM     82  N   UNL A   1      30.105  24.752  26.115  1.00  0.00    -0.334 N 
ATOM     83  C   UNL A   1      31.977  23.551  25.227  1.00  0.00     0.036 C 
ATOM     84  C   UNL A   1      30.888  23.532  26.321  1.00  0.00     0.268 C 
ATOM     85  H   UNL A   1      29.177  24.652  26.525  1.00  0.00     0.347 HD
ATOM     86  H   UNL A   1      30.546  25.559  26.557  1.00  0.00     0.347 HD
ATOM     87  C   UNL A   1      33.334  23.971  25.848  1.00  0.00     0.076 C 
ATOM     88  C   UNL A   1      32.138  22.175  24.544  1.00  0.00     0.076 C 
ATOM     89  C   UNL A   1      34.515  23.807  24.903  1.00  0.00     0.280 C 
ATOM     90  C   UNL A   1      33.368  22.104  23.628  1.00  0.00     0.280 C 
ATOM     91  N   UNL A   1      34.614  22.432  24.380  1.00  0.00    -0.215 N 
ATOM     92  H   UNL A   1      35.426  22.474  23.763  1.00  0.00     0.367 HD
BRANCH  91  93
ATOM     93  S   UNL A   1      35.196  21.171  25.356  1.00  0.00     0.371 S 
ATOM     94  O   UNL A   1      35.121  21.591  26.741  1.00  0.00    -0.157 OA
ATOM     95  O   UNL A   1      34.535  19.967  24.921  1.00  0.00    -0.157 OA
BRANCH  93  96
ATOM     96  N   UNL A   1      36.787  21.049  24.934  1.00  0.00    -0.151 NA
ATOM     97  C   UNL A   1      37.701  22.197  25.016  1.00  0.00     0.136 C 
ATOM     98  C   UNL A   1      37.467  19.780  24.626  1.00  0.00     0.136 C 
ATOM     99  C   UNL A   1      38.754  21.887  26.076  1.00  0.00     0.177 C 
ATOM    100  C   UNL A   1      38.670  19.556  25.554  1.00  0.00     0.177 C 
ATOM    101  O   UNL A   1      39.503  20.713  25.712  1.00  0.00    -0.379 OA
ENDBRANCH  93  96
ENDBRANCH  91  93
ENDBRANCH  78  80
ENDBRANCH  77  78
ENDBRANCH  76  77
ENDBRANCH  75  76
ENDBRANCH  74  75
ENDBRANCH  73  74
ENDBRANCH  72  73
ENDBRANCH  71  72
ENDBRANCH   1  71
TORSDOF 25
ENDMDL
MODEL 2
REMARK VINA RESULT:      -8.1      5.422     13.251
REMARK SMILES O=C(OCCOCCOCCOCCOC(=O)[C@H]1CC2(CC[NH+](S(=O)(=O)N3CCOCC3)CC2)C[NH2+]1)c1ccc(-c2c3nc(c(-c4ccc(S(=O)(=O)[O-])cc4)c4ccc([nH]4)c(-c4ccc(S(=O)(=O)[O-])cc4)c4nc(c(-c5ccc(S(=O)(=O)[O-])cc5)c5ccc2[nH]5)C=C4)C=C3)cc1
REMARK SMILES IDX 8 1 7 2 6 3 5 4 4 5 3 6 2 7 1 8 37 9 38 10 96 11 39 12 95 13
REMARK SMILES IDX 40 14 41 15 42 16 89 17 43 18 94 19 88 20 90 21 44 22 93 23
REMARK SMILES IDX 87 24 86 25 45 27 75 28 56 29 74 30 57 31 60 32 73 33 91 34
REMARK SMILES IDX 58 35 59 36 72 38 92 39 61 40 46 41 47 42 55 43 48 44 54 45
REMARK SMILES IDX 49 46 50 47 51 48 52 49 53 50 76 51 77 52 85 53 78 54 84 55
REMARK SMILES IDX 79 56 80 57 81 58 82 59 83 60 62 61 63 62 71 63 64 64 70 65
REMARK SMILES IDX 65 66 66 67 67 68 68 69 69 70 9 71 10 72 11 73 12 74 13 75
REMARK SMILES IDX 14 76 15 77 16 78 17 79 18 80 19 81 36 82 20 83 35 84 21 87
REMARK SMILES IDX 34 88 22 89 33 90 23 91 24 93 25 94 26 95 27 96 28 97 32 98
REMARK SMILES IDX 29 99 31 100 30 101
REMARK H PARENT 90 26 60 37 36 85 36 86 23 92
REMARK Flexibility Score: inf
ROOT
ATOM      1  C   UNL A   1      45.174  22.385  25.810  1.00  0.00     0.188 C 
ENDROOT
BRANCH   1   2
ATOM      2  C   UNL A   1      44.226  23.206  24.934  1.00  0.00     0.188 C 
BRANCH   2   3
ATOM      3  O   UNL A   1      42.875  22.769  25.088  1.00  0.00    -0.376 OA
BRANCH   3   4
ATOM      4  C   UNL A   1      42.637  21.536  25.766  1.00  0.00     0.202 C 
BRANCH   4   5
ATOM      5  C   UNL A   1      41.413  21.511  26.676  1.00  0.00     0.261 C 
BRANCH   5   6
ATOM      6  O   UNL A   1      40.271  22.176  26.126  1.00  0.00    -0.460 OA
BRANCH   6   7
ATOM      7  C   UNL A   1      39.704  23.346  26.511  1.00  0.00     0.338 C 
ATOM      8  O   UNL A   1      38.482  23.451  26.407  1.00  0.00    -0.246 OA
BRANCH   7   9
ATOM      9  C   UNL A   1      40.459  24.529  27.027  1.00  0.00     0.060 A 
ATOM     10  C   UNL A   1      41.004  24.654  28.305  1.00  0.00     0.016 A 
ATOM     11  C   UNL A   1      40.703  25.569  26.118  1.00  0.00     0.016 A 
ATOM     12  C   UNL A   1      41.717  25.763  28.703  1.00  0.00     0.010 A 
ATOM     13  C   UNL A   1      41.425  26.702  26.501  1.00  0.00     0.010 A 
ATOM     14  C   UNL A   1      41.904  26.802  27.811  1.00  0.00    -0.014 A 
BRANCH  14  15
ATOM     15  C   UNL A   1      42.372  28.060  28.393  1.00  0.00     0.031 A 
ATOM     16  C   UNL A   1      43.836  28.343  28.287  1.00  0.00     0.074 A 
ATOM     17  C   UNL A   1      41.480  28.982  28.794  1.00  0.00     0.049 A 
ATOM     18  N   UNL A   1      44.524  29.326  28.788  1.00  0.00    -0.248 NA
ATOM     19  C   UNL A   1      44.635  27.390  27.489  1.00  0.00     0.031 C 
ATOM     20  C   UNL A   1      40.021  28.844  28.706  1.00  0.00     0.029 A 
ATOM     21  N   UNL A   1      41.667  30.228  29.318  1.00  0.00    -0.354 N 
ATOM     22  C   UNL A   1      45.842  29.074  28.425  1.00  0.00     0.074 A 
ATOM     23  C   UNL A   1      45.860  27.859  27.649  1.00  0.00     0.031 C 
ATOM     24  C   UNL A   1      39.447  29.968  29.165  1.00  0.00     0.029 A 
ATOM     25  C   UNL A   1      40.493  30.854  29.660  1.00  0.00     0.049 A 
ATOM     26  H   UNL A   1      42.553  30.637  29.440  1.00  0.00     0.167 HD
ATOM     27  C   UNL A   1      46.934  29.799  28.745  1.00  0.00     0.031 A 
ATOM     28  C   UNL A   1      40.305  31.988  30.359  1.00  0.00     0.031 A 
ATOM     29  C   UNL A   1      46.847  30.997  29.531  1.00  0.00     0.049 A 
ATOM     30  C   UNL A   1      41.542  32.708  30.825  1.00  0.00     0.074 A 
ATOM     31  C   UNL A   1      47.864  31.797  30.009  1.00  0.00     0.029 A 
ATOM     32  N   UNL A   1      45.648  31.562  29.954  1.00  0.00    -0.354 N 
ATOM     33  N   UNL A   1      42.801  32.417  30.583  1.00  0.00    -0.248 NA
ATOM     34  C   UNL A   1      41.343  33.890  31.666  1.00  0.00     0.031 C 
ATOM     35  C   UNL A   1      47.280  32.810  30.776  1.00  0.00     0.029 A 
ATOM     36  C   UNL A   1      45.897  32.687  30.710  1.00  0.00     0.049 A 
ATOM     37  H   UNL A   1      44.753  31.209  29.744  1.00  0.00     0.167 HD
ATOM     38  C   UNL A   1      43.548  33.395  31.224  1.00  0.00     0.074 A 
ATOM     39  C   UNL A   1      42.593  34.294  31.847  1.00  0.00     0.031 C 
ATOM     40  C   UNL A   1      44.895  33.543  31.300  1.00  0.00     0.031 A 
BRANCH  27  41
ATOM     41  C   UNL A   1      48.271  29.235  28.352  1.00  0.00    -0.014 A 
ATOM     42  C   UNL A   1      48.884  29.550  27.126  1.00  0.00     0.010 A 
ATOM     43  C   UNL A   1      48.898  28.316  29.213  1.00  0.00     0.010 A 
ATOM     44  C   UNL A   1      50.078  28.926  26.752  1.00  0.00     0.020 A 
ATOM     45  C   UNL A   1      50.107  27.713  28.857  1.00  0.00     0.020 A 
ATOM     46  C   UNL A   1      50.680  28.009  27.620  1.00  0.00     0.054 A 
BRANCH  46  47
ATOM     47  S   UNL A   1      52.236  27.225  27.116  1.00  0.00     0.124 S 
ATOM     48  O   UNL A   1      52.351  27.647  25.723  1.00  0.00    -0.237 OA
ATOM     49  O   UNL A   1      53.203  27.821  28.034  1.00  0.00    -0.237 OA
ATOM     50  O   UNL A   1      51.988  25.799  27.317  1.00  0.00    -0.744 OA
ENDBRANCH  46  47
ENDBRANCH  27  41
BRANCH  28  51
ATOM     51  C   UNL A   1      38.933  32.432  30.727  1.00  0.00    -0.014 A 
ATOM     52  C   UNL A   1      38.327  32.015  31.924  1.00  0.00     0.010 A 
ATOM     53  C   UNL A   1      38.215  33.292  29.870  1.00  0.00     0.010 A 
ATOM     54  C   UNL A   1      37.029  32.432  32.246  1.00  0.00     0.020 A 
ATOM     55  C   UNL A   1      36.933  33.737  30.202  1.00  0.00     0.020 A 
ATOM     56  C   UNL A   1      36.341  33.291  31.383  1.00  0.00     0.054 A 
BRANCH  56  57
ATOM     57  S   UNL A   1      34.672  33.837  31.838  1.00  0.00     0.124 S 
ATOM     58  O   UNL A   1      33.961  32.569  31.964  1.00  0.00    -0.237 OA
ATOM     59  O   UNL A   1      34.906  34.560  33.085  1.00  0.00    -0.237 OA
ATOM     60  O   UNL A   1      34.265  34.673  30.710  1.00  0.00    -0.744 OA
ENDBRANCH  56  57
ENDBRANCH  28  51
BRANCH  40  61
ATOM     61  C   UNL A   1      45.399  34.748  32.040  1.00  0.00    -0.014 A 
ATOM     62  C   UNL A   1      45.787  34.666  33.387  1.00  0.00     0.010 A 
ATOM     63  C   UNL A   1      45.555  35.958  31.341  1.00  0.00     0.010 A 
ATOM     64  C   UNL A   1      46.302  35.790  34.033  1.00  0.00     0.020 A 
ATOM     65  C   UNL A   1      46.104  37.072  31.972  1.00  0.00     0.020 A 
ATOM     66  C   UNL A   1      46.462  36.983  33.319  1.00  0.00     0.054 A 
BRANCH  66  67
ATOM     67  S   UNL A   1      47.190  38.409  34.165  1.00  0.00     0.124 S 
ATOM     68  O   UNL A   1      48.152  37.772  35.058  1.00  0.00    -0.237 OA
ATOM     69  O   UNL A   1      47.765  39.173  33.061  1.00  0.00    -0.237 OA
ATOM     70  O   UNL A   1      46.049  39.041  34.824  1.00  0.00    -0.744 OA
ENDBRANCH  66  67
ENDBRANCH  40  61
ENDBRANCH  14  15
ENDBRANCH   7   9
ENDBRANCH   6   7
ENDBRANCH   5   6
ENDBRANCH   4   5
ENDBRANCH   3   4
ENDBRANCH   2   3
ENDBRANCH   1   2
BRANCH   1  71
ATOM     71  O   UNL A   1      46.338  23.083  26.237  1.00  0.00    -0.377 OA
BRANCH  71  72
ATOM     72  C   UNL A   1      46.093  24.173  27.115  1.00  0.00     0.188 C 
BRANCH  72  73
ATOM     73  C   UNL A   1      45.242  23.917  28.382  1.00  0.00     0.188 C 
BRANCH  73  74
ATOM     74  O   UNL A   1      45.752  24.563  29.521  1.00  0.00    -0.376 OA
BRANCH  74  75
ATOM     75  C   UNL A   1      44.807  24.961  30.501  1.00  0.00     0.202 C 
BRANCH  75  76
ATOM     76  C   UNL A   1      45.103  24.982  32.029  1.00  0.00     0.261 C 
BRANCH  76  77
ATOM     77  O   UNL A   1      44.042  25.298  32.963  1.00  0.00    -0.459 OA
BRANCH  77  78
ATOM     78  C   UNL A   1      44.152  26.333  33.833  1.00  0.00     0.364 C 
ATOM     79  O   UNL A   1      44.958  26.355  34.757  1.00  0.00    -0.245 OA
BRANCH  78  80
ATOM     80  C   UNL A   1      43.236  27.554  33.507  1.00  0.00     0.294 C 
ATOM     81  C   UNL A   1      42.821  28.365  34.743  1.00  0.00     0.090 C 
ATOM     82  N   UNL A   1      43.817  28.611  32.652  1.00  0.00    -0.334 N 
ATOM     83  C   UNL A   1      42.463  29.788  34.237  1.00  0.00     0.036 C 
ATOM     84  C   UNL A   1      42.916  29.760  32.762  1.00  0.00     0.268 C 
ATOM     85  H   UNL A   1      43.871  28.293  31.684  1.00  0.00     0.347 HD
ATOM     86  H   UNL A   1      44.764  28.849  32.945  1.00  0.00     0.347 HD
ATOM     87  C   UNL A   1      43.227  30.905  34.996  1.00  0.00     0.076 C 
ATOM     88  C   UNL A   1      40.944  30.032  34.375  1.00  0.00     0.076 C 
ATOM     89  C   UNL A   1      42.697  31.164  36.398  1.00  0.00     0.280 C 
ATOM     90  C   UNL A   1      40.512  30.304  35.823  1.00  0.00     0.280 C 
ATOM     91  N   UNL A   1      41.253  31.466  36.393  1.00  0.00    -0.215 N 
ATOM     92  H   UNL A   1      41.039  31.601  37.382  1.00  0.00     0.367 HD
BRANCH  91  93
ATOM     93  S   UNL A   1      40.684  32.981  35.878  1.00  0.00     0.371 S 
ATOM     94  O   UNL A   1      41.819  33.870  35.732  1.00  0.00    -0.157 OA
ATOM     95  O   UNL A   1      39.797  32.738  34.769  1.00  0.00    -0.157 OA
BRANCH  93  96
ATOM     96  N   UNL A   1      39.769  33.509  37.147  1.00  0.00    -0.151 NA
ATOM     97  C   UNL A   1      38.301  33.534  37.085  1.00  0.00     0.136 C 
ATOM     98  C   UNL A   1      40.306  33.816  38.482  1.00  0.00     0.136 C 
ATOM     99  C   UNL A   1      37.769  32.540  38.114  1.00  0.00     0.177 C 
ATOM    100  C   UNL A   1      39.621  32.967  39.564  1.00  0.00     0.177 C 
ATOM    101  O   UNL A   1      38.194  32.911  39.438  1.00  0.00    -0.379 OA
ENDBRANCH  93  96
ENDBRANCH  91  93
ENDBRANCH  78  80
ENDBRANCH  77  78
ENDBRANCH  76  77
ENDBRANCH  75  76
ENDBRANCH  74  75
ENDBRANCH  73  74
ENDBRANCH  72  73
ENDBRANCH  71  72
ENDBRANCH   1  71
TORSDOF 25
ENDMDL
MODEL 3
REMARK VINA RESULT:      -7.9      6.628     10.904
REMARK SMILES O=C(OCCOCCOCCOCCOC(=O)[C@H]1CC2(CC[NH+](S(=O)(=O)N3CCOCC3)CC2)C[NH2+]1)c1ccc(-c2c3nc(c(-c4ccc(S(=O)(=O)[O-])cc4)c4ccc([nH]4)c(-c4ccc(S(=O)(=O)[O-])cc4)c4nc(c(-c5ccc(S(=O)(=O)[O-])cc5)c5ccc2[nH]5)C=C4)C=C3)cc1
REMARK SMILES IDX 8 1 7 2 6 3 5 4 4 5 3 6 2 7 1 8 37 9 38 10 96 11 39 12 95 13
REMARK SMILES IDX 40 14 41 15 42 16 89 17 43 18 94 19 88 20 90 21 44 22 93 23
REMARK SMILES IDX 87 24 86 25 45 27 75 28 56 29 74 30 57 31 60 32 73 33 91 34
REMARK SMILES IDX 58 35 59 36 72 38 92 39 61 40 46 41 47 42 55 43 48 44 54 45
REMARK SMILES IDX 49 46 50 47 51 48 52 49 53 50 76 51 77 52 85 53 78 54 84 55
REMARK SMILES IDX 79 56 80 57 81 58 82 59 83 60 62 61 63 62 71 63 64 64 70 65
REMARK SMILES IDX 65 66 66 67 67 68 68 69 69 70 9 71 10 72 11 73 12 74 13 75
REMARK SMILES IDX 14 76 15 77 16 78 17 79 18 80 19 81 36 82 20 83 35 84 21 87
REMARK SMILES IDX 34 88 22 89 33 90 23 91 24 93 25 94 26 95 27 96 28 97 32 98
REMARK SMILES IDX 29 99 31 100 30 101
REMARK H PARENT 90 26 60 37 36 85 36 86 23 92
REMARK Flexibility Score: inf
ROOT
ATOM      1  C   UNL A   1      41.105  26.703  28.420  1.00  0.00     0.188 C 
ENDROOT
BRANCH   1   2
ATOM      2  C   UNL A   1      39.924  26.134  27.632  1.00  0.00     0.188 C 
BRANCH   2   3
ATOM      3  O   UNL A   1      40.338  25.052  26.797  1.00  0.00    -0.376 OA
BRANCH   3   4
ATOM      4  C   UNL A   1      40.751  23.837  27.420  1.00  0.00     0.202 C 
BRANCH   4   5
ATOM      5  C   UNL A   1      40.697  22.593  26.538  1.00  0.00     0.261 C 
BRANCH   5   6
ATOM      6  O   UNL A   1      41.986  22.094  26.165  1.00  0.00    -0.460 OA
BRANCH   6   7
ATOM      7  C   UNL A   1      42.981  22.730  25.497  1.00  0.00     0.338 C 
ATOM      8  O   UNL A   1      42.967  22.681  24.268  1.00  0.00    -0.246 OA
BRANCH   7   9
ATOM      9  C   UNL A   1      44.110  23.464  26.148  1.00  0.00     0.060 A 
ATOM     10  C   UNL A   1      45.207  22.879  26.781  1.00  0.00     0.016 A 
ATOM     11  C   UNL A   1      44.097  24.863  26.043  1.00  0.00     0.016 A 
ATOM     12  C   UNL A   1      46.228  23.620  27.332  1.00  0.00     0.010 A 
ATOM     13  C   UNL A   1      45.125  25.633  26.595  1.00  0.00     0.010 A 
ATOM     14  C   UNL A   1      46.174  25.000  27.266  1.00  0.00    -0.014 A 
BRANCH  14  15
ATOM     15  C   UNL A   1      47.102  25.712  28.145  1.00  0.00     0.031 A 
ATOM     16  C   UNL A   1      46.653  25.934  29.554  1.00  0.00     0.074 A 
ATOM     17  C   UNL A   1      48.363  25.942  27.738  1.00  0.00     0.049 A 
ATOM     18  N   UNL A   1      47.230  26.605  30.506  1.00  0.00    -0.248 NA
ATOM     19  C   UNL A   1      45.380  25.296  29.947  1.00  0.00     0.031 C 
ATOM     20  C   UNL A   1      48.923  25.537  26.443  1.00  0.00     0.029 A 
ATOM     21  N   UNL A   1      49.408  26.537  28.383  1.00  0.00    -0.354 N 
ATOM     22  C   UNL A   1      46.361  26.526  31.588  1.00  0.00     0.074 A 
ATOM     23  C   UNL A   1      45.227  25.732  31.185  1.00  0.00     0.031 C 
ATOM     24  C   UNL A   1      50.214  25.899  26.393  1.00  0.00     0.029 A 
ATOM     25  C   UNL A   1      50.537  26.638  27.606  1.00  0.00     0.049 A 
ATOM     26  H   UNL A   1      49.358  26.860  29.310  1.00  0.00     0.167 HD
ATOM     27  C   UNL A   1      46.507  27.100  32.801  1.00  0.00     0.031 A 
ATOM     28  C   UNL A   1      51.673  27.318  27.841  1.00  0.00     0.031 A 
ATOM     29  C   UNL A   1      47.658  27.889  33.135  1.00  0.00     0.049 A 
ATOM     30  C   UNL A   1      51.757  28.065  29.145  1.00  0.00     0.074 A 
ATOM     31  C   UNL A   1      47.917  28.602  34.286  1.00  0.00     0.029 A 
ATOM     32  N   UNL A   1      48.751  28.062  32.291  1.00  0.00    -0.354 N 
ATOM     33  N   UNL A   1      50.890  28.091  30.134  1.00  0.00    -0.248 NA
ATOM     34  C   UNL A   1      52.952  28.883  29.365  1.00  0.00     0.031 C 
ATOM     35  C   UNL A   1      49.139  29.259  34.111  1.00  0.00     0.029 A 
ATOM     36  C   UNL A   1      49.678  28.892  32.883  1.00  0.00     0.049 A 
ATOM     37  H   UNL A   1      48.847  27.651  31.401  1.00  0.00     0.167 HD
ATOM     38  C   UNL A   1      51.445  28.911  31.106  1.00  0.00     0.074 A 
ATOM     39  C   UNL A   1      52.731  29.343  30.589  1.00  0.00     0.031 C 
ATOM     40  C   UNL A   1      50.946  29.280  32.312  1.00  0.00     0.031 A 
BRANCH  27  41
ATOM     41  C   UNL A   1      45.352  26.985  33.756  1.00  0.00    -0.014 A 
ATOM     42  C   UNL A   1      45.348  26.061  34.817  1.00  0.00     0.010 A 
ATOM     43  C   UNL A   1      44.216  27.788  33.545  1.00  0.00     0.010 A 
ATOM     44  C   UNL A   1      44.213  25.913  35.621  1.00  0.00     0.020 A 
ATOM     45  C   UNL A   1      43.092  27.665  34.366  1.00  0.00     0.020 A 
ATOM     46  C   UNL A   1      43.092  26.716  35.389  1.00  0.00     0.054 A 
BRANCH  46  47
ATOM     47  S   UNL A   1      41.639  26.515  36.456  1.00  0.00     0.124 S 
ATOM     48  O   UNL A   1      40.783  25.657  35.643  1.00  0.00    -0.237 OA
ATOM     49  O   UNL A   1      42.206  25.889  37.648  1.00  0.00    -0.237 OA
ATOM     50  O   UNL A   1      41.155  27.881  36.644  1.00  0.00    -0.744 OA
ENDBRANCH  46  47
ENDBRANCH  27  41
BRANCH  28  51
ATOM     51  C   UNL A   1      52.737  27.396  26.803  1.00  0.00    -0.014 A 
ATOM     52  C   UNL A   1      53.766  26.442  26.739  1.00  0.00     0.010 A 
ATOM     53  C   UNL A   1      52.725  28.441  25.856  1.00  0.00     0.010 A 
ATOM     54  C   UNL A   1      54.767  26.541  25.766  1.00  0.00     0.020 A 
ATOM     55  C   UNL A   1      53.704  28.526  24.862  1.00  0.00     0.020 A 
ATOM     56  C   UNL A   1      54.729  27.582  24.833  1.00  0.00     0.054 A 
BRANCH  56  57
ATOM     57  S   UNL A   1      56.024  27.671  23.564  1.00  0.00     0.124 S 
ATOM     58  O   UNL A   1      56.010  29.088  23.216  1.00  0.00    -0.237 OA
ATOM     59  O   UNL A   1      57.204  27.206  24.287  1.00  0.00    -0.237 OA
ATOM     60  O   UNL A   1      55.544  26.766  22.521  1.00  0.00    -0.744 OA
ENDBRANCH  56  57
ENDBRANCH  28  51
BRANCH  40  61
ATOM     61  C   UNL A   1      51.822  30.153  33.164  1.00  0.00    -0.014 A 
ATOM     62  C   UNL A   1      51.720  31.553  33.120  1.00  0.00     0.010 A 
ATOM     63  C   UNL A   1      52.702  29.546  34.078  1.00  0.00     0.010 A 
ATOM     64  C   UNL A   1      52.510  32.335  33.962  1.00  0.00     0.020 A 
ATOM     65  C   UNL A   1      53.464  30.323  34.946  1.00  0.00     0.020 A 
ATOM     66  C   UNL A   1      53.372  31.715  34.873  1.00  0.00     0.054 A 
BRANCH  66  67
ATOM     67  S   UNL A   1      54.340  32.753  35.997  1.00  0.00     0.124 S 
ATOM     68  O   UNL A   1      53.311  33.610  36.578  1.00  0.00    -0.237 OA
ATOM     69  O   UNL A   1      54.930  31.773  36.905  1.00  0.00    -0.237 OA
ATOM     70  O   UNL A   1      55.289  33.428  35.115  1.00  0.00    -0.744 OA
ENDBRANCH  66  67
ENDBRANCH  40  61
ENDBRANCH  14  15
ENDBRANCH   7   9
ENDBRANCH   6   7
ENDBRANCH   5   6
ENDBRANCH   4   5
ENDBRANCH   3   4
ENDBRANCH   2   3
ENDBRANCH   1   2
BRANCH   1  71
ATOM     71  O   UNL A   1      40.747  27.651  29.419  1.00  0.00    -0.377 OA
BRANCH  71  72
ATOM     72  C   UNL A   1      41.237  28.967  29.199  1.00  0.00     0.188 C 
BRANCH  72  73
ATOM     73  C   UNL A   1      40.383  30.159  29.691  1.00  0.00     0.188 C 
BRANCH  73  74
ATOM     74  O   UNL A   1      39.463  29.796  30.689  1.00  0.00    -0.376 OA
BRANCH  74  75
ATOM     75  C   UNL A   1      38.091  29.995  30.389  1.00  0.00     0.202 C 
BRANCH  75  76
ATOM     76  C   UNL A   1      37.512  31.327  29.833  1.00  0.00     0.261 C 
BRANCH  76  77
ATOM     77  O   UNL A   1      36.597  31.301  28.710  1.00  0.00    -0.459 OA
BRANCH  77  78
ATOM     78  C   UNL A   1      35.298  31.663  28.850  1.00  0.00     0.364 C 
ATOM     79  O   UNL A   1      34.864  32.260  29.830  1.00  0.00    -0.245 OA
BRANCH  78  80
ATOM     80  C   UNL A   1      34.402  31.352  27.610  1.00  0.00     0.294 C 
ATOM     81  C   UNL A   1      34.131  29.856  27.401  1.00  0.00     0.090 C 
ATOM     82  N   UNL A   1      33.027  31.893  27.631  1.00  0.00    -0.334 N 
ATOM     83  C   UNL A   1      32.822  29.755  26.573  1.00  0.00     0.036 C 
ATOM     84  C   UNL A   1      32.307  31.211  26.554  1.00  0.00     0.268 C 
ATOM     85  H   UNL A   1      33.040  32.900  27.467  1.00  0.00     0.347 HD
ATOM     86  H   UNL A   1      32.579  31.740  28.535  1.00  0.00     0.347 HD
ATOM     87  C   UNL A   1      31.761  28.836  27.234  1.00  0.00     0.076 C 
ATOM     88  C   UNL A   1      33.132  29.230  25.154  1.00  0.00     0.076 C 
ATOM     89  C   UNL A   1      32.072  27.353  27.104  1.00  0.00     0.280 C 
ATOM     90  C   UNL A   1      33.412  27.720  25.126  1.00  0.00     0.280 C 
ATOM     91  N   UNL A   1      32.268  26.953  25.698  1.00  0.00    -0.215 N 
ATOM     92  H   UNL A   1      32.478  25.957  25.765  1.00  0.00     0.367 HD
BRANCH  91  93
ATOM     93  S   UNL A   1      30.942  26.786  24.650  1.00  0.00     0.371 S 
ATOM     94  O   UNL A   1      29.894  26.069  25.348  1.00  0.00    -0.157 OA
ATOM     95  O   UNL A   1      30.688  28.088  24.088  1.00  0.00    -0.157 OA
BRANCH  93  96
ATOM     96  N   UNL A   1      31.516  25.821  23.440  1.00  0.00    -0.151 NA
ATOM     97  C   UNL A   1      31.632  26.300  22.056  1.00  0.00     0.136 C 
ATOM     98  C   UNL A   1      32.123  24.497  23.656  1.00  0.00     0.136 C 
ATOM     99  C   UNL A   1      33.114  26.328  21.690  1.00  0.00     0.177 C 
ATOM    100  C   UNL A   1      33.552  24.445  23.095  1.00  0.00     0.177 C 
ATOM    101  O   UNL A   1      33.680  25.008  21.782  1.00  0.00    -0.379 OA
ENDBRANCH  93  96
ENDBRANCH  91  93
ENDBRANCH  78  80
ENDBRANCH  77  78
ENDBRANCH  76  77
ENDBRANCH  75  76
ENDBRANCH  74  75
ENDBRANCH  73  74
ENDBRANCH  72  73
ENDBRANCH  71  72
ENDBRANCH   1  71
TORSDOF 25
ENDMDL
