MODEL 1
REMARK VINA RESULT:      -9.8      0.000      0.000
REMARK SMILES Cc1cc2c(c(C)c1Cl)C=C(C(=O)OCCOCCOCCOCCOC(=O)c1ccc(-c3c4nc(c(-c5ccc(S(=O)(=O)[O-])cc5)c5ccc([nH]5)c(-c5ccc(S(=O)(=O)[O-])cc5)c5nc(c(-c6ccc(S(=O)(=O)[O-])cc6)c6ccc3[nH]6)C=C5)C=C4)cc1)[C@H](C(F)(F)F)O2
REMARK SMILES IDX 21 1 20 2 19 3 18 4 17 5 16 6 15 7 14 8 12 9 13 10 11 11
REMARK SMILES IDX 1 12 2 13 3 14 8 15 4 16 6 17 9 18 5 19 94 20 7 21 10 22
REMARK SMILES IDX 89 23 90 24 91 25 92 26 93 27 22 28 23 29 24 30 25 31 26 32
REMARK SMILES IDX 27 33 28 34 29 35 30 36 88 37 31 38 87 39 32 40 33 41 34 42
REMARK SMILES IDX 81 43 35 44 86 45 80 46 82 47 36 48 85 49 79 50 78 51 37 53
REMARK SMILES IDX 67 54 48 55 66 56 49 57 52 58 65 59 83 60 50 61 51 62 64 64
REMARK SMILES IDX 84 65 53 66 38 67 39 68 47 69 40 70 46 71 41 72 42 73 43 74
REMARK SMILES IDX 44 75 45 76 68 77 69 78 77 79 70 80 76 81 71 82 72 83 73 84
REMARK SMILES IDX 74 85 75 86 54 87 55 88 63 89 56 90 62 91 57 92 58 93 59 94
REMARK SMILES IDX 60 95 61 96
REMARK H PARENT 82 52 52 63
REMARK Flexibility Score: inf
ROOT
ATOM      1  C   UNL A   1      39.076  22.465  26.094  1.00  0.00     0.188 C 
ENDROOT
BRANCH   1   2
ATOM      2  O   UNL A   1      37.743  21.978  26.144  1.00  0.00    -0.377 OA
BRANCH   2   3
ATOM      3  C   UNL A   1      37.205  21.371  24.977  1.00  0.00     0.188 C 
BRANCH   3   4
ATOM      4  C   UNL A   1      35.885  20.563  24.968  1.00  0.00     0.188 C 
BRANCH   4   5
ATOM      5  O   UNL A   1      34.904  21.024  25.877  1.00  0.00    -0.376 OA
BRANCH   5   6
ATOM      6  C   UNL A   1      33.597  20.492  25.878  1.00  0.00     0.202 C 
BRANCH   6   7
ATOM      7  C   UNL A   1      32.471  21.282  25.195  1.00  0.00     0.261 C 
BRANCH   7   8
ATOM      8  O   UNL A   1      32.816  22.600  24.757  1.00  0.00    -0.460 OA
BRANCH   8   9
ATOM      9  C   UNL A   1      32.340  23.624  25.484  1.00  0.00     0.338 C 
ATOM     10  O   UNL A   1      32.277  23.675  26.702  1.00  0.00    -0.246 OA
BRANCH   9  11
ATOM     11  C   UNL A   1      32.061  24.773  24.598  1.00  0.00     0.087 C 
ATOM     12  C   UNL A   1      29.579  30.227  22.142  1.00  0.00     0.046 C 
ATOM     13  C   UNL A   1      30.274  29.176  22.964  1.00  0.00    -0.028 A 
ATOM     14  C   UNL A   1      30.462  27.906  22.402  1.00  0.00     0.052 A 
ATOM     15  C   UNL A   1      30.736  29.422  24.273  1.00  0.00     0.047 A 
ATOM     16  C   UNL A   1      31.029  26.876  23.147  1.00  0.00     0.128 A 
ATOM     17  C   UNL A   1      31.328  28.393  25.040  1.00  0.00    -0.021 A 
ATOM     18  Cl  UNL A   1      30.529  31.016  24.937  1.00  0.00    -0.084 Cl
ATOM     19  C   UNL A   1      31.446  27.101  24.464  1.00  0.00     0.022 A 
ATOM     20  O   UNL A   1      31.047  25.649  22.534  1.00  0.00    -0.475 OA
ATOM     21  C   UNL A   1      31.818  28.632  26.451  1.00  0.00     0.047 C 
ATOM     22  C   UNL A   1      31.884  25.940  25.232  1.00  0.00     0.027 C 
ATOM     23  C   UNL A   1      31.876  24.599  23.113  1.00  0.00     0.316 C 
BRANCH  23  24
ATOM     24  C   UNL A   1      33.151  24.464  22.249  1.00  0.00     0.430 C 
ATOM     25  F   UNL A   1      33.393  23.194  21.865  1.00  0.00    -0.167 F 
ATOM     26  F   UNL A   1      33.028  25.190  21.107  1.00  0.00    -0.167 F 
ATOM     27  F   UNL A   1      34.249  24.925  22.891  1.00  0.00    -0.167 F 
ENDBRANCH  23  24
ENDBRANCH   9  11
ENDBRANCH   8   9
ENDBRANCH   7   8
ENDBRANCH   6   7
ENDBRANCH   5   6
ENDBRANCH   4   5
ENDBRANCH   3   4
ENDBRANCH   2   3
ENDBRANCH   1   2
BRANCH   1  28
ATOM     28  C   UNL A   1      40.093  21.412  26.572  1.00  0.00     0.188 C 
BRANCH  28  29
ATOM     29  O   UNL A   1      41.334  21.482  25.890  1.00  0.00    -0.376 OA
BRANCH  29  30
ATOM     30  C   UNL A   1      42.322  22.408  26.320  1.00  0.00     0.202 C 
BRANCH  30  31
ATOM     31  C   UNL A   1      42.638  23.766  25.652  1.00  0.00     0.261 C 
BRANCH  31  32
ATOM     32  O   UNL A   1      41.771  24.882  25.881  1.00  0.00    -0.460 OA
BRANCH  32  33
ATOM     33  C   UNL A   1      42.263  26.124  25.722  1.00  0.00     0.338 C 
ATOM     34  O   UNL A   1      42.541  26.679  24.671  1.00  0.00    -0.246 OA
BRANCH  33  35
ATOM     35  C   UNL A   1      42.220  26.772  27.053  1.00  0.00     0.060 A 
ATOM     36  C   UNL A   1      41.356  26.265  28.035  1.00  0.00     0.016 A 
ATOM     37  C   UNL A   1      43.060  27.850  27.343  1.00  0.00     0.016 A 
ATOM     38  C   UNL A   1      41.314  26.852  29.300  1.00  0.00     0.010 A 
ATOM     39  C   UNL A   1      42.995  28.457  28.601  1.00  0.00     0.010 A 
ATOM     40  C   UNL A   1      42.100  27.978  29.574  1.00  0.00    -0.014 A 
BRANCH  40  41
ATOM     41  C   UNL A   1      41.834  28.773  30.798  1.00  0.00     0.031 A 
ATOM     42  C   UNL A   1      40.667  29.724  30.782  1.00  0.00     0.074 A 
ATOM     43  C   UNL A   1      42.573  28.623  31.912  1.00  0.00     0.049 A 
ATOM     44  N   UNL A   1      40.246  30.532  31.720  1.00  0.00    -0.248 NA
ATOM     45  C   UNL A   1      39.866  29.764  29.546  1.00  0.00     0.031 C 
ATOM     46  C   UNL A   1      43.687  27.688  32.071  1.00  0.00     0.029 A 
ATOM     47  N   UNL A   1      42.491  29.257  33.127  1.00  0.00    -0.354 N 
ATOM     48  C   UNL A   1      39.129  31.170  31.190  1.00  0.00     0.074 A 
ATOM     49  C   UNL A   1      38.960  30.686  29.839  1.00  0.00     0.031 C 
ATOM     50  C   UNL A   1      44.180  27.806  33.317  1.00  0.00     0.029 A 
ATOM     51  C   UNL A   1      43.444  28.850  34.031  1.00  0.00     0.049 A 
ATOM     52  H   UNL A   1      41.812  29.940  33.333  1.00  0.00     0.167 HD
ATOM     53  C   UNL A   1      38.309  32.068  31.782  1.00  0.00     0.031 A 
ATOM     54  C   UNL A   1      43.700  29.280  35.284  1.00  0.00     0.031 A 
ATOM     55  C   UNL A   1      38.488  32.561  33.120  1.00  0.00     0.049 A 
ATOM     56  C   UNL A   1      42.840  30.367  35.880  1.00  0.00     0.074 A 
ATOM     57  C   UNL A   1      37.717  33.483  33.804  1.00  0.00     0.029 A 
ATOM     58  N   UNL A   1      39.509  32.175  33.976  1.00  0.00    -0.354 N 
ATOM     59  N   UNL A   1      41.786  30.960  35.368  1.00  0.00    -0.248 NA
ATOM     60  C   UNL A   1      43.199  30.841  37.225  1.00  0.00     0.031 C 
ATOM     61  C   UNL A   1      38.305  33.701  35.053  1.00  0.00     0.029 A 
ATOM     62  C   UNL A   1      39.401  32.860  35.173  1.00  0.00     0.049 A 
ATOM     63  H   UNL A   1      40.205  31.513  33.763  1.00  0.00     0.167 HD
ATOM     64  C   UNL A   1      41.340  31.850  36.341  1.00  0.00     0.074 A 
ATOM     65  C   UNL A   1      42.229  31.710  37.475  1.00  0.00     0.031 C 
ATOM     66  C   UNL A   1      40.288  32.704  36.298  1.00  0.00     0.031 A 
BRANCH  53  67
ATOM     67  C   UNL A   1      37.147  32.592  30.982  1.00  0.00    -0.014 A 
ATOM     68  C   UNL A   1      37.298  33.699  30.129  1.00  0.00     0.010 A 
ATOM     69  C   UNL A   1      35.911  31.921  31.024  1.00  0.00     0.010 A 
ATOM     70  C   UNL A   1      36.228  34.137  29.344  1.00  0.00     0.020 A 
ATOM     71  C   UNL A   1      34.848  32.338  30.219  1.00  0.00     0.020 A 
ATOM     72  C   UNL A   1      35.011  33.448  29.388  1.00  0.00     0.054 A 
BRANCH  72  73
ATOM     73  S   UNL A   1      33.663  34.005  28.311  1.00  0.00     0.124 S 
ATOM     74  O   UNL A   1      32.781  34.683  29.258  1.00  0.00    -0.237 OA
ATOM     75  O   UNL A   1      34.353  34.874  27.362  1.00  0.00    -0.237 OA
ATOM     76  O   UNL A   1      33.132  32.766  27.748  1.00  0.00    -0.744 OA
ENDBRANCH  72  73
ENDBRANCH  53  67
BRANCH  54  77
ATOM     77  C   UNL A   1      44.826  28.692  36.064  1.00  0.00    -0.014 A 
ATOM     78  C   UNL A   1      44.612  27.587  36.907  1.00  0.00     0.010 A 
ATOM     79  C   UNL A   1      46.118  29.244  35.981  1.00  0.00     0.010 A 
ATOM     80  C   UNL A   1      45.662  27.054  37.661  1.00  0.00     0.020 A 
ATOM     81  C   UNL A   1      47.178  28.695  36.710  1.00  0.00     0.020 A 
ATOM     82  C   UNL A   1      46.941  27.609  37.554  1.00  0.00     0.054 A 
BRANCH  82  83
ATOM     83  S   UNL A   1      48.296  26.870  38.508  1.00  0.00     0.124 S 
ATOM     84  O   UNL A   1      49.136  28.029  38.793  1.00  0.00    -0.237 OA
ATOM     85  O   UNL A   1      47.594  26.298  39.654  1.00  0.00    -0.237 OA
ATOM     86  O   UNL A   1      48.871  25.891  37.587  1.00  0.00    -0.744 OA
ENDBRANCH  82  83
ENDBRANCH  54  77
BRANCH  66  87
ATOM     87  C   UNL A   1      40.003  33.539  37.521  1.00  0.00    -0.014 A 
ATOM     88  C   UNL A   1      40.556  34.822  37.673  1.00  0.00     0.010 A 
ATOM     89  C   UNL A   1      39.087  33.070  38.482  1.00  0.00     0.010 A 
ATOM     90  C   UNL A   1      40.211  35.614  38.773  1.00  0.00     0.020 A 
ATOM     91  C   UNL A   1      38.717  33.869  39.566  1.00  0.00     0.020 A 
ATOM     92  C   UNL A   1      39.288  35.135  39.709  1.00  0.00     0.054 A 
BRANCH  92  93
ATOM     93  S   UNL A   1      38.811  36.211  41.089  1.00  0.00     0.124 S 
ATOM     94  O   UNL A   1      38.557  37.480  40.411  1.00  0.00    -0.237 OA
ATOM     95  O   UNL A   1      37.632  35.537  41.624  1.00  0.00    -0.237 OA
ATOM     96  O   UNL A   1      39.983  36.196  41.962  1.00  0.00    -0.744 OA
ENDBRANCH  92  93
ENDBRANCH  66  87
ENDBRANCH  40  41
ENDBRANCH  33  35
ENDBRANCH  32  33
ENDBRANCH  31  32
ENDBRANCH  30  31
ENDBRANCH  29  30
ENDBRANCH  28  29
ENDBRANCH   1  28
TORSDOF 24
ENDMDL
MODEL 2
REMARK VINA RESULT:      -9.8      1.918      3.351
REMARK SMILES Cc1cc2c(c(C)c1Cl)C=C(C(=O)OCCOCCOCCOCCOC(=O)c1ccc(-c3c4nc(c(-c5ccc(S(=O)(=O)[O-])cc5)c5ccc([nH]5)c(-c5ccc(S(=O)(=O)[O-])cc5)c5nc(c(-c6ccc(S(=O)(=O)[O-])cc6)c6ccc3[nH]6)C=C5)C=C4)cc1)[C@H](C(F)(F)F)O2
REMARK SMILES IDX 21 1 20 2 19 3 18 4 17 5 16 6 15 7 14 8 12 9 13 10 11 11
REMARK SMILES IDX 1 12 2 13 3 14 8 15 4 16 6 17 9 18 5 19 94 20 7 21 10 22
REMARK SMILES IDX 89 23 90 24 91 25 92 26 93 27 22 28 23 29 24 30 25 31 26 32
REMARK SMILES IDX 27 33 28 34 29 35 30 36 88 37 31 38 87 39 32 40 33 41 34 42
REMARK SMILES IDX 81 43 35 44 86 45 80 46 82 47 36 48 85 49 79 50 78 51 37 53
REMARK SMILES IDX 67 54 48 55 66 56 49 57 52 58 65 59 83 60 50 61 51 62 64 64
REMARK SMILES IDX 84 65 53 66 38 67 39 68 47 69 40 70 46 71 41 72 42 73 43 74
REMARK SMILES IDX 44 75 45 76 68 77 69 78 77 79 70 80 76 81 71 82 72 83 73 84
REMARK SMILES IDX 74 85 75 86 54 87 55 88 63 89 56 90 62 91 57 92 58 93 59 94
REMARK SMILES IDX 60 95 61 96
REMARK H PARENT 82 52 52 63
REMARK Flexibility Score: inf
ROOT
ATOM      1  C   UNL A   1      45.146  19.118  25.186  1.00  0.00     0.188 C 
ENDROOT
BRANCH   1   2
ATOM      2  O   UNL A   1      43.965  18.467  25.628  1.00  0.00    -0.377 OA
BRANCH   2   3
ATOM      3  C   UNL A   1      42.773  19.234  25.731  1.00  0.00     0.188 C 
BRANCH   3   4
ATOM      4  C   UNL A   1      42.026  19.474  27.065  1.00  0.00     0.188 C 
BRANCH   4   5
ATOM      5  O   UNL A   1      40.755  20.081  26.929  1.00  0.00    -0.376 OA
BRANCH   5   6
ATOM      6  C   UNL A   1      40.562  21.200  26.091  1.00  0.00     0.202 C 
BRANCH   6   7
ATOM      7  C   UNL A   1      39.663  22.347  26.575  1.00  0.00     0.261 C 
BRANCH   7   8
ATOM      8  O   UNL A   1      38.305  22.302  26.123  1.00  0.00    -0.460 OA
BRANCH   8   9
ATOM      9  C   UNL A   1      37.617  23.454  26.160  1.00  0.00     0.338 C 
ATOM     10  O   UNL A   1      38.092  24.578  26.138  1.00  0.00    -0.246 OA
BRANCH   9  11
ATOM     11  C   UNL A   1      36.171  23.170  26.051  1.00  0.00     0.087 C 
ATOM     12  C   UNL A   1      29.754  23.342  26.907  1.00  0.00     0.046 C 
ATOM     13  C   UNL A   1      31.196  23.628  26.585  1.00  0.00    -0.028 A 
ATOM     14  C   UNL A   1      32.105  22.563  26.593  1.00  0.00     0.052 A 
ATOM     15  C   UNL A   1      31.660  24.924  26.283  1.00  0.00     0.047 A 
ATOM     16  C   UNL A   1      33.462  22.784  26.377  1.00  0.00     0.128 A 
ATOM     17  C   UNL A   1      33.033  25.167  26.047  1.00  0.00    -0.021 A 
ATOM     18  Cl  UNL A   1      30.509  26.227  26.240  1.00  0.00    -0.084 Cl
ATOM     19  C   UNL A   1      33.937  24.076  26.124  1.00  0.00     0.022 A 
ATOM     20  O   UNL A   1      34.268  21.685  26.532  1.00  0.00    -0.475 OA
ATOM     21  C   UNL A   1      33.554  26.552  25.733  1.00  0.00     0.047 C 
ATOM     22  C   UNL A   1      35.384  24.255  26.066  1.00  0.00     0.027 C 
ATOM     23  C   UNL A   1      35.640  21.760  26.044  1.00  0.00     0.316 C 
BRANCH  23  24
ATOM     24  C   UNL A   1      35.718  20.977  24.713  1.00  0.00     0.430 C 
ATOM     25  F   UNL A   1      34.777  21.358  23.825  1.00  0.00    -0.167 F 
ATOM     26  F   UNL A   1      36.917  21.184  24.110  1.00  0.00    -0.167 F 
ATOM     27  F   UNL A   1      35.599  19.643  24.904  1.00  0.00    -0.167 F 
ENDBRANCH  23  24
ENDBRANCH   9  11
ENDBRANCH   8   9
ENDBRANCH   7   8
ENDBRANCH   6   7
ENDBRANCH   5   6
ENDBRANCH   4   5
ENDBRANCH   3   4
ENDBRANCH   2   3
ENDBRANCH   1   2
BRANCH   1  28
ATOM     28  C   UNL A   1      44.844  20.235  24.170  1.00  0.00     0.188 C 
BRANCH  28  29
ATOM     29  O   UNL A   1      45.157  21.531  24.654  1.00  0.00    -0.376 OA
BRANCH  29  30
ATOM     30  C   UNL A   1      44.155  22.300  25.305  1.00  0.00     0.202 C 
BRANCH  30  31
ATOM     31  C   UNL A   1      44.105  23.844  25.373  1.00  0.00     0.261 C 
BRANCH  31  32
ATOM     32  O   UNL A   1      43.327  24.478  26.394  1.00  0.00    -0.460 OA
BRANCH  32  33
ATOM     33  C   UNL A   1      42.715  25.642  26.109  1.00  0.00     0.338 C 
ATOM     34  O   UNL A   1      42.200  25.965  25.051  1.00  0.00    -0.246 OA
BRANCH  33  35
ATOM     35  C   UNL A   1      42.607  26.388  27.384  1.00  0.00     0.060 A 
ATOM     36  C   UNL A   1      41.823  25.864  28.421  1.00  0.00     0.016 A 
ATOM     37  C   UNL A   1      43.311  27.582  27.566  1.00  0.00     0.016 A 
ATOM     38  C   UNL A   1      41.723  26.545  29.635  1.00  0.00     0.010 A 
ATOM     39  C   UNL A   1      43.185  28.279  28.772  1.00  0.00     0.010 A 
ATOM     40  C   UNL A   1      42.367  27.778  29.800  1.00  0.00    -0.014 A 
BRANCH  40  41
ATOM     41  C   UNL A   1      42.019  28.633  30.960  1.00  0.00     0.031 A 
ATOM     42  C   UNL A   1      40.831  29.550  30.830  1.00  0.00     0.074 A 
ATOM     43  C   UNL A   1      42.702  28.568  32.117  1.00  0.00     0.049 A 
ATOM     44  N   UNL A   1      40.342  30.398  31.696  1.00  0.00    -0.248 NA
ATOM     45  C   UNL A   1      40.095  29.498  29.555  1.00  0.00     0.031 C 
ATOM     46  C   UNL A   1      43.828  27.674  32.386  1.00  0.00     0.029 A 
ATOM     47  N   UNL A   1      42.541  29.268  33.287  1.00  0.00    -0.354 N 
ATOM     48  C   UNL A   1      39.240  30.975  31.074  1.00  0.00     0.074 A 
ATOM     49  C   UNL A   1      39.153  30.410  29.746  1.00  0.00     0.031 C 
ATOM     50  C   UNL A   1      44.253  27.877  33.646  1.00  0.00     0.029 A 
ATOM     51  C   UNL A   1      43.456  28.939  34.261  1.00  0.00     0.049 A 
ATOM     52  H   UNL A   1      41.837  29.943  33.418  1.00  0.00     0.167 HD
ATOM     53  C   UNL A   1      38.369  31.883  31.570  1.00  0.00     0.031 A 
ATOM     54  C   UNL A   1      43.636  29.447  35.497  1.00  0.00     0.031 A 
ATOM     55  C   UNL A   1      38.466  32.455  32.885  1.00  0.00     0.049 A 
ATOM     56  C   UNL A   1      42.720  30.542  35.984  1.00  0.00     0.074 A 
ATOM     57  C   UNL A   1      37.638  33.394  33.474  1.00  0.00     0.029 A 
ATOM     58  N   UNL A   1      39.449  32.147  33.812  1.00  0.00    -0.354 N 
ATOM     59  N   UNL A   1      41.680  31.076  35.386  1.00  0.00    -0.248 NA
ATOM     60  C   UNL A   1      42.997  31.102  37.316  1.00  0.00     0.031 C 
ATOM     61  C   UNL A   1      38.155  33.699  34.736  1.00  0.00     0.029 A 
ATOM     62  C   UNL A   1      39.263  32.896  34.961  1.00  0.00     0.049 A 
ATOM     63  H   UNL A   1      40.172  31.493  33.674  1.00  0.00     0.167 HD
ATOM     64  C   UNL A   1      41.163  32.008  36.282  1.00  0.00     0.074 A 
ATOM     65  C   UNL A   1      41.994  31.957  37.465  1.00  0.00     0.031 C 
ATOM     66  C   UNL A   1      40.094  32.829  36.136  1.00  0.00     0.031 A 
BRANCH  53  67
ATOM     67  C   UNL A   1      37.237  32.328  30.683  1.00  0.00    -0.014 A 
ATOM     68  C   UNL A   1      35.965  31.739  30.786  1.00  0.00     0.010 A 
ATOM     69  C   UNL A   1      37.428  33.400  29.792  1.00  0.00     0.010 A 
ATOM     70  C   UNL A   1      34.906  32.204  30.002  1.00  0.00     0.020 A 
ATOM     71  C   UNL A   1      36.364  33.887  29.028  1.00  0.00     0.020 A 
ATOM     72  C   UNL A   1      35.110  33.281  29.133  1.00  0.00     0.054 A 
BRANCH  72  73
ATOM     73  S   UNL A   1      33.700  33.899  28.175  1.00  0.00     0.124 S 
ATOM     74  O   UNL A   1      34.343  34.852  27.272  1.00  0.00    -0.237 OA
ATOM     75  O   UNL A   1      33.189  32.685  27.545  1.00  0.00    -0.237 OA
ATOM     76  O   UNL A   1      32.827  34.492  29.184  1.00  0.00    -0.744 OA
ENDBRANCH  72  73
ENDBRANCH  53  67
BRANCH  54  77
ATOM     77  C   UNL A   1      44.734  28.935  36.367  1.00  0.00    -0.014 A 
ATOM     78  C   UNL A   1      44.524  27.827  37.206  1.00  0.00     0.010 A 
ATOM     79  C   UNL A   1      45.993  29.564  36.372  1.00  0.00     0.010 A 
ATOM     80  C   UNL A   1      45.545  27.366  38.043  1.00  0.00     0.020 A 
ATOM     81  C   UNL A   1      47.027  29.086  37.184  1.00  0.00     0.020 A 
ATOM     82  C   UNL A   1      46.792  27.995  38.023  1.00  0.00     0.054 A 
BRANCH  82  83
ATOM     83  S   UNL A   1      48.115  27.349  39.085  1.00  0.00     0.124 S 
ATOM     84  O   UNL A   1      48.103  28.294  40.196  1.00  0.00    -0.237 OA
ATOM     85  O   UNL A   1      47.637  26.002  39.391  1.00  0.00    -0.237 OA
ATOM     86  O   UNL A   1      49.298  27.402  38.229  1.00  0.00    -0.744 OA
ENDBRANCH  82  83
ENDBRANCH  54  77
BRANCH  66  87
ATOM     87  C   UNL A   1      39.726  33.725  37.292  1.00  0.00    -0.014 A 
ATOM     88  C   UNL A   1      38.831  33.298  38.288  1.00  0.00     0.010 A 
ATOM     89  C   UNL A   1      40.365  34.972  37.433  1.00  0.00     0.010 A 
ATOM     90  C   UNL A   1      38.568  34.110  39.395  1.00  0.00     0.020 A 
ATOM     91  C   UNL A   1      40.129  35.771  38.554  1.00  0.00     0.020 A 
ATOM     92  C   UNL A   1      39.225  35.339  39.525  1.00  0.00     0.054 A 
BRANCH  92  93
ATOM     93  S   UNL A   1      38.913  36.339  41.005  1.00  0.00     0.124 S 
ATOM     94  O   UNL A   1      38.522  37.624  40.428  1.00  0.00    -0.237 OA
ATOM     95  O   UNL A   1      37.845  35.597  41.671  1.00  0.00    -0.237 OA
ATOM     96  O   UNL A   1      40.196  36.337  41.703  1.00  0.00    -0.744 OA
ENDBRANCH  92  93
ENDBRANCH  66  87
ENDBRANCH  40  41
ENDBRANCH  33  35
ENDBRANCH  32  33
ENDBRANCH  31  32
ENDBRANCH  30  31
ENDBRANCH  29  30
ENDBRANCH  28  29
ENDBRANCH   1  28
TORSDOF 24
ENDMDL
MODEL 3
REMARK VINA RESULT:      -9.8      1.702      8.173
REMARK SMILES Cc1cc2c(c(C)c1Cl)C=C(C(=O)OCCOCCOCCOCCOC(=O)c1ccc(-c3c4nc(c(-c5ccc(S(=O)(=O)[O-])cc5)c5ccc([nH]5)c(-c5ccc(S(=O)(=O)[O-])cc5)c5nc(c(-c6ccc(S(=O)(=O)[O-])cc6)c6ccc3[nH]6)C=C5)C=C4)cc1)[C@H](C(F)(F)F)O2
REMARK SMILES IDX 21 1 20 2 19 3 18 4 17 5 16 6 15 7 14 8 12 9 13 10 11 11
REMARK SMILES IDX 1 12 2 13 3 14 8 15 4 16 6 17 9 18 5 19 94 20 7 21 10 22
REMARK SMILES IDX 89 23 90 24 91 25 92 26 93 27 22 28 23 29 24 30 25 31 26 32
REMARK SMILES IDX 27 33 28 34 29 35 30 36 88 37 31 38 87 39 32 40 33 41 34 42
REMARK SMILES IDX 81 43 35 44 86 45 80 46 82 47 36 48 85 49 79 50 78 51 37 53
REMARK SMILES IDX 67 54 48 55 66 56 49 57 52 58 65 59 83 60 50 61 51 62 64 64
REMARK SMILES IDX 84 65 53 66 38 67 39 68 47 69 40 70 46 71 41 72 42 73 43 74
REMARK SMILES IDX 44 75 45 76 68 77 69 78 77 79 70 80 76 81 71 82 72 83 73 84
REMARK SMILES IDX 74 85 75 86 54 87 55 88 63 89 56 90 62 91 57 92 58 93 59 94
REMARK SMILES IDX 60 95 61 96
REMARK H PARENT 82 52 52 63
REMARK Flexibility Score: inf
ROOT
ATOM      1  C   UNL A   1      41.433  20.992  26.735  1.00  0.00     0.188 C 
ENDROOT
BRANCH   1   2
ATOM      2  O   UNL A   1      40.159  20.851  26.125  1.00  0.00    -0.377 OA
BRANCH   2   3
ATOM      3  C   UNL A   1      39.328  22.001  26.029  1.00  0.00     0.188 C 
BRANCH   3   4
ATOM      4  C   UNL A   1      37.807  21.933  25.751  1.00  0.00     0.188 C 
BRANCH   4   5
ATOM      5  O   UNL A   1      37.182  23.191  25.580  1.00  0.00    -0.376 OA
BRANCH   5   6
ATOM      6  C   UNL A   1      36.787  23.646  24.303  1.00  0.00     0.202 C 
BRANCH   6   7
ATOM      7  C   UNL A   1      36.020  22.692  23.376  1.00  0.00     0.261 C 
BRANCH   7   8
ATOM      8  O   UNL A   1      34.768  23.181  22.884  1.00  0.00    -0.460 OA
BRANCH   8   9
ATOM      9  C   UNL A   1      33.664  22.777  23.532  1.00  0.00     0.338 C 
ATOM     10  O   UNL A   1      33.191  21.652  23.515  1.00  0.00    -0.246 OA
BRANCH   9  11
ATOM     11  C   UNL A   1      33.191  23.855  24.424  1.00  0.00     0.087 C 
ATOM     12  C   UNL A   1      31.821  29.684  26.893  1.00  0.00     0.046 C 
ATOM     13  C   UNL A   1      31.909  28.426  26.072  1.00  0.00    -0.028 A 
ATOM     14  C   UNL A   1      32.555  27.312  26.624  1.00  0.00     0.052 A 
ATOM     15  C   UNL A   1      31.370  28.332  24.773  1.00  0.00     0.047 A 
ATOM     16  C   UNL A   1      32.731  26.149  25.879  1.00  0.00     0.128 A 
ATOM     17  C   UNL A   1      31.525  27.155  24.005  1.00  0.00    -0.021 A 
ATOM     18  Cl  UNL A   1      30.538  29.713  24.120  1.00  0.00    -0.084 Cl
ATOM     19  C   UNL A   1      32.240  26.066  24.571  1.00  0.00     0.022 A 
ATOM     20  O   UNL A   1      33.484  25.175  26.481  1.00  0.00    -0.475 OA
ATOM     21  C   UNL A   1      30.967  27.038  22.604  1.00  0.00     0.047 C 
ATOM     22  C   UNL A   1      32.598  24.881  23.798  1.00  0.00     0.027 C 
ATOM     23  C   UNL A   1      33.470  23.835  25.904  1.00  0.00     0.316 C 
BRANCH  23  24
ATOM     24  C   UNL A   1      32.566  22.945  26.787  1.00  0.00     0.430 C 
ATOM     25  F   UNL A   1      32.316  21.740  26.234  1.00  0.00    -0.167 F 
ATOM     26  F   UNL A   1      33.163  22.700  27.982  1.00  0.00    -0.167 F 
ATOM     27  F   UNL A   1      31.379  23.537  27.055  1.00  0.00    -0.167 F 
ENDBRANCH  23  24
ENDBRANCH   9  11
ENDBRANCH   8   9
ENDBRANCH   7   8
ENDBRANCH   6   7
ENDBRANCH   5   6
ENDBRANCH   4   5
ENDBRANCH   3   4
ENDBRANCH   2   3
ENDBRANCH   1   2
BRANCH   1  28
ATOM     28  C   UNL A   1      42.471  20.028  26.131  1.00  0.00     0.188 C 
BRANCH  28  29
ATOM     29  O   UNL A   1      43.274  20.628  25.128  1.00  0.00    -0.376 OA
BRANCH  29  30
ATOM     30  C   UNL A   1      44.600  21.033  25.437  1.00  0.00     0.202 C 
BRANCH  30  31
ATOM     31  C   UNL A   1      45.024  22.440  25.917  1.00  0.00     0.261 C 
BRANCH  31  32
ATOM     32  O   UNL A   1      44.092  23.247  26.644  1.00  0.00    -0.460 OA
BRANCH  32  33
ATOM     33  C   UNL A   1      43.305  24.099  25.960  1.00  0.00     0.338 C 
ATOM     34  O   UNL A   1      42.930  23.990  24.804  1.00  0.00    -0.246 OA
BRANCH  33  35
ATOM     35  C   UNL A   1      42.816  25.100  26.934  1.00  0.00     0.060 A 
ATOM     36  C   UNL A   1      43.317  26.408  26.885  1.00  0.00     0.016 A 
ATOM     37  C   UNL A   1      41.834  24.757  27.868  1.00  0.00     0.016 A 
ATOM     38  C   UNL A   1      42.855  27.369  27.785  1.00  0.00     0.010 A 
ATOM     39  C   UNL A   1      41.394  25.713  28.789  1.00  0.00     0.010 A 
ATOM     40  C   UNL A   1      41.925  27.015  28.769  1.00  0.00    -0.014 A 
BRANCH  40  41
ATOM     41  C   UNL A   1      41.667  27.942  29.898  1.00  0.00     0.031 A 
ATOM     42  C   UNL A   1      42.590  27.882  31.086  1.00  0.00     0.074 A 
ATOM     43  C   UNL A   1      40.674  28.849  29.854  1.00  0.00     0.049 A 
ATOM     44  N   UNL A   1      42.560  28.578  32.192  1.00  0.00    -0.248 NA
ATOM     45  C   UNL A   1      43.698  26.913  31.012  1.00  0.00     0.031 C 
ATOM     46  C   UNL A   1      39.756  29.047  28.732  1.00  0.00     0.029 A 
ATOM     47  N   UNL A   1      40.276  29.779  30.782  1.00  0.00    -0.354 N 
ATOM     48  C   UNL A   1      43.644  28.135  32.942  1.00  0.00     0.074 A 
ATOM     49  C   UNL A   1      44.290  27.087  32.184  1.00  0.00     0.031 C 
ATOM     50  C   UNL A   1      38.905  30.043  29.038  1.00  0.00     0.029 A 
ATOM     51  C   UNL A   1      39.192  30.528  30.388  1.00  0.00     0.049 A 
ATOM     52  H   UNL A   1      40.726  29.900  31.650  1.00  0.00     0.167 HD
ATOM     53  C   UNL A   1      44.073  28.573  34.148  1.00  0.00     0.031 A 
ATOM     54  C   UNL A   1      38.503  31.482  31.048  1.00  0.00     0.031 A 
ATOM     55  C   UNL A   1      43.421  29.604  34.908  1.00  0.00     0.049 A 
ATOM     56  C   UNL A   1      38.934  31.872  32.440  1.00  0.00     0.074 A 
ATOM     57  C   UNL A   1      43.772  30.108  36.147  1.00  0.00     0.029 A 
ATOM     58  N   UNL A   1      42.283  30.286  34.503  1.00  0.00    -0.354 N 
ATOM     59  N   UNL A   1      39.963  31.447  33.136  1.00  0.00    -0.248 NA
ATOM     60  C   UNL A   1      38.113  32.875  33.137  1.00  0.00     0.031 C 
ATOM     61  C   UNL A   1      42.813  31.053  36.520  1.00  0.00     0.029 A 
ATOM     62  C   UNL A   1      41.906  31.189  35.481  1.00  0.00     0.049 A 
ATOM     63  H   UNL A   1      41.816  30.148  33.648  1.00  0.00     0.167 HD
ATOM     64  C   UNL A   1      39.930  32.154  34.335  1.00  0.00     0.074 A 
ATOM     65  C   UNL A   1      38.789  33.041  34.266  1.00  0.00     0.031 C 
ATOM     66  C   UNL A   1      40.771  32.074  35.395  1.00  0.00     0.031 A 
BRANCH  53  67
ATOM     67  C   UNL A   1      45.302  27.930  34.733  1.00  0.00    -0.014 A 
ATOM     68  C   UNL A   1      46.579  28.472  34.505  1.00  0.00     0.010 A 
ATOM     69  C   UNL A   1      45.170  26.816  35.582  1.00  0.00     0.010 A 
ATOM     70  C   UNL A   1      47.705  27.903  35.106  1.00  0.00     0.020 A 
ATOM     71  C   UNL A   1      46.291  26.262  36.207  1.00  0.00     0.020 A 
ATOM     72  C   UNL A   1      47.553  26.806  35.959  1.00  0.00     0.054 A 
BRANCH  72  73
ATOM     73  S   UNL A   1      49.028  26.130  36.770  1.00  0.00     0.124 S 
ATOM     74  O   UNL A   1      49.392  27.210  37.684  1.00  0.00    -0.237 OA
ATOM     75  O   UNL A   1      48.514  24.918  37.402  1.00  0.00    -0.237 OA
ATOM     76  O   UNL A   1      49.961  25.910  35.667  1.00  0.00    -0.744 OA
ENDBRANCH  72  73
ENDBRANCH  53  67
BRANCH  54  77
ATOM     77  C   UNL A   1      37.327  32.137  30.407  1.00  0.00    -0.014 A 
ATOM     78  C   UNL A   1      37.492  33.285  29.612  1.00  0.00     0.010 A 
ATOM     79  C   UNL A   1      36.030  31.625  30.602  1.00  0.00     0.010 A 
ATOM     80  C   UNL A   1      36.384  33.915  29.036  1.00  0.00     0.020 A 
ATOM     81  C   UNL A   1      34.924  32.234  30.003  1.00  0.00     0.020 A 
ATOM     82  C   UNL A   1      35.107  33.382  29.231  1.00  0.00     0.054 A 
BRANCH  82  83
ATOM     83  S   UNL A   1      33.692  34.193  28.435  1.00  0.00     0.124 S 
ATOM     84  O   UNL A   1      34.342  35.229  27.638  1.00  0.00    -0.237 OA
ATOM     85  O   UNL A   1      33.090  33.096  27.680  1.00  0.00    -0.237 OA
ATOM     86  O   UNL A   1      32.895  34.676  29.560  1.00  0.00    -0.744 OA
ENDBRANCH  82  83
ENDBRANCH  54  77
BRANCH  66  87
ATOM     87  C   UNL A   1      40.524  32.992  36.565  1.00  0.00    -0.014 A 
ATOM     88  C   UNL A   1      41.228  34.201  36.705  1.00  0.00     0.010 A 
ATOM     89  C   UNL A   1      39.501  32.686  37.483  1.00  0.00     0.010 A 
ATOM     90  C   UNL A   1      40.924  35.078  37.751  1.00  0.00     0.020 A 
ATOM     91  C   UNL A   1      39.173  33.573  38.510  1.00  0.00     0.020 A 
ATOM     92  C   UNL A   1      39.893  34.762  38.642  1.00  0.00     0.054 A 
BRANCH  92  93
ATOM     93  S   UNL A   1      39.478  35.950  39.948  1.00  0.00     0.124 S 
ATOM     94  O   UNL A   1      40.775  36.163  40.588  1.00  0.00    -0.237 OA
ATOM     95  O   UNL A   1      38.956  37.085  39.191  1.00  0.00    -0.237 OA
ATOM     96  O   UNL A   1      38.493  35.243  40.762  1.00  0.00    -0.744 OA
ENDBRANCH  92  93
ENDBRANCH  66  87
ENDBRANCH  40  41
ENDBRANCH  33  35
ENDBRANCH  32  33
ENDBRANCH  31  32
ENDBRANCH  30  31
ENDBRANCH  29  30
ENDBRANCH  28  29
ENDBRANCH   1  28
TORSDOF 24
ENDMDL
