MODEL 1
REMARK VINA RESULT:      -6.6      0.000      0.000
REMARK SMILES C[C@@H](C(=O)OCCOCCOCCOCCOC(=O)c1ccc(-c2c3nc(c(-c4ccc(S(=O)(=O)[O-])cc4)c4ccc([nH]4)c(-c4ccc(S(=O)(=O)[O-])cc4)c4nc(c(-c5ccc(S(=O)(=O)[O-])cc5)c5ccc2[nH]5)C=C4)C=C3)cc1)c1ccc(-c2cccc(OC(=O)NCCCc3ccccc3)c2)c(F)c1
REMARK SMILES IDX 9 1 8 2 7 3 6 4 5 5 3 6 4 7 2 8 1 9 80 10 81 11 105 12 82 13
REMARK SMILES IDX 103 14 83 15 104 16 84 17 85 18 102 19 86 20 88 21 87 22
REMARK SMILES IDX 89 23 90 24 91 25 92 26 93 28 94 29 95 30 96 31 97 32 101 33
REMARK SMILES IDX 98 34 100 35 99 36 10 37 11 38 12 39 13 40 14 41 15 42 16 43
REMARK SMILES IDX 17 44 18 45 19 46 20 47 21 48 79 49 22 50 78 51 23 52 24 53
REMARK SMILES IDX 25 54 72 55 26 56 77 57 71 58 73 59 27 60 76 61 70 62 69 63
REMARK SMILES IDX 28 65 58 66 39 67 57 68 40 69 43 70 56 71 74 72 41 73 42 74
REMARK SMILES IDX 55 76 75 77 44 78 29 79 30 80 38 81 31 82 37 83 32 84 33 85
REMARK SMILES IDX 34 86 35 87 36 88 59 89 60 90 68 91 61 92 67 93 62 94 63 95
REMARK SMILES IDX 64 96 65 97 66 98 45 99 46 100 54 101 47 102 53 103 48 104
REMARK SMILES IDX 49 105 50 106 51 107 52 108
REMARK H PARENT 92 27 73 64 43 75
REMARK Flexibility Score: inf
ROOT
ATOM      1  C   UNL A   1      41.319  28.957  29.867  1.00  0.00     0.188 C 
ENDROOT
BRANCH   1   2
ATOM      2  O   UNL A   1      41.526  29.507  31.146  1.00  0.00    -0.376 OA
BRANCH   2   3
ATOM      3  C   UNL A   1      42.013  28.690  32.195  1.00  0.00     0.202 C 
BRANCH   3   4
ATOM      4  C   UNL A   1      42.930  29.122  33.366  1.00  0.00     0.261 C 
BRANCH   4   5
ATOM      5  O   UNL A   1      44.309  29.445  33.128  1.00  0.00    -0.463 OA
BRANCH   5   6
ATOM      6  C   UNL A   1      45.240  28.788  33.867  1.00  0.00     0.313 C 
ATOM      7  O   UNL A   1      45.325  28.880  35.088  1.00  0.00    -0.252 OA
BRANCH   6   8
ATOM      8  C   UNL A   1      46.185  27.894  33.035  1.00  0.00     0.126 C 
ATOM      9  C   UNL A   1      47.601  28.412  32.747  1.00  0.00     0.025 C 
BRANCH   8  10
ATOM     10  C   UNL A   1      45.513  27.385  31.758  1.00  0.00    -0.031 A 
ATOM     11  C   UNL A   1      44.668  26.271  31.784  1.00  0.00     0.005 A 
ATOM     12  C   UNL A   1      45.702  28.015  30.526  1.00  0.00     0.044 A 
ATOM     13  C   UNL A   1      43.999  25.850  30.621  1.00  0.00     0.012 A 
ATOM     14  C   UNL A   1      45.027  27.614  29.384  1.00  0.00     0.131 A 
ATOM     15  C   UNL A   1      44.157  26.528  29.402  1.00  0.00     0.018 A 
ATOM     16  F   UNL A   1      45.234  28.315  28.256  1.00  0.00    -0.206 F 
BRANCH  15  17
ATOM     17  C   UNL A   1      43.476  26.108  28.175  1.00  0.00    -0.012 A 
ATOM     18  C   UNL A   1      43.878  26.567  26.912  1.00  0.00     0.009 A 
ATOM     19  C   UNL A   1      42.415  25.189  28.248  1.00  0.00     0.056 A 
ATOM     20  C   UNL A   1      43.231  26.128  25.754  1.00  0.00     0.004 A 
ATOM     21  C   UNL A   1      41.772  24.755  27.098  1.00  0.00     0.133 A 
ATOM     22  C   UNL A   1      42.174  25.222  25.847  1.00  0.00     0.047 A 
BRANCH  21  23
ATOM     23  O   UNL A   1      40.707  23.824  27.090  1.00  0.00    -0.410 OA
BRANCH  23  24
ATOM     24  C   UNL A   1      39.351  24.116  26.971  1.00  0.00     0.412 C 
ATOM     25  O   UNL A   1      38.809  25.201  27.174  1.00  0.00    -0.224 OA
ATOM     26  N   UNL A   1      38.608  23.048  26.562  1.00  0.00    -0.321 N 
ATOM     27  H   UNL A   1      37.630  23.155  26.553  1.00  0.00     0.167 HD
BRANCH  26  28
ATOM     28  C   UNL A   1      39.141  21.774  26.144  1.00  0.00     0.120 C 
BRANCH  28  29
ATOM     29  C   UNL A   1      38.165  20.923  25.332  1.00  0.00     0.026 C 
BRANCH  29  30
ATOM     30  C   UNL A   1      37.184  21.635  24.393  1.00  0.00     0.037 C 
BRANCH  30  31
ATOM     31  C   UNL A   1      36.057  22.479  24.945  1.00  0.00    -0.048 A 
ATOM     32  C   UNL A   1      35.886  23.844  24.696  1.00  0.00     0.004 A 
ATOM     33  C   UNL A   1      35.157  21.857  25.828  1.00  0.00     0.004 A 
ATOM     34  C   UNL A   1      34.864  24.567  25.321  1.00  0.00     0.000 A 
ATOM     35  C   UNL A   1      34.128  22.574  26.443  1.00  0.00     0.000 A 
ATOM     36  C   UNL A   1      33.988  23.934  26.194  1.00  0.00     0.000 A 
ENDBRANCH  30  31
ENDBRANCH  29  30
ENDBRANCH  28  29
ENDBRANCH  26  28
ENDBRANCH  23  24
ENDBRANCH  21  23
ENDBRANCH  15  17
ENDBRANCH   8  10
ENDBRANCH   6   8
ENDBRANCH   5   6
ENDBRANCH   4   5
ENDBRANCH   3   4
ENDBRANCH   2   3
ENDBRANCH   1   2
BRANCH   1  37
ATOM     37  C   UNL A   1      40.381  27.738  29.813  1.00  0.00     0.188 C 
BRANCH  37  38
ATOM     38  O   UNL A   1      39.210  27.907  29.043  1.00  0.00    -0.377 OA
BRANCH  38  39
ATOM     39  C   UNL A   1      38.247  28.850  29.492  1.00  0.00     0.188 C 
BRANCH  39  40
ATOM     40  C   UNL A   1      37.148  29.388  28.547  1.00  0.00     0.188 C 
BRANCH  40  41
ATOM     41  O   UNL A   1      36.583  30.635  28.924  1.00  0.00    -0.376 OA
BRANCH  41  42
ATOM     42  C   UNL A   1      36.232  31.564  27.911  1.00  0.00     0.202 C 
BRANCH  42  43
ATOM     43  C   UNL A   1      34.800  32.120  27.917  1.00  0.00     0.261 C 
BRANCH  43  44
ATOM     44  O   UNL A   1      34.148  32.200  29.192  1.00  0.00    -0.460 OA
BRANCH  44  45
ATOM     45  C   UNL A   1      34.109  33.401  29.811  1.00  0.00     0.338 C 
ATOM     46  O   UNL A   1      33.286  34.281  29.657  1.00  0.00    -0.246 OA
BRANCH  45  47
ATOM     47  C   UNL A   1      35.132  33.375  30.880  1.00  0.00     0.060 A 
ATOM     48  C   UNL A   1      35.805  34.560  31.209  1.00  0.00     0.016 A 
ATOM     49  C   UNL A   1      35.399  32.193  31.575  1.00  0.00     0.016 A 
ATOM     50  C   UNL A   1      36.770  34.559  32.215  1.00  0.00     0.010 A 
ATOM     51  C   UNL A   1      36.387  32.187  32.562  1.00  0.00     0.010 A 
ATOM     52  C   UNL A   1      37.100  33.361  32.861  1.00  0.00    -0.014 A 
BRANCH  52  53
ATOM     53  C   UNL A   1      38.338  33.286  33.673  1.00  0.00     0.031 A 
ATOM     54  C   UNL A   1      39.650  33.175  32.944  1.00  0.00     0.074 A 
ATOM     55  C   UNL A   1      38.305  33.335  35.016  1.00  0.00     0.049 A 
ATOM     56  N   UNL A   1      40.858  33.048  33.426  1.00  0.00    -0.248 NA
ATOM     57  C   UNL A   1      39.588  33.210  31.473  1.00  0.00     0.031 C 
ATOM     58  C   UNL A   1      37.103  33.503  35.831  1.00  0.00     0.029 A 
ATOM     59  N   UNL A   1      39.324  33.247  35.932  1.00  0.00    -0.354 N 
ATOM     60  C   UNL A   1      41.697  32.969  32.320  1.00  0.00     0.074 A 
ATOM     61  C   UNL A   1      40.859  33.038  31.144  1.00  0.00     0.031 C 
ATOM     62  C   UNL A   1      37.454  33.496  37.130  1.00  0.00     0.029 A 
ATOM     63  C   UNL A   1      38.897  33.286  37.239  1.00  0.00     0.049 A 
ATOM     64  H   UNL A   1      40.271  33.162  35.677  1.00  0.00     0.167 HD
ATOM     65  C   UNL A   1      43.045  32.852  32.287  1.00  0.00     0.031 A 
ATOM     66  C   UNL A   1      39.591  33.145  38.385  1.00  0.00     0.031 A 
ATOM     67  C   UNL A   1      43.870  32.769  33.461  1.00  0.00     0.049 A 
ATOM     68  C   UNL A   1      41.083  32.928  38.322  1.00  0.00     0.074 A 
ATOM     69  C   UNL A   1      45.248  32.666  33.536  1.00  0.00     0.029 A 
ATOM     70  N   UNL A   1      43.396  32.767  34.764  1.00  0.00    -0.354 N 
ATOM     71  N   UNL A   1      41.867  32.881  37.270  1.00  0.00    -0.248 NA
ATOM     72  C   UNL A   1      41.784  32.751  39.602  1.00  0.00     0.031 C 
ATOM     73  C   UNL A   1      45.600  32.528  34.882  1.00  0.00     0.029 A 
ATOM     74  C   UNL A   1      44.450  32.627  35.650  1.00  0.00     0.049 A 
ATOM     75  H   UNL A   1      42.450  32.852  35.021  1.00  0.00     0.167 HD
ATOM     76  C   UNL A   1      43.157  32.706  37.765  1.00  0.00     0.074 A 
ATOM     77  C   UNL A   1      43.047  32.667  39.208  1.00  0.00     0.031 C 
ATOM     78  C   UNL A   1      44.326  32.592  37.086  1.00  0.00     0.031 A 
BRANCH  65  79
ATOM     79  C   UNL A   1      43.703  32.755  30.935  1.00  0.00    -0.014 A 
ATOM     80  C   UNL A   1      44.023  33.903  30.188  1.00  0.00     0.010 A 
ATOM     81  C   UNL A   1      44.037  31.490  30.420  1.00  0.00     0.010 A 
ATOM     82  C   UNL A   1      44.631  33.785  28.935  1.00  0.00     0.020 A 
ATOM     83  C   UNL A   1      44.674  31.368  29.182  1.00  0.00     0.020 A 
ATOM     84  C   UNL A   1      44.952  32.517  28.440  1.00  0.00     0.054 A 
BRANCH  84  85
ATOM     85  S   UNL A   1      45.767  32.394  26.824  1.00  0.00     0.124 S 
ATOM     86  O   UNL A   1      44.843  31.537  26.085  1.00  0.00    -0.237 OA
ATOM     87  O   UNL A   1      45.817  33.787  26.387  1.00  0.00    -0.237 OA
ATOM     88  O   UNL A   1      47.062  31.794  27.132  1.00  0.00    -0.744 OA
ENDBRANCH  84  85
ENDBRANCH  65  79
BRANCH  66  89
ATOM     89  C   UNL A   1      38.885  33.185  39.698  1.00  0.00    -0.014 A 
ATOM     90  C   UNL A   1      39.016  34.294  40.551  1.00  0.00     0.010 A 
ATOM     91  C   UNL A   1      38.082  32.102  40.106  1.00  0.00     0.010 A 
ATOM     92  C   UNL A   1      38.372  34.315  41.792  1.00  0.00     0.020 A 
ATOM     93  C   UNL A   1      37.410  32.133  41.332  1.00  0.00     0.020 A 
ATOM     94  C   UNL A   1      37.568  33.236  42.172  1.00  0.00     0.054 A 
BRANCH  94  95
ATOM     95  S   UNL A   1      36.700  33.310  43.764  1.00  0.00     0.124 S 
ATOM     96  O   UNL A   1      35.851  34.485  43.593  1.00  0.00    -0.237 OA
ATOM     97  O   UNL A   1      36.004  32.026  43.801  1.00  0.00    -0.237 OA
ATOM     98  O   UNL A   1      37.781  33.453  44.736  1.00  0.00    -0.744 OA
ENDBRANCH  94  95
ENDBRANCH  66  89
BRANCH  78  99
ATOM     99  C   UNL A   1      45.594  32.461  37.892  1.00  0.00    -0.014 A 
ATOM    100  C   UNL A   1      46.141  31.205  38.206  1.00  0.00     0.010 A 
ATOM    101  C   UNL A   1      46.283  33.625  38.287  1.00  0.00     0.010 A 
ATOM    102  C   UNL A   1      47.335  31.114  38.929  1.00  0.00     0.020 A 
ATOM    103  C   UNL A   1      47.493  33.539  38.978  1.00  0.00     0.020 A 
ATOM    104  C   UNL A   1      48.004  32.283  39.308  1.00  0.00     0.054 A 
BRANCH 104 105
ATOM    105  S   UNL A   1      49.574  32.136  40.205  1.00  0.00     0.124 S 
ATOM    106  O   UNL A   1      49.246  32.742  41.493  1.00  0.00    -0.237 OA
ATOM    107  O   UNL A   1      49.795  30.693  40.227  1.00  0.00    -0.237 OA
ATOM    108  O   UNL A   1      50.516  32.894  39.385  1.00  0.00    -0.744 OA
ENDBRANCH 104 105
ENDBRANCH  78  99
ENDBRANCH  52  53
ENDBRANCH  45  47
ENDBRANCH  44  45
ENDBRANCH  43  44
ENDBRANCH  42  43
ENDBRANCH  41  42
ENDBRANCH  40  41
ENDBRANCH  39  40
ENDBRANCH  38  39
ENDBRANCH  37  38
ENDBRANCH   1  37
TORSDOF 31
ENDMDL
MODEL 2
REMARK VINA RESULT:      -6.2      5.828      8.131
REMARK SMILES C[C@@H](C(=O)OCCOCCOCCOCCOC(=O)c1ccc(-c2c3nc(c(-c4ccc(S(=O)(=O)[O-])cc4)c4ccc([nH]4)c(-c4ccc(S(=O)(=O)[O-])cc4)c4nc(c(-c5ccc(S(=O)(=O)[O-])cc5)c5ccc2[nH]5)C=C4)C=C3)cc1)c1ccc(-c2cccc(OC(=O)NCCCc3ccccc3)c2)c(F)c1
REMARK SMILES IDX 9 1 8 2 7 3 6 4 5 5 3 6 4 7 2 8 1 9 80 10 81 11 105 12 82 13
REMARK SMILES IDX 103 14 83 15 104 16 84 17 85 18 102 19 86 20 88 21 87 22
REMARK SMILES IDX 89 23 90 24 91 25 92 26 93 28 94 29 95 30 96 31 97 32 101 33
REMARK SMILES IDX 98 34 100 35 99 36 10 37 11 38 12 39 13 40 14 41 15 42 16 43
REMARK SMILES IDX 17 44 18 45 19 46 20 47 21 48 79 49 22 50 78 51 23 52 24 53
REMARK SMILES IDX 25 54 72 55 26 56 77 57 71 58 73 59 27 60 76 61 70 62 69 63
REMARK SMILES IDX 28 65 58 66 39 67 57 68 40 69 43 70 56 71 74 72 41 73 42 74
REMARK SMILES IDX 55 76 75 77 44 78 29 79 30 80 38 81 31 82 37 83 32 84 33 85
REMARK SMILES IDX 34 86 35 87 36 88 59 89 60 90 68 91 61 92 67 93 62 94 63 95
REMARK SMILES IDX 64 96 65 97 66 98 45 99 46 100 54 101 47 102 53 103 48 104
REMARK SMILES IDX 49 105 50 106 51 107 52 108
REMARK H PARENT 92 27 73 64 43 75
REMARK Flexibility Score: inf
ROOT
ATOM      1  C   UNL A   1      40.884  28.803  29.366  1.00  0.00     0.188 C 
ENDROOT
BRANCH   1   2
ATOM      2  O   UNL A   1      41.109  29.811  30.321  1.00  0.00    -0.376 OA
BRANCH   2   3
ATOM      3  C   UNL A   1      40.932  29.529  31.698  1.00  0.00     0.202 C 
BRANCH   3   4
ATOM      4  C   UNL A   1      42.039  29.386  32.772  1.00  0.00     0.261 C 
BRANCH   4   5
ATOM      5  O   UNL A   1      42.628  28.104  33.040  1.00  0.00    -0.463 OA
BRANCH   5   6
ATOM      6  C   UNL A   1      42.561  27.641  34.316  1.00  0.00     0.313 C 
ATOM      7  O   UNL A   1      41.512  27.318  34.865  1.00  0.00    -0.252 OA
BRANCH   6   8
ATOM      8  C   UNL A   1      43.931  27.543  35.021  1.00  0.00     0.126 C 
ATOM      9  C   UNL A   1      45.097  28.362  34.452  1.00  0.00     0.025 C 
BRANCH   8  10
ATOM     10  C   UNL A   1      44.345  26.090  35.264  1.00  0.00    -0.031 A 
ATOM     11  C   UNL A   1      45.116  25.737  36.376  1.00  0.00     0.005 A 
ATOM     12  C   UNL A   1      43.961  25.061  34.400  1.00  0.00     0.044 A 
ATOM     13  C   UNL A   1      45.434  24.392  36.632  1.00  0.00     0.012 A 
ATOM     14  C   UNL A   1      44.257  23.733  34.663  1.00  0.00     0.131 A 
ATOM     15  C   UNL A   1      44.994  23.363  35.784  1.00  0.00     0.018 A 
ATOM     16  F   UNL A   1      43.800  22.808  33.801  1.00  0.00    -0.206 F 
BRANCH  15  17
ATOM     17  C   UNL A   1      45.316  21.953  36.024  1.00  0.00    -0.012 A 
ATOM     18  C   UNL A   1      45.359  21.018  34.980  1.00  0.00     0.009 A 
ATOM     19  C   UNL A   1      45.629  21.524  37.325  1.00  0.00     0.056 A 
ATOM     20  C   UNL A   1      45.698  19.686  35.231  1.00  0.00     0.004 A 
ATOM     21  C   UNL A   1      45.964  20.200  37.573  1.00  0.00     0.133 A 
ATOM     22  C   UNL A   1      45.998  19.275  36.530  1.00  0.00     0.047 A 
BRANCH  21  23
ATOM     23  O   UNL A   1      46.303  19.697  38.850  1.00  0.00    -0.410 OA
BRANCH  23  24
ATOM     24  C   UNL A   1      47.542  19.791  39.476  1.00  0.00     0.412 C 
ATOM     25  O   UNL A   1      48.423  20.618  39.249  1.00  0.00    -0.224 OA
ATOM     26  N   UNL A   1      47.725  18.848  40.445  1.00  0.00    -0.321 N 
ATOM     27  H   UNL A   1      48.615  18.793  40.860  1.00  0.00     0.167 HD
BRANCH  26  28
ATOM     28  C   UNL A   1      46.717  17.927  40.911  1.00  0.00     0.120 C 
BRANCH  28  29
ATOM     29  C   UNL A   1      46.944  17.417  42.333  1.00  0.00     0.026 C 
BRANCH  29  30
ATOM     30  C   UNL A   1      46.850  15.908  42.590  1.00  0.00     0.037 C 
BRANCH  30  31
ATOM     31  C   UNL A   1      46.881  15.358  43.998  1.00  0.00    -0.048 A 
ATOM     32  C   UNL A   1      47.223  16.097  45.135  1.00  0.00     0.004 A 
ATOM     33  C   UNL A   1      46.611  13.988  44.164  1.00  0.00     0.004 A 
ATOM     34  C   UNL A   1      47.313  15.486  46.391  1.00  0.00     0.000 A 
ATOM     35  C   UNL A   1      46.687  13.379  45.419  1.00  0.00     0.000 A 
ATOM     36  C   UNL A   1      47.047  14.129  46.533  1.00  0.00     0.000 A 
ENDBRANCH  30  31
ENDBRANCH  29  30
ENDBRANCH  28  29
ENDBRANCH  26  28
ENDBRANCH  23  24
ENDBRANCH  21  23
ENDBRANCH  15  17
ENDBRANCH   8  10
ENDBRANCH   6   8
ENDBRANCH   5   6
ENDBRANCH   4   5
ENDBRANCH   3   4
ENDBRANCH   2   3
ENDBRANCH   1   2
BRANCH   1  37
ATOM     37  C   UNL A   1      39.906  27.692  29.790  1.00  0.00     0.188 C 
BRANCH  37  38
ATOM     38  O   UNL A   1      38.609  27.784  29.241  1.00  0.00    -0.377 OA
BRANCH  38  39
ATOM     39  C   UNL A   1      37.804  28.893  29.616  1.00  0.00     0.188 C 
BRANCH  39  40
ATOM     40  C   UNL A   1      36.508  29.240  28.848  1.00  0.00     0.188 C 
BRANCH  40  41
ATOM     41  O   UNL A   1      36.086  30.592  28.954  1.00  0.00    -0.376 OA
BRANCH  41  42
ATOM     42  C   UNL A   1      35.808  31.320  27.769  1.00  0.00     0.202 C 
BRANCH  42  43
ATOM     43  C   UNL A   1      34.343  31.680  27.477  1.00  0.00     0.261 C 
BRANCH  43  44
ATOM     44  O   UNL A   1      33.557  32.121  28.593  1.00  0.00    -0.460 OA
BRANCH  44  45
ATOM     45  C   UNL A   1      33.666  33.414  28.973  1.00  0.00     0.338 C 
ATOM     46  O   UNL A   1      32.925  34.331  28.680  1.00  0.00    -0.246 OA
BRANCH  45  47
ATOM     47  C   UNL A   1      34.733  33.480  29.996  1.00  0.00     0.060 A 
ATOM     48  C   UNL A   1      35.766  34.416  29.844  1.00  0.00     0.016 A 
ATOM     49  C   UNL A   1      34.694  32.645  31.114  1.00  0.00     0.016 A 
ATOM     50  C   UNL A   1      36.780  34.499  30.797  1.00  0.00     0.010 A 
ATOM     51  C   UNL A   1      35.726  32.708  32.053  1.00  0.00     0.010 A 
ATOM     52  C   UNL A   1      36.791  33.610  31.879  1.00  0.00    -0.014 A 
BRANCH  52  53
ATOM     53  C   UNL A   1      38.021  33.465  32.693  1.00  0.00     0.031 A 
ATOM     54  C   UNL A   1      39.332  33.326  31.967  1.00  0.00     0.074 A 
ATOM     55  C   UNL A   1      37.983  33.477  34.037  1.00  0.00     0.049 A 
ATOM     56  N   UNL A   1      40.532  33.141  32.450  1.00  0.00    -0.248 NA
ATOM     57  C   UNL A   1      39.279  33.406  30.497  1.00  0.00     0.031 C 
ATOM     58  C   UNL A   1      36.784  33.665  34.852  1.00  0.00     0.029 A 
ATOM     59  N   UNL A   1      38.994  33.324  34.954  1.00  0.00    -0.354 N 
ATOM     60  C   UNL A   1      41.372  33.063  31.345  1.00  0.00     0.074 A 
ATOM     61  C   UNL A   1      40.543  33.197  30.169  1.00  0.00     0.031 C 
ATOM     62  C   UNL A   1      37.128  33.608  36.151  1.00  0.00     0.029 A 
ATOM     63  C   UNL A   1      38.562  33.342  36.260  1.00  0.00     0.049 A 
ATOM     64  H   UNL A   1      39.938  33.211  34.700  1.00  0.00     0.167 HD
ATOM     65  C   UNL A   1      42.715  32.897  31.313  1.00  0.00     0.031 A 
ATOM     66  C   UNL A   1      39.245  33.141  37.405  1.00  0.00     0.031 A 
ATOM     67  C   UNL A   1      43.531  32.749  32.488  1.00  0.00     0.049 A 
ATOM     68  C   UNL A   1      40.727  32.872  37.340  1.00  0.00     0.074 A 
ATOM     69  C   UNL A   1      44.904  32.593  32.566  1.00  0.00     0.029 A 
ATOM     70  N   UNL A   1      43.051  32.727  33.789  1.00  0.00    -0.354 N 
ATOM     71  N   UNL A   1      41.514  32.825  36.291  1.00  0.00    -0.248 NA
ATOM     72  C   UNL A   1      41.415  32.632  38.618  1.00  0.00     0.031 C 
ATOM     73  C   UNL A   1      45.244  32.403  33.908  1.00  0.00     0.029 A 
ATOM     74  C   UNL A   1      44.095  32.523  34.675  1.00  0.00     0.049 A 
ATOM     75  H   UNL A   1      42.107  32.840  34.044  1.00  0.00     0.167 HD
ATOM     76  C   UNL A   1      42.795  32.588  36.785  1.00  0.00     0.074 A 
ATOM     77  C   UNL A   1      42.677  32.512  38.227  1.00  0.00     0.031 C 
ATOM     78  C   UNL A   1      43.962  32.451  36.108  1.00  0.00     0.031 A 
BRANCH  65  79
ATOM     79  C   UNL A   1      43.377  32.815  29.962  1.00  0.00    -0.014 A 
ATOM     80  C   UNL A   1      43.619  31.579  29.335  1.00  0.00     0.010 A 
ATOM     81  C   UNL A   1      43.732  34.001  29.295  1.00  0.00     0.010 A 
ATOM     82  C   UNL A   1      44.237  31.532  28.082  1.00  0.00     0.020 A 
ATOM     83  C   UNL A   1      44.320  33.960  28.028  1.00  0.00     0.020 A 
ATOM     84  C   UNL A   1      44.584  32.724  27.437  1.00  0.00     0.054 A 
BRANCH  84  85
ATOM     85  S   UNL A   1      45.358  32.632  25.799  1.00  0.00     0.124 S 
ATOM     86  O   UNL A   1      45.895  31.273  25.796  1.00  0.00    -0.237 OA
ATOM     87  O   UNL A   1      44.231  32.865  24.901  1.00  0.00    -0.237 OA
ATOM     88  O   UNL A   1      46.358  33.696  25.828  1.00  0.00    -0.744 OA
ENDBRANCH  84  85
ENDBRANCH  65  79
BRANCH  66  89
ATOM     89  C   UNL A   1      38.534  33.170  38.715  1.00  0.00    -0.014 A 
ATOM     90  C   UNL A   1      38.621  34.292  39.556  1.00  0.00     0.010 A 
ATOM     91  C   UNL A   1      37.770  32.063  39.133  1.00  0.00     0.010 A 
ATOM     92  C   UNL A   1      37.973  34.303  40.795  1.00  0.00     0.020 A 
ATOM     93  C   UNL A   1      37.095  32.082  40.357  1.00  0.00     0.020 A 
ATOM     94  C   UNL A   1      37.210  33.199  41.185  1.00  0.00     0.054 A 
BRANCH  94  95
ATOM     95  S   UNL A   1      36.335  33.259  42.775  1.00  0.00     0.124 S 
ATOM     96  O   UNL A   1      36.089  31.845  43.040  1.00  0.00    -0.237 OA
ATOM     97  O   UNL A   1      37.313  33.907  43.646  1.00  0.00    -0.237 OA
ATOM     98  O   UNL A   1      35.147  34.057  42.481  1.00  0.00    -0.744 OA
ENDBRANCH  94  95
ENDBRANCH  66  89
BRANCH  78  99
ATOM     99  C   UNL A   1      45.220  32.250  36.915  1.00  0.00    -0.014 A 
ATOM    100  C   UNL A   1      45.971  33.338  37.393  1.00  0.00     0.010 A 
ATOM    101  C   UNL A   1      45.622  30.942  37.253  1.00  0.00     0.010 A 
ATOM    102  C   UNL A   1      47.117  33.123  38.165  1.00  0.00     0.020 A 
ATOM    103  C   UNL A   1      46.745  30.724  38.052  1.00  0.00     0.020 A 
ATOM    104  C   UNL A   1      47.495  31.816  38.491  1.00  0.00     0.054 A 
BRANCH 104 105
ATOM    105  S   UNL A   1      48.960  31.566  39.531  1.00  0.00     0.124 S 
ATOM    106  O   UNL A   1      48.921  32.741  40.398  1.00  0.00    -0.237 OA
ATOM    107  O   UNL A   1      48.674  30.293  40.186  1.00  0.00    -0.237 OA
ATOM    108  O   UNL A   1      50.064  31.536  38.575  1.00  0.00    -0.744 OA
ENDBRANCH 104 105
ENDBRANCH  78  99
ENDBRANCH  52  53
ENDBRANCH  45  47
ENDBRANCH  44  45
ENDBRANCH  43  44
ENDBRANCH  42  43
ENDBRANCH  41  42
ENDBRANCH  40  41
ENDBRANCH  39  40
ENDBRANCH  38  39
ENDBRANCH  37  38
ENDBRANCH   1  37
TORSDOF 31
ENDMDL
MODEL 3
REMARK VINA RESULT:      -6.1      4.791     11.809
REMARK SMILES C[C@@H](C(=O)OCCOCCOCCOCCOC(=O)c1ccc(-c2c3nc(c(-c4ccc(S(=O)(=O)[O-])cc4)c4ccc([nH]4)c(-c4ccc(S(=O)(=O)[O-])cc4)c4nc(c(-c5ccc(S(=O)(=O)[O-])cc5)c5ccc2[nH]5)C=C4)C=C3)cc1)c1ccc(-c2cccc(OC(=O)NCCCc3ccccc3)c2)c(F)c1
REMARK SMILES IDX 9 1 8 2 7 3 6 4 5 5 3 6 4 7 2 8 1 9 80 10 81 11 105 12 82 13
REMARK SMILES IDX 103 14 83 15 104 16 84 17 85 18 102 19 86 20 88 21 87 22
REMARK SMILES IDX 89 23 90 24 91 25 92 26 93 28 94 29 95 30 96 31 97 32 101 33
REMARK SMILES IDX 98 34 100 35 99 36 10 37 11 38 12 39 13 40 14 41 15 42 16 43
REMARK SMILES IDX 17 44 18 45 19 46 20 47 21 48 79 49 22 50 78 51 23 52 24 53
REMARK SMILES IDX 25 54 72 55 26 56 77 57 71 58 73 59 27 60 76 61 70 62 69 63
REMARK SMILES IDX 28 65 58 66 39 67 57 68 40 69 43 70 56 71 74 72 41 73 42 74
REMARK SMILES IDX 55 76 75 77 44 78 29 79 30 80 38 81 31 82 37 83 32 84 33 85
REMARK SMILES IDX 34 86 35 87 36 88 59 89 60 90 68 91 61 92 67 93 62 94 63 95
REMARK SMILES IDX 64 96 65 97 66 98 45 99 46 100 54 101 47 102 53 103 48 104
REMARK SMILES IDX 49 105 50 106 51 107 52 108
REMARK H PARENT 92 27 73 64 43 75
REMARK Flexibility Score: inf
ROOT
ATOM      1  C   UNL A   1      34.730  32.944  29.008  1.00  0.00     0.188 C 
ENDROOT
BRANCH   1   2
ATOM      2  O   UNL A   1      34.017  33.443  30.113  1.00  0.00    -0.376 OA
BRANCH   2   3
ATOM      3  C   UNL A   1      34.687  33.675  31.339  1.00  0.00     0.202 C 
BRANCH   3   4
ATOM      4  C   UNL A   1      34.745  32.730  32.565  1.00  0.00     0.261 C 
BRANCH   4   5
ATOM      5  O   UNL A   1      34.935  33.264  33.885  1.00  0.00    -0.463 OA
BRANCH   5   6
ATOM      6  C   UNL A   1      36.122  33.871  34.147  1.00  0.00     0.313 C 
ATOM      7  O   UNL A   1      36.265  35.089  34.188  1.00  0.00    -0.252 OA
BRANCH   6   8
ATOM      8  C   UNL A   1      37.285  32.890  34.406  1.00  0.00     0.126 C 
ATOM      9  C   UNL A   1      37.707  32.637  35.860  1.00  0.00     0.025 C 
BRANCH   8  10
ATOM     10  C   UNL A   1      38.499  33.198  33.526  1.00  0.00    -0.031 A 
ATOM     11  C   UNL A   1      39.773  33.350  34.083  1.00  0.00     0.005 A 
ATOM     12  C   UNL A   1      38.389  33.324  32.139  1.00  0.00     0.044 A 
ATOM     13  C   UNL A   1      40.894  33.562  33.263  1.00  0.00     0.012 A 
ATOM     14  C   UNL A   1      39.496  33.512  31.328  1.00  0.00     0.131 A 
ATOM     15  C   UNL A   1      40.775  33.631  31.866  1.00  0.00     0.018 A 
ATOM     16  F   UNL A   1      39.297  33.569  30.000  1.00  0.00    -0.206 F 
BRANCH  15  17
ATOM     17  C   UNL A   1      41.926  33.857  30.988  1.00  0.00    -0.012 A 
ATOM     18  C   UNL A   1      42.629  32.794  30.403  1.00  0.00     0.009 A 
ATOM     19  C   UNL A   1      42.321  35.171  30.685  1.00  0.00     0.056 A 
ATOM     20  C   UNL A   1      43.705  33.038  29.545  1.00  0.00     0.004 A 
ATOM     21  C   UNL A   1      43.391  35.412  29.834  1.00  0.00     0.133 A 
ATOM     22  C   UNL A   1      44.089  34.348  29.262  1.00  0.00     0.047 A 
BRANCH  21  23
ATOM     23  O   UNL A   1      43.840  36.703  29.472  1.00  0.00    -0.410 OA
BRANCH  23  24
ATOM     24  C   UNL A   1      45.094  37.248  29.729  1.00  0.00     0.412 C 
ATOM     25  O   UNL A   1      46.125  37.064  29.084  1.00  0.00    -0.224 OA
ATOM     26  N   UNL A   1      45.106  38.077  30.812  1.00  0.00    -0.321 N 
ATOM     27  H   UNL A   1      45.979  38.418  31.111  1.00  0.00     0.167 HD
BRANCH  26  28
ATOM     28  C   UNL A   1      43.941  38.495  31.553  1.00  0.00     0.120 C 
BRANCH  28  29
ATOM     29  C   UNL A   1      43.387  39.857  31.137  1.00  0.00     0.026 C 
BRANCH  29  30
ATOM     30  C   UNL A   1      43.957  40.521  29.878  1.00  0.00     0.037 C 
BRANCH  30  31
ATOM     31  C   UNL A   1      44.220  42.010  29.840  1.00  0.00    -0.048 A 
ATOM     32  C   UNL A   1      43.697  42.936  30.748  1.00  0.00     0.004 A 
ATOM     33  C   UNL A   1      44.991  42.503  28.772  1.00  0.00     0.004 A 
ATOM     34  C   UNL A   1      43.920  44.308  30.586  1.00  0.00     0.000 A 
ATOM     35  C   UNL A   1      45.226  43.871  28.616  1.00  0.00     0.000 A 
ATOM     36  C   UNL A   1      44.682  44.775  29.521  1.00  0.00     0.000 A 
ENDBRANCH  30  31
ENDBRANCH  29  30
ENDBRANCH  28  29
ENDBRANCH  26  28
ENDBRANCH  23  24
ENDBRANCH  21  23
ENDBRANCH  15  17
ENDBRANCH   8  10
ENDBRANCH   6   8
ENDBRANCH   5   6
ENDBRANCH   4   5
ENDBRANCH   3   4
ENDBRANCH   2   3
ENDBRANCH   1   2
BRANCH   1  37
ATOM     37  C   UNL A   1      36.208  32.603  29.272  1.00  0.00     0.188 C 
BRANCH  37  38
ATOM     38  O   UNL A   1      36.781  31.667  28.384  1.00  0.00    -0.377 OA
BRANCH  38  39
ATOM     39  C   UNL A   1      36.428  30.299  28.538  1.00  0.00     0.188 C 
BRANCH  39  40
ATOM     40  C   UNL A   1      37.507  29.196  28.621  1.00  0.00     0.188 C 
BRANCH  40  41
ATOM     41  O   UNL A   1      38.837  29.629  28.373  1.00  0.00    -0.376 OA
BRANCH  41  42
ATOM     42  C   UNL A   1      39.404  29.410  27.092  1.00  0.00     0.202 C 
BRANCH  42  43
ATOM     43  C   UNL A   1      40.478  28.319  26.963  1.00  0.00     0.261 C 
BRANCH  43  44
ATOM     44  O   UNL A   1      41.829  28.767  26.778  1.00  0.00    -0.460 OA
BRANCH  44  45
ATOM     45  C   UNL A   1      42.828  27.892  27.031  1.00  0.00     0.338 C 
ATOM     46  O   UNL A   1      43.438  27.220  26.223  1.00  0.00    -0.246 OA
BRANCH  45  47
ATOM     47  C   UNL A   1      43.201  28.053  28.453  1.00  0.00     0.060 A 
ATOM     48  C   UNL A   1      44.187  28.988  28.798  1.00  0.00     0.016 A 
ATOM     49  C   UNL A   1      42.554  27.310  29.443  1.00  0.00     0.016 A 
ATOM     50  C   UNL A   1      44.552  29.160  30.132  1.00  0.00     0.010 A 
ATOM     51  C   UNL A   1      42.941  27.461  30.776  1.00  0.00     0.010 A 
ATOM     52  C   UNL A   1      43.966  28.360  31.121  1.00  0.00    -0.014 A 
BRANCH  52  53
ATOM     53  C   UNL A   1      44.580  28.297  32.469  1.00  0.00     0.031 A 
ATOM     54  C   UNL A   1      44.136  29.308  33.491  1.00  0.00     0.074 A 
ATOM     55  C   UNL A   1      45.489  27.358  32.788  1.00  0.00     0.049 A 
ATOM     56  N   UNL A   1      44.554  29.489  34.716  1.00  0.00    -0.248 NA
ATOM     57  C   UNL A   1      43.078  30.244  33.071  1.00  0.00     0.031 C 
ATOM     58  C   UNL A   1      45.952  26.290  31.904  1.00  0.00     0.029 A 
ATOM     59  N   UNL A   1      46.186  27.159  33.953  1.00  0.00    -0.354 N 
ATOM     60  C   UNL A   1      43.826  30.567  35.206  1.00  0.00     0.074 A 
ATOM     61  C   UNL A   1      42.958  31.014  34.141  1.00  0.00     0.031 C 
ATOM     62  C   UNL A   1      46.866  25.551  32.558  1.00  0.00     0.029 A 
ATOM     63  C   UNL A   1      47.080  26.116  33.890  1.00  0.00     0.049 A 
ATOM     64  H   UNL A   1      46.060  27.712  34.757  1.00  0.00     0.167 HD
ATOM     65  C   UNL A   1      43.875  31.132  36.435  1.00  0.00     0.031 A 
ATOM     66  C   UNL A   1      47.980  25.685  34.796  1.00  0.00     0.031 A 
ATOM     67  C   UNL A   1      44.752  30.690  37.485  1.00  0.00     0.049 A 
ATOM     68  C   UNL A   1      48.077  26.386  36.129  1.00  0.00     0.074 A 
ATOM     69  C   UNL A   1      44.866  31.184  38.773  1.00  0.00     0.029 A 
ATOM     70  N   UNL A   1      45.673  29.660  37.367  1.00  0.00    -0.354 N 
ATOM     71  N   UNL A   1      47.366  27.388  36.589  1.00  0.00    -0.248 NA
ATOM     72  C   UNL A   1      49.096  25.893  37.066  1.00  0.00     0.031 C 
ATOM     73  C   UNL A   1      45.906  30.501  39.409  1.00  0.00     0.029 A 
ATOM     74  C   UNL A   1      46.386  29.526  38.546  1.00  0.00     0.049 A 
ATOM     75  H   UNL A   1      45.800  29.106  36.564  1.00  0.00     0.167 HD
ATOM     76  C   UNL A   1      47.826  27.620  37.882  1.00  0.00     0.074 A 
ATOM     77  C   UNL A   1      48.869  26.647  38.134  1.00  0.00     0.031 C 
ATOM     78  C   UNL A   1      47.420  28.551  38.782  1.00  0.00     0.031 A 
BRANCH  65  79
ATOM     79  C   UNL A   1      42.988  32.323  36.690  1.00  0.00    -0.014 A 
ATOM     80  C   UNL A   1      43.349  33.614  36.263  1.00  0.00     0.010 A 
ATOM     81  C   UNL A   1      41.756  32.138  37.342  1.00  0.00     0.010 A 
ATOM     82  C   UNL A   1      42.509  34.702  36.516  1.00  0.00     0.020 A 
ATOM     83  C   UNL A   1      40.898  33.218  37.569  1.00  0.00     0.020 A 
ATOM     84  C   UNL A   1      41.288  34.497  37.168  1.00  0.00     0.054 A 
BRANCH  84  85
ATOM     85  S   UNL A   1      40.205  35.923  37.457  1.00  0.00     0.124 S 
ATOM     86  O   UNL A   1      40.887  36.600  38.558  1.00  0.00    -0.237 OA
ATOM     87  O   UNL A   1      40.245  36.618  36.173  1.00  0.00    -0.237 OA
ATOM     88  O   UNL A   1      38.920  35.320  37.797  1.00  0.00    -0.744 OA
ENDBRANCH  84  85
ENDBRANCH  65  79
BRANCH  66  89
ATOM     89  C   UNL A   1      48.880  24.541  34.473  1.00  0.00    -0.014 A 
ATOM     90  C   UNL A   1      48.527  23.228  34.826  1.00  0.00     0.010 A 
ATOM     91  C   UNL A   1      50.105  24.765  33.815  1.00  0.00     0.010 A 
ATOM     92  C   UNL A   1      49.387  22.161  34.543  1.00  0.00     0.020 A 
ATOM     93  C   UNL A   1      50.953  23.698  33.503  1.00  0.00     0.020 A 
ATOM     94  C   UNL A   1      50.592  22.403  33.877  1.00  0.00     0.054 A 
BRANCH  94  95
ATOM     95  S   UNL A   1      51.666  20.996  33.474  1.00  0.00     0.124 S 
ATOM     96  O   UNL A   1      50.816  19.858  33.812  1.00  0.00    -0.237 OA
ATOM     97  O   UNL A   1      51.921  21.196  32.049  1.00  0.00    -0.237 OA
ATOM     98  O   UNL A   1      52.825  21.192  34.341  1.00  0.00    -0.744 OA
ENDBRANCH  94  95
ENDBRANCH  66  89
BRANCH  78  99
ATOM     99  C   UNL A   1      48.069  28.539  40.144  1.00  0.00    -0.014 A 
ATOM    100  C   UNL A   1      49.150  29.383  40.453  1.00  0.00     0.010 A 
ATOM    101  C   UNL A   1      47.540  27.708  41.152  1.00  0.00     0.010 A 
ATOM    102  C   UNL A   1      49.712  29.372  41.733  1.00  0.00     0.020 A 
ATOM    103  C   UNL A   1      48.076  27.720  42.441  1.00  0.00     0.020 A 
ATOM    104  C   UNL A   1      49.169  28.542  42.720  1.00  0.00     0.054 A 
BRANCH 104 105
ATOM    105  S   UNL A   1      49.888  28.581  44.384  1.00  0.00     0.124 S 
ATOM    106  O   UNL A   1      49.193  27.478  45.042  1.00  0.00    -0.237 OA
ATOM    107  O   UNL A   1      51.309  28.363  44.124  1.00  0.00    -0.237 OA
ATOM    108  O   UNL A   1      49.548  29.913  44.879  1.00  0.00    -0.744 OA
ENDBRANCH 104 105
ENDBRANCH  78  99
ENDBRANCH  52  53
ENDBRANCH  45  47
ENDBRANCH  44  45
ENDBRANCH  43  44
ENDBRANCH  42  43
ENDBRANCH  41  42
ENDBRANCH  40  41
ENDBRANCH  39  40
ENDBRANCH  38  39
ENDBRANCH  37  38
ENDBRANCH   1  37
TORSDOF 31
ENDMDL
