MODEL 1
REMARK VINA RESULT:      -8.8      0.000      0.000
REMARK SMILES Cc1[nH]ncc1S(=O)(=O)N1CC[C@@H](C(=O)OCCOCCOCCOCCOC(=O)c2ccc(-c3c4nc(c(-c5ccc(S(=O)(=O)[O-])cc5)c5ccc([nH]5)c(-c5ccc(S(=O)(=O)[O-])cc5)c5nc(c(-c6ccc(S(=O)(=O)[O-])cc6)c6ccc3[nH]6)C=C5)C=C4)cc2)[C@@H]1C
REMARK SMILES IDX 23 1 22 2 21 3 20 4 19 5 18 6 17 7 16 8 14 9 15 10 13 11
REMARK SMILES IDX 10 12 11 13 91 14 12 15 92 16 7 17 8 18 9 19 6 20 1 21 2 22
REMARK SMILES IDX 3 23 4 24 5 26 24 27 25 28 26 29 27 30 28 31 29 32 30 33
REMARK SMILES IDX 31 34 32 35 90 36 33 37 89 38 34 39 35 40 36 41 83 42 37 43
REMARK SMILES IDX 88 44 82 45 84 46 38 47 87 48 81 49 80 50 39 52 69 53 50 54
REMARK SMILES IDX 68 55 51 56 54 57 67 58 85 59 52 60 53 61 66 63 86 64 55 65
REMARK SMILES IDX 40 66 41 67 49 68 42 69 48 70 43 71 44 72 45 73 46 74 47 75
REMARK SMILES IDX 70 76 71 77 79 78 72 79 78 80 73 81 74 82 75 83 76 84 77 85
REMARK SMILES IDX 56 86 57 87 65 88 58 89 64 90 59 91 60 92 61 93 62 94 63 95
REMARK H PARENT 3 25 84 51 54 62
REMARK Flexibility Score: inf
ROOT
ATOM      1  C   UNL A   1      36.361  33.197  28.747  1.00  0.00     0.188 C 
ENDROOT
BRANCH   1   2
ATOM      2  O   UNL A   1      36.242  31.778  28.776  1.00  0.00    -0.377 OA
BRANCH   2   3
ATOM      3  C   UNL A   1      35.567  31.176  27.692  1.00  0.00     0.188 C 
BRANCH   3   4
ATOM      4  C   UNL A   1      34.034  31.174  27.802  1.00  0.00     0.188 C 
BRANCH   4   5
ATOM      5  O   UNL A   1      33.257  30.304  26.987  1.00  0.00    -0.376 OA
BRANCH   5   6
ATOM      6  C   UNL A   1      33.614  28.928  26.874  1.00  0.00     0.202 C 
BRANCH   6   7
ATOM      7  C   UNL A   1      32.769  28.032  25.961  1.00  0.00     0.261 C 
BRANCH   7   8
ATOM      8  O   UNL A   1      32.252  26.865  26.632  1.00  0.00    -0.463 OA
BRANCH   8   9
ATOM      9  C   UNL A   1      32.526  25.662  26.079  1.00  0.00     0.310 C 
ATOM     10  O   UNL A   1      33.613  25.099  26.159  1.00  0.00    -0.252 OA
BRANCH   9  11
ATOM     11  C   UNL A   1      31.327  24.995  25.417  1.00  0.00     0.118 C 
ATOM     12  N   UNL A   1      31.427  22.678  24.899  1.00  0.00    -0.194 NA
ATOM     13  C   UNL A   1      30.685  22.734  26.148  1.00  0.00     0.104 C 
ATOM     14  C   UNL A   1      31.583  23.995  24.282  1.00  0.00     0.084 C 
ATOM     15  C   UNL A   1      30.503  24.218  26.452  1.00  0.00     0.034 C 
ATOM     16  C   UNL A   1      30.520  24.123  23.182  1.00  0.00     0.027 C 
BRANCH  12  17
ATOM     17  S   UNL A   1      32.436  21.406  24.503  1.00  0.00     0.246 S 
ATOM     18  O   UNL A   1      32.656  21.468  23.077  1.00  0.00    -0.207 OA
ATOM     19  O   UNL A   1      31.922  20.211  25.145  1.00  0.00    -0.207 OA
BRANCH  17  20
ATOM     20  C   UNL A   1      34.007  21.605  25.172  1.00  0.00     0.123 A 
ATOM     21  C   UNL A   1      33.797  21.794  27.802  1.00  0.00     0.067 C 
ATOM     22  C   UNL A   1      34.449  21.744  26.477  1.00  0.00     0.052 A 
ATOM     23  N   UNL A   1      35.820  21.782  26.382  1.00  0.00    -0.281 N 
ATOM     24  N   UNL A   1      36.278  21.769  25.122  1.00  0.00    -0.183 NA
ATOM     25  H   UNL A   1      36.412  21.816  27.167  1.00  0.00     0.190 HD
ATOM     26  C   UNL A   1      35.176  21.604  24.388  1.00  0.00     0.157 A 
ENDBRANCH  17  20
ENDBRANCH  12  17
ENDBRANCH   9  11
ENDBRANCH   8   9
ENDBRANCH   7   8
ENDBRANCH   6   7
ENDBRANCH   5   6
ENDBRANCH   4   5
ENDBRANCH   3   4
ENDBRANCH   2   3
ENDBRANCH   1   2
BRANCH   1  27
ATOM     27  C   UNL A   1      35.464  33.990  29.712  1.00  0.00     0.188 C 
BRANCH  27  28
ATOM     28  O   UNL A   1      35.855  33.852  31.079  1.00  0.00    -0.376 OA
BRANCH  28  29
ATOM     29  C   UNL A   1      35.056  33.005  31.903  1.00  0.00     0.202 C 
BRANCH  29  30
ATOM     30  C   UNL A   1      35.726  31.713  32.402  1.00  0.00     0.261 C 
BRANCH  30  31
ATOM     31  O   UNL A   1      37.039  31.439  31.883  1.00  0.00    -0.460 OA
BRANCH  31  32
ATOM     32  C   UNL A   1      37.416  30.152  31.737  1.00  0.00     0.338 C 
ATOM     33  O   UNL A   1      36.701  29.168  31.762  1.00  0.00    -0.246 OA
BRANCH  32  34
ATOM     34  C   UNL A   1      38.836  30.139  31.336  1.00  0.00     0.060 A 
ATOM     35  C   UNL A   1      39.166  30.521  30.030  1.00  0.00     0.016 A 
ATOM     36  C   UNL A   1      39.828  29.726  32.230  1.00  0.00     0.016 A 
ATOM     37  C   UNL A   1      40.488  30.437  29.594  1.00  0.00     0.010 A 
ATOM     38  C   UNL A   1      41.147  29.623  31.787  1.00  0.00     0.010 A 
ATOM     39  C   UNL A   1      41.473  29.936  30.455  1.00  0.00    -0.014 A 
BRANCH  39  40
ATOM     40  C   UNL A   1      42.783  29.524  29.903  1.00  0.00     0.031 A 
ATOM     41  C   UNL A   1      42.891  28.155  29.285  1.00  0.00     0.074 A 
ATOM     42  C   UNL A   1      43.849  30.341  29.936  1.00  0.00     0.049 A 
ATOM     43  N   UNL A   1      43.930  27.561  28.758  1.00  0.00    -0.248 NA
ATOM     44  C   UNL A   1      41.659  27.349  29.262  1.00  0.00     0.031 C 
ATOM     45  C   UNL A   1      43.860  31.698  30.477  1.00  0.00     0.029 A 
ATOM     46  N   UNL A   1      45.137  30.132  29.510  1.00  0.00    -0.354 N 
ATOM     47  C   UNL A   1      43.478  26.312  28.345  1.00  0.00     0.074 A 
ATOM     48  C   UNL A   1      42.081  26.223  28.710  1.00  0.00     0.031 C 
ATOM     49  C   UNL A   1      45.103  32.199  30.361  1.00  0.00     0.029 A 
ATOM     50  C   UNL A   1      45.977  31.190  29.765  1.00  0.00     0.049 A 
ATOM     51  H   UNL A   1      45.431  29.306  29.063  1.00  0.00     0.167 HD
ATOM     52  C   UNL A   1      44.162  25.327  27.718  1.00  0.00     0.031 A 
ATOM     53  C   UNL A   1      47.303  31.315  29.560  1.00  0.00     0.031 A 
ATOM     54  C   UNL A   1      45.559  25.403  27.389  1.00  0.00     0.049 A 
ATOM     55  C   UNL A   1      48.065  30.179  28.927  1.00  0.00     0.074 A 
ATOM     56  C   UNL A   1      46.347  24.462  26.751  1.00  0.00     0.029 A 
ATOM     57  N   UNL A   1      46.382  26.478  27.691  1.00  0.00    -0.354 N 
ATOM     58  N   UNL A   1      47.620  29.017  28.511  1.00  0.00    -0.248 NA
ATOM     59  C   UNL A   1      49.508  30.376  28.728  1.00  0.00     0.031 C 
ATOM     60  C   UNL A   1      47.660  24.946  26.717  1.00  0.00     0.029 A 
ATOM     61  C   UNL A   1      47.676  26.214  27.278  1.00  0.00     0.049 A 
ATOM     62  H   UNL A   1      46.089  27.307  28.135  1.00  0.00     0.167 HD
ATOM     63  C   UNL A   1      48.723  28.352  27.982  1.00  0.00     0.074 A 
ATOM     64  C   UNL A   1      49.853  29.248  28.119  1.00  0.00     0.031 C 
ATOM     65  C   UNL A   1      48.792  27.115  27.429  1.00  0.00     0.031 A 
BRANCH  52  66
ATOM     66  C   UNL A   1      43.403  24.067  27.395  1.00  0.00    -0.014 A 
ATOM     67  C   UNL A   1      42.819  23.871  26.130  1.00  0.00     0.010 A 
ATOM     68  C   UNL A   1      43.256  23.073  28.379  1.00  0.00     0.010 A 
ATOM     69  C   UNL A   1      42.054  22.731  25.873  1.00  0.00     0.020 A 
ATOM     70  C   UNL A   1      42.515  21.917  28.117  1.00  0.00     0.020 A 
ATOM     71  C   UNL A   1      41.898  21.765  26.873  1.00  0.00     0.054 A 
BRANCH  71  72
ATOM     72  S   UNL A   1      40.887  20.301  26.521  1.00  0.00     0.124 S 
ATOM     73  O   UNL A   1      41.726  19.579  25.567  1.00  0.00    -0.237 OA
ATOM     74  O   UNL A   1      40.754  19.678  27.835  1.00  0.00    -0.237 OA
ATOM     75  O   UNL A   1      39.653  20.856  25.969  1.00  0.00    -0.744 OA
ENDBRANCH  71  72
ENDBRANCH  52  66
BRANCH  53  76
ATOM     76  C   UNL A   1      47.993  32.569  29.971  1.00  0.00    -0.014 A 
ATOM     77  C   UNL A   1      48.551  32.695  31.254  1.00  0.00     0.010 A 
ATOM     78  C   UNL A   1      48.128  33.633  29.061  1.00  0.00     0.010 A 
ATOM     79  C   UNL A   1      49.233  33.860  31.619  1.00  0.00     0.020 A 
ATOM     80  C   UNL A   1      48.831  34.790  29.412  1.00  0.00     0.020 A 
ATOM     81  C   UNL A   1      49.377  34.897  30.692  1.00  0.00     0.054 A 
BRANCH  81  82
ATOM     82  S   UNL A   1      50.348  36.359  31.158  1.00  0.00     0.124 S 
ATOM     83  O   UNL A   1      49.454  37.450  30.782  1.00  0.00    -0.237 OA
ATOM     84  O   UNL A   1      50.540  36.164  32.593  1.00  0.00    -0.237 OA
ATOM     85  O   UNL A   1      51.562  36.237  30.355  1.00  0.00    -0.744 OA
ENDBRANCH  81  82
ENDBRANCH  53  76
BRANCH  65  86
ATOM     86  C   UNL A   1      50.129  26.659  26.903  1.00  0.00    -0.014 A 
ATOM     87  C   UNL A   1      51.104  26.115  27.759  1.00  0.00     0.010 A 
ATOM     88  C   UNL A   1      50.386  26.715  25.521  1.00  0.00     0.010 A 
ATOM     89  C   UNL A   1      52.321  25.660  27.243  1.00  0.00     0.020 A 
ATOM     90  C   UNL A   1      51.591  26.238  24.999  1.00  0.00     0.020 A 
ATOM     91  C   UNL A   1      52.557  25.725  25.866  1.00  0.00     0.054 A 
BRANCH  91  92
ATOM     92  S   UNL A   1      54.125  25.084  25.215  1.00  0.00     0.124 S 
ATOM     93  O   UNL A   1      53.744  23.746  24.771  1.00  0.00    -0.237 OA
ATOM     94  O   UNL A   1      54.444  26.032  24.151  1.00  0.00    -0.237 OA
ATOM     95  O   UNL A   1      55.022  25.125  26.368  1.00  0.00    -0.744 OA
ENDBRANCH  91  92
ENDBRANCH  65  86
ENDBRANCH  39  40
ENDBRANCH  32  34
ENDBRANCH  31  32
ENDBRANCH  30  31
ENDBRANCH  29  30
ENDBRANCH  28  29
ENDBRANCH  27  28
ENDBRANCH   1  27
TORSDOF 25
ENDMDL
MODEL 2
REMARK VINA RESULT:      -8.0      4.811     11.800
REMARK SMILES Cc1[nH]ncc1S(=O)(=O)N1CC[C@@H](C(=O)OCCOCCOCCOCCOC(=O)c2ccc(-c3c4nc(c(-c5ccc(S(=O)(=O)[O-])cc5)c5ccc([nH]5)c(-c5ccc(S(=O)(=O)[O-])cc5)c5nc(c(-c6ccc(S(=O)(=O)[O-])cc6)c6ccc3[nH]6)C=C5)C=C4)cc2)[C@@H]1C
REMARK SMILES IDX 23 1 22 2 21 3 20 4 19 5 18 6 17 7 16 8 14 9 15 10 13 11
REMARK SMILES IDX 10 12 11 13 91 14 12 15 92 16 7 17 8 18 9 19 6 20 1 21 2 22
REMARK SMILES IDX 3 23 4 24 5 26 24 27 25 28 26 29 27 30 28 31 29 32 30 33
REMARK SMILES IDX 31 34 32 35 90 36 33 37 89 38 34 39 35 40 36 41 83 42 37 43
REMARK SMILES IDX 88 44 82 45 84 46 38 47 87 48 81 49 80 50 39 52 69 53 50 54
REMARK SMILES IDX 68 55 51 56 54 57 67 58 85 59 52 60 53 61 66 63 86 64 55 65
REMARK SMILES IDX 40 66 41 67 49 68 42 69 48 70 43 71 44 72 45 73 46 74 47 75
REMARK SMILES IDX 70 76 71 77 79 78 72 79 78 80 73 81 74 82 75 83 76 84 77 85
REMARK SMILES IDX 56 86 57 87 65 88 58 89 64 90 59 91 60 92 61 93 62 94 63 95
REMARK H PARENT 3 25 84 51 54 62
REMARK Flexibility Score: inf
ROOT
ATOM      1  C   UNL A   1      45.572  22.933  26.026  1.00  0.00     0.188 C 
ENDROOT
BRANCH   1   2
ATOM      2  O   UNL A   1      45.679  23.811  27.142  1.00  0.00    -0.377 OA
BRANCH   2   3
ATOM      3  C   UNL A   1      44.546  23.917  27.978  1.00  0.00     0.188 C 
BRANCH   3   4
ATOM      4  C   UNL A   1      44.854  24.170  29.462  1.00  0.00     0.188 C 
BRANCH   4   5
ATOM      5  O   UNL A   1      46.111  24.710  29.852  1.00  0.00    -0.376 OA
BRANCH   5   6
ATOM      6  C   UNL A   1      46.205  25.517  31.025  1.00  0.00     0.202 C 
BRANCH   6   7
ATOM      7  C   UNL A   1      45.981  27.027  30.886  1.00  0.00     0.261 C 
BRANCH   7   8
ATOM      8  O   UNL A   1      45.112  27.568  31.902  1.00  0.00    -0.463 OA
BRANCH   8   9
ATOM      9  C   UNL A   1      45.670  27.865  33.097  1.00  0.00     0.310 C 
ATOM     10  O   UNL A   1      46.853  28.150  33.253  1.00  0.00    -0.252 OA
BRANCH   9  11
ATOM     11  C   UNL A   1      44.676  27.919  34.250  1.00  0.00     0.118 C 
ATOM     12  N   UNL A   1      42.424  28.544  33.816  1.00  0.00    -0.194 NA
ATOM     13  C   UNL A   1      42.389  27.091  33.874  1.00  0.00     0.104 C 
ATOM     14  C   UNL A   1      43.688  29.092  34.308  1.00  0.00     0.084 C 
ATOM     15  C   UNL A   1      43.799  26.661  34.265  1.00  0.00     0.034 C 
ATOM     16  C   UNL A   1      43.463  29.554  35.755  1.00  0.00     0.027 C 
BRANCH  12  17
ATOM     17  S   UNL A   1      41.418  29.433  32.822  1.00  0.00     0.246 S 
ATOM     18  O   UNL A   1      41.447  28.807  31.521  1.00  0.00    -0.207 OA
ATOM     19  O   UNL A   1      41.740  30.837  33.001  1.00  0.00    -0.207 OA
BRANCH  17  20
ATOM     20  C   UNL A   1      39.772  29.310  33.302  1.00  0.00     0.123 A 
ATOM     21  C   UNL A   1      39.319  31.044  35.246  1.00  0.00     0.067 C 
ATOM     22  C   UNL A   1      39.032  29.985  34.259  1.00  0.00     0.052 A 
ATOM     23  N   UNL A   1      37.752  29.503  34.116  1.00  0.00    -0.281 N 
ATOM     24  N   UNL A   1      37.639  28.517  33.214  1.00  0.00    -0.183 NA
ATOM     25  H   UNL A   1      36.988  29.849  34.631  1.00  0.00     0.190 HD
ATOM     26  C   UNL A   1      38.858  28.440  32.678  1.00  0.00     0.157 A 
ENDBRANCH  17  20
ENDBRANCH  12  17
ENDBRANCH   9  11
ENDBRANCH   8   9
ENDBRANCH   7   8
ENDBRANCH   6   7
ENDBRANCH   5   6
ENDBRANCH   4   5
ENDBRANCH   3   4
ENDBRANCH   2   3
ENDBRANCH   1   2
BRANCH   1  27
ATOM     27  C   UNL A   1      44.417  23.193  25.045  1.00  0.00     0.188 C 
BRANCH  27  28
ATOM     28  O   UNL A   1      43.763  21.996  24.621  1.00  0.00    -0.376 OA
BRANCH  28  29
ATOM     29  C   UNL A   1      43.437  21.040  25.628  1.00  0.00     0.202 C 
BRANCH  29  30
ATOM     30  C   UNL A   1      42.101  21.253  26.362  1.00  0.00     0.261 C 
BRANCH  30  31
ATOM     31  O   UNL A   1      41.168  22.148  25.732  1.00  0.00    -0.460 OA
BRANCH  31  32
ATOM     32  C   UNL A   1      40.024  22.444  26.383  1.00  0.00     0.338 C 
ATOM     33  O   UNL A   1      39.104  21.689  26.636  1.00  0.00    -0.246 OA
BRANCH  32  34
ATOM     34  C   UNL A   1      40.153  23.810  26.926  1.00  0.00     0.060 A 
ATOM     35  C   UNL A   1      39.861  24.893  26.088  1.00  0.00     0.016 A 
ATOM     36  C   UNL A   1      40.587  24.020  28.237  1.00  0.00     0.016 A 
ATOM     37  C   UNL A   1      40.057  26.196  26.544  1.00  0.00     0.010 A 
ATOM     38  C   UNL A   1      40.801  25.324  28.686  1.00  0.00     0.010 A 
ATOM     39  C   UNL A   1      40.579  26.414  27.825  1.00  0.00    -0.014 A 
BRANCH  39  40
ATOM     40  C   UNL A   1      41.107  27.751  28.181  1.00  0.00     0.031 A 
ATOM     41  C   UNL A   1      42.576  28.008  27.979  1.00  0.00     0.074 A 
ATOM     42  C   UNL A   1      40.307  28.718  28.661  1.00  0.00     0.049 A 
ATOM     43  N   UNL A   1      43.275  29.083  28.234  1.00  0.00    -0.248 NA
ATOM     44  C   UNL A   1      43.362  26.898  27.412  1.00  0.00     0.031 C 
ATOM     45  C   UNL A   1      38.865  28.599  28.870  1.00  0.00     0.029 A 
ATOM     46  N   UNL A   1      40.608  29.992  29.071  1.00  0.00    -0.354 N 
ATOM     47  C   UNL A   1      44.580  28.779  27.864  1.00  0.00     0.074 A 
ATOM     48  C   UNL A   1      44.582  27.411  27.395  1.00  0.00     0.031 C 
ATOM     49  C   UNL A   1      38.407  29.755  29.382  1.00  0.00     0.029 A 
ATOM     50  C   UNL A   1      39.525  30.680  29.563  1.00  0.00     0.049 A 
ATOM     51  H   UNL A   1      41.513  30.377  29.016  1.00  0.00     0.167 HD
ATOM     52  C   UNL A   1      45.680  29.566  27.909  1.00  0.00     0.031 A 
ATOM     53  C   UNL A   1      39.454  31.907  30.116  1.00  0.00     0.031 A 
ATOM     54  C   UNL A   1      45.684  30.914  28.410  1.00  0.00     0.049 A 
ATOM     55  C   UNL A   1      40.702  32.744  30.226  1.00  0.00     0.074 A 
ATOM     56  C   UNL A   1      46.743  31.799  28.496  1.00  0.00     0.029 A 
ATOM     57  N   UNL A   1      44.573  31.565  28.927  1.00  0.00    -0.354 N 
ATOM     58  N   UNL A   1      41.925  32.458  29.842  1.00  0.00    -0.248 NA
ATOM     59  C   UNL A   1      40.561  34.074  30.836  1.00  0.00     0.031 C 
ATOM     60  C   UNL A   1      46.284  32.967  29.117  1.00  0.00     0.029 A 
ATOM     61  C   UNL A   1      44.926  32.831  29.361  1.00  0.00     0.049 A 
ATOM     62  H   UNL A   1      43.667  31.182  28.979  1.00  0.00     0.167 HD
ATOM     63  C   UNL A   1      42.693  33.579  30.145  1.00  0.00     0.074 A 
ATOM     64  C   UNL A   1      41.794  34.552  30.731  1.00  0.00     0.031 C 
ATOM     65  C   UNL A   1      44.020  33.785  29.951  1.00  0.00     0.031 A 
BRANCH  52  66
ATOM     66  C   UNL A   1      46.976  28.957  27.442  1.00  0.00    -0.014 A 
ATOM     67  C   UNL A   1      47.937  28.496  28.360  1.00  0.00     0.010 A 
ATOM     68  C   UNL A   1      47.244  28.864  26.065  1.00  0.00     0.010 A 
ATOM     69  C   UNL A   1      49.165  28.004  27.912  1.00  0.00     0.020 A 
ATOM     70  C   UNL A   1      48.460  28.347  25.611  1.00  0.00     0.020 A 
ATOM     71  C   UNL A   1      49.423  27.942  26.538  1.00  0.00     0.054 A 
BRANCH  71  72
ATOM     72  S   UNL A   1      51.032  27.317  25.980  1.00  0.00     0.124 S 
ATOM     73  O   UNL A   1      51.160  27.947  24.668  1.00  0.00    -0.237 OA
ATOM     74  O   UNL A   1      51.944  27.814  27.006  1.00  0.00    -0.237 OA
ATOM     75  O   UNL A   1      50.851  25.867  25.959  1.00  0.00    -0.744 OA
ENDBRANCH  71  72
ENDBRANCH  52  66
BRANCH  53  76
ATOM     76  C   UNL A   1      38.145  32.411  30.617  1.00  0.00    -0.014 A 
ATOM     77  C   UNL A   1      37.721  32.132  31.927  1.00  0.00     0.010 A 
ATOM     78  C   UNL A   1      37.331  33.208  29.791  1.00  0.00     0.010 A 
ATOM     79  C   UNL A   1      36.509  32.642  32.403  1.00  0.00     0.020 A 
ATOM     80  C   UNL A   1      36.131  33.741  30.270  1.00  0.00     0.020 A 
ATOM     81  C   UNL A   1      35.726  33.452  31.575  1.00  0.00     0.054 A 
BRANCH  81  82
ATOM     82  S   UNL A   1      34.204  34.179  32.248  1.00  0.00     0.124 S 
ATOM     83  O   UNL A   1      34.726  35.244  33.099  1.00  0.00    -0.237 OA
ATOM     84  O   UNL A   1      33.504  34.617  31.043  1.00  0.00    -0.237 OA
ATOM     85  O   UNL A   1      33.572  33.066  32.953  1.00  0.00    -0.744 OA
ENDBRANCH  81  82
ENDBRANCH  53  76
BRANCH  65  86
ATOM     86  C   UNL A   1      44.584  35.124  30.350  1.00  0.00    -0.014 A 
ATOM     87  C   UNL A   1      44.429  36.256  29.530  1.00  0.00     0.010 A 
ATOM     88  C   UNL A   1      45.219  35.264  31.598  1.00  0.00     0.010 A 
ATOM     89  C   UNL A   1      44.924  37.498  29.939  1.00  0.00     0.020 A 
ATOM     90  C   UNL A   1      45.692  36.509  32.021  1.00  0.00     0.020 A 
ATOM     91  C   UNL A   1      45.553  37.616  31.183  1.00  0.00     0.054 A 
BRANCH  91  92
ATOM     92  S   UNL A   1      46.144  39.248  31.713  1.00  0.00     0.124 S 
ATOM     93  O   UNL A   1      45.725  39.282  33.112  1.00  0.00    -0.237 OA
ATOM     94  O   UNL A   1      47.584  39.157  31.491  1.00  0.00    -0.237 OA
ATOM     95  O   UNL A   1      45.441  40.175  30.830  1.00  0.00    -0.744 OA
ENDBRANCH  91  92
ENDBRANCH  65  86
ENDBRANCH  39  40
ENDBRANCH  32  34
ENDBRANCH  31  32
ENDBRANCH  30  31
ENDBRANCH  29  30
ENDBRANCH  28  29
ENDBRANCH  27  28
ENDBRANCH   1  27
TORSDOF 25
ENDMDL
MODEL 3
REMARK VINA RESULT:      -7.8      5.050      8.271
REMARK SMILES Cc1[nH]ncc1S(=O)(=O)N1CC[C@@H](C(=O)OCCOCCOCCOCCOC(=O)c2ccc(-c3c4nc(c(-c5ccc(S(=O)(=O)[O-])cc5)c5ccc([nH]5)c(-c5ccc(S(=O)(=O)[O-])cc5)c5nc(c(-c6ccc(S(=O)(=O)[O-])cc6)c6ccc3[nH]6)C=C5)C=C4)cc2)[C@@H]1C
REMARK SMILES IDX 23 1 22 2 21 3 20 4 19 5 18 6 17 7 16 8 14 9 15 10 13 11
REMARK SMILES IDX 10 12 11 13 91 14 12 15 92 16 7 17 8 18 9 19 6 20 1 21 2 22
REMARK SMILES IDX 3 23 4 24 5 26 24 27 25 28 26 29 27 30 28 31 29 32 30 33
REMARK SMILES IDX 31 34 32 35 90 36 33 37 89 38 34 39 35 40 36 41 83 42 37 43
REMARK SMILES IDX 88 44 82 45 84 46 38 47 87 48 81 49 80 50 39 52 69 53 50 54
REMARK SMILES IDX 68 55 51 56 54 57 67 58 85 59 52 60 53 61 66 63 86 64 55 65
REMARK SMILES IDX 40 66 41 67 49 68 42 69 48 70 43 71 44 72 45 73 46 74 47 75
REMARK SMILES IDX 70 76 71 77 79 78 72 79 78 80 73 81 74 82 75 83 76 84 77 85
REMARK SMILES IDX 56 86 57 87 65 88 58 89 64 90 59 91 60 92 61 93 62 94 63 95
REMARK H PARENT 3 25 84 51 54 62
REMARK Flexibility Score: inf
ROOT
ATOM      1  C   UNL A   1      31.155  26.784  24.905  1.00  0.00     0.188 C 
ENDROOT
BRANCH   1   2
ATOM      2  O   UNL A   1      32.134  26.090  25.674  1.00  0.00    -0.377 OA
BRANCH   2   3
ATOM      3  C   UNL A   1      33.388  25.877  25.061  1.00  0.00     0.188 C 
BRANCH   3   4
ATOM      4  C   UNL A   1      34.442  25.205  25.955  1.00  0.00     0.188 C 
BRANCH   4   5
ATOM      5  O   UNL A   1      35.657  24.721  25.393  1.00  0.00    -0.376 OA
BRANCH   5   6
ATOM      6  C   UNL A   1      36.413  23.728  26.083  1.00  0.00     0.202 C 
BRANCH   6   7
ATOM      7  C   UNL A   1      36.770  22.438  25.334  1.00  0.00     0.261 C 
BRANCH   7   8
ATOM      8  O   UNL A   1      35.616  21.741  24.822  1.00  0.00    -0.463 OA
BRANCH   8   9
ATOM      9  C   UNL A   1      35.024  22.253  23.720  1.00  0.00     0.310 C 
ATOM     10  O   UNL A   1      35.635  22.670  22.741  1.00  0.00    -0.252 OA
BRANCH   9  11
ATOM     11  C   UNL A   1      33.503  22.182  23.742  1.00  0.00     0.118 C 
ATOM     12  N   UNL A   1      32.442  20.080  24.067  1.00  0.00    -0.194 NA
ATOM     13  C   UNL A   1      32.415  20.703  25.381  1.00  0.00     0.104 C 
ATOM     14  C   UNL A   1      32.816  21.021  23.011  1.00  0.00     0.084 C 
ATOM     15  C   UNL A   1      32.987  22.103  25.184  1.00  0.00     0.034 C 
ATOM     16  C   UNL A   1      31.525  21.487  22.324  1.00  0.00     0.027 C 
BRANCH  12  17
ATOM     17  S   UNL A   1      32.581  18.429  23.852  1.00  0.00     0.246 S 
ATOM     18  O   UNL A   1      32.724  18.197  22.434  1.00  0.00    -0.207 OA
ATOM     19  O   UNL A   1      31.538  17.788  24.629  1.00  0.00    -0.207 OA
BRANCH  17  20
ATOM     20  C   UNL A   1      34.044  17.819  24.518  1.00  0.00     0.123 A 
ATOM     21  C   UNL A   1      33.610  15.376  25.434  1.00  0.00     0.067 C 
ATOM     22  C   UNL A   1      34.358  16.608  25.113  1.00  0.00     0.052 A 
ATOM     23  N   UNL A   1      35.707  16.682  25.367  1.00  0.00    -0.281 N 
ATOM     24  N   UNL A   1      36.254  17.868  25.065  1.00  0.00    -0.183 NA
ATOM     25  H   UNL A   1      36.225  15.931  25.737  1.00  0.00     0.190 HD
ATOM     26  C   UNL A   1      35.253  18.541  24.496  1.00  0.00     0.157 A 
ENDBRANCH  17  20
ENDBRANCH  12  17
ENDBRANCH   9  11
ENDBRANCH   8   9
ENDBRANCH   7   8
ENDBRANCH   6   7
ENDBRANCH   5   6
ENDBRANCH   4   5
ENDBRANCH   3   4
ENDBRANCH   2   3
ENDBRANCH   1   2
BRANCH   1  27
ATOM     27  C   UNL A   1      31.253  28.318  24.875  1.00  0.00     0.188 C 
BRANCH  27  28
ATOM     28  O   UNL A   1      31.906  28.858  26.026  1.00  0.00    -0.376 OA
BRANCH  28  29
ATOM     29  C   UNL A   1      32.675  30.045  25.842  1.00  0.00     0.202 C 
BRANCH  29  30
ATOM     30  C   UNL A   1      32.395  31.196  26.824  1.00  0.00     0.261 C 
BRANCH  30  31
ATOM     31  O   UNL A   1      33.448  31.506  27.753  1.00  0.00    -0.460 OA
BRANCH  31  32
ATOM     32  C   UNL A   1      33.695  32.802  28.034  1.00  0.00     0.338 C 
ATOM     33  O   UNL A   1      33.036  33.767  27.696  1.00  0.00    -0.246 OA
BRANCH  32  34
ATOM     34  C   UNL A   1      34.806  32.851  29.004  1.00  0.00     0.060 A 
ATOM     35  C   UNL A   1      35.985  33.510  28.638  1.00  0.00     0.016 A 
ATOM     36  C   UNL A   1      34.694  32.229  30.250  1.00  0.00     0.016 A 
ATOM     37  C   UNL A   1      37.083  33.499  29.497  1.00  0.00     0.010 A 
ATOM     38  C   UNL A   1      35.800  32.201  31.102  1.00  0.00     0.010 A 
ATOM     39  C   UNL A   1      37.011  32.798  30.708  1.00  0.00    -0.014 A 
BRANCH  39  40
ATOM     40  C   UNL A   1      38.255  32.494  31.451  1.00  0.00     0.031 A 
ATOM     41  C   UNL A   1      39.209  31.493  30.853  1.00  0.00     0.074 A 
ATOM     42  C   UNL A   1      38.542  33.093  32.618  1.00  0.00     0.049 A 
ATOM     43  N   UNL A   1      40.345  31.047  31.320  1.00  0.00    -0.248 NA
ATOM     44  C   UNL A   1      38.823  30.919  29.552  1.00  0.00     0.031 C 
ATOM     45  C   UNL A   1      37.716  34.101  33.279  1.00  0.00     0.029 A 
ATOM     46  N   UNL A   1      39.614  32.925  33.459  1.00  0.00    -0.354 N 
ATOM     47  C   UNL A   1      40.808  30.138  30.375  1.00  0.00     0.074 A 
ATOM     48  C   UNL A   1      39.816  30.075  29.324  1.00  0.00     0.031 C 
ATOM     49  C   UNL A   1      38.307  34.454  34.434  1.00  0.00     0.029 A 
ATOM     50  C   UNL A   1      39.535  33.679  34.605  1.00  0.00     0.049 A 
ATOM     51  H   UNL A   1      40.368  32.324  33.259  1.00  0.00     0.167 HD
ATOM     52  C   UNL A   1      41.955  29.420  30.379  1.00  0.00     0.031 A 
ATOM     53  C   UNL A   1      40.351  33.718  35.677  1.00  0.00     0.031 A 
ATOM     54  C   UNL A   1      42.922  29.456  31.442  1.00  0.00     0.049 A 
ATOM     55  C   UNL A   1      41.588  32.857  35.698  1.00  0.00     0.074 A 
ATOM     56  C   UNL A   1      44.119  28.770  31.543  1.00  0.00     0.029 A 
ATOM     57  N   UNL A   1      42.792  30.209  32.600  1.00  0.00    -0.354 N 
ATOM     58  N   UNL A   1      42.032  32.026  34.784  1.00  0.00    -0.248 NA
ATOM     59  C   UNL A   1      42.439  32.944  36.893  1.00  0.00     0.031 C 
ATOM     60  C   UNL A   1      44.686  29.067  32.788  1.00  0.00     0.029 A 
ATOM     61  C   UNL A   1      43.872  29.985  33.435  1.00  0.00     0.049 A 
ATOM     62  H   UNL A   1      42.040  30.814  32.799  1.00  0.00     0.167 HD
ATOM     63  C   UNL A   1      43.223  31.509  35.284  1.00  0.00     0.074 A 
ATOM     64  C   UNL A   1      43.437  32.130  36.575  1.00  0.00     0.031 C 
ATOM     65  C   UNL A   1      44.066  30.605  34.722  1.00  0.00     0.031 A 
BRANCH  52  66
ATOM     66  C   UNL A   1      42.190  28.501  29.209  1.00  0.00    -0.014 A 
ATOM     67  C   UNL A   1      41.722  27.174  29.219  1.00  0.00     0.010 A 
ATOM     68  C   UNL A   1      42.907  28.966  28.092  1.00  0.00     0.010 A 
ATOM     69  C   UNL A   1      42.015  26.313  28.159  1.00  0.00     0.020 A 
ATOM     70  C   UNL A   1      43.178  28.116  27.017  1.00  0.00     0.020 A 
ATOM     71  C   UNL A   1      42.751  26.787  27.068  1.00  0.00     0.054 A 
BRANCH  71  72
ATOM     72  S   UNL A   1      43.134  25.645  25.711  1.00  0.00     0.124 S 
ATOM     73  O   UNL A   1      44.366  26.220  25.175  1.00  0.00    -0.237 OA
ATOM     74  O   UNL A   1      43.287  24.367  26.400  1.00  0.00    -0.237 OA
ATOM     75  O   UNL A   1      41.968  25.744  24.836  1.00  0.00    -0.744 OA
ENDBRANCH  71  72
ENDBRANCH  52  66
BRANCH  53  76
ATOM     76  C   UNL A   1      40.012  34.603  36.825  1.00  0.00    -0.014 A 
ATOM     77  C   UNL A   1      39.245  34.125  37.900  1.00  0.00     0.010 A 
ATOM     78  C   UNL A   1      40.490  35.926  36.863  1.00  0.00     0.010 A 
ATOM     79  C   UNL A   1      38.964  34.951  38.994  1.00  0.00     0.020 A 
ATOM     80  C   UNL A   1      40.234  36.748  37.965  1.00  0.00     0.020 A 
ATOM     81  C   UNL A   1      39.469  36.254  39.024  1.00  0.00     0.054 A 
BRANCH  81  82
ATOM     82  S   UNL A   1      39.171  37.274  40.496  1.00  0.00     0.124 S 
ATOM     83  O   UNL A   1      40.504  37.795  40.782  1.00  0.00    -0.237 OA
ATOM     84  O   UNL A   1      38.200  38.252  40.011  1.00  0.00    -0.237 OA
ATOM     85  O   UNL A   1      38.646  36.323  41.474  1.00  0.00    -0.744 OA
ENDBRANCH  81  82
ENDBRANCH  53  76
BRANCH  65  86
ATOM     86  C   UNL A   1      45.316  30.248  35.485  1.00  0.00    -0.014 A 
ATOM     87  C   UNL A   1      45.456  28.997  36.112  1.00  0.00     0.010 A 
ATOM     88  C   UNL A   1      46.392  31.155  35.516  1.00  0.00     0.010 A 
ATOM     89  C   UNL A   1      46.641  28.671  36.779  1.00  0.00     0.020 A 
ATOM     90  C   UNL A   1      47.586  30.822  36.160  1.00  0.00     0.020 A 
ATOM     91  C   UNL A   1      47.698  29.586  36.799  1.00  0.00     0.054 A 
BRANCH  91  92
ATOM     92  S   UNL A   1      49.243  29.121  37.630  1.00  0.00     0.124 S 
ATOM     93  O   UNL A   1      50.248  29.521  36.647  1.00  0.00    -0.237 OA
ATOM     94  O   UNL A   1      49.206  29.920  38.851  1.00  0.00    -0.237 OA
ATOM     95  O   UNL A   1      49.109  27.680  37.830  1.00  0.00    -0.744 OA
ENDBRANCH  91  92
ENDBRANCH  65  86
ENDBRANCH  39  40
ENDBRANCH  32  34
ENDBRANCH  31  32
ENDBRANCH  30  31
ENDBRANCH  29  30
ENDBRANCH  28  29
ENDBRANCH  27  28
ENDBRANCH   1  27
TORSDOF 25
ENDMDL
