MODEL 1
REMARK VINA RESULT:     -10.0      0.000      0.000
REMARK SMILES Cc1c(Cl)cc2c(c1C)O[C@H](C(F)(F)F)C(C(=O)OCCOCCOCCOCCOC(=O)c1ccc(-c3c4nc(c(-c5ccc(S(=O)(=O)[O-])cc5)c5ccc([nH]5)c(-c5ccc(S(=O)(=O)[O-])cc5)c5nc(c(-c6ccc(S(=O)(=O)[O-])cc6)c6ccc3[nH]6)C=C5)C=C4)cc1)=C2
REMARK SMILES IDX 26 1 25 2 24 3 23 4 22 5 21 6 20 7 19 8 17 9 18 10 16 11
REMARK SMILES IDX 1 12 2 13 3 14 8 15 4 16 5 17 7 18 9 19 6 20 10 21 94 22
REMARK SMILES IDX 11 23 12 24 13 25 14 26 15 27 27 28 28 29 29 30 30 31 31 32
REMARK SMILES IDX 32 33 33 34 34 35 35 36 93 37 36 38 92 39 37 40 38 41 39 42
REMARK SMILES IDX 86 43 40 44 91 45 85 46 87 47 41 48 90 49 84 50 83 51 42 53
REMARK SMILES IDX 72 54 53 55 71 56 54 57 57 58 70 59 88 60 55 61 56 62 69 64
REMARK SMILES IDX 89 65 58 66 43 67 44 68 52 69 45 70 51 71 46 72 47 73 48 74
REMARK SMILES IDX 49 75 50 76 73 77 74 78 82 79 75 80 81 81 76 82 77 83 78 84
REMARK SMILES IDX 79 85 80 86 59 87 60 88 68 89 61 90 67 91 62 92 63 93 64 94
REMARK SMILES IDX 65 95 66 96
REMARK H PARENT 87 52 57 63
REMARK Flexibility Score: inf
ROOT
ATOM      1  C   UNL A   1      33.552  31.309  27.711  1.00  0.00     0.188 C 
ENDROOT
BRANCH   1   2
ATOM      2  O   UNL A   1      34.172  30.381  26.818  1.00  0.00    -0.377 OA
BRANCH   2   3
ATOM      3  C   UNL A   1      33.456  29.207  26.475  1.00  0.00     0.188 C 
BRANCH   3   4
ATOM      4  C   UNL A   1      32.026  29.491  25.976  1.00  0.00     0.188 C 
BRANCH   4   5
ATOM      5  O   UNL A   1      31.409  28.380  25.354  1.00  0.00    -0.376 OA
BRANCH   5   6
ATOM      6  C   UNL A   1      31.639  28.068  23.989  1.00  0.00     0.202 C 
BRANCH   6   7
ATOM      7  C   UNL A   1      32.767  27.154  23.472  1.00  0.00     0.261 C 
BRANCH   7   8
ATOM      8  O   UNL A   1      32.449  25.783  23.233  1.00  0.00    -0.460 OA
BRANCH   8   9
ATOM      9  C   UNL A   1      32.032  25.047  24.278  1.00  0.00     0.338 C 
ATOM     10  O   UNL A   1      30.924  25.049  24.783  1.00  0.00    -0.246 OA
BRANCH   9  11
ATOM     11  C   UNL A   1      33.106  24.079  24.593  1.00  0.00     0.087 C 
ATOM     12  C   UNL A   1      38.767  21.046  25.563  1.00  0.00     0.046 C 
ATOM     13  C   UNL A   1      37.549  21.935  25.591  1.00  0.00    -0.026 A 
ATOM     14  C   UNL A   1      37.652  23.298  25.929  1.00  0.00     0.045 A 
ATOM     15  C   UNL A   1      36.287  21.431  25.180  1.00  0.00    -0.004 A 
ATOM     16  Cl  UNL A   1      39.138  24.022  26.441  1.00  0.00    -0.084 Cl
ATOM     17  C   UNL A   1      36.551  24.151  25.824  1.00  0.00     0.032 A 
ATOM     18  C   UNL A   1      35.180  22.304  25.100  1.00  0.00     0.131 A 
ATOM     19  C   UNL A   1      36.074  19.984  24.797  1.00  0.00     0.049 C 
ATOM     20  C   UNL A   1      35.328  23.664  25.368  1.00  0.00     0.019 A 
ATOM     21  O   UNL A   1      33.985  21.750  24.732  1.00  0.00    -0.475 OA
ATOM     22  C   UNL A   1      34.243  24.586  25.082  1.00  0.00     0.027 C 
ATOM     23  C   UNL A   1      32.848  22.604  24.428  1.00  0.00     0.316 C 
BRANCH  23  24
ATOM     24  C   UNL A   1      32.358  22.251  23.019  1.00  0.00     0.430 C 
ATOM     25  F   UNL A   1      33.099  22.871  22.071  1.00  0.00    -0.167 F 
ATOM     26  F   UNL A   1      32.429  20.924  22.773  1.00  0.00    -0.167 F 
ATOM     27  F   UNL A   1      31.070  22.629  22.835  1.00  0.00    -0.167 F 
ENDBRANCH  23  24
ENDBRANCH   9  11
ENDBRANCH   8   9
ENDBRANCH   7   8
ENDBRANCH   6   7
ENDBRANCH   5   6
ENDBRANCH   4   5
ENDBRANCH   3   4
ENDBRANCH   2   3
ENDBRANCH   1   2
BRANCH   1  28
ATOM     28  C   UNL A   1      34.249  32.623  28.139  1.00  0.00     0.188 C 
BRANCH  28  29
ATOM     29  O   UNL A   1      34.091  32.952  29.515  1.00  0.00    -0.376 OA
BRANCH  29  30
ATOM     30  C   UNL A   1      35.011  32.399  30.440  1.00  0.00     0.202 C 
BRANCH  30  31
ATOM     31  C   UNL A   1      36.373  31.991  29.865  1.00  0.00     0.261 C 
BRANCH  31  32
ATOM     32  O   UNL A   1      36.456  30.653  29.353  1.00  0.00    -0.460 OA
BRANCH  32  33
ATOM     33  C   UNL A   1      36.895  29.693  30.194  1.00  0.00     0.338 C 
ATOM     34  O   UNL A   1      36.275  29.178  31.111  1.00  0.00    -0.246 OA
BRANCH  33  35
ATOM     35  C   UNL A   1      38.200  29.224  29.687  1.00  0.00     0.060 A 
ATOM     36  C   UNL A   1      39.109  28.639  30.578  1.00  0.00     0.016 A 
ATOM     37  C   UNL A   1      38.512  29.345  28.331  1.00  0.00     0.016 A 
ATOM     38  C   UNL A   1      40.350  28.199  30.117  1.00  0.00     0.010 A 
ATOM     39  C   UNL A   1      39.764  28.928  27.877  1.00  0.00     0.010 A 
ATOM     40  C   UNL A   1      40.700  28.385  28.774  1.00  0.00    -0.014 A 
BRANCH  40  41
ATOM     41  C   UNL A   1      42.111  28.217  28.351  1.00  0.00     0.031 A 
ATOM     42  C   UNL A   1      43.031  29.400  28.482  1.00  0.00     0.074 A 
ATOM     43  C   UNL A   1      42.575  27.043  27.887  1.00  0.00     0.049 A 
ATOM     44  N   UNL A   1      44.289  29.514  28.145  1.00  0.00    -0.248 NA
ATOM     45  C   UNL A   1      42.453  30.618  29.079  1.00  0.00     0.031 C 
ATOM     46  C   UNL A   1      41.799  25.809  27.772  1.00  0.00     0.029 A 
ATOM     47  N   UNL A   1      43.822  26.702  27.425  1.00  0.00    -0.354 N 
ATOM     48  C   UNL A   1      44.653  30.810  28.489  1.00  0.00     0.074 A 
ATOM     49  C   UNL A   1      43.477  31.456  29.028  1.00  0.00     0.031 C 
ATOM     50  C   UNL A   1      42.590  24.844  27.272  1.00  0.00     0.029 A 
ATOM     51  C   UNL A   1      43.915  25.400  26.996  1.00  0.00     0.049 A 
ATOM     52  H   UNL A   1      44.578  27.332  27.403  1.00  0.00     0.167 HD
ATOM     53  C   UNL A   1      45.862  31.408  28.376  1.00  0.00     0.031 A 
ATOM     54  C   UNL A   1      44.946  24.739  26.431  1.00  0.00     0.031 A 
ATOM     55  C   UNL A   1      47.023  30.771  27.817  1.00  0.00     0.049 A 
ATOM     56  C   UNL A   1      46.253  25.460  26.213  1.00  0.00     0.074 A 
ATOM     57  C   UNL A   1      48.292  31.297  27.647  1.00  0.00     0.029 A 
ATOM     58  N   UNL A   1      47.058  29.474  27.332  1.00  0.00    -0.354 N 
ATOM     59  N   UNL A   1      46.585  26.686  26.542  1.00  0.00    -0.248 NA
ATOM     60  C   UNL A   1      47.326  24.706  25.548  1.00  0.00     0.031 C 
ATOM     61  C   UNL A   1      49.077  30.337  27.004  1.00  0.00     0.029 A 
ATOM     62  C   UNL A   1      48.318  29.189  26.837  1.00  0.00     0.049 A 
ATOM     63  H   UNL A   1      46.298  28.846  27.339  1.00  0.00     0.167 HD
ATOM     64  C   UNL A   1      47.912  26.841  26.150  1.00  0.00     0.074 A 
ATOM     65  C   UNL A   1      48.326  25.578  25.572  1.00  0.00     0.031 C 
ATOM     66  C   UNL A   1      48.714  27.928  26.259  1.00  0.00     0.031 A 
BRANCH  53  67
ATOM     67  C   UNL A   1      45.979  32.834  28.842  1.00  0.00    -0.014 A 
ATOM     68  C   UNL A   1      45.194  33.851  28.272  1.00  0.00     0.010 A 
ATOM     69  C   UNL A   1      46.854  33.153  29.897  1.00  0.00     0.010 A 
ATOM     70  C   UNL A   1      45.300  35.167  28.729  1.00  0.00     0.020 A 
ATOM     71  C   UNL A   1      46.943  34.462  30.377  1.00  0.00     0.020 A 
ATOM     72  C   UNL A   1      46.172  35.463  29.781  1.00  0.00     0.054 A 
BRANCH  72  73
ATOM     73  S   UNL A   1      46.260  37.174  30.376  1.00  0.00     0.124 S 
ATOM     74  O   UNL A   1      44.902  37.393  30.868  1.00  0.00    -0.237 OA
ATOM     75  O   UNL A   1      47.295  37.099  31.403  1.00  0.00    -0.237 OA
ATOM     76  O   UNL A   1      46.621  37.940  29.186  1.00  0.00    -0.744 OA
ENDBRANCH  72  73
ENDBRANCH  53  67
BRANCH  54  77
ATOM     77  C   UNL A   1      44.786  23.315  26.024  1.00  0.00    -0.014 A 
ATOM     78  C   UNL A   1      43.542  22.833  25.582  1.00  0.00     0.010 A 
ATOM     79  C   UNL A   1      45.881  22.431  26.072  1.00  0.00     0.010 A 
ATOM     80  C   UNL A   1      43.393  21.496  25.200  1.00  0.00     0.020 A 
ATOM     81  C   UNL A   1      45.744  21.101  25.665  1.00  0.00     0.020 A 
ATOM     82  C   UNL A   1      44.498  20.640  25.236  1.00  0.00     0.054 A 
BRANCH  82  83
ATOM     83  S   UNL A   1      44.292  18.926  24.675  1.00  0.00     0.124 S 
ATOM     84  O   UNL A   1      43.008  18.564  25.265  1.00  0.00    -0.237 OA
ATOM     85  O   UNL A   1      44.302  19.073  23.221  1.00  0.00    -0.237 OA
ATOM     86  O   UNL A   1      45.454  18.240  25.233  1.00  0.00    -0.744 OA
ENDBRANCH  82  83
ENDBRANCH  54  77
BRANCH  66  87
ATOM     87  C   UNL A   1      50.135  27.807  25.769  1.00  0.00    -0.014 A 
ATOM     88  C   UNL A   1      51.224  28.031  26.629  1.00  0.00     0.010 A 
ATOM     89  C   UNL A   1      50.381  27.383  24.449  1.00  0.00     0.010 A 
ATOM     90  C   UNL A   1      52.533  27.860  26.170  1.00  0.00     0.020 A 
ATOM     91  C   UNL A   1      51.687  27.180  23.996  1.00  0.00     0.020 A 
ATOM     92  C   UNL A   1      52.756  27.432  24.858  1.00  0.00     0.054 A 
BRANCH  92  93
ATOM     93  S   UNL A   1      54.464  27.172  24.306  1.00  0.00     0.124 S 
ATOM     94  O   UNL A   1      54.738  25.820  24.787  1.00  0.00    -0.237 OA
ATOM     95  O   UNL A   1      54.354  27.311  22.855  1.00  0.00    -0.237 OA
ATOM     96  O   UNL A   1      55.213  28.234  24.973  1.00  0.00    -0.744 OA
ENDBRANCH  92  93
ENDBRANCH  66  87
ENDBRANCH  40  41
ENDBRANCH  33  35
ENDBRANCH  32  33
ENDBRANCH  31  32
ENDBRANCH  30  31
ENDBRANCH  29  30
ENDBRANCH  28  29
ENDBRANCH   1  28
TORSDOF 24
ENDMDL
MODEL 2
REMARK VINA RESULT:      -9.9      7.475     14.410
REMARK SMILES Cc1c(Cl)cc2c(c1C)O[C@H](C(F)(F)F)C(C(=O)OCCOCCOCCOCCOC(=O)c1ccc(-c3c4nc(c(-c5ccc(S(=O)(=O)[O-])cc5)c5ccc([nH]5)c(-c5ccc(S(=O)(=O)[O-])cc5)c5nc(c(-c6ccc(S(=O)(=O)[O-])cc6)c6ccc3[nH]6)C=C5)C=C4)cc1)=C2
REMARK SMILES IDX 26 1 25 2 24 3 23 4 22 5 21 6 20 7 19 8 17 9 18 10 16 11
REMARK SMILES IDX 1 12 2 13 3 14 8 15 4 16 5 17 7 18 9 19 6 20 10 21 94 22
REMARK SMILES IDX 11 23 12 24 13 25 14 26 15 27 27 28 28 29 29 30 30 31 31 32
REMARK SMILES IDX 32 33 33 34 34 35 35 36 93 37 36 38 92 39 37 40 38 41 39 42
REMARK SMILES IDX 86 43 40 44 91 45 85 46 87 47 41 48 90 49 84 50 83 51 42 53
REMARK SMILES IDX 72 54 53 55 71 56 54 57 57 58 70 59 88 60 55 61 56 62 69 64
REMARK SMILES IDX 89 65 58 66 43 67 44 68 52 69 45 70 51 71 46 72 47 73 48 74
REMARK SMILES IDX 49 75 50 76 73 77 74 78 82 79 75 80 81 81 76 82 77 83 78 84
REMARK SMILES IDX 79 85 80 86 59 87 60 88 68 89 61 90 67 91 62 92 63 93 64 94
REMARK SMILES IDX 65 95 66 96
REMARK H PARENT 87 52 57 63
REMARK Flexibility Score: inf
ROOT
ATOM      1  C   UNL A   1      45.592  42.115  30.754  1.00  0.00     0.188 C 
ENDROOT
BRANCH   1   2
ATOM      2  O   UNL A   1      45.902  42.135  29.360  1.00  0.00    -0.377 OA
BRANCH   2   3
ATOM      3  C   UNL A   1      45.664  43.333  28.641  1.00  0.00     0.188 C 
BRANCH   3   4
ATOM      4  C   UNL A   1      45.235  43.091  27.181  1.00  0.00     0.188 C 
BRANCH   4   5
ATOM      5  O   UNL A   1      44.758  41.780  26.938  1.00  0.00    -0.376 OA
BRANCH   5   6
ATOM      6  C   UNL A   1      45.070  41.085  25.742  1.00  0.00     0.202 C 
BRANCH   6   7
ATOM      7  C   UNL A   1      46.103  41.550  24.696  1.00  0.00     0.261 C 
BRANCH   7   8
ATOM      8  O   UNL A   1      45.607  42.068  23.463  1.00  0.00    -0.460 OA
BRANCH   8   9
ATOM      9  C   UNL A   1      45.217  43.354  23.436  1.00  0.00     0.338 C 
ATOM     10  O   UNL A   1      45.538  44.236  24.212  1.00  0.00    -0.246 OA
BRANCH   9  11
ATOM     11  C   UNL A   1      44.472  43.564  22.175  1.00  0.00     0.087 C 
ATOM     12  C   UNL A   1      41.957  45.888  16.657  1.00  0.00     0.046 C 
ATOM     13  C   UNL A   1      42.821  45.349  17.769  1.00  0.00    -0.026 A 
ATOM     14  C   UNL A   1      44.153  45.781  17.928  1.00  0.00     0.045 A 
ATOM     15  C   UNL A   1      42.273  44.467  18.737  1.00  0.00    -0.004 A 
ATOM     16  Cl  UNL A   1      44.924  46.857  16.813  1.00  0.00    -0.084 Cl
ATOM     17  C   UNL A   1      44.910  45.387  19.033  1.00  0.00     0.032 A 
ATOM     18  C   UNL A   1      43.061  44.063  19.836  1.00  0.00     0.131 A 
ATOM     19  C   UNL A   1      40.856  43.948  18.655  1.00  0.00     0.049 C 
ATOM     20  C   UNL A   1      44.350  44.565  20.010  1.00  0.00     0.019 A 
ATOM     21  O   UNL A   1      42.488  43.185  20.714  1.00  0.00    -0.475 OA
ATOM     22  C   UNL A   1      45.072  44.313  21.243  1.00  0.00     0.027 C 
ATOM     23  C   UNL A   1      43.146  42.878  21.974  1.00  0.00     0.316 C 
BRANCH  23  24
ATOM     24  C   UNL A   1      42.157  43.176  23.107  1.00  0.00     0.430 C 
ATOM     25  F   UNL A   1      42.510  42.539  24.248  1.00  0.00    -0.167 F 
ATOM     26  F   UNL A   1      42.093  44.495  23.392  1.00  0.00    -0.167 F 
ATOM     27  F   UNL A   1      40.905  42.769  22.788  1.00  0.00    -0.167 F 
ENDBRANCH  23  24
ENDBRANCH   9  11
ENDBRANCH   8   9
ENDBRANCH   7   8
ENDBRANCH   6   7
ENDBRANCH   5   6
ENDBRANCH   4   5
ENDBRANCH   3   4
ENDBRANCH   2   3
ENDBRANCH   1   2
BRANCH   1  28
ATOM     28  C   UNL A   1      46.562  41.513  31.800  1.00  0.00     0.188 C 
BRANCH  28  29
ATOM     29  O   UNL A   1      46.535  40.092  31.878  1.00  0.00    -0.376 OA
BRANCH  29  30
ATOM     30  C   UNL A   1      45.288  39.440  31.713  1.00  0.00     0.202 C 
BRANCH  30  31
ATOM     31  C   UNL A   1      45.308  38.169  30.854  1.00  0.00     0.261 C 
BRANCH  31  32
ATOM     32  O   UNL A   1      46.342  37.223  31.167  1.00  0.00    -0.460 OA
BRANCH  32  33
ATOM     33  C   UNL A   1      47.261  36.969  30.211  1.00  0.00     0.338 C 
ATOM     34  O   UNL A   1      48.170  37.700  29.852  1.00  0.00    -0.246 OA
BRANCH  33  35
ATOM     35  C   UNL A   1      47.098  35.559  29.807  1.00  0.00     0.060 A 
ATOM     36  C   UNL A   1      46.803  35.262  28.470  1.00  0.00     0.016 A 
ATOM     37  C   UNL A   1      47.258  34.535  30.743  1.00  0.00     0.016 A 
ATOM     38  C   UNL A   1      46.636  33.934  28.072  1.00  0.00     0.010 A 
ATOM     39  C   UNL A   1      47.066  33.210  30.349  1.00  0.00     0.010 A 
ATOM     40  C   UNL A   1      46.722  32.907  29.021  1.00  0.00    -0.014 A 
BRANCH  40  41
ATOM     41  C   UNL A   1      46.239  31.548  28.678  1.00  0.00     0.031 A 
ATOM     42  C   UNL A   1      44.795  31.225  28.946  1.00  0.00     0.074 A 
ATOM     43  C   UNL A   1      47.049  30.630  28.122  1.00  0.00     0.049 A 
ATOM     44  N   UNL A   1      44.149  30.102  28.772  1.00  0.00    -0.248 NA
ATOM     45  C   UNL A   1      43.965  32.321  29.479  1.00  0.00     0.031 C 
ATOM     46  C   UNL A   1      48.449  30.842  27.756  1.00  0.00     0.029 A 
ATOM     47  N   UNL A   1      46.801  29.327  27.765  1.00  0.00    -0.354 N 
ATOM     48  C   UNL A   1      42.843  30.354  29.170  1.00  0.00     0.074 A 
ATOM     49  C   UNL A   1      42.792  31.725  29.629  1.00  0.00     0.031 C 
ATOM     50  C   UNL A   1      48.936  29.707  27.225  1.00  0.00     0.029 A 
ATOM     51  C   UNL A   1      47.896  28.678  27.247  1.00  0.00     0.049 A 
ATOM     52  H   UNL A   1      45.921  28.899  27.871  1.00  0.00     0.167 HD
ATOM     53  C   UNL A   1      41.775  29.523  29.148  1.00  0.00     0.031 A 
ATOM     54  C   UNL A   1      48.045  27.397  26.854  1.00  0.00     0.031 A 
ATOM     55  C   UNL A   1      41.833  28.153  28.715  1.00  0.00     0.049 A 
ATOM     56  C   UNL A   1      46.869  26.457  26.942  1.00  0.00     0.074 A 
ATOM     57  C   UNL A   1      40.809  27.225  28.667  1.00  0.00     0.029 A 
ATOM     58  N   UNL A   1      42.976  27.515  28.262  1.00  0.00    -0.354 N 
ATOM     59  N   UNL A   1      45.637  26.708  27.321  1.00  0.00    -0.248 NA
ATOM     60  C   UNL A   1      47.102  25.060  26.545  1.00  0.00     0.031 C 
ATOM     61  C   UNL A   1      41.346  26.007  28.241  1.00  0.00     0.029 A 
ATOM     62  C   UNL A   1      42.690  26.195  27.958  1.00  0.00     0.049 A 
ATOM     63  H   UNL A   1      43.862  27.937  28.170  1.00  0.00     0.167 HD
ATOM     64  C   UNL A   1      44.944  25.508  27.184  1.00  0.00     0.074 A 
ATOM     65  C   UNL A   1      45.889  24.536  26.672  1.00  0.00     0.031 C 
ATOM     66  C   UNL A   1      43.643  25.237  27.455  1.00  0.00     0.031 A 
BRANCH  53  67
ATOM     67  C   UNL A   1      40.458  30.067  29.634  1.00  0.00    -0.014 A 
ATOM     68  C   UNL A   1      40.167  30.144  31.007  1.00  0.00     0.010 A 
ATOM     69  C   UNL A   1      39.519  30.550  28.705  1.00  0.00     0.010 A 
ATOM     70  C   UNL A   1      38.948  30.670  31.442  1.00  0.00     0.020 A 
ATOM     71  C   UNL A   1      38.311  31.104  29.137  1.00  0.00     0.020 A 
ATOM     72  C   UNL A   1      38.029  31.149  30.504  1.00  0.00     0.054 A 
BRANCH  72  73
ATOM     73  S   UNL A   1      36.472  31.860  31.103  1.00  0.00     0.124 S 
ATOM     74  O   UNL A   1      36.941  32.999  31.887  1.00  0.00    -0.237 OA
ATOM     75  O   UNL A   1      35.779  32.195  29.862  1.00  0.00    -0.237 OA
ATOM     76  O   UNL A   1      35.869  30.778  31.877  1.00  0.00    -0.744 OA
ENDBRANCH  72  73
ENDBRANCH  53  67
BRANCH  54  77
ATOM     77  C   UNL A   1      49.362  26.922  26.344  1.00  0.00    -0.014 A 
ATOM     78  C   UNL A   1      49.666  26.992  24.973  1.00  0.00     0.010 A 
ATOM     79  C   UNL A   1      50.324  26.401  27.230  1.00  0.00     0.010 A 
ATOM     80  C   UNL A   1      50.903  26.545  24.497  1.00  0.00     0.020 A 
ATOM     81  C   UNL A   1      51.572  25.980  26.762  1.00  0.00     0.020 A 
ATOM     82  C   UNL A   1      51.851  26.050  25.396  1.00  0.00     0.054 A 
BRANCH  82  83
ATOM     83  S   UNL A   1      53.472  25.537  24.758  1.00  0.00     0.124 S 
ATOM     84  O   UNL A   1      53.372  24.082  24.807  1.00  0.00    -0.237 OA
ATOM     85  O   UNL A   1      53.481  26.127  23.422  1.00  0.00    -0.237 OA
ATOM     86  O   UNL A   1      54.415  26.132  25.702  1.00  0.00    -0.744 OA
ENDBRANCH  82  83
ENDBRANCH  54  77
BRANCH  66  87
ATOM     87  C   UNL A   1      43.145  23.840  27.184  1.00  0.00    -0.014 A 
ATOM     88  C   UNL A   1      42.930  23.385  25.872  1.00  0.00     0.010 A 
ATOM     89  C   UNL A   1      42.965  22.946  28.256  1.00  0.00     0.010 A 
ATOM     90  C   UNL A   1      42.520  22.070  25.638  1.00  0.00     0.020 A 
ATOM     91  C   UNL A   1      42.586  21.621  28.025  1.00  0.00     0.020 A 
ATOM     92  C   UNL A   1      42.354  21.195  26.716  1.00  0.00     0.054 A 
BRANCH  92  93
ATOM     93  S   UNL A   1      41.869  19.480  26.379  1.00  0.00     0.124 S 
ATOM     94  O   UNL A   1      42.369  18.783  27.561  1.00  0.00    -0.237 OA
ATOM     95  O   UNL A   1      40.414  19.576  26.275  1.00  0.00    -0.237 OA
ATOM     96  O   UNL A   1      42.557  19.161  25.131  1.00  0.00    -0.744 OA
ENDBRANCH  92  93
ENDBRANCH  66  87
ENDBRANCH  40  41
ENDBRANCH  33  35
ENDBRANCH  32  33
ENDBRANCH  31  32
ENDBRANCH  30  31
ENDBRANCH  29  30
ENDBRANCH  28  29
ENDBRANCH   1  28
TORSDOF 24
ENDMDL
MODEL 3
REMARK VINA RESULT:      -9.9      8.600     15.403
REMARK SMILES Cc1c(Cl)cc2c(c1C)O[C@H](C(F)(F)F)C(C(=O)OCCOCCOCCOCCOC(=O)c1ccc(-c3c4nc(c(-c5ccc(S(=O)(=O)[O-])cc5)c5ccc([nH]5)c(-c5ccc(S(=O)(=O)[O-])cc5)c5nc(c(-c6ccc(S(=O)(=O)[O-])cc6)c6ccc3[nH]6)C=C5)C=C4)cc1)=C2
REMARK SMILES IDX 26 1 25 2 24 3 23 4 22 5 21 6 20 7 19 8 17 9 18 10 16 11
REMARK SMILES IDX 1 12 2 13 3 14 8 15 4 16 5 17 7 18 9 19 6 20 10 21 94 22
REMARK SMILES IDX 11 23 12 24 13 25 14 26 15 27 27 28 28 29 29 30 30 31 31 32
REMARK SMILES IDX 32 33 33 34 34 35 35 36 93 37 36 38 92 39 37 40 38 41 39 42
REMARK SMILES IDX 86 43 40 44 91 45 85 46 87 47 41 48 90 49 84 50 83 51 42 53
REMARK SMILES IDX 72 54 53 55 71 56 54 57 57 58 70 59 88 60 55 61 56 62 69 64
REMARK SMILES IDX 89 65 58 66 43 67 44 68 52 69 45 70 51 71 46 72 47 73 48 74
REMARK SMILES IDX 49 75 50 76 73 77 74 78 82 79 75 80 81 81 76 82 77 83 78 84
REMARK SMILES IDX 79 85 80 86 59 87 60 88 68 89 61 90 67 91 62 92 63 93 64 94
REMARK SMILES IDX 65 95 66 96
REMARK H PARENT 87 52 57 63
REMARK Flexibility Score: inf
ROOT
ATOM      1  C   UNL A   1      45.699  41.553  27.511  1.00  0.00     0.188 C 
ENDROOT
BRANCH   1   2
ATOM      2  O   UNL A   1      45.982  42.880  27.961  1.00  0.00    -0.377 OA
BRANCH   2   3
ATOM      3  C   UNL A   1      45.097  43.917  27.573  1.00  0.00     0.188 C 
BRANCH   3   4
ATOM      4  C   UNL A   1      45.648  44.790  26.429  1.00  0.00     0.188 C 
BRANCH   4   5
ATOM      5  O   UNL A   1      45.925  44.066  25.244  1.00  0.00    -0.376 OA
BRANCH   5   6
ATOM      6  C   UNL A   1      47.039  44.382  24.423  1.00  0.00     0.202 C 
BRANCH   6   7
ATOM      7  C   UNL A   1      46.996  44.491  22.886  1.00  0.00     0.261 C 
BRANCH   7   8
ATOM      8  O   UNL A   1      45.713  44.579  22.266  1.00  0.00    -0.460 OA
BRANCH   8   9
ATOM      9  C   UNL A   1      45.324  43.554  21.488  1.00  0.00     0.338 C 
ATOM     10  O   UNL A   1      45.415  42.365  21.737  1.00  0.00    -0.246 OA
BRANCH   9  11
ATOM     11  C   UNL A   1      44.580  44.126  20.344  1.00  0.00     0.087 C 
ATOM     12  C   UNL A   1      41.714  48.019  16.006  1.00  0.00     0.046 C 
ATOM     13  C   UNL A   1      42.656  47.245  16.894  1.00  0.00    -0.026 A 
ATOM     14  C   UNL A   1      43.843  47.829  17.377  1.00  0.00     0.045 A 
ATOM     15  C   UNL A   1      42.310  45.942  17.340  1.00  0.00    -0.004 A 
ATOM     16  Cl  UNL A   1      44.363  49.411  16.905  1.00  0.00    -0.084 Cl
ATOM     17  C   UNL A   1      44.646  47.164  18.306  1.00  0.00     0.032 A 
ATOM     18  C   UNL A   1      43.145  45.278  18.264  1.00  0.00     0.131 A 
ATOM     19  C   UNL A   1      41.058  45.231  16.881  1.00  0.00     0.049 C 
ATOM     20  C   UNL A   1      44.275  45.909  18.783  1.00  0.00     0.019 A 
ATOM     21  O   UNL A   1      42.775  44.012  18.627  1.00  0.00    -0.475 OA
ATOM     22  C   UNL A   1      45.007  45.306  19.882  1.00  0.00     0.027 C 
ATOM     23  C   UNL A   1      43.458  43.337  19.719  1.00  0.00     0.316 C 
BRANCH  23  24
ATOM     24  C   UNL A   1      42.401  42.913  20.745  1.00  0.00     0.430 C 
ATOM     25  F   UNL A   1      42.551  41.615  21.098  1.00  0.00    -0.167 F 
ATOM     26  F   UNL A   1      42.471  43.644  21.880  1.00  0.00    -0.167 F 
ATOM     27  F   UNL A   1      41.148  43.054  20.249  1.00  0.00    -0.167 F 
ENDBRANCH  23  24
ENDBRANCH   9  11
ENDBRANCH   8   9
ENDBRANCH   7   8
ENDBRANCH   6   7
ENDBRANCH   5   6
ENDBRANCH   4   5
ENDBRANCH   3   4
ENDBRANCH   2   3
ENDBRANCH   1   2
BRANCH   1  28
ATOM     28  C   UNL A   1      44.393  40.819  27.899  1.00  0.00     0.188 C 
BRANCH  28  29
ATOM     29  O   UNL A   1      43.327  40.983  26.971  1.00  0.00    -0.376 OA
BRANCH  29  30
ATOM     30  C   UNL A   1      42.588  39.834  26.596  1.00  0.00     0.202 C 
BRANCH  30  31
ATOM     31  C   UNL A   1      43.045  38.512  27.227  1.00  0.00     0.261 C 
BRANCH  31  32
ATOM     32  O   UNL A   1      42.673  37.322  26.515  1.00  0.00    -0.460 OA
BRANCH  32  33
ATOM     33  C   UNL A   1      42.188  36.291  27.240  1.00  0.00     0.338 C 
ATOM     34  O   UNL A   1      41.101  36.226  27.790  1.00  0.00    -0.246 OA
BRANCH  33  35
ATOM     35  C   UNL A   1      43.128  35.163  27.087  1.00  0.00     0.060 A 
ATOM     36  C   UNL A   1      43.593  34.502  28.231  1.00  0.00     0.016 A 
ATOM     37  C   UNL A   1      43.530  34.750  25.815  1.00  0.00     0.016 A 
ATOM     38  C   UNL A   1      44.489  33.440  28.105  1.00  0.00     0.010 A 
ATOM     39  C   UNL A   1      44.447  33.704  25.692  1.00  0.00     0.010 A 
ATOM     40  C   UNL A   1      44.955  33.068  26.838  1.00  0.00    -0.014 A 
BRANCH  40  41
ATOM     41  C   UNL A   1      46.128  32.170  26.720  1.00  0.00     0.031 A 
ATOM     42  C   UNL A   1      45.879  30.686  26.682  1.00  0.00     0.074 A 
ATOM     43  C   UNL A   1      47.380  32.651  26.624  1.00  0.00     0.049 A 
ATOM     44  N   UNL A   1      46.737  29.702  26.624  1.00  0.00    -0.248 NA
ATOM     45  C   UNL A   1      44.469  30.257  26.708  1.00  0.00     0.031 C 
ATOM     46  C   UNL A   1      47.744  34.067  26.586  1.00  0.00     0.029 A 
ATOM     47  N   UNL A   1      48.581  31.991  26.539  1.00  0.00    -0.354 N 
ATOM     48  C   UNL A   1      45.975  28.541  26.605  1.00  0.00     0.074 A 
ATOM     49  C   UNL A   1      44.588  28.938  26.694  1.00  0.00     0.031 C 
ATOM     50  C   UNL A   1      49.082  34.168  26.484  1.00  0.00     0.029 A 
ATOM     51  C   UNL A   1      49.669  32.828  26.488  1.00  0.00     0.049 A 
ATOM     52  H   UNL A   1      48.655  31.010  26.517  1.00  0.00     0.167 HD
ATOM     53  C   UNL A   1      46.391  27.256  26.513  1.00  0.00     0.031 A 
ATOM     54  C   UNL A   1      50.987  32.545  26.463  1.00  0.00     0.031 A 
ATOM     55  C   UNL A   1      47.772  26.863  26.450  1.00  0.00     0.049 A 
ATOM     56  C   UNL A   1      51.432  31.103  26.473  1.00  0.00     0.074 A 
ATOM     57  C   UNL A   1      48.298  25.585  26.368  1.00  0.00     0.029 A 
ATOM     58  N   UNL A   1      48.846  27.738  26.469  1.00  0.00    -0.354 N 
ATOM     59  N   UNL A   1      50.701  30.014  26.456  1.00  0.00    -0.248 NA
ATOM     60  C   UNL A   1      52.881  30.854  26.496  1.00  0.00     0.031 C 
ATOM     61  C   UNL A   1      49.691  25.686  26.397  1.00  0.00     0.029 A 
ATOM     62  C   UNL A   1      50.034  27.029  26.428  1.00  0.00     0.049 A 
ATOM     63  H   UNL A   1      48.776  28.720  26.506  1.00  0.00     0.167 HD
ATOM     64  C   UNL A   1      51.601  28.951  26.439  1.00  0.00     0.074 A 
ATOM     65  C   UNL A   1      52.929  29.529  26.432  1.00  0.00     0.031 C 
ATOM     66  C   UNL A   1      51.350  27.619  26.428  1.00  0.00     0.031 A 
BRANCH  53  67
ATOM     67  C   UNL A   1      45.337  26.182  26.503  1.00  0.00    -0.014 A 
ATOM     68  C   UNL A   1      44.922  25.584  25.300  1.00  0.00     0.010 A 
ATOM     69  C   UNL A   1      44.787  25.733  27.718  1.00  0.00     0.010 A 
ATOM     70  C   UNL A   1      43.957  24.575  25.309  1.00  0.00     0.020 A 
ATOM     71  C   UNL A   1      43.843  24.704  27.734  1.00  0.00     0.020 A 
ATOM     72  C   UNL A   1      43.425  24.139  26.526  1.00  0.00     0.054 A 
BRANCH  72  73
ATOM     73  S   UNL A   1      42.201  22.801  26.507  1.00  0.00     0.124 S 
ATOM     74  O   UNL A   1      40.953  23.531  26.715  1.00  0.00    -0.237 OA
ATOM     75  O   UNL A   1      42.378  22.228  25.176  1.00  0.00    -0.237 OA
ATOM     76  O   UNL A   1      42.609  21.939  27.614  1.00  0.00    -0.744 OA
ENDBRANCH  72  73
ENDBRANCH  53  67
BRANCH  54  77
ATOM     77  C   UNL A   1      51.987  33.649  26.434  1.00  0.00    -0.014 A 
ATOM     78  C   UNL A   1      52.458  34.155  25.210  1.00  0.00     0.010 A 
ATOM     79  C   UNL A   1      52.472  34.206  27.633  1.00  0.00     0.010 A 
ATOM     80  C   UNL A   1      53.397  35.192  25.184  1.00  0.00     0.020 A 
ATOM     81  C   UNL A   1      53.388  35.261  27.612  1.00  0.00     0.020 A 
ATOM     82  C   UNL A   1      53.849  35.744  26.386  1.00  0.00     0.054 A 
BRANCH  82  83
ATOM     83  S   UNL A   1      55.019  37.131  26.323  1.00  0.00     0.124 S 
ATOM     84  O   UNL A   1      54.215  38.231  26.843  1.00  0.00    -0.237 OA
ATOM     85  O   UNL A   1      56.097  36.668  27.192  1.00  0.00    -0.237 OA
ATOM     86  O   UNL A   1      55.365  37.223  24.906  1.00  0.00    -0.744 OA
ENDBRANCH  82  83
ENDBRANCH  54  77
BRANCH  66  87
ATOM     87  C   UNL A   1      52.529  26.681  26.382  1.00  0.00    -0.014 A 
ATOM     88  C   UNL A   1      52.983  26.139  25.167  1.00  0.00     0.010 A 
ATOM     89  C   UNL A   1      53.242  26.402  27.563  1.00  0.00     0.010 A 
ATOM     90  C   UNL A   1      54.111  25.315  25.138  1.00  0.00     0.020 A 
ATOM     91  C   UNL A   1      54.390  25.605  27.534  1.00  0.00     0.020 A 
ATOM     92  C   UNL A   1      54.810  25.056  26.321  1.00  0.00     0.054 A 
BRANCH  92  93
ATOM     93  S   UNL A   1      56.298  24.023  26.246  1.00  0.00     0.124 S 
ATOM     94  O   UNL A   1      57.088  24.544  27.358  1.00  0.00    -0.237 OA
ATOM     95  O   UNL A   1      55.762  22.677  26.432  1.00  0.00    -0.237 OA
ATOM     96  O   UNL A   1      56.843  24.292  24.917  1.00  0.00    -0.744 OA
ENDBRANCH  92  93
ENDBRANCH  66  87
ENDBRANCH  40  41
ENDBRANCH  33  35
ENDBRANCH  32  33
ENDBRANCH  31  32
ENDBRANCH  30  31
ENDBRANCH  29  30
ENDBRANCH  28  29
ENDBRANCH   1  28
TORSDOF 24
ENDMDL
