MODEL 1
REMARK VINA RESULT:      -8.1      0.000      0.000
REMARK SMILES COc1cc(/C=N/NC(=O)c2cc(Cl)ccc2O)ccc1OCC(=O)OCCOCCOCCOCCOC(=O)c1ccc(-c2c3nc(c(-c4ccc(S(=O)(=O)[O-])cc4)c4ccc([nH]4)c(-c4ccc(S(=O)(=O)[O-])cc4)c4nc(c(-c5ccc(S(=O)(=O)[O-])cc5)c5ccc2[nH]5)C=C4)C=C3)cc1
REMARK SMILES IDX 30 1 29 2 28 3 27 4 26 5 24 6 25 7 23 8 22 9 21 10 3 11 4 12
REMARK SMILES IDX 5 13 20 14 19 15 2 16 1 17 6 18 7 19 8 20 9 21 10 23 11 24
REMARK SMILES IDX 12 25 17 26 13 27 16 28 14 29 15 30 18 31 31 33 32 34 33 35
REMARK SMILES IDX 34 36 35 37 36 38 37 39 38 40 39 41 40 42 41 43 42 44 100 45
REMARK SMILES IDX 43 46 99 47 44 48 45 49 46 50 93 51 47 52 98 53 92 54 94 55
REMARK SMILES IDX 48 56 97 57 91 58 90 59 49 61 79 62 60 63 78 64 61 65 64 66
REMARK SMILES IDX 77 67 95 68 62 69 63 70 76 72 96 73 65 74 50 75 51 76 59 77
REMARK SMILES IDX 52 78 58 79 53 80 54 81 55 82 56 83 57 84 80 85 81 86 89 87
REMARK SMILES IDX 82 88 88 89 83 90 84 91 85 92 86 93 87 94 66 95 67 96 75 97
REMARK SMILES IDX 68 98 74 99 69 100 70 101 71 102 72 103 73 104
REMARK H PARENT 8 22 18 32 94 60 64 71
REMARK Flexibility Score: inf
ROOT
ATOM      1  C   UNL A   1      34.247  20.923  26.104  1.00  0.00     0.188 C 
ENDROOT
BRANCH   1   2
ATOM      2  O   UNL A   1      33.195  20.359  25.355  1.00  0.00    -0.376 OA
BRANCH   2   3
ATOM      3  C   UNL A   1      31.960  21.045  25.291  1.00  0.00     0.202 C 
BRANCH   3   4
ATOM      4  C   UNL A   1      31.914  22.534  24.895  1.00  0.00     0.261 C 
BRANCH   4   5
ATOM      5  O   UNL A   1      30.688  23.253  25.162  1.00  0.00    -0.461 OA
BRANCH   5   6
ATOM      6  C   UNL A   1      30.661  24.156  26.173  1.00  0.00     0.344 C 
ATOM      7  O   UNL A   1      31.252  23.998  27.237  1.00  0.00    -0.248 OA
BRANCH   6   8
ATOM      8  C   UNL A   1      29.770  25.398  25.873  1.00  0.00     0.352 C 
BRANCH   8   9
ATOM      9  O   UNL A   1      30.215  26.674  25.462  1.00  0.00    -0.478 OA
BRANCH   9  10
ATOM     10  C   UNL A   1      31.448  27.222  25.671  1.00  0.00     0.162 A 
ATOM     11  C   UNL A   1      32.588  27.279  24.857  1.00  0.00     0.161 A 
ATOM     12  C   UNL A   1      33.670  28.143  25.197  1.00  0.00     0.060 A 
ATOM     13  C   UNL A   1      33.621  28.902  26.378  1.00  0.00    -0.002 A 
ATOM     14  C   UNL A   1      31.497  27.881  26.911  1.00  0.00     0.051 A 
ATOM     15  C   UNL A   1      32.563  28.708  27.267  1.00  0.00     0.014 A 
BRANCH  11  16
ATOM     16  O   UNL A   1      32.783  26.338  23.880  1.00  0.00    -0.493 OA
ATOM     17  C   UNL A   1      33.972  25.572  24.011  1.00  0.00     0.278 C 
ENDBRANCH  11  16
BRANCH  13  18
ATOM     18  C   UNL A   1      34.545  30.015  26.732  1.00  0.00     0.141 C 
ATOM     19  N   UNL A   1      34.293  30.994  27.542  1.00  0.00    -0.180 NA
BRANCH  19  20
ATOM     20  N   UNL A   1      35.284  31.926  27.808  1.00  0.00    -0.243 N 
ATOM     21  C   UNL A   1      36.375  31.961  28.672  1.00  0.00     0.275 C 
ATOM     22  H   UNL A   1      35.197  32.744  27.266  1.00  0.00     0.194 HD
ATOM     23  O   UNL A   1      37.022  33.003  28.788  1.00  0.00    -0.267 OA
BRANCH  21  24
ATOM     24  C   UNL A   1      36.813  30.779  29.446  1.00  0.00     0.084 A 
ATOM     25  C   UNL A   1      37.667  29.865  28.807  1.00  0.00     0.038 A 
ATOM     26  C   UNL A   1      36.434  30.555  30.773  1.00  0.00     0.128 A 
ATOM     27  C   UNL A   1      38.224  28.816  29.537  1.00  0.00     0.042 A 
ATOM     28  C   UNL A   1      37.017  29.522  31.504  1.00  0.00     0.048 A 
ATOM     29  Cl  UNL A   1      39.305  27.716  28.775  1.00  0.00    -0.084 Cl
ATOM     30  C   UNL A   1      37.932  28.664  30.892  1.00  0.00     0.024 A 
BRANCH  26  31
ATOM     31  O   UNL A   1      35.533  31.334  31.443  1.00  0.00    -0.507 OA
ATOM     32  H   UNL A   1      35.591  32.268  31.391  1.00  0.00     0.293 HD
ENDBRANCH  26  31
ENDBRANCH  21  24
ENDBRANCH  19  20
ENDBRANCH  13  18
ENDBRANCH   9  10
ENDBRANCH   8   9
ENDBRANCH   6   8
ENDBRANCH   5   6
ENDBRANCH   4   5
ENDBRANCH   3   4
ENDBRANCH   2   3
ENDBRANCH   1   2
BRANCH   1  33
ATOM     33  C   UNL A   1      35.599  21.019  25.364  1.00  0.00     0.188 C 
BRANCH  33  34
ATOM     34  O   UNL A   1      36.034  22.144  24.616  1.00  0.00    -0.377 OA
BRANCH  34  35
ATOM     35  C   UNL A   1      37.422  22.338  24.451  1.00  0.00     0.188 C 
BRANCH  35  36
ATOM     36  C   UNL A   1      38.280  21.698  25.557  1.00  0.00     0.188 C 
BRANCH  36  37
ATOM     37  O   UNL A   1      39.106  22.627  26.248  1.00  0.00    -0.376 OA
BRANCH  37  38
ATOM     38  C   UNL A   1      40.423  22.226  26.594  1.00  0.00     0.202 C 
BRANCH  38  39
ATOM     39  C   UNL A   1      41.593  22.694  25.720  1.00  0.00     0.261 C 
BRANCH  39  40
ATOM     40  O   UNL A   1      42.605  23.483  26.326  1.00  0.00    -0.460 OA
BRANCH  40  41
ATOM     41  C   UNL A   1      42.679  24.772  25.967  1.00  0.00     0.338 C 
ATOM     42  O   UNL A   1      42.468  25.250  24.863  1.00  0.00    -0.246 OA
BRANCH  41  43
ATOM     43  C   UNL A   1      42.820  25.511  27.227  1.00  0.00     0.060 A 
ATOM     44  C   UNL A   1      43.709  26.589  27.252  1.00  0.00     0.016 A 
ATOM     45  C   UNL A   1      42.031  25.189  28.340  1.00  0.00     0.016 A 
ATOM     46  C   UNL A   1      43.850  27.325  28.415  1.00  0.00     0.010 A 
ATOM     47  C   UNL A   1      42.203  25.902  29.522  1.00  0.00     0.010 A 
ATOM     48  C   UNL A   1      43.160  26.927  29.568  1.00  0.00    -0.014 A 
BRANCH  48  49
ATOM     49  C   UNL A   1      43.741  27.352  30.854  1.00  0.00     0.031 A 
ATOM     50  C   UNL A   1      42.910  28.291  31.686  1.00  0.00     0.074 A 
ATOM     51  C   UNL A   1      44.866  26.787  31.319  1.00  0.00     0.049 A 
ATOM     52  N   UNL A   1      43.111  28.718  32.902  1.00  0.00    -0.248 NA
ATOM     53  C   UNL A   1      41.668  28.802  31.069  1.00  0.00     0.031 C 
ATOM     54  C   UNL A   1      45.686  25.811  30.602  1.00  0.00     0.029 A 
ATOM     55  N   UNL A   1      45.490  26.933  32.527  1.00  0.00    -0.354 N 
ATOM     56  C   UNL A   1      42.017  29.525  33.197  1.00  0.00     0.074 A 
ATOM     57  C   UNL A   1      41.181  29.576  32.024  1.00  0.00     0.031 C 
ATOM     58  C   UNL A   1      46.705  25.434  31.396  1.00  0.00     0.029 A 
ATOM     59  C   UNL A   1      46.617  26.160  32.660  1.00  0.00     0.049 A 
ATOM     60  H   UNL A   1      45.161  27.535  33.234  1.00  0.00     0.167 HD
ATOM     61  C   UNL A   1      41.724  30.149  34.358  1.00  0.00     0.031 A 
ATOM     62  C   UNL A   1      47.473  26.066  33.694  1.00  0.00     0.031 A 
ATOM     63  C   UNL A   1      42.578  30.099  35.511  1.00  0.00     0.049 A 
ATOM     64  C   UNL A   1      47.177  26.866  34.939  1.00  0.00     0.074 A 
ATOM     65  C   UNL A   1      42.413  30.724  36.732  1.00  0.00     0.029 A 
ATOM     66  N   UNL A   1      43.758  29.375  35.581  1.00  0.00    -0.354 N 
ATOM     67  N   UNL A   1      46.144  27.633  35.205  1.00  0.00    -0.248 NA
ATOM     68  C   UNL A   1      48.154  26.771  36.030  1.00  0.00     0.031 C 
ATOM     69  C   UNL A   1      43.525  30.419  37.523  1.00  0.00     0.029 A 
ATOM     70  C   UNL A   1      44.344  29.549  36.820  1.00  0.00     0.049 A 
ATOM     71  H   UNL A   1      44.124  28.819  34.854  1.00  0.00     0.167 HD
ATOM     72  C   UNL A   1      46.331  28.082  36.507  1.00  0.00     0.074 A 
ATOM     73  C   UNL A   1      47.559  27.475  36.981  1.00  0.00     0.031 C 
ATOM     74  C   UNL A   1      45.567  28.922  37.252  1.00  0.00     0.031 A 
BRANCH  61  75
ATOM     75  C   UNL A   1      40.450  30.945  34.423  1.00  0.00    -0.014 A 
ATOM     76  C   UNL A   1      39.473  30.675  35.398  1.00  0.00     0.010 A 
ATOM     77  C   UNL A   1      40.244  32.007  33.524  1.00  0.00     0.010 A 
ATOM     78  C   UNL A   1      38.310  31.446  35.468  1.00  0.00     0.020 A 
ATOM     79  C   UNL A   1      39.096  32.798  33.608  1.00  0.00     0.020 A 
ATOM     80  C   UNL A   1      38.133  32.510  34.579  1.00  0.00     0.054 A 
BRANCH  80  81
ATOM     81  S   UNL A   1      36.652  33.542  34.743  1.00  0.00     0.124 S 
ATOM     82  O   UNL A   1      36.357  33.426  36.169  1.00  0.00    -0.237 OA
ATOM     83  O   UNL A   1      37.128  34.851  34.305  1.00  0.00    -0.237 OA
ATOM     84  O   UNL A   1      35.684  32.905  33.853  1.00  0.00    -0.744 OA
ENDBRANCH  80  81
ENDBRANCH  61  75
BRANCH  62  85
ATOM     85  C   UNL A   1      48.698  25.224  33.596  1.00  0.00    -0.014 A 
ATOM     86  C   UNL A   1      49.783  25.605  32.786  1.00  0.00     0.010 A 
ATOM     87  C   UNL A   1      48.757  23.992  34.274  1.00  0.00     0.010 A 
ATOM     88  C   UNL A   1      50.874  24.746  32.611  1.00  0.00     0.020 A 
ATOM     89  C   UNL A   1      49.861  23.148  34.132  1.00  0.00     0.020 A 
ATOM     90  C   UNL A   1      50.901  23.519  33.280  1.00  0.00     0.054 A 
BRANCH  90  91
ATOM     91  S   UNL A   1      52.314  22.412  33.025  1.00  0.00     0.124 S 
ATOM     92  O   UNL A   1      53.382  23.354  32.703  1.00  0.00    -0.237 OA
ATOM     93  O   UNL A   1      52.428  21.742  34.317  1.00  0.00    -0.237 OA
ATOM     94  O   UNL A   1      51.882  21.555  31.923  1.00  0.00    -0.744 OA
ENDBRANCH  90  91
ENDBRANCH  62  85
BRANCH  74  95
ATOM     95  C   UNL A   1      46.018  29.183  38.664  1.00  0.00    -0.014 A 
ATOM     96  C   UNL A   1      45.668  28.320  39.717  1.00  0.00     0.010 A 
ATOM     97  C   UNL A   1      46.822  30.306  38.933  1.00  0.00     0.010 A 
ATOM     98  C   UNL A   1      46.057  28.614  41.025  1.00  0.00     0.020 A 
ATOM     99  C   UNL A   1      47.247  30.580  40.233  1.00  0.00     0.020 A 
ATOM    100  C   UNL A   1      46.839  29.746  41.275  1.00  0.00     0.054 A 
BRANCH 100 101
ATOM    101  S   UNL A   1      47.328  30.106  42.982  1.00  0.00     0.124 S 
ATOM    102  O   UNL A   1      46.242  30.973  43.431  1.00  0.00    -0.237 OA
ATOM    103  O   UNL A   1      47.367  28.778  43.590  1.00  0.00    -0.237 OA
ATOM    104  O   UNL A   1      48.628  30.758  42.840  1.00  0.00    -0.744 OA
ENDBRANCH 100 101
ENDBRANCH  74  95
ENDBRANCH  48  49
ENDBRANCH  41  43
ENDBRANCH  40  41
ENDBRANCH  39  40
ENDBRANCH  38  39
ENDBRANCH  37  38
ENDBRANCH  36  37
ENDBRANCH  35  36
ENDBRANCH  34  35
ENDBRANCH  33  34
ENDBRANCH   1  33
TORSDOF 30
ENDMDL
MODEL 2
REMARK VINA RESULT:      -7.6      1.844      2.466
REMARK SMILES COc1cc(/C=N/NC(=O)c2cc(Cl)ccc2O)ccc1OCC(=O)OCCOCCOCCOCCOC(=O)c1ccc(-c2c3nc(c(-c4ccc(S(=O)(=O)[O-])cc4)c4ccc([nH]4)c(-c4ccc(S(=O)(=O)[O-])cc4)c4nc(c(-c5ccc(S(=O)(=O)[O-])cc5)c5ccc2[nH]5)C=C4)C=C3)cc1
REMARK SMILES IDX 30 1 29 2 28 3 27 4 26 5 24 6 25 7 23 8 22 9 21 10 3 11 4 12
REMARK SMILES IDX 5 13 20 14 19 15 2 16 1 17 6 18 7 19 8 20 9 21 10 23 11 24
REMARK SMILES IDX 12 25 17 26 13 27 16 28 14 29 15 30 18 31 31 33 32 34 33 35
REMARK SMILES IDX 34 36 35 37 36 38 37 39 38 40 39 41 40 42 41 43 42 44 100 45
REMARK SMILES IDX 43 46 99 47 44 48 45 49 46 50 93 51 47 52 98 53 92 54 94 55
REMARK SMILES IDX 48 56 97 57 91 58 90 59 49 61 79 62 60 63 78 64 61 65 64 66
REMARK SMILES IDX 77 67 95 68 62 69 63 70 76 72 96 73 65 74 50 75 51 76 59 77
REMARK SMILES IDX 52 78 58 79 53 80 54 81 55 82 56 83 57 84 80 85 81 86 89 87
REMARK SMILES IDX 82 88 88 89 83 90 84 91 85 92 86 93 87 94 66 95 67 96 75 97
REMARK SMILES IDX 68 98 74 99 69 100 70 101 71 102 72 103 73 104
REMARK H PARENT 8 22 18 32 94 60 64 71
REMARK Flexibility Score: inf
ROOT
ATOM      1  C   UNL A   1      33.853  21.530  25.960  1.00  0.00     0.188 C 
ENDROOT
BRANCH   1   2
ATOM      2  O   UNL A   1      32.590  21.534  25.334  1.00  0.00    -0.376 OA
BRANCH   2   3
ATOM      3  C   UNL A   1      31.665  22.549  25.671  1.00  0.00     0.202 C 
BRANCH   3   4
ATOM      4  C   UNL A   1      31.823  23.971  25.099  1.00  0.00     0.261 C 
BRANCH   4   5
ATOM      5  O   UNL A   1      30.612  24.713  24.823  1.00  0.00    -0.461 OA
BRANCH   5   6
ATOM      6  C   UNL A   1      30.363  25.847  25.522  1.00  0.00     0.344 C 
ATOM      7  O   UNL A   1      30.260  25.881  26.744  1.00  0.00    -0.248 OA
BRANCH   6   8
ATOM      8  C   UNL A   1      30.172  27.104  24.620  1.00  0.00     0.352 C 
BRANCH   8   9
ATOM      9  O   UNL A   1      31.025  28.227  24.550  1.00  0.00    -0.478 OA
BRANCH   9  10
ATOM     10  C   UNL A   1      32.019  28.561  25.424  1.00  0.00     0.162 A 
ATOM     11  C   UNL A   1      33.271  27.979  25.672  1.00  0.00     0.161 A 
ATOM     12  C   UNL A   1      34.243  28.673  26.450  1.00  0.00     0.060 A 
ATOM     13  C   UNL A   1      33.932  29.921  27.016  1.00  0.00    -0.002 A 
ATOM     14  C   UNL A   1      31.695  29.736  26.123  1.00  0.00     0.051 A 
ATOM     15  C   UNL A   1      32.630  30.410  26.909  1.00  0.00     0.014 A 
BRANCH  11  16
ATOM     16  O   UNL A   1      33.481  26.655  25.390  1.00  0.00    -0.493 OA
ATOM     17  C   UNL A   1      34.224  26.402  24.205  1.00  0.00     0.278 C 
ENDBRANCH  11  16
BRANCH  13  18
ATOM     18  C   UNL A   1      34.909  30.861  27.631  1.00  0.00     0.141 C 
ATOM     19  N   UNL A   1      34.831  31.387  28.812  1.00  0.00    -0.180 NA
BRANCH  19  20
ATOM     20  N   UNL A   1      35.855  32.206  29.259  1.00  0.00    -0.243 N 
ATOM     21  C   UNL A   1      35.926  33.536  29.666  1.00  0.00     0.275 C 
ATOM     22  H   UNL A   1      36.726  31.747  29.299  1.00  0.00     0.194 HD
ATOM     23  O   UNL A   1      37.025  34.042  29.892  1.00  0.00    -0.267 OA
BRANCH  21  24
ATOM     24  C   UNL A   1      34.721  34.370  29.867  1.00  0.00     0.084 A 
ATOM     25  C   UNL A   1      34.494  34.885  31.154  1.00  0.00     0.038 A 
ATOM     26  C   UNL A   1      33.827  34.677  28.836  1.00  0.00     0.128 A 
ATOM     27  C   UNL A   1      33.457  35.793  31.361  1.00  0.00     0.042 A 
ATOM     28  C   UNL A   1      32.811  35.608  29.043  1.00  0.00     0.048 A 
ATOM     29  Cl  UNL A   1      33.199  36.462  32.924  1.00  0.00    -0.084 Cl
ATOM     30  C   UNL A   1      32.639  36.185  30.302  1.00  0.00     0.024 A 
BRANCH  26  31
ATOM     31  O   UNL A   1      33.912  34.145  27.580  1.00  0.00    -0.507 OA
ATOM     32  H   UNL A   1      34.517  33.451  27.405  1.00  0.00     0.293 HD
ENDBRANCH  26  31
ENDBRANCH  21  24
ENDBRANCH  19  20
ENDBRANCH  13  18
ENDBRANCH   9  10
ENDBRANCH   8   9
ENDBRANCH   6   8
ENDBRANCH   5   6
ENDBRANCH   4   5
ENDBRANCH   3   4
ENDBRANCH   2   3
ENDBRANCH   1   2
BRANCH   1  33
ATOM     33  C   UNL A   1      35.041  21.185  25.035  1.00  0.00     0.188 C 
BRANCH  33  34
ATOM     34  O   UNL A   1      35.795  22.135  24.299  1.00  0.00    -0.377 OA
BRANCH  34  35
ATOM     35  C   UNL A   1      37.200  22.001  24.281  1.00  0.00     0.188 C 
BRANCH  35  36
ATOM     36  C   UNL A   1      37.788  21.402  25.571  1.00  0.00     0.188 C 
BRANCH  36  37
ATOM     37  O   UNL A   1      38.571  22.320  26.323  1.00  0.00    -0.376 OA
BRANCH  37  38
ATOM     38  C   UNL A   1      39.915  21.973  26.616  1.00  0.00     0.202 C 
BRANCH  38  39
ATOM     39  C   UNL A   1      41.042  22.616  25.798  1.00  0.00     0.261 C 
BRANCH  39  40
ATOM     40  O   UNL A   1      42.113  23.227  26.501  1.00  0.00    -0.460 OA
BRANCH  40  41
ATOM     41  C   UNL A   1      42.464  24.466  26.132  1.00  0.00     0.338 C 
ATOM     42  O   UNL A   1      42.450  24.941  25.007  1.00  0.00    -0.246 OA
BRANCH  41  43
ATOM     43  C   UNL A   1      42.627  25.205  27.389  1.00  0.00     0.060 A 
ATOM     44  C   UNL A   1      43.521  26.280  27.401  1.00  0.00     0.016 A 
ATOM     45  C   UNL A   1      41.854  24.888  28.515  1.00  0.00     0.016 A 
ATOM     46  C   UNL A   1      43.683  27.016  28.561  1.00  0.00     0.010 A 
ATOM     47  C   UNL A   1      42.047  25.601  29.693  1.00  0.00     0.010 A 
ATOM     48  C   UNL A   1      43.009  26.621  29.725  1.00  0.00    -0.014 A 
BRANCH  48  49
ATOM     49  C   UNL A   1      43.611  27.044  31.001  1.00  0.00     0.031 A 
ATOM     50  C   UNL A   1      42.852  28.077  31.790  1.00  0.00     0.074 A 
ATOM     51  C   UNL A   1      44.682  26.407  31.499  1.00  0.00     0.049 A 
ATOM     52  N   UNL A   1      43.076  28.530  32.992  1.00  0.00    -0.248 NA
ATOM     53  C   UNL A   1      41.661  28.664  31.140  1.00  0.00     0.031 C 
ATOM     54  C   UNL A   1      45.427  25.343  30.827  1.00  0.00     0.029 A 
ATOM     55  N   UNL A   1      45.305  26.547  32.709  1.00  0.00    -0.354 N 
ATOM     56  C   UNL A   1      42.049  29.434  33.245  1.00  0.00     0.074 A 
ATOM     57  C   UNL A   1      41.231  29.510  32.061  1.00  0.00     0.031 C 
ATOM     58  C   UNL A   1      46.404  24.914  31.646  1.00  0.00     0.029 A 
ATOM     59  C   UNL A   1      46.364  25.690  32.882  1.00  0.00     0.049 A 
ATOM     60  H   UNL A   1      45.021  27.198  33.390  1.00  0.00     0.167 HD
ATOM     61  C   UNL A   1      41.797  30.121  34.380  1.00  0.00     0.031 A 
ATOM     62  C   UNL A   1      47.202  25.565  33.929  1.00  0.00     0.031 A 
ATOM     63  C   UNL A   1      42.634  30.044  35.544  1.00  0.00     0.049 A 
ATOM     64  C   UNL A   1      46.960  26.431  35.141  1.00  0.00     0.074 A 
ATOM     65  C   UNL A   1      42.509  30.724  36.740  1.00  0.00     0.029 A 
ATOM     66  N   UNL A   1      43.751  29.230  35.653  1.00  0.00    -0.354 N 
ATOM     67  N   UNL A   1      45.991  27.288  35.368  1.00  0.00    -0.248 NA
ATOM     68  C   UNL A   1      47.916  26.297  36.246  1.00  0.00     0.031 C 
ATOM     69  C   UNL A   1      43.587  30.359  37.554  1.00  0.00     0.029 A 
ATOM     70  C   UNL A   1      44.338  29.400  36.892  1.00  0.00     0.049 A 
ATOM     71  H   UNL A   1      44.077  28.621  34.951  1.00  0.00     0.167 HD
ATOM     72  C   UNL A   1      46.202  27.768  36.655  1.00  0.00     0.074 A 
ATOM     73  C   UNL A   1      47.372  27.081  37.164  1.00  0.00     0.031 C 
ATOM     74  C   UNL A   1      45.502  28.693  37.361  1.00  0.00     0.031 A 
BRANCH  61  75
ATOM     75  C   UNL A   1      40.592  31.020  34.401  1.00  0.00    -0.014 A 
ATOM     76  C   UNL A   1      40.596  32.257  33.730  1.00  0.00     0.010 A 
ATOM     77  C   UNL A   1      39.424  30.605  35.063  1.00  0.00     0.010 A 
ATOM     78  C   UNL A   1      39.457  33.065  33.728  1.00  0.00     0.020 A 
ATOM     79  C   UNL A   1      38.273  31.398  35.041  1.00  0.00     0.020 A 
ATOM     80  C   UNL A   1      38.298  32.625  34.376  1.00  0.00     0.054 A 
BRANCH  80  81
ATOM     81  S   UNL A   1      36.811  33.659  34.291  1.00  0.00     0.124 S 
ATOM     82  O   UNL A   1      36.320  33.598  35.665  1.00  0.00    -0.237 OA
ATOM     83  O   UNL A   1      37.348  34.952  33.873  1.00  0.00    -0.237 OA
ATOM     84  O   UNL A   1      35.975  32.986  33.300  1.00  0.00    -0.744 OA
ENDBRANCH  80  81
ENDBRANCH  61  75
BRANCH  62  85
ATOM     85  C   UNL A   1      48.355  24.623  33.875  1.00  0.00    -0.014 A 
ATOM     86  C   UNL A   1      49.507  24.923  33.127  1.00  0.00     0.010 A 
ATOM     87  C   UNL A   1      48.275  23.381  34.531  1.00  0.00     0.010 A 
ATOM     88  C   UNL A   1      50.529  23.978  32.990  1.00  0.00     0.020 A 
ATOM     89  C   UNL A   1      49.310  22.449  34.427  1.00  0.00     0.020 A 
ATOM     90  C   UNL A   1      50.419  22.743  33.635  1.00  0.00     0.054 A 
BRANCH  90  91
ATOM     91  S   UNL A   1      51.746  21.524  33.429  1.00  0.00     0.124 S 
ATOM     92  O   UNL A   1      51.055  20.272  33.717  1.00  0.00    -0.237 OA
ATOM     93  O   UNL A   1      52.145  21.724  32.039  1.00  0.00    -0.237 OA
ATOM     94  O   UNL A   1      52.741  21.932  34.419  1.00  0.00    -0.744 OA
ENDBRANCH  90  91
ENDBRANCH  62  85
BRANCH  74  95
ATOM     95  C   UNL A   1      45.961  28.968  38.768  1.00  0.00    -0.014 A 
ATOM     96  C   UNL A   1      45.593  28.131  39.835  1.00  0.00     0.010 A 
ATOM     97  C   UNL A   1      46.789  30.077  39.016  1.00  0.00     0.010 A 
ATOM     98  C   UNL A   1      45.989  28.438  41.138  1.00  0.00     0.020 A 
ATOM     99  C   UNL A   1      47.222  30.364  40.312  1.00  0.00     0.020 A 
ATOM    100  C   UNL A   1      46.797  29.557  41.368  1.00  0.00     0.054 A 
BRANCH 100 101
ATOM    101  S   UNL A   1      47.295  29.934  43.068  1.00  0.00     0.124 S 
ATOM    102  O   UNL A   1      48.089  28.760  43.418  1.00  0.00    -0.237 OA
ATOM    103  O   UNL A   1      48.045  31.178  42.912  1.00  0.00    -0.237 OA
ATOM    104  O   UNL A   1      46.026  30.064  43.781  1.00  0.00    -0.744 OA
ENDBRANCH 100 101
ENDBRANCH  74  95
ENDBRANCH  48  49
ENDBRANCH  41  43
ENDBRANCH  40  41
ENDBRANCH  39  40
ENDBRANCH  38  39
ENDBRANCH  37  38
ENDBRANCH  36  37
ENDBRANCH  35  36
ENDBRANCH  34  35
ENDBRANCH  33  34
ENDBRANCH   1  33
TORSDOF 30
ENDMDL
MODEL 3
REMARK VINA RESULT:      -7.4      3.686      7.409
REMARK SMILES COc1cc(/C=N/NC(=O)c2cc(Cl)ccc2O)ccc1OCC(=O)OCCOCCOCCOCCOC(=O)c1ccc(-c2c3nc(c(-c4ccc(S(=O)(=O)[O-])cc4)c4ccc([nH]4)c(-c4ccc(S(=O)(=O)[O-])cc4)c4nc(c(-c5ccc(S(=O)(=O)[O-])cc5)c5ccc2[nH]5)C=C4)C=C3)cc1
REMARK SMILES IDX 30 1 29 2 28 3 27 4 26 5 24 6 25 7 23 8 22 9 21 10 3 11 4 12
REMARK SMILES IDX 5 13 20 14 19 15 2 16 1 17 6 18 7 19 8 20 9 21 10 23 11 24
REMARK SMILES IDX 12 25 17 26 13 27 16 28 14 29 15 30 18 31 31 33 32 34 33 35
REMARK SMILES IDX 34 36 35 37 36 38 37 39 38 40 39 41 40 42 41 43 42 44 100 45
REMARK SMILES IDX 43 46 99 47 44 48 45 49 46 50 93 51 47 52 98 53 92 54 94 55
REMARK SMILES IDX 48 56 97 57 91 58 90 59 49 61 79 62 60 63 78 64 61 65 64 66
REMARK SMILES IDX 77 67 95 68 62 69 63 70 76 72 96 73 65 74 50 75 51 76 59 77
REMARK SMILES IDX 52 78 58 79 53 80 54 81 55 82 56 83 57 84 80 85 81 86 89 87
REMARK SMILES IDX 82 88 88 89 83 90 84 91 85 92 86 93 87 94 66 95 67 96 75 97
REMARK SMILES IDX 68 98 74 99 69 100 70 101 71 102 72 103 73 104
REMARK H PARENT 8 22 18 32 94 60 64 71
REMARK Flexibility Score: inf
ROOT
ATOM      1  C   UNL A   1      34.056  21.915  26.927  1.00  0.00     0.188 C 
ENDROOT
BRANCH   1   2
ATOM      2  O   UNL A   1      32.674  22.099  26.717  1.00  0.00    -0.376 OA
BRANCH   2   3
ATOM      3  C   UNL A   1      32.247  23.159  25.885  1.00  0.00     0.202 C 
BRANCH   3   4
ATOM      4  C   UNL A   1      31.452  22.870  24.597  1.00  0.00     0.261 C 
BRANCH   4   5
ATOM      5  O   UNL A   1      30.713  23.968  24.013  1.00  0.00    -0.461 OA
BRANCH   5   6
ATOM      6  C   UNL A   1      31.326  25.168  23.864  1.00  0.00     0.344 C 
ATOM      7  O   UNL A   1      32.197  25.384  23.028  1.00  0.00    -0.248 OA
BRANCH   6   8
ATOM      8  C   UNL A   1      30.849  26.240  24.890  1.00  0.00     0.352 C 
BRANCH   8   9
ATOM      9  O   UNL A   1      31.026  27.637  24.790  1.00  0.00    -0.478 OA
BRANCH   9  10
ATOM     10  C   UNL A   1      31.986  28.391  25.400  1.00  0.00     0.162 A 
ATOM     11  C   UNL A   1      31.992  29.733  25.807  1.00  0.00     0.161 A 
ATOM     12  C   UNL A   1      33.021  30.218  26.667  1.00  0.00     0.060 A 
ATOM     13  C   UNL A   1      34.063  29.365  27.068  1.00  0.00    -0.002 A 
ATOM     14  C   UNL A   1      33.115  27.612  25.702  1.00  0.00     0.051 A 
ATOM     15  C   UNL A   1      34.142  28.084  26.520  1.00  0.00     0.014 A 
BRANCH  11  16
ATOM     16  O   UNL A   1      31.170  30.642  25.193  1.00  0.00    -0.493 OA
ATOM     17  C   UNL A   1      30.836  31.778  25.978  1.00  0.00     0.278 C 
ENDBRANCH  11  16
BRANCH  13  18
ATOM     18  C   UNL A   1      35.051  29.652  28.144  1.00  0.00     0.141 C 
ATOM     19  N   UNL A   1      35.118  30.730  28.858  1.00  0.00    -0.180 NA
BRANCH  19  20
ATOM     20  N   UNL A   1      36.070  30.822  29.862  1.00  0.00    -0.243 N 
ATOM     21  C   UNL A   1      36.396  31.794  30.804  1.00  0.00     0.275 C 
ATOM     22  H   UNL A   1      36.642  30.022  29.923  1.00  0.00     0.194 HD
ATOM     23  O   UNL A   1      37.400  31.649  31.500  1.00  0.00    -0.267 OA
BRANCH  21  24
ATOM     24  C   UNL A   1      35.562  32.996  31.024  1.00  0.00     0.084 A 
ATOM     25  C   UNL A   1      34.939  33.569  29.903  1.00  0.00     0.038 A 
ATOM     26  C   UNL A   1      35.356  33.558  32.288  1.00  0.00     0.128 A 
ATOM     27  C   UNL A   1      34.028  34.610  30.076  1.00  0.00     0.042 A 
ATOM     28  C   UNL A   1      34.423  34.580  32.457  1.00  0.00     0.048 A 
ATOM     29  Cl  UNL A   1      33.228  35.288  28.713  1.00  0.00    -0.084 Cl
ATOM     30  C   UNL A   1      33.740  35.091  31.352  1.00  0.00     0.024 A 
BRANCH  26  31
ATOM     31  O   UNL A   1      35.995  33.132  33.417  1.00  0.00    -0.507 OA
ATOM     32  H   UNL A   1      36.739  32.565  33.350  1.00  0.00     0.293 HD
ENDBRANCH  26  31
ENDBRANCH  21  24
ENDBRANCH  19  20
ENDBRANCH  13  18
ENDBRANCH   9  10
ENDBRANCH   8   9
ENDBRANCH   6   8
ENDBRANCH   5   6
ENDBRANCH   4   5
ENDBRANCH   3   4
ENDBRANCH   2   3
ENDBRANCH   1   2
BRANCH   1  33
ATOM     33  C   UNL A   1      34.855  21.478  25.679  1.00  0.00     0.188 C 
BRANCH  33  34
ATOM     34  O   UNL A   1      35.486  22.367  24.771  1.00  0.00    -0.377 OA
BRANCH  34  35
ATOM     35  C   UNL A   1      36.797  22.066  24.347  1.00  0.00     0.188 C 
BRANCH  35  36
ATOM     36  C   UNL A   1      37.681  21.439  25.439  1.00  0.00     0.188 C 
BRANCH  36  37
ATOM     37  O   UNL A   1      38.809  22.231  25.787  1.00  0.00    -0.376 OA
BRANCH  37  38
ATOM     38  C   UNL A   1      39.863  21.617  26.512  1.00  0.00     0.202 C 
BRANCH  38  39
ATOM     39  C   UNL A   1      41.179  21.308  25.789  1.00  0.00     0.261 C 
BRANCH  39  40
ATOM     40  O   UNL A   1      42.375  21.871  26.307  1.00  0.00    -0.460 OA
BRANCH  40  41
ATOM     41  C   UNL A   1      43.002  22.783  25.554  1.00  0.00     0.338 C 
ATOM     42  O   UNL A   1      43.246  22.723  24.358  1.00  0.00    -0.246 OA
BRANCH  41  43
ATOM     43  C   UNL A   1      43.113  23.971  26.408  1.00  0.00     0.060 A 
ATOM     44  C   UNL A   1      44.392  24.480  26.653  1.00  0.00     0.016 A 
ATOM     45  C   UNL A   1      41.966  24.614  26.895  1.00  0.00     0.016 A 
ATOM     46  C   UNL A   1      44.533  25.613  27.434  1.00  0.00     0.010 A 
ATOM     47  C   UNL A   1      42.110  25.729  27.714  1.00  0.00     0.010 A 
ATOM     48  C   UNL A   1      43.400  26.183  28.030  1.00  0.00    -0.014 A 
BRANCH  48  49
ATOM     49  C   UNL A   1      43.636  26.986  29.242  1.00  0.00     0.031 A 
ATOM     50  C   UNL A   1      44.007  26.225  30.487  1.00  0.00     0.074 A 
ATOM     51  C   UNL A   1      43.686  28.325  29.179  1.00  0.00     0.049 A 
ATOM     52  N   UNL A   1      44.394  26.676  31.648  1.00  0.00    -0.248 NA
ATOM     53  C   UNL A   1      43.956  24.751  30.403  1.00  0.00     0.031 C 
ATOM     54  C   UNL A   1      43.413  29.131  27.989  1.00  0.00     0.029 A 
ATOM     55  N   UNL A   1      44.020  29.239  30.140  1.00  0.00    -0.354 N 
ATOM     56  C   UNL A   1      44.649  25.546  32.418  1.00  0.00     0.074 A 
ATOM     57  C   UNL A   1      44.326  24.390  31.621  1.00  0.00     0.031 C 
ATOM     58  C   UNL A   1      43.606  30.428  28.291  1.00  0.00     0.029 A 
ATOM     59  C   UNL A   1      43.990  30.538  29.695  1.00  0.00     0.049 A 
ATOM     60  H   UNL A   1      44.261  28.990  31.062  1.00  0.00     0.167 HD
ATOM     61  C   UNL A   1      45.137  25.481  33.676  1.00  0.00     0.031 A 
ATOM     62  C   UNL A   1      44.244  31.678  30.365  1.00  0.00     0.031 A 
ATOM     63  C   UNL A   1      45.438  26.645  34.461  1.00  0.00     0.049 A 
ATOM     64  C   UNL A   1      44.678  31.576  31.806  1.00  0.00     0.074 A 
ATOM     65  C   UNL A   1      45.896  26.711  35.762  1.00  0.00     0.029 A 
ATOM     66  N   UNL A   1      45.312  27.949  34.006  1.00  0.00    -0.354 N 
ATOM     67  N   UNL A   1      44.909  30.503  32.528  1.00  0.00    -0.248 NA
ATOM     68  C   UNL A   1      44.905  32.840  32.517  1.00  0.00     0.031 C 
ATOM     69  C   UNL A   1      45.996  28.061  36.113  1.00  0.00     0.029 A 
ATOM     70  C   UNL A   1      45.668  28.832  35.008  1.00  0.00     0.049 A 
ATOM     71  H   UNL A   1      45.013  28.207  33.104  1.00  0.00     0.167 HD
ATOM     72  C   UNL A   1      45.342  30.964  33.766  1.00  0.00     0.074 A 
ATOM     73  C   UNL A   1      45.370  32.411  33.680  1.00  0.00     0.031 C 
ATOM     74  C   UNL A   1      45.685  30.266  34.879  1.00  0.00     0.031 A 
BRANCH  61  75
ATOM     75  C   UNL A   1      45.349  24.118  34.275  1.00  0.00    -0.014 A 
ATOM     76  C   UNL A   1      44.267  23.363  34.765  1.00  0.00     0.010 A 
ATOM     77  C   UNL A   1      46.640  23.564  34.309  1.00  0.00     0.010 A 
ATOM     78  C   UNL A   1      44.474  22.084  35.286  1.00  0.00     0.020 A 
ATOM     79  C   UNL A   1      46.849  22.274  34.803  1.00  0.00     0.020 A 
ATOM     80  C   UNL A   1      45.764  21.543  35.292  1.00  0.00     0.054 A 
BRANCH  80  81
ATOM     81  S   UNL A   1      45.992  19.851  35.902  1.00  0.00     0.124 S 
ATOM     82  O   UNL A   1      47.401  19.608  35.608  1.00  0.00    -0.237 OA
ATOM     83  O   UNL A   1      45.658  19.978  37.319  1.00  0.00    -0.237 OA
ATOM     84  O   UNL A   1      45.047  19.066  35.111  1.00  0.00    -0.744 OA
ENDBRANCH  80  81
ENDBRANCH  61  75
BRANCH  62  85
ATOM     85  C   UNL A   1      44.063  33.004  29.709  1.00  0.00    -0.014 A 
ATOM     86  C   UNL A   1      42.842  33.696  29.788  1.00  0.00     0.010 A 
ATOM     87  C   UNL A   1      45.108  33.554  28.944  1.00  0.00     0.010 A 
ATOM     88  C   UNL A   1      42.651  34.881  29.068  1.00  0.00     0.020 A 
ATOM     89  C   UNL A   1      44.934  34.756  28.254  1.00  0.00     0.020 A 
ATOM     90  C   UNL A   1      43.697  35.399  28.299  1.00  0.00     0.054 A 
BRANCH  90  91
ATOM     91  S   UNL A   1      43.423  36.924  27.359  1.00  0.00     0.124 S 
ATOM     92  O   UNL A   1      42.843  37.803  28.369  1.00  0.00    -0.237 OA
ATOM     93  O   UNL A   1      44.771  37.269  26.916  1.00  0.00    -0.237 OA
ATOM     94  O   UNL A   1      42.513  36.509  26.293  1.00  0.00    -0.744 OA
ENDBRANCH  90  91
ENDBRANCH  62  85
BRANCH  74  95
ATOM     95  C   UNL A   1      46.164  31.064  36.063  1.00  0.00    -0.014 A 
ATOM     96  C   UNL A   1      47.533  31.207  36.344  1.00  0.00     0.010 A 
ATOM     97  C   UNL A   1      45.220  31.692  36.896  1.00  0.00     0.010 A 
ATOM     98  C   UNL A   1      47.948  31.908  37.477  1.00  0.00     0.020 A 
ATOM     99  C   UNL A   1      45.633  32.429  38.006  1.00  0.00     0.020 A 
ATOM    100  C   UNL A   1      46.994  32.509  38.305  1.00  0.00     0.054 A 
BRANCH 100 101
ATOM    101  S   UNL A   1      47.559  33.412  39.771  1.00  0.00     0.124 S 
ATOM    102  O   UNL A   1      48.582  32.515  40.302  1.00  0.00    -0.237 OA
ATOM    103  O   UNL A   1      48.052  34.665  39.205  1.00  0.00    -0.237 OA
ATOM    104  O   UNL A   1      46.353  33.535  40.587  1.00  0.00    -0.744 OA
ENDBRANCH 100 101
ENDBRANCH  74  95
ENDBRANCH  48  49
ENDBRANCH  41  43
ENDBRANCH  40  41
ENDBRANCH  39  40
ENDBRANCH  38  39
ENDBRANCH  37  38
ENDBRANCH  36  37
ENDBRANCH  35  36
ENDBRANCH  34  35
ENDBRANCH  33  34
ENDBRANCH   1  33
TORSDOF 30
ENDMDL
