MODEL 1
REMARK VINA RESULT:      -8.7      0.000      0.000
REMARK SMILES O=C(OCCOCCOCCOCCOC(=O)[C@H]1CCCN(c2cc(-c3ccccn3)nc(-c3ccccc3F)n2)C1)c1ccc(-c2c3nc(c(-c4ccc(S(=O)(=O)[O-])cc4)c4ccc([nH]4)c(-c4ccc(S(=O)(=O)[O-])cc4)c4nc(c(-c5ccc(S(=O)(=O)[O-])cc5)c5ccc2[nH]5)C=C4)C=C3)cc1
REMARK SMILES IDX 8 1 7 2 6 3 5 4 4 5 3 6 2 7 1 8 43 9 44 10 102 11 45 12
REMARK SMILES IDX 101 13 46 14 47 15 48 16 95 17 49 18 100 19 94 20 96 21
REMARK SMILES IDX 50 22 99 23 93 24 92 25 51 27 81 28 62 29 80 30 63 31 66 32
REMARK SMILES IDX 79 33 97 34 64 35 65 36 78 38 98 39 67 40 52 41 53 42 61 43
REMARK SMILES IDX 54 44 60 45 55 46 56 47 57 48 58 49 59 50 82 51 83 52 91 53
REMARK SMILES IDX 84 54 90 55 85 56 86 57 87 58 88 59 89 60 68 61 69 62 77 63
REMARK SMILES IDX 70 64 76 65 71 66 72 67 73 68 74 69 75 70 9 71 10 72 11 73
REMARK SMILES IDX 12 74 13 75 14 76 15 77 16 78 17 79 18 80 19 81 42 82 20 83
REMARK SMILES IDX 22 84 21 85 23 86 24 87 41 88 25 89 33 90 32 91 26 92 27 93
REMARK SMILES IDX 31 94 28 95 30 96 29 97 34 98 35 99 39 100 36 101 38 102
REMARK SMILES IDX 40 103 37 104
REMARK H PARENT 96 26 66 37
REMARK Flexibility Score: inf
ROOT
ATOM      1  C   UNL A   1      36.436  22.442  24.911  1.00  0.00     0.188 C 
ENDROOT
BRANCH   1   2
ATOM      2  C   UNL A   1      36.888  21.004  25.064  1.00  0.00     0.188 C 
BRANCH   2   3
ATOM      3  O   UNL A   1      38.294  20.925  24.912  1.00  0.00    -0.376 OA
BRANCH   3   4
ATOM      4  C   UNL A   1      38.957  19.843  25.554  1.00  0.00     0.202 C 
BRANCH   4   5
ATOM      5  C   UNL A   1      40.245  20.225  26.273  1.00  0.00     0.261 C 
BRANCH   5   6
ATOM      6  O   UNL A   1      40.675  21.575  26.029  1.00  0.00    -0.460 OA
BRANCH   6   7
ATOM      7  C   UNL A   1      40.497  22.683  26.787  1.00  0.00     0.338 C 
ATOM      8  O   UNL A   1      39.349  22.977  27.120  1.00  0.00    -0.246 OA
BRANCH   7   9
ATOM      9  C   UNL A   1      41.597  23.581  27.252  1.00  0.00     0.060 A 
ATOM     10  C   UNL A   1      42.486  23.302  28.288  1.00  0.00     0.016 A 
ATOM     11  C   UNL A   1      41.817  24.750  26.508  1.00  0.00     0.016 A 
ATOM     12  C   UNL A   1      43.520  24.150  28.627  1.00  0.00     0.010 A 
ATOM     13  C   UNL A   1      42.869  25.616  26.829  1.00  0.00     0.010 A 
ATOM     14  C   UNL A   1      43.702  25.320  27.912  1.00  0.00    -0.014 A 
BRANCH  14  15
ATOM     15  C   UNL A   1      44.628  26.298  28.495  1.00  0.00     0.031 A 
ATOM     16  C   UNL A   1      44.114  27.122  29.632  1.00  0.00     0.074 A 
ATOM     17  C   UNL A   1      45.925  26.285  28.141  1.00  0.00     0.049 A 
ATOM     18  N   UNL A   1      44.694  28.091  30.278  1.00  0.00    -0.248 NA
ATOM     19  C   UNL A   1      42.757  26.799  30.119  1.00  0.00     0.031 C 
ATOM     20  C   UNL A   1      46.533  25.358  27.178  1.00  0.00     0.029 A 
ATOM     21  N   UNL A   1      46.974  27.043  28.577  1.00  0.00    -0.354 N 
ATOM     22  C   UNL A   1      43.758  28.528  31.207  1.00  0.00     0.074 A 
ATOM     23  C   UNL A   1      42.575  27.719  31.051  1.00  0.00     0.031 C 
ATOM     24  C   UNL A   1      47.851  25.602  27.106  1.00  0.00     0.029 A 
ATOM     25  C   UNL A   1      48.160  26.749  27.948  1.00  0.00     0.049 A 
ATOM     26  H   UNL A   1      46.888  27.733  29.275  1.00  0.00     0.167 HD
ATOM     27  C   UNL A   1      43.886  29.537  32.096  1.00  0.00     0.031 A 
ATOM     28  C   UNL A   1      49.343  27.387  28.014  1.00  0.00     0.031 A 
ATOM     29  C   UNL A   1      45.086  30.316  32.202  1.00  0.00     0.049 A 
ATOM     30  C   UNL A   1      49.424  28.589  28.916  1.00  0.00     0.074 A 
ATOM     31  C   UNL A   1      45.338  31.417  32.995  1.00  0.00     0.029 A 
ATOM     32  N   UNL A   1      46.245  30.061  31.478  1.00  0.00    -0.354 N 
ATOM     33  N   UNL A   1      48.504  29.073  29.722  1.00  0.00    -0.248 NA
ATOM     34  C   UNL A   1      50.682  29.340  28.911  1.00  0.00     0.031 C 
ATOM     35  C   UNL A   1      46.631  31.865  32.702  1.00  0.00     0.029 A 
ATOM     36  C   UNL A   1      47.210  30.999  31.784  1.00  0.00     0.049 A 
ATOM     37  H   UNL A   1      46.361  29.321  30.840  1.00  0.00     0.167 HD
ATOM     38  C   UNL A   1      49.079  30.178  30.335  1.00  0.00     0.074 A 
ATOM     39  C   UNL A   1      50.434  30.274  29.820  1.00  0.00     0.031 C 
ATOM     40  C   UNL A   1      48.546  31.039  31.239  1.00  0.00     0.031 A 
BRANCH  27  41
ATOM     41  C   UNL A   1      42.670  29.896  32.904  1.00  0.00    -0.014 A 
ATOM     42  C   UNL A   1      41.679  30.767  32.415  1.00  0.00     0.010 A 
ATOM     43  C   UNL A   1      42.548  29.387  34.210  1.00  0.00     0.010 A 
ATOM     44  C   UNL A   1      40.612  31.154  33.234  1.00  0.00     0.020 A 
ATOM     45  C   UNL A   1      41.469  29.748  35.020  1.00  0.00     0.020 A 
ATOM     46  C   UNL A   1      40.517  30.645  34.533  1.00  0.00     0.054 A 
BRANCH  46  47
ATOM     47  S   UNL A   1      39.121  31.161  35.568  1.00  0.00     0.124 S 
ATOM     48  O   UNL A   1      39.677  32.312  36.274  1.00  0.00    -0.237 OA
ATOM     49  O   UNL A   1      38.088  31.463  34.587  1.00  0.00    -0.237 OA
ATOM     50  O   UNL A   1      38.859  29.987  36.406  1.00  0.00    -0.744 OA
ENDBRANCH  46  47
ENDBRANCH  27  41
BRANCH  28  51
ATOM     51  C   UNL A   1      50.481  26.963  27.149  1.00  0.00    -0.014 A 
ATOM     52  C   UNL A   1      50.550  27.335  25.796  1.00  0.00     0.010 A 
ATOM     53  C   UNL A   1      51.517  26.173  27.688  1.00  0.00     0.010 A 
ATOM     54  C   UNL A   1      51.620  26.913  24.997  1.00  0.00     0.020 A 
ATOM     55  C   UNL A   1      52.603  25.777  26.902  1.00  0.00     0.020 A 
ATOM     56  C   UNL A   1      52.640  26.137  25.557  1.00  0.00     0.054 A 
BRANCH  56  57
ATOM     57  S   UNL A   1      54.033  25.625  24.510  1.00  0.00     0.124 S 
ATOM     58  O   UNL A   1      54.235  24.243  24.930  1.00  0.00    -0.237 OA
ATOM     59  O   UNL A   1      53.497  25.807  23.163  1.00  0.00    -0.237 OA
ATOM     60  O   UNL A   1      55.099  26.554  24.879  1.00  0.00    -0.744 OA
ENDBRANCH  56  57
ENDBRANCH  28  51
BRANCH  40  61
ATOM     61  C   UNL A   1      49.447  32.125  31.751  1.00  0.00    -0.014 A 
ATOM     62  C   UNL A   1      49.539  33.364  31.097  1.00  0.00     0.010 A 
ATOM     63  C   UNL A   1      50.150  31.918  32.950  1.00  0.00     0.010 A 
ATOM     64  C   UNL A   1      50.345  34.374  31.623  1.00  0.00     0.020 A 
ATOM     65  C   UNL A   1      50.928  32.936  33.498  1.00  0.00     0.020 A 
ATOM     66  C   UNL A   1      51.030  34.154  32.823  1.00  0.00     0.054 A 
BRANCH  66  67
ATOM     67  S   UNL A   1      52.020  35.502  33.518  1.00  0.00     0.124 S 
ATOM     68  O   UNL A   1      52.937  34.781  34.397  1.00  0.00    -0.237 OA
ATOM     69  O   UNL A   1      52.626  36.099  32.330  1.00  0.00    -0.237 OA
ATOM     70  O   UNL A   1      51.035  36.341  34.196  1.00  0.00    -0.744 OA
ENDBRANCH  66  67
ENDBRANCH  40  61
ENDBRANCH  14  15
ENDBRANCH   7   9
ENDBRANCH   6   7
ENDBRANCH   5   6
ENDBRANCH   4   5
ENDBRANCH   3   4
ENDBRANCH   2   3
ENDBRANCH   1   2
BRANCH   1  71
ATOM     71  O   UNL A   1      35.157  22.584  24.316  1.00  0.00    -0.377 OA
BRANCH  71  72
ATOM     72  C   UNL A   1      34.039  22.969  25.116  1.00  0.00     0.188 C 
BRANCH  72  73
ATOM     73  C   UNL A   1      33.061  24.038  24.615  1.00  0.00     0.188 C 
BRANCH  73  74
ATOM     74  O   UNL A   1      32.353  23.700  23.432  1.00  0.00    -0.376 OA
BRANCH  74  75
ATOM     75  C   UNL A   1      32.749  24.449  22.285  1.00  0.00     0.202 C 
BRANCH  75  76
ATOM     76  C   UNL A   1      33.583  25.713  22.578  1.00  0.00     0.261 C 
BRANCH  76  77
ATOM     77  O   UNL A   1      32.951  26.991  22.346  1.00  0.00    -0.463 OA
BRANCH  77  78
ATOM     78  C   UNL A   1      33.663  28.092  22.657  1.00  0.00     0.310 C 
ATOM     79  O   UNL A   1      34.720  28.389  22.109  1.00  0.00    -0.252 OA
BRANCH  78  80
ATOM     80  C   UNL A   1      33.062  28.943  23.771  1.00  0.00     0.118 C 
ATOM     81  C   UNL A   1      31.532  29.101  23.913  1.00  0.00     0.019 C 
ATOM     82  C   UNL A   1      33.603  28.350  25.056  1.00  0.00     0.133 C 
ATOM     83  C   UNL A   1      31.165  29.974  25.117  1.00  0.00     0.022 C 
ATOM     84  N   UNL A   1      33.149  29.133  26.191  1.00  0.00    -0.356 N 
ATOM     85  C   UNL A   1      31.737  29.385  26.391  1.00  0.00     0.118 C 
BRANCH  84  86
ATOM     86  C   UNL A   1      34.092  29.850  26.888  1.00  0.00     0.133 A 
ATOM     87  C   UNL A   1      33.700  31.073  27.360  1.00  0.00     0.077 A 
ATOM     88  N   UNL A   1      35.281  29.308  27.198  1.00  0.00    -0.211 NA
ATOM     89  C   UNL A   1      34.538  31.699  28.249  1.00  0.00     0.095 A 
ATOM     90  C   UNL A   1      36.066  30.015  28.036  1.00  0.00     0.165 A 
ATOM     91  N   UNL A   1      35.739  31.195  28.591  1.00  0.00    -0.226 NA
BRANCH  89  92
ATOM     92  C   UNL A   1      34.069  32.917  28.907  1.00  0.00     0.089 A 
ATOM     93  C   UNL A   1      33.435  33.921  28.167  1.00  0.00     0.030 A 
ATOM     94  N   UNL A   1      34.430  33.085  30.203  1.00  0.00    -0.255 NA
ATOM     95  C   UNL A   1      33.172  35.142  28.773  1.00  0.00     0.004 A 
ATOM     96  C   UNL A   1      34.143  34.274  30.770  1.00  0.00     0.112 A 
ATOM     97  C   UNL A   1      33.534  35.323  30.101  1.00  0.00     0.020 A 
ENDBRANCH  89  92
BRANCH  90  98
ATOM     98  C   UNL A   1      37.399  29.494  28.337  1.00  0.00     0.055 A 
ATOM     99  C   UNL A   1      38.430  29.517  27.379  1.00  0.00     0.015 A 
ATOM    100  C   UNL A   1      37.709  29.003  29.611  1.00  0.00     0.134 A 
ATOM    101  C   UNL A   1      39.727  29.099  27.705  1.00  0.00     0.001 A 
ATOM    102  C   UNL A   1      38.996  28.574  29.939  1.00  0.00     0.040 A 
ATOM    103  F   UNL A   1      36.760  28.923  30.557  1.00  0.00    -0.206 F 
ATOM    104  C   UNL A   1      40.012  28.633  28.987  1.00  0.00     0.003 A 
ENDBRANCH  90  98
ENDBRANCH  84  86
ENDBRANCH  78  80
ENDBRANCH  77  78
ENDBRANCH  76  77
ENDBRANCH  75  76
ENDBRANCH  74  75
ENDBRANCH  73  74
ENDBRANCH  72  73
ENDBRANCH  71  72
ENDBRANCH   1  71
TORSDOF 26
ENDMDL
MODEL 2
REMARK VINA RESULT:      -7.9      3.373      5.197
REMARK SMILES O=C(OCCOCCOCCOCCOC(=O)[C@H]1CCCN(c2cc(-c3ccccn3)nc(-c3ccccc3F)n2)C1)c1ccc(-c2c3nc(c(-c4ccc(S(=O)(=O)[O-])cc4)c4ccc([nH]4)c(-c4ccc(S(=O)(=O)[O-])cc4)c4nc(c(-c5ccc(S(=O)(=O)[O-])cc5)c5ccc2[nH]5)C=C4)C=C3)cc1
REMARK SMILES IDX 8 1 7 2 6 3 5 4 4 5 3 6 2 7 1 8 43 9 44 10 102 11 45 12
REMARK SMILES IDX 101 13 46 14 47 15 48 16 95 17 49 18 100 19 94 20 96 21
REMARK SMILES IDX 50 22 99 23 93 24 92 25 51 27 81 28 62 29 80 30 63 31 66 32
REMARK SMILES IDX 79 33 97 34 64 35 65 36 78 38 98 39 67 40 52 41 53 42 61 43
REMARK SMILES IDX 54 44 60 45 55 46 56 47 57 48 58 49 59 50 82 51 83 52 91 53
REMARK SMILES IDX 84 54 90 55 85 56 86 57 87 58 88 59 89 60 68 61 69 62 77 63
REMARK SMILES IDX 70 64 76 65 71 66 72 67 73 68 74 69 75 70 9 71 10 72 11 73
REMARK SMILES IDX 12 74 13 75 14 76 15 77 16 78 17 79 18 80 19 81 42 82 20 83
REMARK SMILES IDX 22 84 21 85 23 86 24 87 41 88 25 89 33 90 32 91 26 92 27 93
REMARK SMILES IDX 31 94 28 95 30 96 29 97 34 98 35 99 39 100 36 101 38 102
REMARK SMILES IDX 40 103 37 104
REMARK H PARENT 96 26 66 37
REMARK Flexibility Score: inf
ROOT
ATOM      1  C   UNL A   1      35.081  24.130  25.326  1.00  0.00     0.188 C 
ENDROOT
BRANCH   1   2
ATOM      2  C   UNL A   1      36.035  23.648  24.253  1.00  0.00     0.188 C 
BRANCH   2   3
ATOM      3  O   UNL A   1      37.373  23.846  24.677  1.00  0.00    -0.376 OA
BRANCH   3   4
ATOM      4  C   UNL A   1      37.623  23.804  26.076  1.00  0.00     0.202 C 
BRANCH   4   5
ATOM      5  C   UNL A   1      39.085  23.595  26.453  1.00  0.00     0.261 C 
BRANCH   5   6
ATOM      6  O   UNL A   1      39.352  22.332  27.084  1.00  0.00    -0.460 OA
BRANCH   6   7
ATOM      7  C   UNL A   1      40.512  21.859  27.601  1.00  0.00     0.338 C 
ATOM      8  O   UNL A   1      40.651  20.640  27.689  1.00  0.00    -0.246 OA
BRANCH   7   9
ATOM      9  C   UNL A   1      41.641  22.715  28.076  1.00  0.00     0.060 A 
ATOM     10  C   UNL A   1      41.614  24.103  28.186  1.00  0.00     0.016 A 
ATOM     11  C   UNL A   1      42.782  22.051  28.552  1.00  0.00     0.016 A 
ATOM     12  C   UNL A   1      42.674  24.829  28.690  1.00  0.00     0.010 A 
ATOM     13  C   UNL A   1      43.861  22.769  29.078  1.00  0.00     0.010 A 
ATOM     14  C   UNL A   1      43.809  24.165  29.119  1.00  0.00    -0.014 A 
BRANCH  14  15
ATOM     15  C   UNL A   1      44.989  24.999  29.375  1.00  0.00     0.031 A 
ATOM     16  C   UNL A   1      45.329  25.268  30.807  1.00  0.00     0.074 A 
ATOM     17  C   UNL A   1      45.817  25.317  28.364  1.00  0.00     0.049 A 
ATOM     18  N   UNL A   1      46.270  26.017  31.305  1.00  0.00    -0.248 NA
ATOM     19  C   UNL A   1      44.501  24.584  31.820  1.00  0.00     0.031 C 
ATOM     20  C   UNL A   1      45.644  24.905  26.965  1.00  0.00     0.029 A 
ATOM     21  N   UNL A   1      46.987  26.021  28.360  1.00  0.00    -0.354 N 
ATOM     22  C   UNL A   1      46.112  25.939  32.683  1.00  0.00     0.074 A 
ATOM     23  C   UNL A   1      44.994  25.066  32.948  1.00  0.00     0.031 C 
ATOM     24  C   UNL A   1      46.680  25.361  26.243  1.00  0.00     0.029 A 
ATOM     25  C   UNL A   1      47.536  26.162  27.108  1.00  0.00     0.049 A 
ATOM     26  H   UNL A   1      47.397  26.391  29.175  1.00  0.00     0.167 HD
ATOM     27  C   UNL A   1      46.836  26.567  33.634  1.00  0.00     0.031 A 
ATOM     28  C   UNL A   1      48.583  26.909  26.713  1.00  0.00     0.031 A 
ATOM     29  C   UNL A   1      47.934  27.433  33.312  1.00  0.00     0.049 A 
ATOM     30  C   UNL A   1      49.296  27.703  27.775  1.00  0.00     0.074 A 
ATOM     31  C   UNL A   1      48.710  28.199  34.157  1.00  0.00     0.029 A 
ATOM     32  N   UNL A   1      48.409  27.639  32.022  1.00  0.00    -0.354 N 
ATOM     33  N   UNL A   1      49.084  27.715  29.072  1.00  0.00    -0.248 NA
ATOM     34  C   UNL A   1      50.373  28.591  27.328  1.00  0.00     0.031 C 
ATOM     35  C   UNL A   1      49.616  28.918  33.368  1.00  0.00     0.029 A 
ATOM     36  C   UNL A   1      49.453  28.542  32.041  1.00  0.00     0.049 A 
ATOM     37  H   UNL A   1      48.053  27.206  31.213  1.00  0.00     0.167 HD
ATOM     38  C   UNL A   1      50.013  28.600  29.602  1.00  0.00     0.074 A 
ATOM     39  C   UNL A   1      50.802  29.085  28.483  1.00  0.00     0.031 C 
ATOM     40  C   UNL A   1      50.203  28.984  30.890  1.00  0.00     0.031 A 
BRANCH  27  41
ATOM     41  C   UNL A   1      46.376  26.417  35.057  1.00  0.00    -0.014 A 
ATOM     42  C   UNL A   1      45.552  27.373  35.681  1.00  0.00     0.010 A 
ATOM     43  C   UNL A   1      46.827  25.313  35.805  1.00  0.00     0.010 A 
ATOM     44  C   UNL A   1      45.225  27.248  37.035  1.00  0.00     0.020 A 
ATOM     45  C   UNL A   1      46.478  25.170  37.149  1.00  0.00     0.020 A 
ATOM     46  C   UNL A   1      45.695  26.149  37.762  1.00  0.00     0.054 A 
BRANCH  46  47
ATOM     47  S   UNL A   1      45.251  26.012  39.514  1.00  0.00     0.124 S 
ATOM     48  O   UNL A   1      45.356  24.574  39.743  1.00  0.00    -0.237 OA
ATOM     49  O   UNL A   1      46.265  26.830  40.167  1.00  0.00    -0.237 OA
ATOM     50  O   UNL A   1      43.888  26.551  39.568  1.00  0.00    -0.744 OA
ENDBRANCH  46  47
ENDBRANCH  27  41
BRANCH  28  51
ATOM     51  C   UNL A   1      48.941  27.007  25.269  1.00  0.00    -0.014 A 
ATOM     52  C   UNL A   1      48.084  27.625  24.343  1.00  0.00     0.010 A 
ATOM     53  C   UNL A   1      50.164  26.476  24.811  1.00  0.00     0.010 A 
ATOM     54  C   UNL A   1      48.433  27.694  22.988  1.00  0.00     0.020 A 
ATOM     55  C   UNL A   1      50.530  26.571  23.465  1.00  0.00     0.020 A 
ATOM     56  C   UNL A   1      49.655  27.166  22.559  1.00  0.00     0.054 A 
BRANCH  56  57
ATOM     57  S   UNL A   1      50.100  27.291  20.803  1.00  0.00     0.124 S 
ATOM     58  O   UNL A   1      48.984  26.606  20.159  1.00  0.00    -0.237 OA
ATOM     59  O   UNL A   1      50.163  28.735  20.597  1.00  0.00    -0.237 OA
ATOM     60  O   UNL A   1      51.386  26.601  20.725  1.00  0.00    -0.744 OA
ENDBRANCH  56  57
ENDBRANCH  28  51
BRANCH  40  61
ATOM     61  C   UNL A   1      51.332  29.938  31.151  1.00  0.00    -0.014 A 
ATOM     62  C   UNL A   1      52.592  29.479  31.569  1.00  0.00     0.010 A 
ATOM     63  C   UNL A   1      51.140  31.307  30.893  1.00  0.00     0.010 A 
ATOM     64  C   UNL A   1      53.639  30.383  31.753  1.00  0.00     0.020 A 
ATOM     65  C   UNL A   1      52.193  32.207  31.042  1.00  0.00     0.020 A 
ATOM     66  C   UNL A   1      53.433  31.740  31.484  1.00  0.00     0.054 A 
BRANCH  66  67
ATOM     67  S   UNL A   1      54.824  32.885  31.671  1.00  0.00     0.124 S 
ATOM     68  O   UNL A   1      54.367  34.044  30.910  1.00  0.00    -0.237 OA
ATOM     69  O   UNL A   1      54.893  33.069  33.119  1.00  0.00    -0.237 OA
ATOM     70  O   UNL A   1      55.950  32.159  31.087  1.00  0.00    -0.744 OA
ENDBRANCH  66  67
ENDBRANCH  40  61
ENDBRANCH  14  15
ENDBRANCH   7   9
ENDBRANCH   6   7
ENDBRANCH   5   6
ENDBRANCH   4   5
ENDBRANCH   3   4
ENDBRANCH   2   3
ENDBRANCH   1   2
BRANCH   1  71
ATOM     71  O   UNL A   1      34.300  25.249  24.944  1.00  0.00    -0.377 OA
BRANCH  71  72
ATOM     72  C   UNL A   1      33.160  25.066  24.104  1.00  0.00     0.188 C 
BRANCH  72  73
ATOM     73  C   UNL A   1      32.134  26.195  23.936  1.00  0.00     0.188 C 
BRANCH  73  74
ATOM     74  O   UNL A   1      32.324  27.314  24.788  1.00  0.00    -0.376 OA
BRANCH  74  75
ATOM     75  C   UNL A   1      31.466  28.414  24.499  1.00  0.00     0.202 C 
BRANCH  75  76
ATOM     76  C   UNL A   1      31.830  29.737  25.204  1.00  0.00     0.261 C 
BRANCH  76  77
ATOM     77  O   UNL A   1      33.118  29.807  25.855  1.00  0.00    -0.463 OA
BRANCH  77  78
ATOM     78  C   UNL A   1      33.227  30.637  26.911  1.00  0.00     0.310 C 
ATOM     79  O   UNL A   1      32.439  31.551  27.134  1.00  0.00    -0.252 OA
BRANCH  78  80
ATOM     80  C   UNL A   1      34.431  30.369  27.807  1.00  0.00     0.118 C 
ATOM     81  C   UNL A   1      35.556  29.409  27.361  1.00  0.00     0.019 C 
ATOM     82  C   UNL A   1      35.040  31.731  28.069  1.00  0.00     0.133 C 
ATOM     83  C   UNL A   1      36.669  29.320  28.409  1.00  0.00     0.022 C 
ATOM     84  N   UNL A   1      36.163  31.604  28.980  1.00  0.00    -0.356 N 
ATOM     85  C   UNL A   1      37.250  30.694  28.683  1.00  0.00     0.118 C 
BRANCH  84  86
ATOM     86  C   UNL A   1      36.027  32.143  30.238  1.00  0.00     0.133 A 
ATOM     87  C   UNL A   1      36.788  31.581  31.226  1.00  0.00     0.077 A 
ATOM     88  N   UNL A   1      35.289  33.246  30.439  1.00  0.00    -0.211 NA
ATOM     89  C   UNL A   1      36.846  32.245  32.426  1.00  0.00     0.095 A 
ATOM     90  C   UNL A   1      35.362  33.805  31.664  1.00  0.00     0.165 A 
ATOM     91  N   UNL A   1      36.126  33.354  32.676  1.00  0.00    -0.226 NA
BRANCH  89  92
ATOM     92  C   UNL A   1      37.786  31.771  33.439  1.00  0.00     0.089 A 
ATOM     93  C   UNL A   1      38.951  31.095  33.060  1.00  0.00     0.030 A 
ATOM     94  N   UNL A   1      37.389  31.869  34.731  1.00  0.00    -0.255 NA
ATOM     95  C   UNL A   1      39.730  30.490  34.038  1.00  0.00     0.004 A 
ATOM     96  C   UNL A   1      38.175  31.288  35.659  1.00  0.00     0.112 A 
ATOM     97  C   UNL A   1      39.333  30.587  35.364  1.00  0.00     0.020 A 
ENDBRANCH  89  92
BRANCH  90  98
ATOM     98  C   UNL A   1      34.515  34.963  31.946  1.00  0.00     0.055 A 
ATOM     99  C   UNL A   1      33.499  35.364  31.058  1.00  0.00     0.015 A 
ATOM    100  C   UNL A   1      34.652  35.682  33.139  1.00  0.00     0.134 A 
ATOM    101  C   UNL A   1      32.634  36.419  31.378  1.00  0.00     0.001 A 
ATOM    102  C   UNL A   1      33.802  36.741  33.460  1.00  0.00     0.040 A 
ATOM    103  F   UNL A   1      35.624  35.370  34.011  1.00  0.00    -0.206 F 
ATOM    104  C   UNL A   1      32.782  37.104  32.583  1.00  0.00     0.003 A 
ENDBRANCH  90  98
ENDBRANCH  84  86
ENDBRANCH  78  80
ENDBRANCH  77  78
ENDBRANCH  76  77
ENDBRANCH  75  76
ENDBRANCH  74  75
ENDBRANCH  73  74
ENDBRANCH  72  73
ENDBRANCH  71  72
ENDBRANCH   1  71
TORSDOF 26
ENDMDL
MODEL 3
REMARK VINA RESULT:      -7.7      4.356     11.815
REMARK SMILES O=C(OCCOCCOCCOCCOC(=O)[C@H]1CCCN(c2cc(-c3ccccn3)nc(-c3ccccc3F)n2)C1)c1ccc(-c2c3nc(c(-c4ccc(S(=O)(=O)[O-])cc4)c4ccc([nH]4)c(-c4ccc(S(=O)(=O)[O-])cc4)c4nc(c(-c5ccc(S(=O)(=O)[O-])cc5)c5ccc2[nH]5)C=C4)C=C3)cc1
REMARK SMILES IDX 8 1 7 2 6 3 5 4 4 5 3 6 2 7 1 8 43 9 44 10 102 11 45 12
REMARK SMILES IDX 101 13 46 14 47 15 48 16 95 17 49 18 100 19 94 20 96 21
REMARK SMILES IDX 50 22 99 23 93 24 92 25 51 27 81 28 62 29 80 30 63 31 66 32
REMARK SMILES IDX 79 33 97 34 64 35 65 36 78 38 98 39 67 40 52 41 53 42 61 43
REMARK SMILES IDX 54 44 60 45 55 46 56 47 57 48 58 49 59 50 82 51 83 52 91 53
REMARK SMILES IDX 84 54 90 55 85 56 86 57 87 58 88 59 89 60 68 61 69 62 77 63
REMARK SMILES IDX 70 64 76 65 71 66 72 67 73 68 74 69 75 70 9 71 10 72 11 73
REMARK SMILES IDX 12 74 13 75 14 76 15 77 16 78 17 79 18 80 19 81 42 82 20 83
REMARK SMILES IDX 22 84 21 85 23 86 24 87 41 88 25 89 33 90 32 91 26 92 27 93
REMARK SMILES IDX 31 94 28 95 30 96 29 97 34 98 35 99 39 100 36 101 38 102
REMARK SMILES IDX 40 103 37 104
REMARK H PARENT 96 26 66 37
REMARK Flexibility Score: inf
ROOT
ATOM      1  C   UNL A   1      50.454  32.865  35.343  1.00  0.00     0.188 C 
ENDROOT
BRANCH   1   2
ATOM      2  C   UNL A   1      50.953  32.005  34.200  1.00  0.00     0.188 C 
BRANCH   2   3
ATOM      3  O   UNL A   1      50.501  30.673  34.371  1.00  0.00    -0.376 OA
BRANCH   3   4
ATOM      4  C   UNL A   1      50.857  29.733  33.365  1.00  0.00     0.202 C 
BRANCH   4   5
ATOM      5  C   UNL A   1      51.937  28.740  33.778  1.00  0.00     0.261 C 
BRANCH   5   6
ATOM      6  O   UNL A   1      51.862  27.476  33.099  1.00  0.00    -0.460 OA
BRANCH   6   7
ATOM      7  C   UNL A   1      50.806  26.639  32.958  1.00  0.00     0.338 C 
ATOM      8  O   UNL A   1      50.971  25.450  33.228  1.00  0.00    -0.246 OA
BRANCH   7   9
ATOM      9  C   UNL A   1      49.448  27.055  32.495  1.00  0.00     0.060 A 
ATOM     10  C   UNL A   1      48.303  27.105  33.287  1.00  0.00     0.016 A 
ATOM     11  C   UNL A   1      49.347  27.541  31.182  1.00  0.00     0.016 A 
ATOM     12  C   UNL A   1      47.090  27.557  32.811  1.00  0.00     0.010 A 
ATOM     13  C   UNL A   1      48.128  28.016  30.686  1.00  0.00     0.010 A 
ATOM     14  C   UNL A   1      46.993  27.996  31.503  1.00  0.00    -0.014 A 
BRANCH  14  15
ATOM     15  C   UNL A   1      45.635  28.194  30.984  1.00  0.00     0.031 A 
ATOM     16  C   UNL A   1      45.057  29.568  31.109  1.00  0.00     0.074 A 
ATOM     17  C   UNL A   1      45.048  27.228  30.257  1.00  0.00     0.049 A 
ATOM     18  N   UNL A   1      43.869  29.996  30.796  1.00  0.00    -0.248 NA
ATOM     19  C   UNL A   1      45.951  30.611  31.652  1.00  0.00     0.031 C 
ATOM     20  C   UNL A   1      45.652  25.931  29.925  1.00  0.00     0.029 A 
ATOM     21  N   UNL A   1      43.835  27.198  29.630  1.00  0.00    -0.354 N 
ATOM     22  C   UNL A   1      43.854  31.338  31.152  1.00  0.00     0.074 A 
ATOM     23  C   UNL A   1      45.149  31.661  31.699  1.00  0.00     0.031 C 
ATOM     24  C   UNL A   1      44.804  25.239  29.148  1.00  0.00     0.029 A 
ATOM     25  C   UNL A   1      43.573  26.004  29.002  1.00  0.00     0.049 A 
ATOM     26  H   UNL A   1      43.209  27.958  29.630  1.00  0.00     0.167 HD
ATOM     27  C   UNL A   1      42.828  32.210  31.045  1.00  0.00     0.031 A 
ATOM     28  C   UNL A   1      42.437  25.573  28.426  1.00  0.00     0.031 A 
ATOM     29  C   UNL A   1      41.556  31.831  30.500  1.00  0.00     0.049 A 
ATOM     30  C   UNL A   1      41.264  26.517  28.433  1.00  0.00     0.074 A 
ATOM     31  C   UNL A   1      40.399  32.576  30.400  1.00  0.00     0.029 A 
ATOM     32  N   UNL A   1      41.284  30.579  29.959  1.00  0.00    -0.354 N 
ATOM     33  N   UNL A   1      41.213  27.758  28.866  1.00  0.00    -0.248 NA
ATOM     34  C   UNL A   1      40.000  26.010  27.894  1.00  0.00     0.031 C 
ATOM     35  C   UNL A   1      39.409  31.752  29.853  1.00  0.00     0.029 A 
ATOM     36  C   UNL A   1      39.969  30.519  29.545  1.00  0.00     0.049 A 
ATOM     37  H   UNL A   1      41.933  29.844  29.883  1.00  0.00     0.167 HD
ATOM     38  C   UNL A   1      39.913  28.187  28.636  1.00  0.00     0.074 A 
ATOM     39  C   UNL A   1      39.220  27.077  28.006  1.00  0.00     0.031 C 
ATOM     40  C   UNL A   1      39.336  29.384  28.918  1.00  0.00     0.031 A 
BRANCH  27  41
ATOM     41  C   UNL A   1      43.029  33.581  31.628  1.00  0.00    -0.014 A 
ATOM     42  C   UNL A   1      43.305  34.702  30.822  1.00  0.00     0.010 A 
ATOM     43  C   UNL A   1      42.993  33.737  33.025  1.00  0.00     0.010 A 
ATOM     44  C   UNL A   1      43.583  35.941  31.408  1.00  0.00     0.020 A 
ATOM     45  C   UNL A   1      43.242  34.980  33.612  1.00  0.00     0.020 A 
ATOM     46  C   UNL A   1      43.554  36.071  32.800  1.00  0.00     0.054 A 
BRANCH  46  47
ATOM     47  S   UNL A   1      43.914  37.691  33.530  1.00  0.00     0.124 S 
ATOM     48  O   UNL A   1      45.221  37.465  34.140  1.00  0.00    -0.237 OA
ATOM     49  O   UNL A   1      43.905  38.574  32.371  1.00  0.00    -0.237 OA
ATOM     50  O   UNL A   1      42.814  37.896  34.476  1.00  0.00    -0.744 OA
ENDBRANCH  46  47
ENDBRANCH  27  41
BRANCH  28  51
ATOM     51  C   UNL A   1      42.335  24.182  27.898  1.00  0.00    -0.014 A 
ATOM     52  C   UNL A   1      42.234  23.928  26.520  1.00  0.00     0.010 A 
ATOM     53  C   UNL A   1      42.343  23.090  28.789  1.00  0.00     0.010 A 
ATOM     54  C   UNL A   1      42.124  22.615  26.045  1.00  0.00     0.020 A 
ATOM     55  C   UNL A   1      42.266  21.776  28.317  1.00  0.00     0.020 A 
ATOM     56  C   UNL A   1      42.142  21.548  26.948  1.00  0.00     0.054 A 
BRANCH  56  57
ATOM     57  S   UNL A   1      42.027  19.852  26.309  1.00  0.00     0.124 S 
ATOM     58  O   UNL A   1      40.627  19.774  25.905  1.00  0.00    -0.237 OA
ATOM     59  O   UNL A   1      43.002  19.859  25.222  1.00  0.00    -0.237 OA
ATOM     60  O   UNL A   1      42.393  19.027  27.459  1.00  0.00    -0.744 OA
ENDBRANCH  56  57
ENDBRANCH  28  51
BRANCH  40  61
ATOM     61  C   UNL A   1      37.904  29.556  28.505  1.00  0.00    -0.014 A 
ATOM     62  C   UNL A   1      37.563  29.900  27.186  1.00  0.00     0.010 A 
ATOM     63  C   UNL A   1      36.888  29.292  29.439  1.00  0.00     0.010 A 
ATOM     64  C   UNL A   1      36.222  30.003  26.815  1.00  0.00     0.020 A 
ATOM     65  C   UNL A   1      35.548  29.359  29.063  1.00  0.00     0.020 A 
ATOM     66  C   UNL A   1      35.223  29.727  27.756  1.00  0.00     0.054 A 
BRANCH  66  67
ATOM     67  S   UNL A   1      33.491  29.807  27.234  1.00  0.00     0.124 S 
ATOM     68  O   UNL A   1      33.603  29.636  25.788  1.00  0.00    -0.237 OA
ATOM     69  O   UNL A   1      32.888  28.689  27.956  1.00  0.00    -0.237 OA
ATOM     70  O   UNL A   1      33.057  31.131  27.674  1.00  0.00    -0.744 OA
ENDBRANCH  66  67
ENDBRANCH  40  61
ENDBRANCH  14  15
ENDBRANCH   7   9
ENDBRANCH   6   7
ENDBRANCH   5   6
ENDBRANCH   4   5
ENDBRANCH   3   4
ENDBRANCH   2   3
ENDBRANCH   1   2
BRANCH   1  71
ATOM     71  O   UNL A   1      49.462  32.243  36.143  1.00  0.00    -0.377 OA
BRANCH  71  72
ATOM     72  C   UNL A   1      48.245  31.797  35.546  1.00  0.00     0.188 C 
BRANCH  72  73
ATOM     73  C   UNL A   1      46.894  32.278  36.091  1.00  0.00     0.188 C 
BRANCH  73  74
ATOM     74  O   UNL A   1      46.804  33.675  36.330  1.00  0.00    -0.376 OA
BRANCH  74  75
ATOM     75  C   UNL A   1      46.302  34.011  37.621  1.00  0.00     0.202 C 
BRANCH  75  76
ATOM     76  C   UNL A   1      45.189  33.088  38.157  1.00  0.00     0.261 C 
BRANCH  76  77
ATOM     77  O   UNL A   1      43.825  33.538  37.999  1.00  0.00    -0.463 OA
BRANCH  77  78
ATOM     78  C   UNL A   1      43.031  32.812  37.187  1.00  0.00     0.310 C 
ATOM     79  O   UNL A   1      43.461  32.076  36.304  1.00  0.00    -0.252 OA
BRANCH  78  80
ATOM     80  C   UNL A   1      41.537  32.991  37.435  1.00  0.00     0.118 C 
ATOM     81  C   UNL A   1      41.022  33.705  38.704  1.00  0.00     0.019 C 
ATOM     82  C   UNL A   1      41.022  33.740  36.222  1.00  0.00     0.133 C 
ATOM     83  C   UNL A   1      39.492  33.791  38.720  1.00  0.00     0.022 C 
ATOM     84  N   UNL A   1      39.583  33.905  36.317  1.00  0.00    -0.356 N 
ATOM     85  C   UNL A   1      38.990  34.517  37.488  1.00  0.00     0.118 C 
BRANCH  84  86
ATOM     86  C   UNL A   1      38.804  33.219  35.415  1.00  0.00     0.133 A 
ATOM     87  C   UNL A   1      37.655  33.841  35.009  1.00  0.00     0.077 A 
ATOM     88  N   UNL A   1      39.229  32.069  34.870  1.00  0.00    -0.211 NA
ATOM     89  C   UNL A   1      36.987  33.288  33.945  1.00  0.00     0.095 A 
ATOM     90  C   UNL A   1      38.485  31.565  33.865  1.00  0.00     0.165 A 
ATOM     91  N   UNL A   1      37.375  32.137  33.364  1.00  0.00    -0.226 NA
BRANCH  89  92
ATOM     92  C   UNL A   1      35.860  34.023  33.373  1.00  0.00     0.089 A 
ATOM     93  C   UNL A   1      35.317  33.638  32.142  1.00  0.00     0.030 A 
ATOM     94  N   UNL A   1      35.499  35.167  34.002  1.00  0.00    -0.255 NA
ATOM     95  C   UNL A   1      34.379  34.460  31.531  1.00  0.00     0.004 A 
ATOM     96  C   UNL A   1      34.572  35.935  33.394  1.00  0.00     0.112 A 
ATOM     97  C   UNL A   1      34.000  35.633  32.169  1.00  0.00     0.020 A 
ENDBRANCH  89  92
BRANCH  90  98
ATOM     98  C   UNL A   1      38.873  30.275  33.297  1.00  0.00     0.055 A 
ATOM     99  C   UNL A   1      40.211  29.839  33.311  1.00  0.00     0.015 A 
ATOM    100  C   UNL A   1      37.914  29.404  32.767  1.00  0.00     0.134 A 
ATOM    101  C   UNL A   1      40.560  28.564  32.847  1.00  0.00     0.001 A 
ATOM    102  C   UNL A   1      38.256  28.137  32.291  1.00  0.00     0.040 A 
ATOM    103  F   UNL A   1      36.626  29.776  32.693  1.00  0.00    -0.206 F 
ATOM    104  C   UNL A   1      39.581  27.711  32.342  1.00  0.00     0.003 A 
ENDBRANCH  90  98
ENDBRANCH  84  86
ENDBRANCH  78  80
ENDBRANCH  77  78
ENDBRANCH  76  77
ENDBRANCH  75  76
ENDBRANCH  74  75
ENDBRANCH  73  74
ENDBRANCH  72  73
ENDBRANCH  71  72
ENDBRANCH   1  71
TORSDOF 26
ENDMDL
