MODEL 1
REMARK VINA RESULT:      -8.3      0.000      0.000
REMARK SMILES O=Cc1c(OCc2ccc(C(=O)OCCOCCOCCOCCOC(=O)c3ccc(-c4c5nc(c(-c6ccc(S(=O)(=O)[O-])cc6)c6ccc([nH]6)c(-c6ccc(S(=O)(=O)[O-])cc6)c6nc(c(-c7ccc(S(=O)(=O)[O-])cc7)c7ccc4[nH]7)C=C6)C=C5)cc3)cc2)ccc2ccccc12
REMARK SMILES IDX 18 1 17 2 16 3 15 4 14 5 13 6 11 7 12 8 10 9 7 10 8 11 89 12
REMARK SMILES IDX 9 13 88 14 6 15 5 16 4 17 3 18 97 19 90 20 92 21 96 22 91 23
REMARK SMILES IDX 93 24 95 25 94 26 2 27 1 28 19 29 20 30 21 31 22 32 23 33
REMARK SMILES IDX 24 34 25 35 26 36 27 37 28 38 29 39 87 40 30 41 86 42 31 43
REMARK SMILES IDX 32 44 33 45 80 46 34 47 85 48 79 49 81 50 35 51 84 52 78 53
REMARK SMILES IDX 77 54 36 56 66 57 47 58 65 59 48 60 51 61 64 62 82 63 49 64
REMARK SMILES IDX 50 65 63 67 83 68 52 69 37 70 38 71 46 72 39 73 45 74 40 75
REMARK SMILES IDX 41 76 42 77 43 78 44 79 67 80 68 81 76 82 69 83 75 84 70 85
REMARK SMILES IDX 71 86 72 87 73 88 74 89 53 90 54 91 62 92 55 93 61 94 56 95
REMARK SMILES IDX 57 96 58 97 59 98 60 99
REMARK H PARENT 81 55 51 66
REMARK Flexibility Score: inf
ROOT
ATOM      1  C   UNL A   1      43.543  22.786  25.983  1.00  0.00     0.188 C 
ENDROOT
BRANCH   1   2
ATOM      2  C   UNL A   1      42.106  22.261  26.199  1.00  0.00     0.188 C 
BRANCH   2   3
ATOM      3  O   UNL A   1      41.282  23.122  26.962  1.00  0.00    -0.376 OA
BRANCH   3   4
ATOM      4  C   UNL A   1      39.882  22.915  26.976  1.00  0.00     0.202 C 
BRANCH   4   5
ATOM      5  C   UNL A   1      39.262  21.818  26.096  1.00  0.00     0.261 C 
BRANCH   5   6
ATOM      6  O   UNL A   1      38.029  22.151  25.451  1.00  0.00    -0.460 OA
BRANCH   6   7
ATOM      7  C   UNL A   1      37.257  21.120  25.056  1.00  0.00     0.338 C 
ATOM      8  O   UNL A   1      37.632  20.033  24.650  1.00  0.00    -0.246 OA
BRANCH   7   9
ATOM      9  C   UNL A   1      35.860  21.429  25.426  1.00  0.00     0.060 A 
ATOM     10  C   UNL A   1      33.170  21.987  25.946  1.00  0.00    -0.011 A 
ATOM     11  C   UNL A   1      33.533  20.791  25.310  1.00  0.00     0.008 A 
ATOM     12  C   UNL A   1      34.181  22.810  26.472  1.00  0.00     0.008 A 
ATOM     13  C   UNL A   1      34.865  20.544  24.995  1.00  0.00     0.016 A 
ATOM     14  C   UNL A   1      35.526  22.524  26.227  1.00  0.00     0.016 A 
BRANCH  10  15
ATOM     15  C   UNL A   1      31.730  22.472  25.963  1.00  0.00     0.265 C 
BRANCH  15  16
ATOM     16  O   UNL A   1      31.247  23.053  24.741  1.00  0.00    -0.488 OA
BRANCH  16  17
ATOM     17  C   UNL A   1      31.352  24.402  24.508  1.00  0.00     0.130 A 
ATOM     18  C   UNL A   1      32.243  24.804  23.494  1.00  0.00     0.064 A 
ATOM     19  C   UNL A   1      32.610  26.170  23.313  1.00  0.00    -0.004 A 
ATOM     20  C   UNL A   1      30.747  25.385  25.289  1.00  0.00     0.048 A 
ATOM     21  C   UNL A   1      32.053  27.127  24.193  1.00  0.00    -0.017 A 
ATOM     22  C   UNL A   1      33.494  26.647  22.311  1.00  0.00     0.009 A 
ATOM     23  C   UNL A   1      31.120  26.724  25.156  1.00  0.00     0.012 A 
ATOM     24  C   UNL A   1      32.427  28.478  24.100  1.00  0.00     0.009 A 
ATOM     25  C   UNL A   1      33.842  27.997  22.218  1.00  0.00     0.001 A 
ATOM     26  C   UNL A   1      33.318  28.910  23.122  1.00  0.00     0.001 A 
BRANCH  18  27
ATOM     27  C   UNL A   1      32.876  23.771  22.640  1.00  0.00     0.264 C 
ATOM     28  O   UNL A   1      33.668  24.032  21.743  1.00  0.00    -0.298 OA
ENDBRANCH  18  27
ENDBRANCH  16  17
ENDBRANCH  15  16
ENDBRANCH  10  15
ENDBRANCH   7   9
ENDBRANCH   6   7
ENDBRANCH   5   6
ENDBRANCH   4   5
ENDBRANCH   3   4
ENDBRANCH   2   3
ENDBRANCH   1   2
BRANCH   1  29
ATOM     29  O   UNL A   1      44.517  22.557  26.988  1.00  0.00    -0.377 OA
BRANCH  29  30
ATOM     30  C   UNL A   1      44.549  23.378  28.152  1.00  0.00     0.188 C 
BRANCH  30  31
ATOM     31  C   UNL A   1      43.851  22.952  29.468  1.00  0.00     0.188 C 
BRANCH  31  32
ATOM     32  O   UNL A   1      44.227  23.700  30.612  1.00  0.00    -0.376 OA
BRANCH  32  33
ATOM     33  C   UNL A   1      43.739  23.265  31.868  1.00  0.00     0.202 C 
BRANCH  33  34
ATOM     34  C   UNL A   1      44.741  23.228  33.030  1.00  0.00     0.261 C 
BRANCH  34  35
ATOM     35  O   UNL A   1      44.757  24.377  33.891  1.00  0.00    -0.460 OA
BRANCH  35  36
ATOM     36  C   UNL A   1      43.939  24.365  34.965  1.00  0.00     0.338 C 
ATOM     37  O   UNL A   1      43.645  23.401  35.656  1.00  0.00    -0.246 OA
BRANCH  36  38
ATOM     38  C   UNL A   1      43.607  25.769  35.284  1.00  0.00     0.060 A 
ATOM     39  C   UNL A   1      44.288  26.804  34.628  1.00  0.00     0.016 A 
ATOM     40  C   UNL A   1      42.598  26.057  36.205  1.00  0.00     0.016 A 
ATOM     41  C   UNL A   1      43.970  28.134  34.907  1.00  0.00     0.010 A 
ATOM     42  C   UNL A   1      42.299  27.389  36.500  1.00  0.00     0.010 A 
ATOM     43  C   UNL A   1      42.999  28.434  35.871  1.00  0.00    -0.014 A 
BRANCH  43  44
ATOM     44  C   UNL A   1      42.824  29.827  36.348  1.00  0.00     0.031 A 
ATOM     45  C   UNL A   1      43.777  30.355  37.384  1.00  0.00     0.074 A 
ATOM     46  C   UNL A   1      41.836  30.608  35.876  1.00  0.00     0.049 A 
ATOM     47  N   UNL A   1      43.780  31.510  37.997  1.00  0.00    -0.248 NA
ATOM     48  C   UNL A   1      44.870  29.454  37.786  1.00  0.00     0.031 C 
ATOM     49  C   UNL A   1      40.879  30.229  34.838  1.00  0.00     0.029 A 
ATOM     50  N   UNL A   1      41.470  31.886  36.222  1.00  0.00    -0.354 N 
ATOM     51  C   UNL A   1      44.866  31.474  38.864  1.00  0.00     0.074 A 
ATOM     52  C   UNL A   1      45.479  30.171  38.720  1.00  0.00     0.031 C 
ATOM     53  C   UNL A   1      40.029  31.251  34.637  1.00  0.00     0.029 A 
ATOM     54  C   UNL A   1      40.354  32.338  35.560  1.00  0.00     0.049 A 
ATOM     55  H   UNL A   1      41.961  32.426  36.883  1.00  0.00     0.167 HD
ATOM     56  C   UNL A   1      45.313  32.436  39.704  1.00  0.00     0.031 A 
ATOM     57  C   UNL A   1      39.658  33.484  35.702  1.00  0.00     0.031 A 
ATOM     58  C   UNL A   1      44.682  33.721  39.864  1.00  0.00     0.049 A 
ATOM     59  C   UNL A   1      40.117  34.505  36.713  1.00  0.00     0.074 A 
ATOM     60  C   UNL A   1      45.066  34.772  40.677  1.00  0.00     0.029 A 
ATOM     61  N   UNL A   1      43.525  34.121  39.211  1.00  0.00    -0.354 N 
ATOM     62  N   UNL A   1      41.163  34.471  37.504  1.00  0.00    -0.248 NA
ATOM     63  C   UNL A   1      39.300  35.718  36.848  1.00  0.00     0.031 C 
ATOM     64  C   UNL A   1      44.102  35.779  40.571  1.00  0.00     0.029 A 
ATOM     65  C   UNL A   1      43.157  35.387  39.635  1.00  0.00     0.049 A 
ATOM     66  H   UNL A   1      43.038  33.584  38.545  1.00  0.00     0.167 HD
ATOM     67  C   UNL A   1      41.143  35.667  38.214  1.00  0.00     0.074 A 
ATOM     68  C   UNL A   1      39.992  36.411  37.744  1.00  0.00     0.031 C 
ATOM     69  C   UNL A   1      42.000  36.111  39.169  1.00  0.00     0.031 A 
BRANCH  56  70
ATOM     70  C   UNL A   1      46.517  32.111  40.552  1.00  0.00    -0.014 A 
ATOM     71  C   UNL A   1      47.823  32.397  40.115  1.00  0.00     0.010 A 
ATOM     72  C   UNL A   1      46.334  31.522  41.817  1.00  0.00     0.010 A 
ATOM     73  C   UNL A   1      48.924  32.052  40.904  1.00  0.00     0.020 A 
ATOM     74  C   UNL A   1      47.431  31.207  42.623  1.00  0.00     0.020 A 
ATOM     75  C   UNL A   1      48.721  31.456  42.151  1.00  0.00     0.054 A 
BRANCH  75  76
ATOM     76  S   UNL A   1      50.169  31.023  43.154  1.00  0.00     0.124 S 
ATOM     77  O   UNL A   1      49.683  29.866  43.901  1.00  0.00    -0.237 OA
ATOM     78  O   UNL A   1      51.183  30.738  42.143  1.00  0.00    -0.237 OA
ATOM     79  O   UNL A   1      50.410  32.223  43.954  1.00  0.00    -0.744 OA
ENDBRANCH  75  76
ENDBRANCH  56  70
BRANCH  57  80
ATOM     80  C   UNL A   1      38.440  33.719  34.879  1.00  0.00    -0.014 A 
ATOM     81  C   UNL A   1      37.202  33.168  35.255  1.00  0.00     0.010 A 
ATOM     82  C   UNL A   1      38.508  34.512  33.718  1.00  0.00     0.010 A 
ATOM     83  C   UNL A   1      36.058  33.404  34.487  1.00  0.00     0.020 A 
ATOM     84  C   UNL A   1      37.361  34.775  32.964  1.00  0.00     0.020 A 
ATOM     85  C   UNL A   1      36.143  34.215  33.351  1.00  0.00     0.054 A 
BRANCH  85  86
ATOM     86  S   UNL A   1      34.628  34.572  32.419  1.00  0.00     0.124 S 
ATOM     87  O   UNL A   1      34.370  35.964  32.776  1.00  0.00    -0.237 OA
ATOM     88  O   UNL A   1      35.049  34.339  31.039  1.00  0.00    -0.237 OA
ATOM     89  O   UNL A   1      33.667  33.604  32.941  1.00  0.00    -0.744 OA
ENDBRANCH  85  86
ENDBRANCH  57  80
BRANCH  69  90
ATOM     90  C   UNL A   1      41.739  37.475  39.760  1.00  0.00    -0.014 A 
ATOM     91  C   UNL A   1      42.567  38.571  39.459  1.00  0.00     0.010 A 
ATOM     92  C   UNL A   1      40.614  37.673  40.582  1.00  0.00     0.010 A 
ATOM     93  C   UNL A   1      42.292  39.833  39.996  1.00  0.00     0.020 A 
ATOM     94  C   UNL A   1      40.317  38.940  41.092  1.00  0.00     0.020 A 
ATOM     95  C   UNL A   1      41.167  40.010  40.806  1.00  0.00     0.054 A 
BRANCH  95  96
ATOM     96  S   UNL A   1      40.810  41.668  41.450  1.00  0.00     0.124 S 
ATOM     97  O   UNL A   1      41.462  41.635  42.757  1.00  0.00    -0.237 OA
ATOM     98  O   UNL A   1      41.435  42.538  40.458  1.00  0.00    -0.237 OA
ATOM     99  O   UNL A   1      39.350  41.721  41.485  1.00  0.00    -0.744 OA
ENDBRANCH  95  96
ENDBRANCH  69  90
ENDBRANCH  43  44
ENDBRANCH  36  38
ENDBRANCH  35  36
ENDBRANCH  34  35
ENDBRANCH  33  34
ENDBRANCH  32  33
ENDBRANCH  31  32
ENDBRANCH  30  31
ENDBRANCH  29  30
ENDBRANCH   1  29
TORSDOF 27
ENDMDL
MODEL 2
REMARK VINA RESULT:      -8.1      6.859     11.566
REMARK SMILES O=Cc1c(OCc2ccc(C(=O)OCCOCCOCCOCCOC(=O)c3ccc(-c4c5nc(c(-c6ccc(S(=O)(=O)[O-])cc6)c6ccc([nH]6)c(-c6ccc(S(=O)(=O)[O-])cc6)c6nc(c(-c7ccc(S(=O)(=O)[O-])cc7)c7ccc4[nH]7)C=C6)C=C5)cc3)cc2)ccc2ccccc12
REMARK SMILES IDX 18 1 17 2 16 3 15 4 14 5 13 6 11 7 12 8 10 9 7 10 8 11 89 12
REMARK SMILES IDX 9 13 88 14 6 15 5 16 4 17 3 18 97 19 90 20 92 21 96 22 91 23
REMARK SMILES IDX 93 24 95 25 94 26 2 27 1 28 19 29 20 30 21 31 22 32 23 33
REMARK SMILES IDX 24 34 25 35 26 36 27 37 28 38 29 39 87 40 30 41 86 42 31 43
REMARK SMILES IDX 32 44 33 45 80 46 34 47 85 48 79 49 81 50 35 51 84 52 78 53
REMARK SMILES IDX 77 54 36 56 66 57 47 58 65 59 48 60 51 61 64 62 82 63 49 64
REMARK SMILES IDX 50 65 63 67 83 68 52 69 37 70 38 71 46 72 39 73 45 74 40 75
REMARK SMILES IDX 41 76 42 77 43 78 44 79 67 80 68 81 76 82 69 83 75 84 70 85
REMARK SMILES IDX 71 86 72 87 73 88 74 89 53 90 54 91 62 92 55 93 61 94 56 95
REMARK SMILES IDX 57 96 58 97 59 98 60 99
REMARK H PARENT 81 55 51 66
REMARK Flexibility Score: inf
ROOT
ATOM      1  C   UNL A   1      38.380  28.781  28.641  1.00  0.00     0.188 C 
ENDROOT
BRANCH   1   2
ATOM      2  C   UNL A   1      39.799  28.688  29.243  1.00  0.00     0.188 C 
BRANCH   2   3
ATOM      3  O   UNL A   1      40.309  27.371  29.327  1.00  0.00    -0.376 OA
BRANCH   3   4
ATOM      4  C   UNL A   1      41.696  27.148  29.155  1.00  0.00     0.202 C 
BRANCH   4   5
ATOM      5  C   UNL A   1      42.685  27.612  30.236  1.00  0.00     0.261 C 
BRANCH   5   6
ATOM      6  O   UNL A   1      44.072  27.547  29.888  1.00  0.00    -0.460 OA
BRANCH   6   7
ATOM      7  C   UNL A   1      44.697  26.376  30.119  1.00  0.00     0.338 C 
ATOM      8  O   UNL A   1      44.578  25.659  31.098  1.00  0.00    -0.246 OA
BRANCH   7   9
ATOM      9  C   UNL A   1      45.377  25.968  28.872  1.00  0.00     0.060 A 
ATOM     10  C   UNL A   1      46.496  25.204  26.427  1.00  0.00    -0.011 A 
ATOM     11  C   UNL A   1      45.731  26.376  26.518  1.00  0.00     0.008 A 
ATOM     12  C   UNL A   1      46.836  24.522  27.607  1.00  0.00     0.008 A 
ATOM     13  C   UNL A   1      45.122  26.720  27.720  1.00  0.00     0.016 A 
ATOM     14  C   UNL A   1      46.291  24.912  28.833  1.00  0.00     0.016 A 
BRANCH  10  15
ATOM     15  C   UNL A   1      46.851  24.591  25.082  1.00  0.00     0.265 C 
BRANCH  15  16
ATOM     16  O   UNL A   1      45.765  23.989  24.358  1.00  0.00    -0.488 OA
BRANCH  16  17
ATOM     17  C   UNL A   1      45.498  22.647  24.467  1.00  0.00     0.130 A 
ATOM     18  C   UNL A   1      44.209  22.288  24.906  1.00  0.00     0.064 A 
ATOM     19  C   UNL A   1      43.885  20.949  25.276  1.00  0.00    -0.004 A 
ATOM     20  C   UNL A   1      46.448  21.640  24.304  1.00  0.00     0.048 A 
ATOM     21  C   UNL A   1      44.908  19.975  25.195  1.00  0.00    -0.017 A 
ATOM     22  C   UNL A   1      42.610  20.516  25.721  1.00  0.00     0.009 A 
ATOM     23  C   UNL A   1      46.167  20.330  24.697  1.00  0.00     0.012 A 
ATOM     24  C   UNL A   1      44.662  18.654  25.605  1.00  0.00     0.009 A 
ATOM     25  C   UNL A   1      42.374  19.194  26.106  1.00  0.00     0.001 A 
ATOM     26  C   UNL A   1      43.405  18.267  26.061  1.00  0.00     0.001 A 
BRANCH  18  27
ATOM     27  C   UNL A   1      43.182  23.345  25.062  1.00  0.00     0.264 C 
ATOM     28  O   UNL A   1      43.239  24.218  25.918  1.00  0.00    -0.298 OA
ENDBRANCH  18  27
ENDBRANCH  16  17
ENDBRANCH  15  16
ENDBRANCH  10  15
ENDBRANCH   7   9
ENDBRANCH   6   7
ENDBRANCH   5   6
ENDBRANCH   4   5
ENDBRANCH   3   4
ENDBRANCH   2   3
ENDBRANCH   1   2
BRANCH   1  29
ATOM     29  O   UNL A   1      37.954  30.007  28.069  1.00  0.00    -0.377 OA
BRANCH  29  30
ATOM     30  C   UNL A   1      36.698  30.085  27.402  1.00  0.00     0.188 C 
BRANCH  30  31
ATOM     31  C   UNL A   1      35.395  29.558  28.053  1.00  0.00     0.188 C 
BRANCH  31  32
ATOM     32  O   UNL A   1      34.197  30.020  27.452  1.00  0.00    -0.376 OA
BRANCH  32  33
ATOM     33  C   UNL A   1      33.993  31.418  27.389  1.00  0.00     0.202 C 
BRANCH  33  34
ATOM     34  C   UNL A   1      33.769  32.151  28.720  1.00  0.00     0.261 C 
BRANCH  34  35
ATOM     35  O   UNL A   1      34.534  33.349  28.921  1.00  0.00    -0.460 OA
BRANCH  35  36
ATOM     36  C   UNL A   1      34.850  33.684  30.190  1.00  0.00     0.338 C 
ATOM     37  O   UNL A   1      34.085  33.783  31.137  1.00  0.00    -0.246 OA
BRANCH  36  38
ATOM     38  C   UNL A   1      36.324  33.722  30.283  1.00  0.00     0.060 A 
ATOM     39  C   UNL A   1      37.095  33.249  29.212  1.00  0.00     0.016 A 
ATOM     40  C   UNL A   1      36.939  34.261  31.415  1.00  0.00     0.016 A 
ATOM     41  C   UNL A   1      38.488  33.298  29.281  1.00  0.00     0.010 A 
ATOM     42  C   UNL A   1      38.334  34.285  31.492  1.00  0.00     0.010 A 
ATOM     43  C   UNL A   1      39.115  33.783  30.436  1.00  0.00    -0.014 A 
BRANCH  43  44
ATOM     44  C   UNL A   1      40.577  33.618  30.619  1.00  0.00     0.031 A 
ATOM     45  C   UNL A   1      41.069  32.495  31.489  1.00  0.00     0.074 A 
ATOM     46  C   UNL A   1      41.453  34.451  30.029  1.00  0.00     0.049 A 
ATOM     47  N   UNL A   1      42.290  32.196  31.847  1.00  0.00    -0.248 NA
ATOM     48  C   UNL A   1      40.041  31.591  32.031  1.00  0.00     0.031 C 
ATOM     49  C   UNL A   1      41.105  35.546  29.126  1.00  0.00     0.029 A 
ATOM     50  N   UNL A   1      42.823  34.507  30.115  1.00  0.00    -0.354 N 
ATOM     51  C   UNL A   1      42.179  31.077  32.665  1.00  0.00     0.074 A 
ATOM     52  C   UNL A   1      40.769  30.770  32.773  1.00  0.00     0.031 C 
ATOM     53  C   UNL A   1      42.233  36.173  28.747  1.00  0.00     0.029 A 
ATOM     54  C   UNL A   1      43.377  35.550  29.412  1.00  0.00     0.049 A 
ATOM     55  H   UNL A   1      43.357  33.861  30.631  1.00  0.00     0.167 HD
ATOM     56  C   UNL A   1      43.161  30.369  33.270  1.00  0.00     0.031 A 
ATOM     57  C   UNL A   1      44.656  35.971  29.338  1.00  0.00     0.031 A 
ATOM     58  C   UNL A   1      44.561  30.696  33.182  1.00  0.00     0.049 A 
ATOM     59  C   UNL A   1      45.724  35.226  30.097  1.00  0.00     0.074 A 
ATOM     60  C   UNL A   1      45.636  30.033  33.745  1.00  0.00     0.029 A 
ATOM     61  N   UNL A   1      45.077  31.789  32.501  1.00  0.00    -0.354 N 
ATOM     62  N   UNL A   1      45.610  34.151  30.842  1.00  0.00    -0.248 NA
ATOM     63  C   UNL A   1      47.093  35.751  30.005  1.00  0.00     0.031 C 
ATOM     64  C   UNL A   1      46.795  30.765  33.465  1.00  0.00     0.029 A 
ATOM     65  C   UNL A   1      46.451  31.843  32.664  1.00  0.00     0.049 A 
ATOM     66  H   UNL A   1      44.544  32.431  31.978  1.00  0.00     0.167 HD
ATOM     67  C   UNL A   1      46.895  33.858  31.288  1.00  0.00     0.074 A 
ATOM     68  C   UNL A   1      47.772  34.858  30.713  1.00  0.00     0.031 C 
ATOM     69  C   UNL A   1      47.312  32.853  32.099  1.00  0.00     0.031 A 
BRANCH  56  70
ATOM     70  C   UNL A   1      42.745  29.199  34.126  1.00  0.00    -0.014 A 
ATOM     71  C   UNL A   1      42.113  29.386  35.369  1.00  0.00     0.010 A 
ATOM     72  C   UNL A   1      42.977  27.889  33.669  1.00  0.00     0.010 A 
ATOM     73  C   UNL A   1      41.770  28.286  36.160  1.00  0.00     0.020 A 
ATOM     74  C   UNL A   1      42.604  26.786  34.442  1.00  0.00     0.020 A 
ATOM     75  C   UNL A   1      42.022  26.993  35.693  1.00  0.00     0.054 A 
BRANCH  75  76
ATOM     76  S   UNL A   1      41.561  25.586  36.741  1.00  0.00     0.124 S 
ATOM     77  O   UNL A   1      41.212  24.573  35.748  1.00  0.00    -0.237 OA
ATOM     78  O   UNL A   1      42.788  25.332  37.491  1.00  0.00    -0.237 OA
ATOM     79  O   UNL A   1      40.443  26.092  37.533  1.00  0.00    -0.744 OA
ENDBRANCH  75  76
ENDBRANCH  56  70
BRANCH  57  80
ATOM     80  C   UNL A   1      44.994  37.173  28.526  1.00  0.00    -0.014 A 
ATOM     81  C   UNL A   1      45.399  37.043  27.186  1.00  0.00     0.010 A 
ATOM     82  C   UNL A   1      44.898  38.461  29.087  1.00  0.00     0.010 A 
ATOM     83  C   UNL A   1      45.702  38.175  26.423  1.00  0.00     0.020 A 
ATOM     84  C   UNL A   1      45.170  39.596  28.320  1.00  0.00     0.020 A 
ATOM     85  C   UNL A   1      45.575  39.446  26.992  1.00  0.00     0.054 A 
BRANCH  85  86
ATOM     86  S   UNL A   1      45.895  40.902  25.958  1.00  0.00     0.124 S 
ATOM     87  O   UNL A   1      45.910  41.979  26.943  1.00  0.00    -0.237 OA
ATOM     88  O   UNL A   1      47.184  40.578  25.352  1.00  0.00    -0.237 OA
ATOM     89  O   UNL A   1      44.766  40.918  25.031  1.00  0.00    -0.744 OA
ENDBRANCH  85  86
ENDBRANCH  57  80
BRANCH  69  90
ATOM     90  C   UNL A   1      48.787  32.769  32.403  1.00  0.00    -0.014 A 
ATOM     91  C   UNL A   1      49.666  32.060  31.564  1.00  0.00     0.010 A 
ATOM     92  C   UNL A   1      49.310  33.458  33.512  1.00  0.00     0.010 A 
ATOM     93  C   UNL A   1      51.034  32.017  31.847  1.00  0.00     0.020 A 
ATOM     94  C   UNL A   1      50.682  33.445  33.780  1.00  0.00     0.020 A 
ATOM     95  C   UNL A   1      51.534  32.712  32.952  1.00  0.00     0.054 A 
BRANCH  95  96
ATOM     96  S   UNL A   1      53.320  32.676  33.269  1.00  0.00     0.124 S 
ATOM     97  O   UNL A   1      53.501  33.844  34.128  1.00  0.00    -0.237 OA
ATOM     98  O   UNL A   1      53.503  31.382  33.922  1.00  0.00    -0.237 OA
ATOM     99  O   UNL A   1      53.912  32.785  31.937  1.00  0.00    -0.744 OA
ENDBRANCH  95  96
ENDBRANCH  69  90
ENDBRANCH  43  44
ENDBRANCH  36  38
ENDBRANCH  35  36
ENDBRANCH  34  35
ENDBRANCH  33  34
ENDBRANCH  32  33
ENDBRANCH  31  32
ENDBRANCH  30  31
ENDBRANCH  29  30
ENDBRANCH   1  29
TORSDOF 27
ENDMDL
MODEL 3
REMARK VINA RESULT:      -8.1      7.218     14.422
REMARK SMILES O=Cc1c(OCc2ccc(C(=O)OCCOCCOCCOCCOC(=O)c3ccc(-c4c5nc(c(-c6ccc(S(=O)(=O)[O-])cc6)c6ccc([nH]6)c(-c6ccc(S(=O)(=O)[O-])cc6)c6nc(c(-c7ccc(S(=O)(=O)[O-])cc7)c7ccc4[nH]7)C=C6)C=C5)cc3)cc2)ccc2ccccc12
REMARK SMILES IDX 18 1 17 2 16 3 15 4 14 5 13 6 11 7 12 8 10 9 7 10 8 11 89 12
REMARK SMILES IDX 9 13 88 14 6 15 5 16 4 17 3 18 97 19 90 20 92 21 96 22 91 23
REMARK SMILES IDX 93 24 95 25 94 26 2 27 1 28 19 29 20 30 21 31 22 32 23 33
REMARK SMILES IDX 24 34 25 35 26 36 27 37 28 38 29 39 87 40 30 41 86 42 31 43
REMARK SMILES IDX 32 44 33 45 80 46 34 47 85 48 79 49 81 50 35 51 84 52 78 53
REMARK SMILES IDX 77 54 36 56 66 57 47 58 65 59 48 60 51 61 64 62 82 63 49 64
REMARK SMILES IDX 50 65 63 67 83 68 52 69 37 70 38 71 46 72 39 73 45 74 40 75
REMARK SMILES IDX 41 76 42 77 43 78 44 79 67 80 68 81 76 82 69 83 75 84 70 85
REMARK SMILES IDX 71 86 72 87 73 88 74 89 53 90 54 91 62 92 55 93 61 94 56 95
REMARK SMILES IDX 57 96 58 97 59 98 60 99
REMARK H PARENT 81 55 51 66
REMARK Flexibility Score: inf
ROOT
ATOM      1  C   UNL A   1      48.221  25.962  31.222  1.00  0.00     0.188 C 
ENDROOT
BRANCH   1   2
ATOM      2  C   UNL A   1      47.613  25.379  32.516  1.00  0.00     0.188 C 
BRANCH   2   3
ATOM      3  O   UNL A   1      46.243  25.681  32.701  1.00  0.00    -0.376 OA
BRANCH   3   4
ATOM      4  C   UNL A   1      45.261  24.779  32.224  1.00  0.00     0.202 C 
BRANCH   4   5
ATOM      5  C   UNL A   1      44.709  23.687  33.154  1.00  0.00     0.261 C 
BRANCH   5   6
ATOM      6  O   UNL A   1      45.529  23.341  34.274  1.00  0.00    -0.460 OA
BRANCH   6   7
ATOM      7  C   UNL A   1      44.937  23.363  35.485  1.00  0.00     0.338 C 
ATOM      8  O   UNL A   1      43.965  24.019  35.817  1.00  0.00    -0.246 OA
BRANCH   7   9
ATOM      9  C   UNL A   1      45.512  22.267  36.292  1.00  0.00     0.060 A 
ATOM     10  C   UNL A   1      46.453  20.086  37.767  1.00  0.00    -0.011 A 
ATOM     11  C   UNL A   1      46.176  19.947  36.399  1.00  0.00     0.008 A 
ATOM     12  C   UNL A   1      46.421  21.369  38.339  1.00  0.00     0.008 A 
ATOM     13  C   UNL A   1      45.648  21.015  35.683  1.00  0.00     0.016 A 
ATOM     14  C   UNL A   1      45.966  22.463  37.599  1.00  0.00     0.016 A 
BRANCH  10  15
ATOM     15  C   UNL A   1      46.658  18.876  38.662  1.00  0.00     0.265 C 
BRANCH  15  16
ATOM     16  O   UNL A   1      45.506  18.041  38.866  1.00  0.00    -0.488 OA
BRANCH  16  17
ATOM     17  C   UNL A   1      45.346  17.325  40.027  1.00  0.00     0.130 A 
ATOM     18  C   UNL A   1      44.190  16.528  40.128  1.00  0.00     0.064 A 
ATOM     19  C   UNL A   1      43.797  15.924  41.358  1.00  0.00    -0.004 A 
ATOM     20  C   UNL A   1      46.172  17.442  41.144  1.00  0.00     0.048 A 
ATOM     21  C   UNL A   1      44.607  16.152  42.495  1.00  0.00    -0.017 A 
ATOM     22  C   UNL A   1      42.650  15.107  41.532  1.00  0.00     0.009 A 
ATOM     23  C   UNL A   1      45.788  16.893  42.369  1.00  0.00     0.012 A 
ATOM     24  C   UNL A   1      44.235  15.633  43.746  1.00  0.00     0.009 A 
ATOM     25  C   UNL A   1      42.303  14.580  42.778  1.00  0.00     0.001 A 
ATOM     26  C   UNL A   1      43.089  14.856  43.889  1.00  0.00     0.001 A 
BRANCH  18  27
ATOM     27  C   UNL A   1      43.314  16.376  38.942  1.00  0.00     0.264 C 
ATOM     28  O   UNL A   1      43.123  17.270  38.127  1.00  0.00    -0.298 OA
ENDBRANCH  18  27
ENDBRANCH  16  17
ENDBRANCH  15  16
ENDBRANCH  10  15
ENDBRANCH   7   9
ENDBRANCH   6   7
ENDBRANCH   5   6
ENDBRANCH   4   5
ENDBRANCH   3   4
ENDBRANCH   2   3
ENDBRANCH   1   2
BRANCH   1  29
ATOM     29  O   UNL A   1      47.463  25.917  30.024  1.00  0.00    -0.377 OA
BRANCH  29  30
ATOM     30  C   UNL A   1      47.908  25.126  28.926  1.00  0.00     0.188 C 
BRANCH  30  31
ATOM     31  C   UNL A   1      48.856  25.698  27.843  1.00  0.00     0.188 C 
BRANCH  31  32
ATOM     32  O   UNL A   1      50.238  25.510  28.099  1.00  0.00    -0.376 OA
BRANCH  32  33
ATOM     33  C   UNL A   1      51.111  25.473  26.986  1.00  0.00     0.202 C 
BRANCH  33  34
ATOM     34  C   UNL A   1      52.259  26.492  26.967  1.00  0.00     0.261 C 
BRANCH  34  35
ATOM     35  O   UNL A   1      51.992  27.737  26.302  1.00  0.00    -0.460 OA
BRANCH  35  36
ATOM     36  C   UNL A   1      51.978  28.857  27.055  1.00  0.00     0.338 C 
ATOM     37  O   UNL A   1      52.903  29.634  27.236  1.00  0.00    -0.246 OA
BRANCH  36  38
ATOM     38  C   UNL A   1      50.580  29.092  27.471  1.00  0.00     0.060 A 
ATOM     39  C   UNL A   1      49.617  29.411  26.504  1.00  0.00     0.016 A 
ATOM     40  C   UNL A   1      50.218  28.959  28.813  1.00  0.00     0.016 A 
ATOM     41  C   UNL A   1      48.289  29.616  26.883  1.00  0.00     0.010 A 
ATOM     42  C   UNL A   1      48.894  29.189  29.193  1.00  0.00     0.010 A 
ATOM     43  C   UNL A   1      47.928  29.542  28.234  1.00  0.00    -0.014 A 
BRANCH  43  44
ATOM     44  C   UNL A   1      46.585  29.990  28.676  1.00  0.00     0.031 A 
ATOM     45  C   UNL A   1      45.427  29.045  28.518  1.00  0.00     0.074 A 
ATOM     46  C   UNL A   1      46.395  31.213  29.201  1.00  0.00     0.049 A 
ATOM     47  N   UNL A   1      44.158  29.237  28.769  1.00  0.00    -0.248 NA
ATOM     48  C   UNL A   1      45.744  27.702  28.003  1.00  0.00     0.031 C 
ATOM     49  C   UNL A   1      47.442  32.201  29.450  1.00  0.00     0.029 A 
ATOM     50  N   UNL A   1      45.240  31.834  29.612  1.00  0.00    -0.354 N 
ATOM     51  C   UNL A   1      43.523  28.047  28.433  1.00  0.00     0.074 A 
ATOM     52  C   UNL A   1      44.542  27.150  27.933  1.00  0.00     0.031 C 
ATOM     53  C   UNL A   1      46.881  33.310  29.963  1.00  0.00     0.029 A 
ATOM     54  C   UNL A   1      45.432  33.126  30.040  1.00  0.00     0.049 A 
ATOM     55  H   UNL A   1      44.359  31.396  29.600  1.00  0.00     0.167 HD
ATOM     56  C   UNL A   1      42.211  27.729  28.533  1.00  0.00     0.031 A 
ATOM     57  C   UNL A   1      44.540  34.061  30.422  1.00  0.00     0.031 A 
ATOM     58  C   UNL A   1      41.197  28.636  29.005  1.00  0.00     0.049 A 
ATOM     59  C   UNL A   1      43.071  33.718  30.434  1.00  0.00     0.074 A 
ATOM     60  C   UNL A   1      39.842  28.406  29.159  1.00  0.00     0.029 A 
ATOM     61  N   UNL A   1      41.425  29.951  29.383  1.00  0.00    -0.354 N 
ATOM     62  N   UNL A   1      42.487  32.579  30.144  1.00  0.00    -0.248 NA
ATOM     63  C   UNL A   1      42.143  34.787  30.827  1.00  0.00     0.031 C 
ATOM     64  C   UNL A   1      39.239  29.603  29.560  1.00  0.00     0.029 A 
ATOM     65  C   UNL A   1      40.229  30.558  29.729  1.00  0.00     0.049 A 
ATOM     66  H   UNL A   1      42.307  30.389  29.401  1.00  0.00     0.167 HD
ATOM     67  C   UNL A   1      41.125  32.788  30.341  1.00  0.00     0.074 A 
ATOM     68  C   UNL A   1      40.976  34.157  30.794  1.00  0.00     0.031 C 
ATOM     69  C   UNL A   1      40.092  31.927  30.164  1.00  0.00     0.031 A 
BRANCH  56  70
ATOM     70  C   UNL A   1      41.794  26.355  28.071  1.00  0.00    -0.014 A 
ATOM     71  C   UNL A   1      40.953  26.179  26.957  1.00  0.00     0.010 A 
ATOM     72  C   UNL A   1      42.266  25.221  28.756  1.00  0.00     0.010 A 
ATOM     73  C   UNL A   1      40.551  24.898  26.570  1.00  0.00     0.020 A 
ATOM     74  C   UNL A   1      41.893  23.936  28.352  1.00  0.00     0.020 A 
ATOM     75  C   UNL A   1      41.021  23.785  27.273  1.00  0.00     0.054 A 
BRANCH  75  76
ATOM     76  S   UNL A   1      40.485  22.134  26.745  1.00  0.00     0.124 S 
ATOM     77  O   UNL A   1      40.547  21.383  27.997  1.00  0.00    -0.237 OA
ATOM     78  O   UNL A   1      39.142  22.384  26.229  1.00  0.00    -0.237 OA
ATOM     79  O   UNL A   1      41.475  21.751  25.741  1.00  0.00    -0.744 OA
ENDBRANCH  75  76
ENDBRANCH  56  70
BRANCH  57  80
ATOM     80  C   UNL A   1      45.009  35.421  30.806  1.00  0.00    -0.014 A 
ATOM     81  C   UNL A   1      45.515  35.668  32.094  1.00  0.00     0.010 A 
ATOM     82  C   UNL A   1      44.966  36.478  29.877  1.00  0.00     0.010 A 
ATOM     83  C   UNL A   1      45.969  36.943  32.446  1.00  0.00     0.020 A 
ATOM     84  C   UNL A   1      45.446  37.746  30.214  1.00  0.00     0.020 A 
ATOM     85  C   UNL A   1      45.940  37.972  31.500  1.00  0.00     0.054 A 
BRANCH  85  86
ATOM     86  S   UNL A   1      46.610  39.596  31.955  1.00  0.00     0.124 S 
ATOM     87  O   UNL A   1      45.563  40.126  32.823  1.00  0.00    -0.237 OA
ATOM     88  O   UNL A   1      47.863  39.242  32.617  1.00  0.00    -0.237 OA
ATOM     89  O   UNL A   1      46.763  40.276  30.671  1.00  0.00    -0.744 OA
ENDBRANCH  85  86
ENDBRANCH  57  80
BRANCH  69  90
ATOM     90  C   UNL A   1      38.704  32.428  30.478  1.00  0.00    -0.014 A 
ATOM     91  C   UNL A   1      37.875  32.958  29.473  1.00  0.00     0.010 A 
ATOM     92  C   UNL A   1      38.201  32.313  31.787  1.00  0.00     0.010 A 
ATOM     93  C   UNL A   1      36.581  33.392  29.778  1.00  0.00     0.020 A 
ATOM     94  C   UNL A   1      36.897  32.714  32.090  1.00  0.00     0.020 A 
ATOM     95  C   UNL A   1      36.100  33.264  31.085  1.00  0.00     0.054 A 
BRANCH  95  96
ATOM     96  S   UNL A   1      34.402  33.793  31.442  1.00  0.00     0.124 S 
ATOM     97  O   UNL A   1      33.918  32.710  32.295  1.00  0.00    -0.237 OA
ATOM     98  O   UNL A   1      34.600  35.077  32.109  1.00  0.00    -0.237 OA
ATOM     99  O   UNL A   1      33.777  33.873  30.123  1.00  0.00    -0.744 OA
ENDBRANCH  95  96
ENDBRANCH  69  90
ENDBRANCH  43  44
ENDBRANCH  36  38
ENDBRANCH  35  36
ENDBRANCH  34  35
ENDBRANCH  33  34
ENDBRANCH  32  33
ENDBRANCH  31  32
ENDBRANCH  30  31
ENDBRANCH  29  30
ENDBRANCH   1  29
TORSDOF 27
ENDMDL
