MODEL 1
REMARK VINA RESULT:     -10.3      0.000      0.000
REMARK SMILES O=C(OCCOCCOCCOCCOC(=O)[C@H]1Cc2c([nH]c3ccccc23)[C@H](c2c[nH]c3ccccc23)[NH2+]1)c1ccc(-c2c3nc(c(-c4ccc(S(=O)(=O)[O-])cc4)c4ccc([nH]4)c(-c4ccc(S(=O)(=O)[O-])cc4)c4nc(c(-c5ccc(S(=O)(=O)[O-])cc5)c5ccc2[nH]5)C=C4)C=C3)cc1
REMARK SMILES IDX 8 1 7 2 6 3 5 4 4 5 3 6 2 7 1 8 40 9 41 10 99 11 42 12 98 13
REMARK SMILES IDX 43 14 44 15 45 16 92 17 46 18 97 19 91 20 93 21 47 22 96 23
REMARK SMILES IDX 90 24 89 25 48 27 78 28 59 29 77 30 60 31 63 32 76 33 94 34
REMARK SMILES IDX 61 35 62 36 75 38 95 39 64 40 49 41 50 42 58 43 51 44 57 45
REMARK SMILES IDX 52 46 53 47 54 48 55 49 56 50 79 51 80 52 88 53 81 54 87 55
REMARK SMILES IDX 82 56 83 57 84 58 85 59 86 60 65 61 66 62 74 63 67 64 73 65
REMARK SMILES IDX 68 66 69 67 70 68 71 69 72 70 9 71 10 72 11 73 12 74 13 75
REMARK SMILES IDX 14 76 15 77 16 78 17 79 18 80 19 81 39 82 20 83 29 84 21 87
REMARK SMILES IDX 28 88 22 89 23 90 27 91 24 93 26 94 25 95 30 96 31 97 38 98
REMARK SMILES IDX 32 99 33 100 37 101 34 103 36 104 35 105
REMARK H PARENT 93 26 63 37 39 85 39 86 22 92 32 102
REMARK Flexibility Score: inf
ROOT
ATOM      1  C   UNL A   1      35.867  21.465  26.115  1.00  0.00     0.188 C 
ENDROOT
BRANCH   1   2
ATOM      2  C   UNL A   1      37.143  21.544  25.282  1.00  0.00     0.188 C 
BRANCH   2   3
ATOM      3  O   UNL A   1      38.149  22.204  26.024  1.00  0.00    -0.376 OA
BRANCH   3   4
ATOM      4  C   UNL A   1      39.464  21.684  26.097  1.00  0.00     0.202 C 
BRANCH   4   5
ATOM      5  C   UNL A   1      39.639  20.194  25.869  1.00  0.00     0.261 C 
BRANCH   5   6
ATOM      6  O   UNL A   1      40.945  19.756  25.452  1.00  0.00    -0.460 OA
BRANCH   6   7
ATOM      7  C   UNL A   1      42.174  19.909  25.988  1.00  0.00     0.338 C 
ATOM      8  O   UNL A   1      42.853  18.903  26.193  1.00  0.00    -0.246 OA
BRANCH   7   9
ATOM      9  C   UNL A   1      42.770  21.222  26.342  1.00  0.00     0.060 A 
ATOM     10  C   UNL A   1      42.977  22.254  25.437  1.00  0.00     0.016 A 
ATOM     11  C   UNL A   1      42.969  21.508  27.698  1.00  0.00     0.016 A 
ATOM     12  C   UNL A   1      43.500  23.472  25.794  1.00  0.00     0.010 A 
ATOM     13  C   UNL A   1      43.396  22.778  28.098  1.00  0.00     0.010 A 
ATOM     14  C   UNL A   1      43.678  23.752  27.132  1.00  0.00    -0.014 A 
BRANCH  14  15
ATOM     15  C   UNL A   1      44.276  25.049  27.446  1.00  0.00     0.031 A 
ATOM     16  C   UNL A   1      43.382  26.071  28.060  1.00  0.00     0.074 A 
ATOM     17  C   UNL A   1      45.607  25.214  27.331  1.00  0.00     0.049 A 
ATOM     18  N   UNL A   1      43.618  27.326  28.297  1.00  0.00    -0.248 NA
ATOM     19  C   UNL A   1      42.041  25.613  28.476  1.00  0.00     0.031 C 
ATOM     20  C   UNL A   1      46.565  24.170  26.939  1.00  0.00     0.029 A 
ATOM     21  N   UNL A   1      46.392  26.310  27.556  1.00  0.00    -0.354 N 
ATOM     22  C   UNL A   1      42.433  27.827  28.814  1.00  0.00     0.074 A 
ATOM     23  C   UNL A   1      41.491  26.738  28.901  1.00  0.00     0.031 C 
ATOM     24  C   UNL A   1      47.805  24.684  26.945  1.00  0.00     0.029 A 
ATOM     25  C   UNL A   1      47.714  26.107  27.235  1.00  0.00     0.049 A 
ATOM     26  H   UNL A   1      46.045  27.159  27.913  1.00  0.00     0.167 HD
ATOM     27  C   UNL A   1      42.167  29.108  29.141  1.00  0.00     0.031 A 
ATOM     28  C   UNL A   1      48.709  27.004  27.108  1.00  0.00     0.031 A 
ATOM     29  C   UNL A   1      43.152  30.144  29.026  1.00  0.00     0.049 A 
ATOM     30  C   UNL A   1      48.351  28.446  27.356  1.00  0.00     0.074 A 
ATOM     31  C   UNL A   1      43.016  31.496  29.268  1.00  0.00     0.029 A 
ATOM     32  N   UNL A   1      44.464  29.928  28.623  1.00  0.00    -0.354 N 
ATOM     33  N   UNL A   1      47.211  28.946  27.781  1.00  0.00    -0.248 NA
ATOM     34  C   UNL A   1      49.386  29.446  27.080  1.00  0.00     0.031 C 
ATOM     35  C   UNL A   1      44.230  32.107  28.942  1.00  0.00     0.029 A 
ATOM     36  C   UNL A   1      45.141  31.128  28.564  1.00  0.00     0.049 A 
ATOM     37  H   UNL A   1      44.854  29.050  28.411  1.00  0.00     0.167 HD
ATOM     38  C   UNL A   1      47.395  30.321  27.828  1.00  0.00     0.074 A 
ATOM     39  C   UNL A   1      48.765  30.567  27.420  1.00  0.00     0.031 C 
ATOM     40  C   UNL A   1      46.516  31.299  28.162  1.00  0.00     0.031 A 
BRANCH  27  41
ATOM     41  C   UNL A   1      40.755  29.451  29.507  1.00  0.00    -0.014 A 
ATOM     42  C   UNL A   1      40.352  29.638  30.840  1.00  0.00     0.010 A 
ATOM     43  C   UNL A   1      39.807  29.586  28.477  1.00  0.00     0.010 A 
ATOM     44  C   UNL A   1      39.021  29.946  31.135  1.00  0.00     0.020 A 
ATOM     45  C   UNL A   1      38.482  29.916  28.764  1.00  0.00     0.020 A 
ATOM     46  C   UNL A   1      38.096  30.090  30.094  1.00  0.00     0.054 A 
BRANCH  46  47
ATOM     47  S   UNL A   1      36.392  30.554  30.501  1.00  0.00     0.124 S 
ATOM     48  O   UNL A   1      36.258  30.051  31.866  1.00  0.00    -0.237 OA
ATOM     49  O   UNL A   1      36.417  32.007  30.366  1.00  0.00    -0.237 OA
ATOM     50  O   UNL A   1      35.592  29.851  29.499  1.00  0.00    -0.744 OA
ENDBRANCH  46  47
ENDBRANCH  27  41
BRANCH  28  51
ATOM     51  C   UNL A   1      50.050  26.600  26.597  1.00  0.00    -0.014 A 
ATOM     52  C   UNL A   1      51.080  26.217  27.472  1.00  0.00     0.010 A 
ATOM     53  C   UNL A   1      50.320  26.638  25.213  1.00  0.00     0.010 A 
ATOM     54  C   UNL A   1      52.358  25.921  26.980  1.00  0.00     0.020 A 
ATOM     55  C   UNL A   1      51.583  26.310  24.714  1.00  0.00     0.020 A 
ATOM     56  C   UNL A   1      52.602  25.976  25.604  1.00  0.00     0.054 A 
BRANCH  56  57
ATOM     57  S   UNL A   1      54.268  25.602  24.990  1.00  0.00     0.124 S 
ATOM     58  O   UNL A   1      54.205  26.102  23.620  1.00  0.00    -0.237 OA
ATOM     59  O   UNL A   1      55.119  26.360  25.903  1.00  0.00    -0.237 OA
ATOM     60  O   UNL A   1      54.364  24.149  25.121  1.00  0.00    -0.744 OA
ENDBRANCH  56  57
ENDBRANCH  28  51
BRANCH  40  61
ATOM     61  C   UNL A   1      47.024  32.708  28.121  1.00  0.00    -0.014 A 
ATOM     62  C   UNL A   1      47.779  33.230  29.185  1.00  0.00     0.010 A 
ATOM     63  C   UNL A   1      46.838  33.471  26.955  1.00  0.00     0.010 A 
ATOM     64  C   UNL A   1      48.338  34.501  29.083  1.00  0.00     0.020 A 
ATOM     65  C   UNL A   1      47.424  34.728  26.837  1.00  0.00     0.020 A 
ATOM     66  C   UNL A   1      48.167  35.238  27.905  1.00  0.00     0.054 A 
BRANCH  66  67
ATOM     67  S   UNL A   1      48.986  36.846  27.761  1.00  0.00     0.124 S 
ATOM     68  O   UNL A   1      48.985  37.311  29.145  1.00  0.00    -0.237 OA
ATOM     69  O   UNL A   1      50.294  36.488  27.218  1.00  0.00    -0.237 OA
ATOM     70  O   UNL A   1      48.124  37.594  26.850  1.00  0.00    -0.744 OA
ENDBRANCH  66  67
ENDBRANCH  40  61
ENDBRANCH  14  15
ENDBRANCH   7   9
ENDBRANCH   6   7
ENDBRANCH   5   6
ENDBRANCH   4   5
ENDBRANCH   3   4
ENDBRANCH   2   3
ENDBRANCH   1   2
BRANCH   1  71
ATOM     71  O   UNL A   1      35.226  22.726  26.350  1.00  0.00    -0.377 OA
BRANCH  71  72
ATOM     72  C   UNL A   1      33.821  22.811  26.085  1.00  0.00     0.188 C 
BRANCH  72  73
ATOM     73  C   UNL A   1      33.316  22.796  24.637  1.00  0.00     0.188 C 
BRANCH  73  74
ATOM     74  O   UNL A   1      34.317  23.011  23.653  1.00  0.00    -0.376 OA
BRANCH  74  75
ATOM     75  C   UNL A   1      33.797  23.307  22.356  1.00  0.00     0.202 C 
BRANCH  75  76
ATOM     76  C   UNL A   1      32.365  23.872  22.327  1.00  0.00     0.261 C 
BRANCH  76  77
ATOM     77  O   UNL A   1      32.252  25.281  22.599  1.00  0.00    -0.459 OA
BRANCH  77  78
ATOM     78  C   UNL A   1      31.116  25.750  23.184  1.00  0.00     0.365 C 
ATOM     79  O   UNL A   1      30.203  25.037  23.564  1.00  0.00    -0.245 OA
BRANCH  78  80
ATOM     80  C   UNL A   1      31.129  27.291  23.338  1.00  0.00     0.298 C 
ATOM     81  C   UNL A   1      29.794  27.837  22.817  1.00  0.00     0.115 C 
ATOM     82  N   UNL A   1      31.495  27.717  24.698  1.00  0.00    -0.323 N 
ATOM     83  C   UNL A   1      29.691  29.277  23.157  1.00  0.00    -0.006 A 
ATOM     84  C   UNL A   1      31.066  28.977  25.298  1.00  0.00     0.264 C 
ATOM     85  H   UNL A   1      32.515  27.731  24.719  1.00  0.00     0.347 HD
ATOM     86  H   UNL A   1      30.974  27.044  25.261  1.00  0.00     0.347 HD
ATOM     87  C   UNL A   1      30.283  29.786  24.299  1.00  0.00     0.083 A 
ATOM     88  C   UNL A   1      29.100  30.341  22.440  1.00  0.00     0.003 A 
ATOM     89  N   UNL A   1      29.914  31.104  24.377  1.00  0.00    -0.353 N 
ATOM     90  C   UNL A   1      29.256  31.485  23.222  1.00  0.00     0.046 A 
ATOM     91  C   UNL A   1      28.463  30.439  21.189  1.00  0.00     0.010 A 
ATOM     92  H   UNL A   1      30.094  31.695  25.144  1.00  0.00     0.166 HD
ATOM     93  C   UNL A   1      28.792  32.739  22.802  1.00  0.00     0.026 A 
ATOM     94  C   UNL A   1      28.031  31.689  20.741  1.00  0.00     0.001 A 
ATOM     95  C   UNL A   1      28.194  32.820  21.538  1.00  0.00     0.002 A 
BRANCH  84  96
ATOM     96  C   UNL A   1      32.307  29.603  25.925  1.00  0.00     0.041 A 
ATOM     97  C   UNL A   1      33.598  29.094  25.944  1.00  0.00     0.093 A 
ATOM     98  C   UNL A   1      32.414  30.933  26.519  1.00  0.00     0.009 A 
ATOM     99  N   UNL A   1      34.412  29.968  26.618  1.00  0.00    -0.361 N 
ATOM    100  C   UNL A   1      33.718  31.094  26.982  1.00  0.00     0.046 A 
ATOM    101  C   UNL A   1      31.527  32.023  26.715  1.00  0.00     0.011 A 
ATOM    102  H   UNL A   1      35.363  29.808  26.815  1.00  0.00     0.166 HD
ATOM    103  C   UNL A   1      34.147  32.239  27.670  1.00  0.00     0.026 A 
ATOM    104  C   UNL A   1      31.934  33.176  27.387  1.00  0.00     0.001 A 
ATOM    105  C   UNL A   1      33.228  33.274  27.870  1.00  0.00     0.002 A 
ENDBRANCH  84  96
ENDBRANCH  78  80
ENDBRANCH  77  78
ENDBRANCH  76  77
ENDBRANCH  75  76
ENDBRANCH  74  75
ENDBRANCH  73  74
ENDBRANCH  72  73
ENDBRANCH  71  72
ENDBRANCH   1  71
TORSDOF 24
ENDMDL
MODEL 2
REMARK VINA RESULT:     -10.0      2.309      8.794
REMARK SMILES O=C(OCCOCCOCCOCCOC(=O)[C@H]1Cc2c([nH]c3ccccc23)[C@H](c2c[nH]c3ccccc23)[NH2+]1)c1ccc(-c2c3nc(c(-c4ccc(S(=O)(=O)[O-])cc4)c4ccc([nH]4)c(-c4ccc(S(=O)(=O)[O-])cc4)c4nc(c(-c5ccc(S(=O)(=O)[O-])cc5)c5ccc2[nH]5)C=C4)C=C3)cc1
REMARK SMILES IDX 8 1 7 2 6 3 5 4 4 5 3 6 2 7 1 8 40 9 41 10 99 11 42 12 98 13
REMARK SMILES IDX 43 14 44 15 45 16 92 17 46 18 97 19 91 20 93 21 47 22 96 23
REMARK SMILES IDX 90 24 89 25 48 27 78 28 59 29 77 30 60 31 63 32 76 33 94 34
REMARK SMILES IDX 61 35 62 36 75 38 95 39 64 40 49 41 50 42 58 43 51 44 57 45
REMARK SMILES IDX 52 46 53 47 54 48 55 49 56 50 79 51 80 52 88 53 81 54 87 55
REMARK SMILES IDX 82 56 83 57 84 58 85 59 86 60 65 61 66 62 74 63 67 64 73 65
REMARK SMILES IDX 68 66 69 67 70 68 71 69 72 70 9 71 10 72 11 73 12 74 13 75
REMARK SMILES IDX 14 76 15 77 16 78 17 79 18 80 19 81 39 82 20 83 29 84 21 87
REMARK SMILES IDX 28 88 22 89 23 90 27 91 24 93 26 94 25 95 30 96 31 97 38 98
REMARK SMILES IDX 32 99 33 100 37 101 34 103 36 104 35 105
REMARK H PARENT 93 26 63 37 39 85 39 86 22 92 32 102
REMARK Flexibility Score: inf
ROOT
ATOM      1  C   UNL A   1      34.896  33.657  30.607  1.00  0.00     0.188 C 
ENDROOT
BRANCH   1   2
ATOM      2  C   UNL A   1      34.540  33.656  32.091  1.00  0.00     0.188 C 
BRANCH   2   3
ATOM      3  O   UNL A   1      35.710  33.435  32.854  1.00  0.00    -0.376 OA
BRANCH   3   4
ATOM      4  C   UNL A   1      36.271  32.141  32.976  1.00  0.00     0.202 C 
BRANCH   4   5
ATOM      5  C   UNL A   1      37.095  31.853  34.216  1.00  0.00     0.261 C 
BRANCH   5   6
ATOM      6  O   UNL A   1      38.031  30.763  34.128  1.00  0.00    -0.460 OA
BRANCH   6   7
ATOM      7  C   UNL A   1      38.162  29.739  33.258  1.00  0.00     0.338 C 
ATOM      8  O   UNL A   1      37.253  28.913  33.184  1.00  0.00    -0.246 OA
BRANCH   7   9
ATOM      9  C   UNL A   1      39.338  29.546  32.371  1.00  0.00     0.060 A 
ATOM     10  C   UNL A   1      39.467  30.118  31.113  1.00  0.00     0.016 A 
ATOM     11  C   UNL A   1      40.460  28.900  32.901  1.00  0.00     0.016 A 
ATOM     12  C   UNL A   1      40.578  29.952  30.324  1.00  0.00     0.010 A 
ATOM     13  C   UNL A   1      41.643  28.814  32.160  1.00  0.00     0.010 A 
ATOM     14  C   UNL A   1      41.686  29.329  30.858  1.00  0.00    -0.014 A 
BRANCH  14  15
ATOM     15  C   UNL A   1      42.822  29.146  29.956  1.00  0.00     0.031 A 
ATOM     16  C   UNL A   1      42.874  27.869  29.190  1.00  0.00     0.074 A 
ATOM     17  C   UNL A   1      43.662  30.173  29.726  1.00  0.00     0.049 A 
ATOM     18  N   UNL A   1      43.831  27.401  28.446  1.00  0.00    -0.248 NA
ATOM     19  C   UNL A   1      41.679  27.003  29.263  1.00  0.00     0.031 C 
ATOM     20  C   UNL A   1      43.528  31.525  30.287  1.00  0.00     0.029 A 
ATOM     21  N   UNL A   1      44.779  30.252  28.944  1.00  0.00    -0.354 N 
ATOM     22  C   UNL A   1      43.390  26.155  28.028  1.00  0.00     0.074 A 
ATOM     23  C   UNL A   1      42.063  25.952  28.558  1.00  0.00     0.031 C 
ATOM     24  C   UNL A   1      44.532  32.292  29.833  1.00  0.00     0.029 A 
ATOM     25  C   UNL A   1      45.428  31.461  29.044  1.00  0.00     0.049 A 
ATOM     26  H   UNL A   1      45.088  29.518  28.366  1.00  0.00     0.167 HD
ATOM     27  C   UNL A   1      44.076  25.255  27.294  1.00  0.00     0.031 A 
ATOM     28  C   UNL A   1      46.653  31.810  28.612  1.00  0.00     0.031 A 
ATOM     29  C   UNL A   1      45.394  25.521  26.800  1.00  0.00     0.049 A 
ATOM     30  C   UNL A   1      47.448  30.742  27.907  1.00  0.00     0.074 A 
ATOM     31  C   UNL A   1      46.236  24.689  26.090  1.00  0.00     0.029 A 
ATOM     32  N   UNL A   1      46.064  26.725  26.981  1.00  0.00    -0.354 N 
ATOM     33  N   UNL A   1      47.068  29.531  27.562  1.00  0.00    -0.248 NA
ATOM     34  C   UNL A   1      48.836  31.064  27.562  1.00  0.00     0.031 C 
ATOM     35  C   UNL A   1      47.443  25.368  25.904  1.00  0.00     0.029 A 
ATOM     36  C   UNL A   1      47.328  26.646  26.436  1.00  0.00     0.049 A 
ATOM     37  H   UNL A   1      45.693  27.517  27.431  1.00  0.00     0.167 HD
ATOM     38  C   UNL A   1      48.170  28.947  26.954  1.00  0.00     0.074 A 
ATOM     39  C   UNL A   1      49.218  29.951  26.949  1.00  0.00     0.031 C 
ATOM     40  C   UNL A   1      48.319  27.695  26.455  1.00  0.00     0.031 A 
BRANCH  27  41
ATOM     41  C   UNL A   1      43.467  23.897  27.118  1.00  0.00    -0.014 A 
ATOM     42  C   UNL A   1      42.864  23.498  25.913  1.00  0.00     0.010 A 
ATOM     43  C   UNL A   1      43.501  22.999  28.200  1.00  0.00     0.010 A 
ATOM     44  C   UNL A   1      42.299  22.224  25.798  1.00  0.00     0.020 A 
ATOM     45  C   UNL A   1      42.959  21.719  28.083  1.00  0.00     0.020 A 
ATOM     46  C   UNL A   1      42.357  21.341  26.883  1.00  0.00     0.054 A 
BRANCH  46  47
ATOM     47  S   UNL A   1      41.674  19.673  26.684  1.00  0.00     0.124 S 
ATOM     48  O   UNL A   1      41.098  19.738  25.343  1.00  0.00    -0.237 OA
ATOM     49  O   UNL A   1      42.857  18.827  26.819  1.00  0.00    -0.237 OA
ATOM     50  O   UNL A   1      40.705  19.562  27.773  1.00  0.00    -0.744 OA
ENDBRANCH  46  47
ENDBRANCH  27  41
BRANCH  28  51
ATOM     51  C   UNL A   1      47.244  33.136  28.957  1.00  0.00    -0.014 A 
ATOM     52  C   UNL A   1      48.028  33.308  30.110  1.00  0.00     0.010 A 
ATOM     53  C   UNL A   1      46.985  34.258  28.142  1.00  0.00     0.010 A 
ATOM     54  C   UNL A   1      48.504  34.577  30.462  1.00  0.00     0.020 A 
ATOM     55  C   UNL A   1      47.488  35.519  28.471  1.00  0.00     0.020 A 
ATOM     56  C   UNL A   1      48.226  35.676  29.643  1.00  0.00     0.054 A 
BRANCH  56  57
ATOM     57  S   UNL A   1      48.841  37.313  30.126  1.00  0.00     0.124 S 
ATOM     58  O   UNL A   1      50.022  37.454  29.278  1.00  0.00    -0.237 OA
ATOM     59  O   UNL A   1      47.717  38.183  29.796  1.00  0.00    -0.237 OA
ATOM     60  O   UNL A   1      49.112  37.169  31.555  1.00  0.00    -0.744 OA
ENDBRANCH  56  57
ENDBRANCH  28  51
BRANCH  40  61
ATOM     61  C   UNL A   1      49.647  27.362  25.847  1.00  0.00    -0.014 A 
ATOM     62  C   UNL A   1      50.700  26.880  26.643  1.00  0.00     0.010 A 
ATOM     63  C   UNL A   1      49.798  27.426  24.450  1.00  0.00     0.010 A 
ATOM     64  C   UNL A   1      51.890  26.469  26.047  1.00  0.00     0.020 A 
ATOM     65  C   UNL A   1      50.974  26.984  23.850  1.00  0.00     0.020 A 
ATOM     66  C   UNL A   1      52.016  26.513  24.654  1.00  0.00     0.054 A 
BRANCH  66  67
ATOM     67  S   UNL A   1      53.536  25.881  23.900  1.00  0.00     0.124 S 
ATOM     68  O   UNL A   1      54.550  26.748  24.492  1.00  0.00    -0.237 OA
ATOM     69  O   UNL A   1      53.557  24.491  24.347  1.00  0.00    -0.237 OA
ATOM     70  O   UNL A   1      53.315  26.066  22.468  1.00  0.00    -0.744 OA
ENDBRANCH  66  67
ENDBRANCH  40  61
ENDBRANCH  14  15
ENDBRANCH   7   9
ENDBRANCH   6   7
ENDBRANCH   5   6
ENDBRANCH   4   5
ENDBRANCH   3   4
ENDBRANCH   2   3
ENDBRANCH   1   2
BRANCH   1  71
ATOM     71  O   UNL A   1      33.773  33.758  29.722  1.00  0.00    -0.377 OA
BRANCH  71  72
ATOM     72  C   UNL A   1      33.978  33.391  28.352  1.00  0.00     0.188 C 
BRANCH  72  73
ATOM     73  C   UNL A   1      34.165  31.916  27.978  1.00  0.00     0.188 C 
BRANCH  73  74
ATOM     74  O   UNL A   1      35.473  31.407  28.190  1.00  0.00    -0.376 OA
BRANCH  74  75
ATOM     75  C   UNL A   1      35.602  30.012  27.909  1.00  0.00     0.202 C 
BRANCH  75  76
ATOM     76  C   UNL A   1      34.918  29.529  26.618  1.00  0.00     0.261 C 
BRANCH  76  77
ATOM     77  O   UNL A   1      34.174  28.301  26.735  1.00  0.00    -0.459 OA
BRANCH  77  78
ATOM     78  C   UNL A   1      32.888  28.349  27.179  1.00  0.00     0.365 C 
ATOM     79  O   UNL A   1      32.576  28.571  28.336  1.00  0.00    -0.245 OA
BRANCH  78  80
ATOM     80  C   UNL A   1      31.866  28.120  26.038  1.00  0.00     0.298 C 
ATOM     81  C   UNL A   1      31.569  29.472  25.380  1.00  0.00     0.115 C 
ATOM     82  N   UNL A   1      32.282  27.049  25.117  1.00  0.00    -0.323 N 
ATOM     83  C   UNL A   1      30.772  29.251  24.149  1.00  0.00    -0.006 A 
ATOM     84  C   UNL A   1      31.876  26.980  23.716  1.00  0.00     0.264 C 
ATOM     85  H   UNL A   1      31.964  26.179  25.543  1.00  0.00     0.347 HD
ATOM     86  H   UNL A   1      33.278  27.248  25.023  1.00  0.00     0.347 HD
ATOM     87  C   UNL A   1      30.922  28.099  23.398  1.00  0.00     0.083 A 
ATOM     88  C   UNL A   1      29.747  30.037  23.576  1.00  0.00     0.003 A 
ATOM     89  N   UNL A   1      30.133  28.252  22.286  1.00  0.00    -0.353 N 
ATOM     90  C   UNL A   1      29.353  29.388  22.406  1.00  0.00     0.046 A 
ATOM     91  C   UNL A   1      29.105  31.230  23.955  1.00  0.00     0.010 A 
ATOM     92  H   UNL A   1      30.123  27.640  21.515  1.00  0.00     0.166 HD
ATOM     93  C   UNL A   1      28.335  29.891  21.586  1.00  0.00     0.026 A 
ATOM     94  C   UNL A   1      28.062  31.722  23.168  1.00  0.00     0.001 A 
ATOM     95  C   UNL A   1      27.685  31.060  22.001  1.00  0.00     0.002 A 
BRANCH  84  96
ATOM     96  C   UNL A   1      31.421  25.547  23.468  1.00  0.00     0.041 A 
ATOM     97  C   UNL A   1      30.137  25.098  23.191  1.00  0.00     0.093 A 
ATOM     98  C   UNL A   1      32.271  24.366  23.340  1.00  0.00     0.009 A 
ATOM     99  N   UNL A   1      30.162  23.735  23.044  1.00  0.00    -0.361 N 
ATOM    100  C   UNL A   1      31.447  23.262  23.132  1.00  0.00     0.046 A 
ATOM    101  C   UNL A   1      33.668  24.120  23.383  1.00  0.00     0.011 A 
ATOM    102  H   UNL A   1      29.367  23.173  22.896  1.00  0.00     0.166 HD
ATOM    103  C   UNL A   1      31.937  21.952  23.031  1.00  0.00     0.026 A 
ATOM    104  C   UNL A   1      34.180  22.828  23.275  1.00  0.00     0.001 A 
ATOM    105  C   UNL A   1      33.320  21.754  23.115  1.00  0.00     0.002 A 
ENDBRANCH  84  96
ENDBRANCH  78  80
ENDBRANCH  77  78
ENDBRANCH  76  77
ENDBRANCH  75  76
ENDBRANCH  74  75
ENDBRANCH  73  74
ENDBRANCH  72  73
ENDBRANCH  71  72
ENDBRANCH   1  71
TORSDOF 24
ENDMDL
MODEL 3
REMARK VINA RESULT:      -9.7      5.773     11.423
REMARK SMILES O=C(OCCOCCOCCOCCOC(=O)[C@H]1Cc2c([nH]c3ccccc23)[C@H](c2c[nH]c3ccccc23)[NH2+]1)c1ccc(-c2c3nc(c(-c4ccc(S(=O)(=O)[O-])cc4)c4ccc([nH]4)c(-c4ccc(S(=O)(=O)[O-])cc4)c4nc(c(-c5ccc(S(=O)(=O)[O-])cc5)c5ccc2[nH]5)C=C4)C=C3)cc1
REMARK SMILES IDX 8 1 7 2 6 3 5 4 4 5 3 6 2 7 1 8 40 9 41 10 99 11 42 12 98 13
REMARK SMILES IDX 43 14 44 15 45 16 92 17 46 18 97 19 91 20 93 21 47 22 96 23
REMARK SMILES IDX 90 24 89 25 48 27 78 28 59 29 77 30 60 31 63 32 76 33 94 34
REMARK SMILES IDX 61 35 62 36 75 38 95 39 64 40 49 41 50 42 58 43 51 44 57 45
REMARK SMILES IDX 52 46 53 47 54 48 55 49 56 50 79 51 80 52 88 53 81 54 87 55
REMARK SMILES IDX 82 56 83 57 84 58 85 59 86 60 65 61 66 62 74 63 67 64 73 65
REMARK SMILES IDX 68 66 69 67 70 68 71 69 72 70 9 71 10 72 11 73 12 74 13 75
REMARK SMILES IDX 14 76 15 77 16 78 17 79 18 80 19 81 39 82 20 83 29 84 21 87
REMARK SMILES IDX 28 88 22 89 23 90 27 91 24 93 26 94 25 95 30 96 31 97 38 98
REMARK SMILES IDX 32 99 33 100 37 101 34 103 36 104 35 105
REMARK H PARENT 93 26 63 37 39 85 39 86 22 92 32 102
REMARK Flexibility Score: inf
ROOT
ATOM      1  C   UNL A   1      36.665  33.784  32.395  1.00  0.00     0.188 C 
ENDROOT
BRANCH   1   2
ATOM      2  C   UNL A   1      35.347  34.001  33.135  1.00  0.00     0.188 C 
BRANCH   2   3
ATOM      3  O   UNL A   1      35.615  34.351  34.478  1.00  0.00    -0.376 OA
BRANCH   3   4
ATOM      4  C   UNL A   1      36.805  33.929  35.121  1.00  0.00     0.202 C 
BRANCH   4   5
ATOM      5  C   UNL A   1      36.704  33.535  36.583  1.00  0.00     0.261 C 
BRANCH   5   6
ATOM      6  O   UNL A   1      37.897  33.689  37.374  1.00  0.00    -0.460 OA
BRANCH   6   7
ATOM      7  C   UNL A   1      38.975  32.899  37.563  1.00  0.00     0.338 C 
ATOM      8  O   UNL A   1      39.204  32.483  38.698  1.00  0.00    -0.246 OA
BRANCH   7   9
ATOM      9  C   UNL A   1      39.907  32.491  36.482  1.00  0.00     0.060 A 
ATOM     10  C   UNL A   1      41.284  32.652  36.537  1.00  0.00     0.016 A 
ATOM     11  C   UNL A   1      39.391  31.736  35.422  1.00  0.00     0.016 A 
ATOM     12  C   UNL A   1      42.129  32.238  35.537  1.00  0.00     0.010 A 
ATOM     13  C   UNL A   1      40.245  31.206  34.449  1.00  0.00     0.010 A 
ATOM     14  C   UNL A   1      41.617  31.480  34.505  1.00  0.00    -0.014 A 
BRANCH  14  15
ATOM     15  C   UNL A   1      42.558  31.103  33.452  1.00  0.00     0.031 A 
ATOM     16  C   UNL A   1      42.871  32.139  32.427  1.00  0.00     0.074 A 
ATOM     17  C   UNL A   1      43.217  29.933  33.536  1.00  0.00     0.049 A 
ATOM     18  N   UNL A   1      43.548  32.019  31.325  1.00  0.00    -0.248 NA
ATOM     19  C   UNL A   1      42.362  33.501  32.685  1.00  0.00     0.031 C 
ATOM     20  C   UNL A   1      43.109  28.970  34.642  1.00  0.00     0.029 A 
ATOM     21  N   UNL A   1      44.128  29.361  32.693  1.00  0.00    -0.354 N 
ATOM     22  C   UNL A   1      43.479  33.264  30.719  1.00  0.00     0.074 A 
ATOM     23  C   UNL A   1      42.736  34.142  31.590  1.00  0.00     0.031 C 
ATOM     24  C   UNL A   1      43.918  27.927  34.400  1.00  0.00     0.029 A 
ATOM     25  C   UNL A   1      44.512  28.099  33.083  1.00  0.00     0.049 A 
ATOM     26  H   UNL A   1      44.475  29.808  31.888  1.00  0.00     0.167 HD
ATOM     27  C   UNL A   1      43.970  33.607  29.511  1.00  0.00     0.031 A 
ATOM     28  C   UNL A   1      45.196  27.164  32.397  1.00  0.00     0.031 A 
ATOM     29  C   UNL A   1      44.698  32.683  28.693  1.00  0.00     0.049 A 
ATOM     30  C   UNL A   1      45.621  27.532  31.000  1.00  0.00     0.074 A 
ATOM     31  C   UNL A   1      45.211  32.867  27.425  1.00  0.00     0.029 A 
ATOM     32  N   UNL A   1      45.008  31.383  29.076  1.00  0.00    -0.354 N 
ATOM     33  N   UNL A   1      45.503  28.688  30.385  1.00  0.00    -0.248 NA
ATOM     34  C   UNL A   1      46.237  26.475  30.192  1.00  0.00     0.031 C 
ATOM     35  C   UNL A   1      45.768  31.653  27.014  1.00  0.00     0.029 A 
ATOM     36  C   UNL A   1      45.665  30.735  28.052  1.00  0.00     0.049 A 
ATOM     37  H   UNL A   1      44.790  30.983  29.949  1.00  0.00     0.167 HD
ATOM     38  C   UNL A   1      46.035  28.499  29.117  1.00  0.00     0.074 A 
ATOM     39  C   UNL A   1      46.504  27.127  29.068  1.00  0.00     0.031 C 
ATOM     40  C   UNL A   1      46.119  29.366  28.078  1.00  0.00     0.031 A 
BRANCH  27  41
ATOM     41  C   UNL A   1      43.616  34.963  28.979  1.00  0.00    -0.014 A 
ATOM     42  C   UNL A   1      44.454  36.077  29.150  1.00  0.00     0.010 A 
ATOM     43  C   UNL A   1      42.400  35.117  28.288  1.00  0.00     0.010 A 
ATOM     44  C   UNL A   1      44.077  37.325  28.646  1.00  0.00     0.020 A 
ATOM     45  C   UNL A   1      42.029  36.355  27.762  1.00  0.00     0.020 A 
ATOM     46  C   UNL A   1      42.869  37.454  27.949  1.00  0.00     0.054 A 
BRANCH  46  47
ATOM     47  S   UNL A   1      42.435  39.069  27.249  1.00  0.00     0.124 S 
ATOM     48  O   UNL A   1      42.064  39.827  28.442  1.00  0.00    -0.237 OA
ATOM     49  O   UNL A   1      43.680  39.481  26.606  1.00  0.00    -0.237 OA
ATOM     50  O   UNL A   1      41.335  38.768  26.336  1.00  0.00    -0.744 OA
ENDBRANCH  46  47
ENDBRANCH  27  41
BRANCH  28  51
ATOM     51  C   UNL A   1      45.379  25.788  32.943  1.00  0.00    -0.014 A 
ATOM     52  C   UNL A   1      44.495  24.748  32.612  1.00  0.00     0.010 A 
ATOM     53  C   UNL A   1      46.432  25.519  33.842  1.00  0.00     0.010 A 
ATOM     54  C   UNL A   1      44.634  23.484  33.199  1.00  0.00     0.020 A 
ATOM     55  C   UNL A   1      46.596  24.250  34.402  1.00  0.00     0.020 A 
ATOM     56  C   UNL A   1      45.681  23.245  34.095  1.00  0.00     0.054 A 
BRANCH  56  57
ATOM     57  S   UNL A   1      45.834  21.604  34.854  1.00  0.00     0.124 S 
ATOM     58  O   UNL A   1      46.709  20.915  33.910  1.00  0.00    -0.237 OA
ATOM     59  O   UNL A   1      46.422  21.911  36.155  1.00  0.00    -0.237 OA
ATOM     60  O   UNL A   1      44.456  21.118  34.899  1.00  0.00    -0.744 OA
ENDBRANCH  56  57
ENDBRANCH  28  51
BRANCH  40  61
ATOM     61  C   UNL A   1      46.762  28.858  26.823  1.00  0.00    -0.014 A 
ATOM     62  C   UNL A   1      48.148  28.632  26.768  1.00  0.00     0.010 A 
ATOM     63  C   UNL A   1      45.950  28.497  25.734  1.00  0.00     0.010 A 
ATOM     64  C   UNL A   1      48.714  28.055  25.634  1.00  0.00     0.020 A 
ATOM     65  C   UNL A   1      46.509  27.888  24.613  1.00  0.00     0.020 A 
ATOM     66  C   UNL A   1      47.890  27.676  24.568  1.00  0.00     0.054 A 
BRANCH  66  67
ATOM     67  S   UNL A   1      48.638  26.838  23.148  1.00  0.00     0.124 S 
ATOM     68  O   UNL A   1      48.061  27.572  22.026  1.00  0.00    -0.237 OA
ATOM     69  O   UNL A   1      50.066  27.049  23.371  1.00  0.00    -0.237 OA
ATOM     70  O   UNL A   1      48.190  25.455  23.286  1.00  0.00    -0.744 OA
ENDBRANCH  66  67
ENDBRANCH  40  61
ENDBRANCH  14  15
ENDBRANCH   7   9
ENDBRANCH   6   7
ENDBRANCH   5   6
ENDBRANCH   4   5
ENDBRANCH   3   4
ENDBRANCH   2   3
ENDBRANCH   1   2
BRANCH   1  71
ATOM     71  O   UNL A   1      36.526  33.297  31.055  1.00  0.00    -0.377 OA
BRANCH  71  72
ATOM     72  C   UNL A   1      37.715  33.198  30.262  1.00  0.00     0.188 C 
BRANCH  72  73
ATOM     73  C   UNL A   1      38.006  31.912  29.480  1.00  0.00     0.188 C 
BRANCH  73  74
ATOM     74  O   UNL A   1      38.174  30.751  30.281  1.00  0.00    -0.376 OA
BRANCH  74  75
ATOM     75  C   UNL A   1      38.785  29.659  29.592  1.00  0.00     0.202 C 
BRANCH  75  76
ATOM     76  C   UNL A   1      39.235  28.484  30.479  1.00  0.00     0.261 C 
BRANCH  76  77
ATOM     77  O   UNL A   1      39.767  27.347  29.774  1.00  0.00    -0.459 OA
BRANCH  77  78
ATOM     78  C   UNL A   1      41.088  27.333  29.446  1.00  0.00     0.365 C 
ATOM     79  O   UNL A   1      41.926  28.046  29.972  1.00  0.00    -0.245 OA
BRANCH  78  80
ATOM     80  C   UNL A   1      41.409  26.287  28.350  1.00  0.00     0.298 C 
ATOM     81  C   UNL A   1      42.876  25.866  28.503  1.00  0.00     0.115 C 
ATOM     82  N   UNL A   1      40.437  25.183  28.324  1.00  0.00    -0.323 N 
ATOM     83  C   UNL A   1      43.145  24.709  27.616  1.00  0.00    -0.006 A 
ATOM     84  C   UNL A   1      40.747  23.839  27.847  1.00  0.00     0.264 C 
ATOM     85  H   UNL A   1      39.661  25.511  27.748  1.00  0.00     0.347 HD
ATOM     86  H   UNL A   1      40.307  25.013  29.322  1.00  0.00     0.347 HD
ATOM     87  C   UNL A   1      42.156  23.788  27.322  1.00  0.00     0.083 A 
ATOM     88  C   UNL A   1      44.312  24.367  26.896  1.00  0.00     0.003 A 
ATOM     89  N   UNL A   1      42.750  22.800  26.578  1.00  0.00    -0.353 N 
ATOM     90  C   UNL A   1      44.041  23.165  26.243  1.00  0.00     0.046 A 
ATOM     91  C   UNL A   1      45.567  24.980  26.725  1.00  0.00     0.010 A 
ATOM     92  H   UNL A   1      42.318  21.955  26.318  1.00  0.00     0.166 HD
ATOM     93  C   UNL A   1      44.986  22.539  25.419  1.00  0.00     0.026 A 
ATOM     94  C   UNL A   1      46.504  24.388  25.876  1.00  0.00     0.001 A 
ATOM     95  C   UNL A   1      46.215  23.185  25.234  1.00  0.00     0.002 A 
BRANCH  84  96
ATOM     96  C   UNL A   1      39.610  23.437  26.915  1.00  0.00     0.041 A 
ATOM     97  C   UNL A   1      38.666  24.262  26.319  1.00  0.00     0.093 A 
ATOM     98  C   UNL A   1      39.365  22.112  26.351  1.00  0.00     0.009 A 
ATOM     99  N   UNL A   1      37.818  23.497  25.562  1.00  0.00    -0.361 N 
ATOM    100  C   UNL A   1      38.216  22.184  25.565  1.00  0.00     0.046 A 
ATOM    101  C   UNL A   1      40.004  20.848  26.432  1.00  0.00     0.011 A 
ATOM    102  H   UNL A   1      37.030  23.842  25.083  1.00  0.00     0.166 HD
ATOM    103  C   UNL A   1      37.658  21.068  24.925  1.00  0.00     0.026 A 
ATOM    104  C   UNL A   1      39.474  19.725  25.796  1.00  0.00     0.001 A 
ATOM    105  C   UNL A   1      38.304  19.835  25.062  1.00  0.00     0.002 A 
ENDBRANCH  84  96
ENDBRANCH  78  80
ENDBRANCH  77  78
ENDBRANCH  76  77
ENDBRANCH  75  76
ENDBRANCH  74  75
ENDBRANCH  73  74
ENDBRANCH  72  73
ENDBRANCH  71  72
ENDBRANCH   1  71
TORSDOF 24
ENDMDL
