MODEL 1
REMARK VINA RESULT:     -11.6      0.000      0.000
REMARK SMILES O=C(OCCOCCOCCOCCOC(=O)c1ccc(-c2c3nc(c(-c4ccc(S(=O)(=O)[O-])cc4)c4ccc([nH]4)c(-c4ccc(S(=O)(=O)[O-])cc4)c4nc(c(-c5ccc(S(=O)(=O)[O-])cc5)c5ccc2[nH]5)C=C4)C=C3)cc1)C1=Cc2cc(Cl)cc(-c3ccccc3)c2O[C@@H]1C(F)(F)F
REMARK SMILES IDX 10 1 9 2 8 3 7 4 6 5 5 6 4 7 3 8 2 9 1 10 78 11 79 12 94 13
REMARK SMILES IDX 80 14 93 15 81 16 92 17 82 18 85 19 83 20 84 21 95 22 96 23
REMARK SMILES IDX 97 24 98 25 86 26 87 27 91 28 88 29 90 30 89 31 11 32 12 33
REMARK SMILES IDX 13 34 14 35 15 36 16 37 17 38 18 39 19 40 77 41 20 42 76 43
REMARK SMILES IDX 21 44 22 45 23 46 70 47 24 48 75 49 69 50 71 51 25 52 74 53
REMARK SMILES IDX 68 54 67 55 26 57 56 58 37 59 55 60 38 61 41 62 54 63 72 64
REMARK SMILES IDX 39 65 40 66 53 68 73 69 42 70 27 71 28 72 36 73 29 74 35 75
REMARK SMILES IDX 30 76 31 77 32 78 33 79 34 80 57 81 58 82 66 83 59 84 65 85
REMARK SMILES IDX 60 86 61 87 62 88 63 89 64 90 43 91 44 92 52 93 45 94 51 95
REMARK SMILES IDX 46 96 47 97 48 98 49 99 50 100
REMARK H PARENT 71 56 41 67
REMARK Flexibility Score: inf
ROOT
ATOM      1  C   UNL A   1      32.711  30.228  27.199  1.00  0.00     0.188 C 
ENDROOT
BRANCH   1   2
ATOM      2  O   UNL A   1      31.952  30.234  26.015  1.00  0.00    -0.377 OA
BRANCH   2   3
ATOM      3  C   UNL A   1      32.167  29.043  25.316  1.00  0.00     0.188 C 
BRANCH   3   4
ATOM      4  C   UNL A   1      32.826  29.346  23.983  1.00  0.00     0.188 C 
BRANCH   4   5
ATOM      5  O   UNL A   1      32.781  28.500  22.788  1.00  0.00    -0.376 OA
BRANCH   5   6
ATOM      6  C   UNL A   1      33.738  27.333  22.112  1.00  0.00     0.202 C 
BRANCH   6   7
ATOM      7  C   UNL A   1      33.190  25.269  21.653  1.00  0.00     0.261 C 
BRANCH   7   8
ATOM      8  O   UNL A   1      32.425  24.314  22.561  1.00  0.00    -0.460 OA
BRANCH   8   9
ATOM      9  C   UNL A   1      31.240  24.807  22.939  1.00  0.00     0.338 C 
ATOM     10  O   UNL A   1      30.699  25.824  22.581  1.00  0.00    -0.246 OA
BRANCH   9  11
ATOM     11  C   UNL A   1      31.128  24.045  24.170  1.00  0.00     0.087 C 
ATOM     12  C   UNL A   1      31.391  22.619  24.025  1.00  0.00     0.027 C 
ATOM     13  C   UNL A   1      32.217  25.267  25.172  1.00  0.00     0.316 C 
ATOM     14  C   UNL A   1      32.904  21.812  24.558  1.00  0.00     0.019 A 
ATOM     15  O   UNL A   1      33.938  24.455  25.641  1.00  0.00    -0.475 OA
ATOM     16  C   UNL A   1      33.009  20.469  24.302  1.00  0.00     0.032 A 
ATOM     17  C   UNL A   1      34.255  22.680  25.226  1.00  0.00     0.135 A 
ATOM     18  C   UNL A   1      34.242  19.893  24.612  1.00  0.00     0.042 A 
ATOM     19  C   UNL A   1      35.480  22.022  25.398  1.00  0.00     0.026 A 
ATOM     20  Cl  UNL A   1      34.408  18.189  24.351  1.00  0.00    -0.084 Cl
ATOM     21  C   UNL A   1      35.389  20.617  25.104  1.00  0.00     0.033 A 
BRANCH  13  22
ATOM     22  C   UNL A   1      30.811  25.724  26.044  1.00  0.00     0.430 C 
ATOM     23  F   UNL A   1      29.678  26.051  25.397  1.00  0.00    -0.167 F 
ATOM     24  F   UNL A   1      30.442  24.618  26.769  1.00  0.00    -0.167 F 
ATOM     25  F   UNL A   1      31.015  26.683  26.986  1.00  0.00    -0.167 F 
ENDBRANCH  13  22
BRANCH  19  26
ATOM     26  C   UNL A   1      36.814  22.494  25.767  1.00  0.00    -0.015 A 
ATOM     27  C   UNL A   1      37.106  23.832  26.069  1.00  0.00     0.009 A 
ATOM     28  C   UNL A   1      37.911  21.673  25.592  1.00  0.00     0.009 A 
ATOM     29  C   UNL A   1      38.407  24.237  26.414  1.00  0.00     0.001 A 
ATOM     30  C   UNL A   1      39.149  22.006  26.133  1.00  0.00     0.001 A 
ATOM     31  C   UNL A   1      39.416  23.296  26.536  1.00  0.00     0.000 A 
ENDBRANCH  19  26
ENDBRANCH   9  11
ENDBRANCH   8   9
ENDBRANCH   7   8
ENDBRANCH   6   7
ENDBRANCH   5   6
ENDBRANCH   4   5
ENDBRANCH   3   4
ENDBRANCH   2   3
ENDBRANCH   1   2
BRANCH   1  32
ATOM     32  C   UNL A   1      33.766  31.312  27.355  1.00  0.00     0.188 C 
BRANCH  32  33
ATOM     33  O   UNL A   1      34.102  31.606  28.685  1.00  0.00    -0.376 OA
BRANCH  33  34
ATOM     34  C   UNL A   1      34.759  32.831  28.977  1.00  0.00     0.202 C 
BRANCH  34  35
ATOM     35  C   UNL A   1      35.766  33.048  30.133  1.00  0.00     0.261 C 
BRANCH  35  36
ATOM     36  O   UNL A   1      36.325  31.905  30.804  1.00  0.00    -0.460 OA
BRANCH  36  37
ATOM     37  C   UNL A   1      37.467  32.052  31.511  1.00  0.00     0.338 C 
ATOM     38  O   UNL A   1      37.596  32.638  32.569  1.00  0.00    -0.246 OA
BRANCH  37  39
ATOM     39  C   UNL A   1      38.489  31.165  30.888  1.00  0.00     0.060 A 
ATOM     40  C   UNL A   1      39.431  30.521  31.705  1.00  0.00     0.016 A 
ATOM     41  C   UNL A   1      38.491  30.929  29.511  1.00  0.00     0.016 A 
ATOM     42  C   UNL A   1      40.403  29.676  31.147  1.00  0.00     0.010 A 
ATOM     43  C   UNL A   1      39.457  30.079  28.953  1.00  0.00     0.010 A 
ATOM     44  C   UNL A   1      40.452  29.483  29.762  1.00  0.00    -0.014 A 
BRANCH  44  45
ATOM     45  C   UNL A   1      41.700  28.984  29.116  1.00  0.00     0.031 A 
ATOM     46  C   UNL A   1      42.793  30.011  28.941  1.00  0.00     0.074 A 
ATOM     47  C   UNL A   1      41.909  27.711  28.715  1.00  0.00     0.049 A 
ATOM     48  N   UNL A   1      43.986  29.882  28.424  1.00  0.00    -0.248 NA
ATOM     49  C   UNL A   1      42.487  31.378  29.404  1.00  0.00     0.031 C 
ATOM     50  C   UNL A   1      40.977  26.597  28.863  1.00  0.00     0.029 A 
ATOM     51  N   UNL A   1      42.994  27.143  28.082  1.00  0.00    -0.354 N 
ATOM     52  C   UNL A   1      44.558  31.145  28.507  1.00  0.00     0.074 A 
ATOM     53  C   UNL A   1      43.555  32.047  29.015  1.00  0.00     0.031 C 
ATOM     54  C   UNL A   1      41.513  25.490  28.311  1.00  0.00     0.029 A 
ATOM     55  C   UNL A   1      42.837  25.807  27.780  1.00  0.00     0.049 A 
ATOM     56  H   UNL A   1      43.812  27.647  27.866  1.00  0.00     0.167 HD
ATOM     57  C   UNL A   1      45.824  31.527  28.239  1.00  0.00     0.031 A 
ATOM     58  C   UNL A   1      43.670  24.940  27.164  1.00  0.00     0.031 A 
ATOM     59  C   UNL A   1      46.828  30.640  27.731  1.00  0.00     0.049 A 
ATOM     60  C   UNL A   1      45.054  25.408  26.774  1.00  0.00     0.074 A 
ATOM     61  C   UNL A   1      48.151  30.915  27.450  1.00  0.00     0.029 A 
ATOM     62  N   UNL A   1      46.611  29.309  27.413  1.00  0.00    -0.354 N 
ATOM     63  N   UNL A   1      45.603  26.591  26.929  1.00  0.00    -0.248 NA
ATOM     64  C   UNL A   1      45.950  24.409  26.171  1.00  0.00     0.031 C 
ATOM     65  C   UNL A   1      48.715  29.771  26.879  1.00  0.00     0.029 A 
ATOM     66  C   UNL A   1      47.769  28.756  26.901  1.00  0.00     0.049 A 
ATOM     67  H   UNL A   1      45.759  28.829  27.534  1.00  0.00     0.167 HD
ATOM     68  C   UNL A   1      46.925  26.457  26.509  1.00  0.00     0.074 A 
ATOM     69  C   UNL A   1      47.090  25.081  26.090  1.00  0.00     0.031 C 
ATOM     70  C   UNL A   1      47.918  27.382  26.493  1.00  0.00     0.031 A 
BRANCH  57  71
ATOM     71  C   UNL A   1      46.164  32.973  28.472  1.00  0.00    -0.014 A 
ATOM     72  C   UNL A   1      46.461  33.459  29.760  1.00  0.00     0.010 A 
ATOM     73  C   UNL A   1      46.160  33.863  27.386  1.00  0.00     0.010 A 
ATOM     74  C   UNL A   1      46.698  34.821  29.964  1.00  0.00     0.020 A 
ATOM     75  C   UNL A   1      46.438  35.218  27.579  1.00  0.00     0.020 A 
ATOM     76  C   UNL A   1      46.687  35.689  28.869  1.00  0.00     0.054 A 
BRANCH  76  77
ATOM     77  S   UNL A   1      47.030  37.445  29.157  1.00  0.00     0.124 S 
ATOM     78  O   UNL A   1      45.913  38.088  28.469  1.00  0.00    -0.237 OA
ATOM     79  O   UNL A   1      47.007  37.538  30.614  1.00  0.00    -0.237 OA
ATOM     80  O   UNL A   1      48.339  37.648  28.541  1.00  0.00    -0.744 OA
ENDBRANCH  76  77
ENDBRANCH  57  71
BRANCH  58  81
ATOM     81  C   UNL A   1      43.263  23.521  26.919  1.00  0.00    -0.014 A 
ATOM     82  C   UNL A   1      42.984  22.654  27.994  1.00  0.00     0.010 A 
ATOM     83  C   UNL A   1      43.197  23.010  25.609  1.00  0.00     0.010 A 
ATOM     84  C   UNL A   1      42.673  21.307  27.768  1.00  0.00     0.020 A 
ATOM     85  C   UNL A   1      42.857  21.670  25.376  1.00  0.00     0.020 A 
ATOM     86  C   UNL A   1      42.605  20.824  26.458  1.00  0.00     0.054 A 
BRANCH  86  87
ATOM     87  S   UNL A   1      42.147  19.087  26.190  1.00  0.00     0.124 S 
ATOM     88  O   UNL A   1      40.733  19.190  25.848  1.00  0.00    -0.237 OA
ATOM     89  O   UNL A   1      43.036  18.696  25.099  1.00  0.00    -0.237 OA
ATOM     90  O   UNL A   1      42.435  18.456  27.475  1.00  0.00    -0.744 OA
ENDBRANCH  86  87
ENDBRANCH  58  81
BRANCH  70  91
ATOM     91  C   UNL A   1      49.297  26.930  26.086  1.00  0.00    -0.014 A 
ATOM     92  C   UNL A   1      50.154  26.251  26.969  1.00  0.00     0.010 A 
ATOM     93  C   UNL A   1      49.717  27.147  24.759  1.00  0.00     0.010 A 
ATOM     94  C   UNL A   1      51.424  25.849  26.549  1.00  0.00     0.020 A 
ATOM     95  C   UNL A   1      50.967  26.707  24.322  1.00  0.00     0.020 A 
ATOM     96  C   UNL A   1      51.822  26.080  25.228  1.00  0.00     0.054 A 
BRANCH  96  97
ATOM     97  S   UNL A   1      53.468  25.532  24.703  1.00  0.00     0.124 S 
ATOM     98  O   UNL A   1      54.336  26.504  25.363  1.00  0.00    -0.237 OA
ATOM     99  O   UNL A   1      53.533  24.171  25.231  1.00  0.00    -0.237 OA
ATOM    100  O   UNL A   1      53.419  25.629  23.246  1.00  0.00    -0.744 OA
ENDBRANCH  96  97
ENDBRANCH  70  91
ENDBRANCH  44  45
ENDBRANCH  37  39
ENDBRANCH  36  37
ENDBRANCH  35  36
ENDBRANCH  34  35
ENDBRANCH  33  34
ENDBRANCH  32  33
ENDBRANCH   1  32
TORSDOF 25
ENDMDL
MODEL 2
REMARK VINA RESULT:     -10.2      7.386      9.772
REMARK SMILES O=C(OCCOCCOCCOCCOC(=O)c1ccc(-c2c3nc(c(-c4ccc(S(=O)(=O)[O-])cc4)c4ccc([nH]4)c(-c4ccc(S(=O)(=O)[O-])cc4)c4nc(c(-c5ccc(S(=O)(=O)[O-])cc5)c5ccc2[nH]5)C=C4)C=C3)cc1)C1=Cc2cc(Cl)cc(-c3ccccc3)c2O[C@@H]1C(F)(F)F
REMARK SMILES IDX 10 1 9 2 8 3 7 4 6 5 5 6 4 7 3 8 2 9 1 10 78 11 79 12 94 13
REMARK SMILES IDX 80 14 93 15 81 16 92 17 82 18 85 19 83 20 84 21 95 22 96 23
REMARK SMILES IDX 97 24 98 25 86 26 87 27 91 28 88 29 90 30 89 31 11 32 12 33
REMARK SMILES IDX 13 34 14 35 15 36 16 37 17 38 18 39 19 40 77 41 20 42 76 43
REMARK SMILES IDX 21 44 22 45 23 46 70 47 24 48 75 49 69 50 71 51 25 52 74 53
REMARK SMILES IDX 68 54 67 55 26 57 56 58 37 59 55 60 38 61 41 62 54 63 72 64
REMARK SMILES IDX 39 65 40 66 53 68 73 69 42 70 27 71 28 72 36 73 29 74 35 75
REMARK SMILES IDX 30 76 31 77 32 78 33 79 34 80 57 81 58 82 66 83 59 84 65 85
REMARK SMILES IDX 60 86 61 87 62 88 63 89 64 90 43 91 44 92 52 93 45 94 51 95
REMARK SMILES IDX 46 96 47 97 48 98 49 99 50 100
REMARK H PARENT 71 56 41 67
REMARK Flexibility Score: inf
ROOT
ATOM      1  C   UNL A   1      33.740  30.906  27.523  1.00  0.00     0.188 C 
ENDROOT
BRANCH   1   2
ATOM      2  O   UNL A   1      32.733  30.961  26.542  1.00  0.00    -0.377 OA
BRANCH   2   3
ATOM      3  C   UNL A   1      32.277  29.668  26.269  1.00  0.00     0.188 C 
BRANCH   3   4
ATOM      4  C   UNL A   1      33.213  28.997  25.280  1.00  0.00     0.188 C 
BRANCH   4   5
ATOM      5  O   UNL A   1      32.931  28.741  23.865  1.00  0.00    -0.376 OA
BRANCH   5   6
ATOM      6  C   UNL A   1      33.689  27.966  22.616  1.00  0.00     0.202 C 
BRANCH   6   7
ATOM      7  C   UNL A   1      33.351  25.923  21.922  1.00  0.00     0.261 C 
BRANCH   7   8
ATOM      8  O   UNL A   1      32.546  24.847  22.640  1.00  0.00    -0.460 OA
BRANCH   8   9
ATOM      9  C   UNL A   1      31.290  25.232  22.896  1.00  0.00     0.338 C 
ATOM     10  O   UNL A   1      30.706  26.207  22.493  1.00  0.00    -0.246 OA
BRANCH   9  11
ATOM     11  C   UNL A   1      31.115  24.439  24.100  1.00  0.00     0.087 C 
ATOM     12  C   UNL A   1      31.286  23.004  23.910  1.00  0.00     0.027 C 
ATOM     13  C   UNL A   1      32.270  25.555  25.152  1.00  0.00     0.316 C 
ATOM     14  C   UNL A   1      32.736  22.084  24.430  1.00  0.00     0.019 A 
ATOM     15  O   UNL A   1      33.929  24.616  25.609  1.00  0.00    -0.475 OA
ATOM     16  C   UNL A   1      32.756  20.745  24.131  1.00  0.00     0.032 A 
ATOM     17  C   UNL A   1      34.134  22.839  25.139  1.00  0.00     0.135 A 
ATOM     18  C   UNL A   1      33.945  20.080  24.433  1.00  0.00     0.042 A 
ATOM     19  C   UNL A   1      35.311  22.096  25.300  1.00  0.00     0.026 A 
ATOM     20  Cl  UNL A   1      34.003  18.378  24.117  1.00  0.00    -0.084 Cl
ATOM     21  C   UNL A   1      35.131  20.710  24.959  1.00  0.00     0.033 A 
BRANCH  13  22
ATOM     22  C   UNL A   1      30.887  26.075  26.025  1.00  0.00     0.430 C 
ATOM     23  F   UNL A   1      29.811  26.563  25.381  1.00  0.00    -0.167 F 
ATOM     24  F   UNL A   1      30.391  24.955  26.645  1.00  0.00    -0.167 F 
ATOM     25  F   UNL A   1      31.152  26.929  27.049  1.00  0.00    -0.167 F 
ENDBRANCH  13  22
BRANCH  19  26
ATOM     26  C   UNL A   1      36.669  22.467  25.697  1.00  0.00    -0.015 A 
ATOM     27  C   UNL A   1      37.043  23.772  26.051  1.00  0.00     0.009 A 
ATOM     28  C   UNL A   1      37.713  21.584  25.499  1.00  0.00     0.009 A 
ATOM     29  C   UNL A   1      38.364  24.079  26.421  1.00  0.00     0.001 A 
ATOM     30  C   UNL A   1      38.964  21.817  26.061  1.00  0.00     0.001 A 
ATOM     31  C   UNL A   1      39.309  23.071  26.515  1.00  0.00     0.000 A 
ENDBRANCH  19  26
ENDBRANCH   9  11
ENDBRANCH   8   9
ENDBRANCH   7   8
ENDBRANCH   6   7
ENDBRANCH   5   6
ENDBRANCH   4   5
ENDBRANCH   3   4
ENDBRANCH   2   3
ENDBRANCH   1   2
BRANCH   1  32
ATOM     32  C   UNL A   1      34.410  32.217  27.905  1.00  0.00     0.188 C 
BRANCH  32  33
ATOM     33  O   UNL A   1      34.852  32.274  29.236  1.00  0.00    -0.376 OA
BRANCH  33  34
ATOM     34  C   UNL A   1      35.204  33.532  29.793  1.00  0.00     0.202 C 
BRANCH  34  35
ATOM     35  C   UNL A   1      34.257  34.435  30.621  1.00  0.00     0.261 C 
BRANCH  35  36
ATOM     36  O   UNL A   1      34.312  34.384  32.058  1.00  0.00    -0.460 OA
BRANCH  36  37
ATOM     37  C   UNL A   1      35.088  35.271  32.718  1.00  0.00     0.338 C 
ATOM     38  O   UNL A   1      34.812  36.427  32.976  1.00  0.00    -0.246 OA
BRANCH  37  39
ATOM     39  C   UNL A   1      36.240  34.515  33.284  1.00  0.00     0.060 A 
ATOM     40  C   UNL A   1      36.027  33.640  34.361  1.00  0.00     0.016 A 
ATOM     41  C   UNL A   1      37.516  34.628  32.726  1.00  0.00     0.016 A 
ATOM     42  C   UNL A   1      37.092  32.911  34.912  1.00  0.00     0.010 A 
ATOM     43  C   UNL A   1      38.580  33.894  33.272  1.00  0.00     0.010 A 
ATOM     44  C   UNL A   1      38.386  33.066  34.400  1.00  0.00    -0.014 A 
BRANCH  44  45
ATOM     45  C   UNL A   1      39.570  32.678  35.221  1.00  0.00     0.031 A 
ATOM     46  C   UNL A   1      39.973  33.672  36.284  1.00  0.00     0.074 A 
ATOM     47  C   UNL A   1      40.261  31.526  35.088  1.00  0.00     0.049 A 
ATOM     48  N   UNL A   1      40.946  33.617  37.153  1.00  0.00    -0.248 NA
ATOM     49  C   UNL A   1      39.167  34.906  36.366  1.00  0.00     0.031 C 
ATOM     50  C   UNL A   1      39.965  30.447  34.149  1.00  0.00     0.029 A 
ATOM     51  N   UNL A   1      41.379  31.076  35.756  1.00  0.00    -0.354 N 
ATOM     52  C   UNL A   1      40.860  34.802  37.873  1.00  0.00     0.074 A 
ATOM     53  C   UNL A   1      39.821  35.603  37.276  1.00  0.00     0.031 C 
ATOM     54  C   UNL A   1      40.892  29.477  34.277  1.00  0.00     0.029 A 
ATOM     55  C   UNL A   1      41.845  29.854  35.319  1.00  0.00     0.049 A 
ATOM     56  H   UNL A   1      41.808  31.582  36.483  1.00  0.00     0.167 HD
ATOM     57  C   UNL A   1      41.543  35.183  38.973  1.00  0.00     0.031 A 
ATOM     58  C   UNL A   1      42.905  29.119  35.724  1.00  0.00     0.031 A 
ATOM     59  C   UNL A   1      42.579  34.398  39.573  1.00  0.00     0.049 A 
ATOM     60  C   UNL A   1      43.727  29.607  36.896  1.00  0.00     0.074 A 
ATOM     61  C   UNL A   1      43.317  34.676  40.706  1.00  0.00     0.029 A 
ATOM     62  N   UNL A   1      43.033  33.187  39.077  1.00  0.00    -0.354 N 
ATOM     63  N   UNL A   1      43.583  30.699  37.612  1.00  0.00    -0.248 NA
ATOM     64  C   UNL A   1      44.826  28.740  37.346  1.00  0.00     0.031 C 
ATOM     65  C   UNL A   1      44.280  33.673  40.847  1.00  0.00     0.029 A 
ATOM     66  C   UNL A   1      44.072  32.721  39.860  1.00  0.00     0.049 A 
ATOM     67  H   UNL A   1      42.671  32.728  38.285  1.00  0.00     0.167 HD
ATOM     68  C   UNL A   1      44.524  30.611  38.636  1.00  0.00     0.074 A 
ATOM     69  C   UNL A   1      45.234  29.365  38.442  1.00  0.00     0.031 C 
ATOM     70  C   UNL A   1      44.764  31.473  39.656  1.00  0.00     0.031 A 
BRANCH  57  71
ATOM     71  C   UNL A   1      41.192  36.521  39.564  1.00  0.00    -0.014 A 
ATOM     72  C   UNL A   1      42.057  37.627  39.444  1.00  0.00     0.010 A 
ATOM     73  C   UNL A   1      39.989  36.664  40.274  1.00  0.00     0.010 A 
ATOM     74  C   UNL A   1      41.746  38.837  40.067  1.00  0.00     0.020 A 
ATOM     75  C   UNL A   1      39.655  37.885  40.863  1.00  0.00     0.020 A 
ATOM     76  C   UNL A   1      40.544  38.958  40.770  1.00  0.00     0.054 A 
BRANCH  76  77
ATOM     77  S   UNL A   1      40.150  40.549  41.541  1.00  0.00     0.124 S 
ATOM     78  O   UNL A   1      39.282  40.144  42.644  1.00  0.00    -0.237 OA
ATOM     79  O   UNL A   1      41.467  41.048  41.928  1.00  0.00    -0.237 OA
ATOM     80  O   UNL A   1      39.491  41.297  40.474  1.00  0.00    -0.744 OA
ENDBRANCH  76  77
ENDBRANCH  57  71
BRANCH  58  81
ATOM     81  C   UNL A   1      43.234  27.814  35.071  1.00  0.00    -0.014 A 
ATOM     82  C   UNL A   1      42.737  26.602  35.589  1.00  0.00     0.010 A 
ATOM     83  C   UNL A   1      44.086  27.766  33.952  1.00  0.00     0.010 A 
ATOM     84  C   UNL A   1      43.102  25.374  35.022  1.00  0.00     0.020 A 
ATOM     85  C   UNL A   1      44.431  26.543  33.362  1.00  0.00     0.020 A 
ATOM     86  C   UNL A   1      43.943  25.353  33.906  1.00  0.00     0.054 A 
BRANCH  86  87
ATOM     87  S   UNL A   1      44.359  23.751  33.156  1.00  0.00     0.124 S 
ATOM     88  O   UNL A   1      45.635  23.436  33.791  1.00  0.00    -0.237 OA
ATOM     89  O   UNL A   1      43.229  22.918  33.557  1.00  0.00    -0.237 OA
ATOM     90  O   UNL A   1      44.429  24.050  31.728  1.00  0.00    -0.744 OA
ENDBRANCH  86  87
ENDBRANCH  58  81
BRANCH  70  91
ATOM     91  C   UNL A   1      45.779  31.072  40.695  1.00  0.00    -0.014 A 
ATOM     92  C   UNL A   1      45.435  30.304  41.821  1.00  0.00     0.010 A 
ATOM     93  C   UNL A   1      47.128  31.431  40.500  1.00  0.00     0.010 A 
ATOM     94  C   UNL A   1      46.410  29.953  42.759  1.00  0.00     0.020 A 
ATOM     95  C   UNL A   1      48.112  31.043  41.411  1.00  0.00     0.020 A 
ATOM     96  C   UNL A   1      47.741  30.325  42.547  1.00  0.00     0.054 A 
BRANCH  96  97
ATOM     97  S   UNL A   1      48.988  29.842  43.770  1.00  0.00     0.124 S 
ATOM     98  O   UNL A   1      49.382  31.132  44.328  1.00  0.00    -0.237 OA
ATOM     99  O   UNL A   1      48.232  28.972  44.669  1.00  0.00    -0.237 OA
ATOM    100  O   UNL A   1      50.013  29.168  42.975  1.00  0.00    -0.744 OA
ENDBRANCH  96  97
ENDBRANCH  70  91
ENDBRANCH  44  45
ENDBRANCH  37  39
ENDBRANCH  36  37
ENDBRANCH  35  36
ENDBRANCH  34  35
ENDBRANCH  33  34
ENDBRANCH  32  33
ENDBRANCH   1  32
TORSDOF 25
ENDMDL
MODEL 3
REMARK VINA RESULT:      -9.2      7.345     11.572
REMARK SMILES O=C(OCCOCCOCCOCCOC(=O)c1ccc(-c2c3nc(c(-c4ccc(S(=O)(=O)[O-])cc4)c4ccc([nH]4)c(-c4ccc(S(=O)(=O)[O-])cc4)c4nc(c(-c5ccc(S(=O)(=O)[O-])cc5)c5ccc2[nH]5)C=C4)C=C3)cc1)C1=Cc2cc(Cl)cc(-c3ccccc3)c2O[C@@H]1C(F)(F)F
REMARK SMILES IDX 10 1 9 2 8 3 7 4 6 5 5 6 4 7 3 8 2 9 1 10 78 11 79 12 94 13
REMARK SMILES IDX 80 14 93 15 81 16 92 17 82 18 85 19 83 20 84 21 95 22 96 23
REMARK SMILES IDX 97 24 98 25 86 26 87 27 91 28 88 29 90 30 89 31 11 32 12 33
REMARK SMILES IDX 13 34 14 35 15 36 16 37 17 38 18 39 19 40 77 41 20 42 76 43
REMARK SMILES IDX 21 44 22 45 23 46 70 47 24 48 75 49 69 50 71 51 25 52 74 53
REMARK SMILES IDX 68 54 67 55 26 57 56 58 37 59 55 60 38 61 41 62 54 63 72 64
REMARK SMILES IDX 39 65 40 66 53 68 73 69 42 70 27 71 28 72 36 73 29 74 35 75
REMARK SMILES IDX 30 76 31 77 32 78 33 79 34 80 57 81 58 82 66 83 59 84 65 85
REMARK SMILES IDX 60 86 61 87 62 88 63 89 64 90 43 91 44 92 52 93 45 94 51 95
REMARK SMILES IDX 46 96 47 97 48 98 49 99 50 100
REMARK H PARENT 71 56 41 67
REMARK Flexibility Score: inf
ROOT
ATOM      1  C   UNL A   1      32.189  30.261  26.742  1.00  0.00     0.188 C 
ENDROOT
BRANCH   1   2
ATOM      2  O   UNL A   1      31.977  30.371  25.355  1.00  0.00    -0.377 OA
BRANCH   2   3
ATOM      3  C   UNL A   1      31.470  29.164  24.864  1.00  0.00     0.188 C 
BRANCH   3   4
ATOM      4  C   UNL A   1      32.603  28.332  24.293  1.00  0.00     0.188 C 
BRANCH   4   5
ATOM      5  O   UNL A   1      32.954  28.214  22.875  1.00  0.00    -0.376 OA
BRANCH   5   6
ATOM      6  C   UNL A   1      33.662  27.073  21.909  1.00  0.00     0.202 C 
BRANCH   6   7
ATOM      7  C   UNL A   1      33.014  25.009  21.600  1.00  0.00     0.261 C 
BRANCH   7   8
ATOM      8  O   UNL A   1      32.330  24.115  22.625  1.00  0.00    -0.460 OA
BRANCH   8   9
ATOM      9  C   UNL A   1      31.178  24.632  23.068  1.00  0.00     0.338 C 
ATOM     10  O   UNL A   1      30.656  25.677  22.764  1.00  0.00    -0.246 OA
BRANCH   9  11
ATOM     11  C   UNL A   1      31.092  23.835  24.279  1.00  0.00     0.087 C 
ATOM     12  C   UNL A   1      31.375  22.418  24.091  1.00  0.00     0.027 C 
ATOM     13  C   UNL A   1      32.172  25.047  25.303  1.00  0.00     0.316 C 
ATOM     14  C   UNL A   1      32.906  21.622  24.586  1.00  0.00     0.019 A 
ATOM     15  O   UNL A   1      33.911  24.250  25.730  1.00  0.00    -0.475 OA
ATOM     16  C   UNL A   1      33.029  20.288  24.292  1.00  0.00     0.032 A 
ATOM     17  C   UNL A   1      34.251  22.493  25.263  1.00  0.00     0.135 A 
ATOM     18  C   UNL A   1      34.275  19.724  24.573  1.00  0.00     0.042 A 
ATOM     19  C   UNL A   1      35.488  21.849  25.404  1.00  0.00     0.026 A 
ATOM     20  Cl  UNL A   1      34.465  18.030  24.263  1.00  0.00    -0.084 Cl
ATOM     21  C   UNL A   1      35.416  20.451  25.073  1.00  0.00     0.033 A 
BRANCH  13  22
ATOM     22  C   UNL A   1      30.769  25.457  26.202  1.00  0.00     0.430 C 
ATOM     23  F   UNL A   1      30.077  24.513  26.863  1.00  0.00    -0.167 F 
ATOM     24  F   UNL A   1      31.197  26.286  27.209  1.00  0.00    -0.167 F 
ATOM     25  F   UNL A   1      29.860  26.206  25.522  1.00  0.00    -0.167 F 
ENDBRANCH  13  22
BRANCH  19  26
ATOM     26  C   UNL A   1      36.819  22.332  25.772  1.00  0.00    -0.015 A 
ATOM     27  C   UNL A   1      37.092  23.666  26.110  1.00  0.00     0.009 A 
ATOM     28  C   UNL A   1      37.927  21.535  25.560  1.00  0.00     0.009 A 
ATOM     29  C   UNL A   1      38.391  24.082  26.452  1.00  0.00     0.001 A 
ATOM     30  C   UNL A   1      39.166  21.873  26.096  1.00  0.00     0.001 A 
ATOM     31  C   UNL A   1      39.416  23.155  26.534  1.00  0.00     0.000 A 
ENDBRANCH  19  26
ENDBRANCH   9  11
ENDBRANCH   8   9
ENDBRANCH   7   8
ENDBRANCH   6   7
ENDBRANCH   5   6
ENDBRANCH   4   5
ENDBRANCH   3   4
ENDBRANCH   2   3
ENDBRANCH   1   2
BRANCH   1  32
ATOM     32  C   UNL A   1      33.297  31.111  27.344  1.00  0.00     0.188 C 
BRANCH  32  33
ATOM     33  O   UNL A   1      34.358  30.374  27.893  1.00  0.00    -0.376 OA
BRANCH  33  34
ATOM     34  C   UNL A   1      35.571  31.042  28.209  1.00  0.00     0.202 C 
BRANCH  34  35
ATOM     35  C   UNL A   1      35.777  32.576  28.175  1.00  0.00     0.261 C 
BRANCH  35  36
ATOM     36  O   UNL A   1      36.683  33.187  29.110  1.00  0.00    -0.460 OA
BRANCH  36  37
ATOM     37  C   UNL A   1      36.183  33.792  30.209  1.00  0.00     0.338 C 
ATOM     38  O   UNL A   1      35.057  34.231  30.349  1.00  0.00    -0.246 OA
BRANCH  37  39
ATOM     39  C   UNL A   1      37.178  33.612  31.304  1.00  0.00     0.060 A 
ATOM     40  C   UNL A   1      37.671  32.327  31.582  1.00  0.00     0.016 A 
ATOM     41  C   UNL A   1      37.661  34.709  32.022  1.00  0.00     0.016 A 
ATOM     42  C   UNL A   1      38.613  32.128  32.603  1.00  0.00     0.010 A 
ATOM     43  C   UNL A   1      38.606  34.512  33.039  1.00  0.00     0.010 A 
ATOM     44  C   UNL A   1      39.054  33.213  33.370  1.00  0.00    -0.014 A 
BRANCH  44  45
ATOM     45  C   UNL A   1      39.674  32.984  34.708  1.00  0.00     0.031 A 
ATOM     46  C   UNL A   1      41.158  32.705  34.694  1.00  0.00     0.074 A 
ATOM     47  C   UNL A   1      39.014  33.031  35.885  1.00  0.00     0.049 A 
ATOM     48  N   UNL A   1      41.974  32.475  35.687  1.00  0.00    -0.248 NA
ATOM     49  C   UNL A   1      41.805  32.670  33.368  1.00  0.00     0.031 C 
ATOM     50  C   UNL A   1      37.598  33.340  36.068  1.00  0.00     0.029 A 
ATOM     51  N   UNL A   1      39.464  32.806  37.168  1.00  0.00    -0.354 N 
ATOM     52  C   UNL A   1      43.216  32.273  35.100  1.00  0.00     0.074 A 
ATOM     53  C   UNL A   1      43.033  32.295  33.671  1.00  0.00     0.031 C 
ATOM     54  C   UNL A   1      37.289  33.254  37.377  1.00  0.00     0.029 A 
ATOM     55  C   UNL A   1      38.486  32.899  38.135  1.00  0.00     0.049 A 
ATOM     56  H   UNL A   1      40.404  32.598  37.377  1.00  0.00     0.167 HD
ATOM     57  C   UNL A   1      44.424  32.134  35.685  1.00  0.00     0.031 A 
ATOM     58  C   UNL A   1      38.554  32.735  39.475  1.00  0.00     0.031 A 
ATOM     59  C   UNL A   1      44.618  32.107  37.104  1.00  0.00     0.049 A 
ATOM     60  C   UNL A   1      39.901  32.477  40.113  1.00  0.00     0.074 A 
ATOM     61  C   UNL A   1      45.802  31.998  37.806  1.00  0.00     0.029 A 
ATOM     62  N   UNL A   1      43.595  32.173  38.037  1.00  0.00    -0.354 N 
ATOM     63  N   UNL A   1      41.079  32.362  39.543  1.00  0.00    -0.248 NA
ATOM     64  C   UNL A   1      39.935  32.376  41.579  1.00  0.00     0.031 C 
ATOM     65  C   UNL A   1      45.489  31.911  39.164  1.00  0.00     0.029 A 
ATOM     66  C   UNL A   1      44.118  32.069  39.312  1.00  0.00     0.049 A 
ATOM     67  H   UNL A   1      42.640  32.279  37.824  1.00  0.00     0.167 HD
ATOM     68  C   UNL A   1      41.997  32.247  40.585  1.00  0.00     0.074 A 
ATOM     69  C   UNL A   1      41.238  32.301  41.816  1.00  0.00     0.031 C 
ATOM     70  C   UNL A   1      43.348  32.131  40.528  1.00  0.00     0.031 A 
BRANCH  57  71
ATOM     71  C   UNL A   1      45.610  31.975  34.774  1.00  0.00    -0.014 A 
ATOM     72  C   UNL A   1      46.053  30.703  34.360  1.00  0.00     0.010 A 
ATOM     73  C   UNL A   1      46.307  33.117  34.348  1.00  0.00     0.010 A 
ATOM     74  C   UNL A   1      47.202  30.576  33.577  1.00  0.00     0.020 A 
ATOM     75  C   UNL A   1      47.432  32.996  33.531  1.00  0.00     0.020 A 
ATOM     76  C   UNL A   1      47.881  31.726  33.165  1.00  0.00     0.054 A 
BRANCH  76  77
ATOM     77  S   UNL A   1      49.350  31.534  32.122  1.00  0.00     0.124 S 
ATOM     78  O   UNL A   1      50.419  31.464  33.116  1.00  0.00    -0.237 OA
ATOM     79  O   UNL A   1      49.073  30.291  31.410  1.00  0.00    -0.237 OA
ATOM     80  O   UNL A   1      49.348  32.739  31.296  1.00  0.00    -0.744 OA
ENDBRANCH  76  77
ENDBRANCH  57  71
BRANCH  58  81
ATOM     81  C   UNL A   1      37.333  32.862  40.330  1.00  0.00    -0.014 A 
ATOM     82  C   UNL A   1      36.205  32.048  40.104  1.00  0.00     0.010 A 
ATOM     83  C   UNL A   1      37.268  33.830  41.349  1.00  0.00     0.010 A 
ATOM     84  C   UNL A   1      35.036  32.215  40.858  1.00  0.00     0.020 A 
ATOM     85  C   UNL A   1      36.111  33.982  42.126  1.00  0.00     0.020 A 
ATOM     86  C   UNL A   1      34.999  33.178  41.870  1.00  0.00     0.054 A 
BRANCH  86  87
ATOM     87  S   UNL A   1      33.489  33.338  42.868  1.00  0.00     0.124 S 
ATOM     88  O   UNL A   1      32.440  33.112  41.878  1.00  0.00    -0.237 OA
ATOM     89  O   UNL A   1      33.661  32.282  43.862  1.00  0.00    -0.237 OA
ATOM     90  O   UNL A   1      33.570  34.699  43.393  1.00  0.00    -0.744 OA
ENDBRANCH  86  87
ENDBRANCH  58  81
BRANCH  70  91
ATOM     91  C   UNL A   1      44.112  32.134  41.828  1.00  0.00    -0.014 A 
ATOM     92  C   UNL A   1      44.289  30.970  42.595  1.00  0.00     0.010 A 
ATOM     93  C   UNL A   1      44.715  33.333  42.256  1.00  0.00     0.010 A 
ATOM     94  C   UNL A   1      45.006  31.019  43.793  1.00  0.00     0.020 A 
ATOM     95  C   UNL A   1      45.470  33.376  43.429  1.00  0.00     0.020 A 
ATOM     96  C   UNL A   1      45.590  32.221  44.202  1.00  0.00     0.054 A 
BRANCH  96  97
ATOM     97  S   UNL A   1      46.530  32.253  45.752  1.00  0.00     0.124 S 
ATOM     98  O   UNL A   1      46.510  30.848  46.148  1.00  0.00    -0.237 OA
ATOM     99  O   UNL A   1      47.830  32.767  45.325  1.00  0.00    -0.237 OA
ATOM    100  O   UNL A   1      45.760  33.153  46.608  1.00  0.00    -0.744 OA
ENDBRANCH  96  97
ENDBRANCH  70  91
ENDBRANCH  44  45
ENDBRANCH  37  39
ENDBRANCH  36  37
ENDBRANCH  35  36
ENDBRANCH  34  35
ENDBRANCH  33  34
ENDBRANCH  32  33
ENDBRANCH   1  32
TORSDOF 25
ENDMDL
