MODEL 1
REMARK VINA RESULT:      -7.3      0.000      0.000
REMARK SMILES CC(C)C[C@H](Nc1ncnc2scc(-c3ccccc3)c12)C(=O)OCCOCCOCCOCCOC(=O)c1ccc(-c2c3nc(c(-c4ccc(S(=O)(=O)[O-])cc4)c4ccc([nH]4)c(-c4ccc(S(=O)(=O)[O-])cc4)c4nc(c(-c5ccc(S(=O)(=O)[O-])cc5)c5ccc2[nH]5)C=C4)C=C3)cc1
REMARK SMILES IDX 30 1 29 2 28 3 27 4 26 5 25 6 24 7 22 8 23 9 5 10 4 11 2 12
REMARK SMILES IDX 1 13 3 14 6 15 7 17 8 18 21 19 9 20 11 21 14 22 10 23 12 24
REMARK SMILES IDX 13 25 15 26 16 27 20 28 17 29 19 30 18 31 31 32 32 33 33 34
REMARK SMILES IDX 34 35 35 36 36 37 37 38 38 39 39 40 40 41 98 42 41 43 97 44
REMARK SMILES IDX 42 45 43 46 44 47 91 48 45 49 96 50 90 51 92 52 46 53 95 54
REMARK SMILES IDX 89 55 88 56 47 58 77 59 58 60 76 61 59 62 62 63 75 64 93 65
REMARK SMILES IDX 60 66 61 67 74 69 94 70 63 71 48 72 49 73 57 74 50 75 56 76
REMARK SMILES IDX 51 77 52 78 53 79 54 80 55 81 78 82 79 83 87 84 80 85 86 86
REMARK SMILES IDX 81 87 82 88 83 89 84 90 85 91 64 92 65 93 73 94 66 95 72 96
REMARK SMILES IDX 67 97 68 98 69 99 70 100 71 101
REMARK H PARENT 6 16 92 57 62 68
REMARK Flexibility Score: inf
ROOT
ATOM      1  O   UNL A   1      41.676  29.143  27.818  1.00  0.00    -0.377 OA
ENDROOT
BRANCH   1   2
ATOM      2  C   UNL A   1      42.260  29.759  29.288  1.00  0.00     0.188 C 
BRANCH   2   3
ATOM      3  C   UNL A   1      41.637  29.565  30.855  1.00  0.00     0.188 C 
BRANCH   3   4
ATOM      4  O   UNL A   1      40.276  29.352  31.264  1.00  0.00    -0.376 OA
BRANCH   4   5
ATOM      5  C   UNL A   1      39.781  28.473  32.285  1.00  0.00     0.202 C 
BRANCH   5   6
ATOM      6  C   UNL A   1      38.326  27.986  32.358  1.00  0.00     0.261 C 
BRANCH   6   7
ATOM      7  O   UNL A   1      37.348  28.970  32.694  1.00  0.00    -0.462 OA
BRANCH   7   8
ATOM      8  C   UNL A   1      36.898  29.736  31.664  1.00  0.00     0.328 C 
ATOM      9  O   UNL A   1      36.345  29.278  30.668  1.00  0.00    -0.250 OA
BRANCH   8  10
ATOM     10  C   UNL A   1      37.224  31.230  31.845  1.00  0.00     0.191 C 
BRANCH  10  11
ATOM     11  C   UNL A   1      37.430  31.782  30.439  1.00  0.00     0.040 C 
BRANCH  11  12
ATOM     12  C   UNL A   1      36.621  33.066  30.155  1.00  0.00    -0.015 C 
ATOM     13  C   UNL A   1      37.251  33.929  29.056  1.00  0.00     0.007 C 
ATOM     14  C   UNL A   1      35.213  32.675  29.726  1.00  0.00     0.007 C 
ENDBRANCH  11  12
ENDBRANCH  10  11
BRANCH  10  15
ATOM     15  N   UNL A   1      38.371  31.484  32.729  1.00  0.00    -0.356 N 
ATOM     16  H   UNL A   1      39.223  31.057  32.480  1.00  0.00     0.163 HD
BRANCH  15  17
ATOM     17  C   UNL A   1      38.377  32.255  33.870  1.00  0.00     0.139 A 
ATOM     18  N   UNL A   1      37.474  31.979  34.837  1.00  0.00    -0.219 NA
ATOM     19  C   UNL A   1      39.264  33.354  34.064  1.00  0.00     0.062 A 
ATOM     20  C   UNL A   1      37.387  32.790  35.899  1.00  0.00     0.225 A 
ATOM     21  C   UNL A   1      39.009  34.132  35.187  1.00  0.00     0.129 A 
ATOM     22  C   UNL A   1      40.470  33.844  33.387  1.00  0.00     0.006 A 
ATOM     23  N   UNL A   1      38.089  33.896  36.139  1.00  0.00    -0.225 NA
ATOM     24  S   UNL A   1      40.019  35.499  35.305  1.00  0.00    -0.123 S 
ATOM     25  C   UNL A   1      40.942  35.014  33.951  1.00  0.00     0.076 A 
BRANCH  22  26
ATOM     26  C   UNL A   1      41.363  33.019  32.557  1.00  0.00    -0.017 A 
ATOM     27  C   UNL A   1      41.333  33.503  30.861  1.00  0.00     0.009 A 
ATOM     28  C   UNL A   1      42.769  32.242  33.272  1.00  0.00     0.009 A 
ATOM     29  C   UNL A   1      42.744  33.322  29.809  1.00  0.00     0.001 A 
ATOM     30  C   UNL A   1      44.215  31.990  32.253  1.00  0.00     0.001 A 
ATOM     31  C   UNL A   1      44.232  32.556  30.474  1.00  0.00     0.000 A 
ENDBRANCH  22  26
ENDBRANCH  15  17
ENDBRANCH  10  15
ENDBRANCH   8  10
ENDBRANCH   7   8
ENDBRANCH   6   7
ENDBRANCH   5   6
ENDBRANCH   4   5
ENDBRANCH   3   4
ENDBRANCH   2   3
ENDBRANCH   1   2
BRANCH   1  32
ATOM     32  C   UNL A   1      40.077  28.063  27.234  1.00  0.00     0.188 C 
BRANCH  32  33
ATOM     33  C   UNL A   1      39.351  26.669  28.193  1.00  0.00     0.188 C 
BRANCH  33  34
ATOM     34  O   UNL A   1      39.540  25.253  27.991  1.00  0.00    -0.376 OA
BRANCH  34  35
ATOM     35  C   UNL A   1      38.939  24.399  27.016  1.00  0.00     0.202 C 
BRANCH  35  36
ATOM     36  C   UNL A   1      39.341  22.935  26.788  1.00  0.00     0.261 C 
BRANCH  36  37
ATOM     37  O   UNL A   1      40.564  22.533  27.406  1.00  0.00    -0.460 OA
BRANCH  37  38
ATOM     38  C   UNL A   1      41.550  22.214  26.531  1.00  0.00     0.338 C 
ATOM     39  O   UNL A   1      41.416  21.513  25.542  1.00  0.00    -0.246 OA
BRANCH  38  40
ATOM     40  C   UNL A   1      42.731  23.091  26.782  1.00  0.00     0.060 A 
ATOM     41  C   UNL A   1      43.938  22.435  27.081  1.00  0.00     0.016 A 
ATOM     42  C   UNL A   1      42.733  24.473  26.572  1.00  0.00     0.016 A 
ATOM     43  C   UNL A   1      45.138  23.138  27.146  1.00  0.00     0.010 A 
ATOM     44  C   UNL A   1      43.929  25.196  26.731  1.00  0.00     0.010 A 
ATOM     45  C   UNL A   1      45.133  24.533  27.048  1.00  0.00    -0.014 A 
BRANCH  45  46
ATOM     46  C   UNL A   1      46.302  25.245  27.634  1.00  0.00     0.031 A 
ATOM     47  C   UNL A   1      46.281  25.456  29.130  1.00  0.00     0.074 A 
ATOM     48  C   UNL A   1      47.414  25.558  26.939  1.00  0.00     0.049 A 
ATOM     49  N   UNL A   1      47.190  25.979  29.911  1.00  0.00    -0.248 NA
ATOM     50  C   UNL A   1      45.073  24.996  29.839  1.00  0.00     0.031 C 
ATOM     51  C   UNL A   1      47.631  25.319  25.513  1.00  0.00     0.029 A 
ATOM     52  N   UNL A   1      48.591  26.136  27.361  1.00  0.00    -0.354 N 
ATOM     53  C   UNL A   1      46.660  25.916  31.196  1.00  0.00     0.074 A 
ATOM     54  C   UNL A   1      45.345  25.328  31.089  1.00  0.00     0.031 C 
ATOM     55  C   UNL A   1      48.862  25.753  25.181  1.00  0.00     0.029 A 
ATOM     56  C   UNL A   1      49.514  26.331  26.358  1.00  0.00     0.049 A 
ATOM     57  H   UNL A   1      48.758  26.388  28.299  1.00  0.00     0.167 HD
ATOM     58  C   UNL A   1      47.214  26.307  32.365  1.00  0.00     0.031 A 
ATOM     59  C   UNL A   1      50.729  26.924  26.381  1.00  0.00     0.031 A 
ATOM     60  C   UNL A   1      48.518  26.900  32.487  1.00  0.00     0.049 A 
ATOM     61  C   UNL A   1      51.276  27.462  27.686  1.00  0.00     0.074 A 
ATOM     62  C   UNL A   1      49.155  27.328  33.639  1.00  0.00     0.029 A 
ATOM     63  N   UNL A   1      49.377  27.160  31.433  1.00  0.00    -0.354 N 
ATOM     64  N   UNL A   1      50.768  27.386  28.893  1.00  0.00    -0.248 NA
ATOM     65  C   UNL A   1      52.570  28.164  27.630  1.00  0.00     0.031 C 
ATOM     66  C   UNL A   1      50.364  27.923  33.271  1.00  0.00     0.029 A 
ATOM     67  C   UNL A   1      50.521  27.782  31.903  1.00  0.00     0.049 A 
ATOM     68  H   UNL A   1      49.200  26.935  30.491  1.00  0.00     0.167 HD
ATOM     69  C   UNL A   1      51.694  27.997  29.738  1.00  0.00     0.074 A 
ATOM     70  C   UNL A   1      52.803  28.416  28.911  1.00  0.00     0.031 C 
ATOM     71  C   UNL A   1      51.629  28.193  31.079  1.00  0.00     0.031 A 
BRANCH  58  72
ATOM     72  C   UNL A   1      46.387  26.162  33.615  1.00  0.00    -0.014 A 
ATOM     73  C   UNL A   1      45.450  27.138  33.998  1.00  0.00     0.010 A 
ATOM     74  C   UNL A   1      46.507  24.988  34.381  1.00  0.00     0.010 A 
ATOM     75  C   UNL A   1      44.662  26.949  35.136  1.00  0.00     0.020 A 
ATOM     76  C   UNL A   1      45.698  24.779  35.498  1.00  0.00     0.020 A 
ATOM     77  C   UNL A   1      44.784  25.766  35.873  1.00  0.00     0.054 A 
BRANCH  77  78
ATOM     78  S   UNL A   1      43.703  25.521  37.308  1.00  0.00     0.124 S 
ATOM     79  O   UNL A   1      42.519  24.925  36.694  1.00  0.00    -0.237 OA
ATOM     80  O   UNL A   1      44.493  24.624  38.148  1.00  0.00    -0.237 OA
ATOM     81  O   UNL A   1      43.518  26.868  37.840  1.00  0.00    -0.744 OA
ENDBRANCH  77  78
ENDBRANCH  58  72
BRANCH  59  82
ATOM     82  C   UNL A   1      51.511  27.109  25.119  1.00  0.00    -0.014 A 
ATOM     83  C   UNL A   1      51.321  28.235  24.295  1.00  0.00     0.010 A 
ATOM     84  C   UNL A   1      52.408  26.109  24.696  1.00  0.00     0.010 A 
ATOM     85  C   UNL A   1      51.983  28.340  23.065  1.00  0.00     0.020 A 
ATOM     86  C   UNL A   1      53.101  26.228  23.488  1.00  0.00     0.020 A 
ATOM     87  C   UNL A   1      52.874  27.336  22.673  1.00  0.00     0.054 A 
BRANCH  87  88
ATOM     88  S   UNL A   1      53.750  27.511  21.092  1.00  0.00     0.124 S 
ATOM     89  O   UNL A   1      53.154  28.725  20.544  1.00  0.00    -0.237 OA
ATOM     90  O   UNL A   1      55.143  27.624  21.518  1.00  0.00    -0.237 OA
ATOM     91  O   UNL A   1      53.422  26.277  20.381  1.00  0.00    -0.744 OA
ENDBRANCH  87  88
ENDBRANCH  59  82
BRANCH  71  92
ATOM     92  C   UNL A   1      52.805  28.852  31.762  1.00  0.00    -0.014 A 
ATOM     93  C   UNL A   1      53.902  28.104  32.227  1.00  0.00     0.010 A 
ATOM     94  C   UNL A   1      52.842  30.255  31.879  1.00  0.00     0.010 A 
ATOM     95  C   UNL A   1      54.992  28.743  32.828  1.00  0.00     0.020 A 
ATOM     96  C   UNL A   1      53.945  30.900  32.444  1.00  0.00     0.020 A 
ATOM     97  C   UNL A   1      55.009  30.138  32.930  1.00  0.00     0.054 A 
BRANCH  97  98
ATOM     98  S   UNL A   1      56.454  30.941  33.676  1.00  0.00     0.124 S 
ATOM     99  O   UNL A   1      56.153  30.849  35.101  1.00  0.00    -0.237 OA
ATOM    100  O   UNL A   1      57.558  30.106  33.210  1.00  0.00    -0.237 OA
ATOM    101  O   UNL A   1      56.426  32.293  33.120  1.00  0.00    -0.744 OA
ENDBRANCH  97  98
ENDBRANCH  71  92
ENDBRANCH  45  46
ENDBRANCH  38  40
ENDBRANCH  37  38
ENDBRANCH  36  37
ENDBRANCH  35  36
ENDBRANCH  34  35
ENDBRANCH  33  34
ENDBRANCH  32  33
ENDBRANCH   1  32
TORSDOF 28
ENDMDL
MODEL 2
REMARK VINA RESULT:      -7.1      4.791     11.252
REMARK SMILES CC(C)C[C@H](Nc1ncnc2scc(-c3ccccc3)c12)C(=O)OCCOCCOCCOCCOC(=O)c1ccc(-c2c3nc(c(-c4ccc(S(=O)(=O)[O-])cc4)c4ccc([nH]4)c(-c4ccc(S(=O)(=O)[O-])cc4)c4nc(c(-c5ccc(S(=O)(=O)[O-])cc5)c5ccc2[nH]5)C=C4)C=C3)cc1
REMARK SMILES IDX 30 1 29 2 28 3 27 4 26 5 25 6 24 7 22 8 23 9 5 10 4 11 2 12
REMARK SMILES IDX 1 13 3 14 6 15 7 17 8 18 21 19 9 20 11 21 14 22 10 23 12 24
REMARK SMILES IDX 13 25 15 26 16 27 20 28 17 29 19 30 18 31 31 32 32 33 33 34
REMARK SMILES IDX 34 35 35 36 36 37 37 38 38 39 39 40 40 41 98 42 41 43 97 44
REMARK SMILES IDX 42 45 43 46 44 47 91 48 45 49 96 50 90 51 92 52 46 53 95 54
REMARK SMILES IDX 89 55 88 56 47 58 77 59 58 60 76 61 59 62 62 63 75 64 93 65
REMARK SMILES IDX 60 66 61 67 74 69 94 70 63 71 48 72 49 73 57 74 50 75 56 76
REMARK SMILES IDX 51 77 52 78 53 79 54 80 55 81 78 82 79 83 87 84 80 85 86 86
REMARK SMILES IDX 81 87 82 88 83 89 84 90 85 91 64 92 65 93 73 94 66 95 72 96
REMARK SMILES IDX 67 97 68 98 69 99 70 100 71 101
REMARK H PARENT 6 16 92 57 62 68
REMARK Flexibility Score: inf
ROOT
ATOM      1  O   UNL A   1      47.984  25.821  28.014  1.00  0.00    -0.377 OA
ENDROOT
BRANCH   1   2
ATOM      2  C   UNL A   1      48.943  26.834  28.982  1.00  0.00     0.188 C 
BRANCH   2   3
ATOM      3  C   UNL A   1      48.464  28.062  30.052  1.00  0.00     0.188 C 
BRANCH   3   4
ATOM      4  O   UNL A   1      47.149  28.363  30.547  1.00  0.00    -0.376 OA
BRANCH   4   5
ATOM      5  C   UNL A   1      46.011  28.841  29.814  1.00  0.00     0.202 C 
BRANCH   5   6
ATOM      6  C   UNL A   1      45.220  30.102  30.195  1.00  0.00     0.261 C 
BRANCH   6   7
ATOM      7  O   UNL A   1      45.981  31.186  30.728  1.00  0.00    -0.462 OA
BRANCH   7   8
ATOM      8  C   UNL A   1      45.282  32.316  31.019  1.00  0.00     0.328 C 
ATOM      9  O   UNL A   1      44.385  32.762  30.308  1.00  0.00    -0.250 OA
BRANCH   8  10
ATOM     10  C   UNL A   1      45.787  33.019  32.292  1.00  0.00     0.191 C 
BRANCH  10  11
ATOM     11  C   UNL A   1      45.157  32.266  33.458  1.00  0.00     0.040 C 
BRANCH  11  12
ATOM     12  C   UNL A   1      46.136  31.999  34.623  1.00  0.00    -0.015 C 
ATOM     13  C   UNL A   1      47.586  31.852  34.151  1.00  0.00     0.007 C 
ATOM     14  C   UNL A   1      46.055  33.157  35.608  1.00  0.00     0.007 C 
ENDBRANCH  11  12
ENDBRANCH  10  11
BRANCH  10  15
ATOM     15  N   UNL A   1      45.503  34.461  32.326  1.00  0.00    -0.356 N 
ATOM     16  H   UNL A   1      46.144  35.048  31.863  1.00  0.00     0.163 HD
BRANCH  15  17
ATOM     17  C   UNL A   1      44.434  35.076  32.940  1.00  0.00     0.139 A 
ATOM     18  N   UNL A   1      43.274  34.392  33.047  1.00  0.00    -0.219 NA
ATOM     19  C   UNL A   1      44.482  36.413  33.434  1.00  0.00     0.062 A 
ATOM     20  C   UNL A   1      42.192  35.014  33.533  1.00  0.00     0.225 A 
ATOM     21  C   UNL A   1      43.264  36.934  33.854  1.00  0.00     0.129 A 
ATOM     22  C   UNL A   1      45.550  37.386  33.687  1.00  0.00     0.006 A 
ATOM     23  N   UNL A   1      42.091  36.281  33.930  1.00  0.00    -0.225 NA
ATOM     24  S   UNL A   1      43.355  38.570  34.320  1.00  0.00    -0.123 S 
ATOM     25  C   UNL A   1      45.053  38.596  34.134  1.00  0.00     0.076 A 
BRANCH  22  26
ATOM     26  C   UNL A   1      46.963  37.045  33.918  1.00  0.00    -0.017 A 
ATOM     27  C   UNL A   1      48.006  37.599  32.609  1.00  0.00     0.009 A 
ATOM     28  C   UNL A   1      47.567  36.837  35.556  1.00  0.00     0.009 A 
ATOM     29  C   UNL A   1      49.690  38.068  32.886  1.00  0.00     0.001 A 
ATOM     30  C   UNL A   1      49.271  37.251  35.897  1.00  0.00     0.001 A 
ATOM     31  C   UNL A   1      50.376  37.907  34.542  1.00  0.00     0.000 A 
ENDBRANCH  22  26
ENDBRANCH  15  17
ENDBRANCH  10  15
ENDBRANCH   8  10
ENDBRANCH   7   8
ENDBRANCH   6   7
ENDBRANCH   5   6
ENDBRANCH   4   5
ENDBRANCH   3   4
ENDBRANCH   2   3
ENDBRANCH   1   2
BRANCH   1  32
ATOM     32  C   UNL A   1      48.031  25.174  26.106  1.00  0.00     0.188 C 
BRANCH  32  33
ATOM     33  C   UNL A   1      46.730  24.131  25.324  1.00  0.00     0.188 C 
BRANCH  33  34
ATOM     34  O   UNL A   1      46.584  22.697  25.377  1.00  0.00    -0.376 OA
BRANCH  34  35
ATOM     35  C   UNL A   1      45.511  21.925  25.918  1.00  0.00     0.202 C 
BRANCH  35  36
ATOM     36  C   UNL A   1      44.077  22.447  26.094  1.00  0.00     0.261 C 
BRANCH  36  37
ATOM     37  O   UNL A   1      43.952  23.644  26.864  1.00  0.00    -0.460 OA
BRANCH  37  38
ATOM     38  C   UNL A   1      43.334  24.660  26.215  1.00  0.00     0.338 C 
ATOM     39  O   UNL A   1      43.134  24.713  25.014  1.00  0.00    -0.246 OA
BRANCH  38  40
ATOM     40  C   UNL A   1      42.665  25.545  27.215  1.00  0.00     0.060 A 
ATOM     41  C   UNL A   1      43.185  26.845  27.339  1.00  0.00     0.016 A 
ATOM     42  C   UNL A   1      41.483  25.211  27.882  1.00  0.00     0.016 A 
ATOM     43  C   UNL A   1      42.528  27.811  28.095  1.00  0.00     0.010 A 
ATOM     44  C   UNL A   1      40.870  26.159  28.722  1.00  0.00     0.010 A 
ATOM     45  C   UNL A   1      41.409  27.456  28.854  1.00  0.00    -0.014 A 
BRANCH  45  46
ATOM     46  C   UNL A   1      41.080  28.339  30.008  1.00  0.00     0.031 A 
ATOM     47  C   UNL A   1      41.991  28.243  31.209  1.00  0.00     0.074 A 
ATOM     48  C   UNL A   1      40.135  29.300  29.971  1.00  0.00     0.049 A 
ATOM     49  N   UNL A   1      41.985  28.937  32.317  1.00  0.00    -0.248 NA
ATOM     50  C   UNL A   1      43.066  27.237  31.137  1.00  0.00     0.031 C 
ATOM     51  C   UNL A   1      39.249  29.589  28.844  1.00  0.00     0.029 A 
ATOM     52  N   UNL A   1      39.781  30.233  30.920  1.00  0.00    -0.354 N 
ATOM     53  C   UNL A   1      43.046  28.447  33.071  1.00  0.00     0.074 A 
ATOM     54  C   UNL A   1      43.659  27.384  32.310  1.00  0.00     0.031 C 
ATOM     55  C   UNL A   1      38.451  30.623  29.172  1.00  0.00     0.029 A 
ATOM     56  C   UNL A   1      38.741  31.053  30.542  1.00  0.00     0.049 A 
ATOM     57  H   UNL A   1      40.232  30.307  31.793  1.00  0.00     0.167 HD
ATOM     58  C   UNL A   1      43.479  28.843  34.289  1.00  0.00     0.031 A 
ATOM     59  C   UNL A   1      38.088  32.020  31.225  1.00  0.00     0.031 A 
ATOM     60  C   UNL A   1      42.877  29.894  35.063  1.00  0.00     0.049 A 
ATOM     61  C   UNL A   1      38.519  32.364  32.636  1.00  0.00     0.074 A 
ATOM     62  C   UNL A   1      43.255  30.358  36.311  1.00  0.00     0.029 A 
ATOM     63  N   UNL A   1      41.772  30.634  34.677  1.00  0.00    -0.354 N 
ATOM     64  N   UNL A   1      39.529  31.898  33.330  1.00  0.00    -0.248 NA
ATOM     65  C   UNL A   1      37.720  33.372  33.353  1.00  0.00     0.031 C 
ATOM     66  C   UNL A   1      42.327  31.321  36.716  1.00  0.00     0.029 A 
ATOM     67  C   UNL A   1      41.428  31.522  35.682  1.00  0.00     0.049 A 
ATOM     68  H   UNL A   1      41.302  30.542  33.817  1.00  0.00     0.167 HD
ATOM     69  C   UNL A   1      39.505  32.580  34.546  1.00  0.00     0.074 A 
ATOM     70  C   UNL A   1      38.396  33.506  34.485  1.00  0.00     0.031 C 
ATOM     71  C   UNL A   1      40.327  32.449  35.618  1.00  0.00     0.031 A 
BRANCH  58  72
ATOM     72  C   UNL A   1      44.637  28.097  34.897  1.00  0.00    -0.014 A 
ATOM     73  C   UNL A   1      45.968  28.504  34.692  1.00  0.00     0.010 A 
ATOM     74  C   UNL A   1      44.376  27.004  35.744  1.00  0.00     0.010 A 
ATOM     75  C   UNL A   1      47.016  27.820  35.311  1.00  0.00     0.020 A 
ATOM     76  C   UNL A   1      45.419  26.340  36.392  1.00  0.00     0.020 A 
ATOM     77  C   UNL A   1      46.734  26.748  36.165  1.00  0.00     0.054 A 
BRANCH  77  78
ATOM     78  S   UNL A   1      48.111  25.920  37.004  1.00  0.00     0.124 S 
ATOM     79  O   UNL A   1      47.730  24.514  36.894  1.00  0.00    -0.237 OA
ATOM     80  O   UNL A   1      49.261  26.323  36.199  1.00  0.00    -0.237 OA
ATOM     81  O   UNL A   1      48.077  26.469  38.357  1.00  0.00    -0.744 OA
ENDBRANCH  77  78
ENDBRANCH  58  72
BRANCH  59  82
ATOM     82  C   UNL A   1      36.905  32.712  30.625  1.00  0.00    -0.014 A 
ATOM     83  C   UNL A   1      37.058  33.729  29.664  1.00  0.00     0.010 A 
ATOM     84  C   UNL A   1      35.607  32.400  31.074  1.00  0.00     0.010 A 
ATOM     85  C   UNL A   1      35.946  34.439  29.191  1.00  0.00     0.020 A 
ATOM     86  C   UNL A   1      34.491  33.078  30.577  1.00  0.00     0.020 A 
ATOM     87  C   UNL A   1      34.669  34.104  29.648  1.00  0.00     0.054 A 
BRANCH  87  88
ATOM     88  S   UNL A   1      33.238  35.010  28.995  1.00  0.00     0.124 S 
ATOM     89  O   UNL A   1      32.385  35.127  30.174  1.00  0.00    -0.237 OA
ATOM     90  O   UNL A   1      33.844  36.254  28.525  1.00  0.00    -0.237 OA
ATOM     91  O   UNL A   1      32.730  34.136  27.940  1.00  0.00    -0.744 OA
ENDBRANCH  87  88
ENDBRANCH  59  82
BRANCH  71  92
ATOM     92  C   UNL A   1      40.101  33.355  36.806  1.00  0.00    -0.014 A 
ATOM     93  C   UNL A   1      40.755  34.594  36.924  1.00  0.00     0.010 A 
ATOM     94  C   UNL A   1      39.164  32.986  37.790  1.00  0.00     0.010 A 
ATOM     95  C   UNL A   1      40.504  35.427  38.020  1.00  0.00     0.020 A 
ATOM     96  C   UNL A   1      38.882  33.832  38.866  1.00  0.00     0.020 A 
ATOM     97  C   UNL A   1      39.566  35.042  38.983  1.00  0.00     0.054 A 
BRANCH  97  98
ATOM     98  S   UNL A   1      39.230  36.161  40.371  1.00  0.00     0.124 S 
ATOM     99  O   UNL A   1      38.252  35.403  41.145  1.00  0.00    -0.237 OA
ATOM    100  O   UNL A   1      40.546  36.306  40.988  1.00  0.00    -0.237 OA
ATOM    101  O   UNL A   1      38.714  37.368  39.727  1.00  0.00    -0.744 OA
ENDBRANCH  97  98
ENDBRANCH  71  92
ENDBRANCH  45  46
ENDBRANCH  38  40
ENDBRANCH  37  38
ENDBRANCH  36  37
ENDBRANCH  35  36
ENDBRANCH  34  35
ENDBRANCH  33  34
ENDBRANCH  32  33
ENDBRANCH   1  32
TORSDOF 28
ENDMDL
MODEL 3
REMARK VINA RESULT:      -7.1      5.138     11.745
REMARK SMILES CC(C)C[C@H](Nc1ncnc2scc(-c3ccccc3)c12)C(=O)OCCOCCOCCOCCOC(=O)c1ccc(-c2c3nc(c(-c4ccc(S(=O)(=O)[O-])cc4)c4ccc([nH]4)c(-c4ccc(S(=O)(=O)[O-])cc4)c4nc(c(-c5ccc(S(=O)(=O)[O-])cc5)c5ccc2[nH]5)C=C4)C=C3)cc1
REMARK SMILES IDX 30 1 29 2 28 3 27 4 26 5 25 6 24 7 22 8 23 9 5 10 4 11 2 12
REMARK SMILES IDX 1 13 3 14 6 15 7 17 8 18 21 19 9 20 11 21 14 22 10 23 12 24
REMARK SMILES IDX 13 25 15 26 16 27 20 28 17 29 19 30 18 31 31 32 32 33 33 34
REMARK SMILES IDX 34 35 35 36 36 37 37 38 38 39 39 40 40 41 98 42 41 43 97 44
REMARK SMILES IDX 42 45 43 46 44 47 91 48 45 49 96 50 90 51 92 52 46 53 95 54
REMARK SMILES IDX 89 55 88 56 47 58 77 59 58 60 76 61 59 62 62 63 75 64 93 65
REMARK SMILES IDX 60 66 61 67 74 69 94 70 63 71 48 72 49 73 57 74 50 75 56 76
REMARK SMILES IDX 51 77 52 78 53 79 54 80 55 81 78 82 79 83 87 84 80 85 86 86
REMARK SMILES IDX 81 87 82 88 83 89 84 90 85 91 64 92 65 93 73 94 66 95 72 96
REMARK SMILES IDX 67 97 68 98 69 99 70 100 71 101
REMARK H PARENT 6 16 92 57 62 68
REMARK Flexibility Score: inf
ROOT
ATOM      1  O   UNL A   1      46.726  30.410  28.656  1.00  0.00    -0.377 OA
ENDROOT
BRANCH   1   2
ATOM      2  C   UNL A   1      46.802  31.614  29.850  1.00  0.00     0.188 C 
BRANCH   2   3
ATOM      3  C   UNL A   1      46.923  31.448  31.535  1.00  0.00     0.188 C 
BRANCH   3   4
ATOM      4  O   UNL A   1      45.928  31.705  32.539  1.00  0.00    -0.376 OA
BRANCH   4   5
ATOM      5  C   UNL A   1      45.006  32.802  32.617  1.00  0.00     0.202 C 
BRANCH   5   6
ATOM      6  C   UNL A   1      45.403  34.219  33.057  1.00  0.00     0.261 C 
BRANCH   6   7
ATOM      7  O   UNL A   1      45.609  35.169  32.011  1.00  0.00    -0.462 OA
BRANCH   7   8
ATOM      8  C   UNL A   1      44.553  35.979  31.728  1.00  0.00     0.328 C 
ATOM      9  O   UNL A   1      43.392  35.709  32.024  1.00  0.00    -0.250 OA
BRANCH   8  10
ATOM     10  C   UNL A   1      44.959  37.231  30.931  1.00  0.00     0.191 C 
BRANCH  10  11
ATOM     11  C   UNL A   1      45.842  38.050  31.865  1.00  0.00     0.040 C 
BRANCH  11  12
ATOM     12  C   UNL A   1      45.207  38.305  33.250  1.00  0.00    -0.015 C 
ATOM     13  C   UNL A   1      46.147  37.940  34.404  1.00  0.00     0.007 C 
ATOM     14  C   UNL A   1      44.845  39.780  33.360  1.00  0.00     0.007 C 
ENDBRANCH  11  12
ENDBRANCH  10  11
BRANCH  10  15
ATOM     15  N   UNL A   1      43.817  37.998  30.409  1.00  0.00    -0.356 N 
ATOM     16  H   UNL A   1      42.923  37.715  30.706  1.00  0.00     0.163 HD
BRANCH  15  17
ATOM     17  C   UNL A   1      43.871  39.071  29.548  1.00  0.00     0.139 A 
ATOM     18  N   UNL A   1      44.685  40.104  29.857  1.00  0.00    -0.219 NA
ATOM     19  C   UNL A   1      43.081  39.161  28.364  1.00  0.00     0.062 A 
ATOM     20  C   UNL A   1      44.662  41.205  29.095  1.00  0.00     0.225 A 
ATOM     21  C   UNL A   1      43.124  40.389  27.713  1.00  0.00     0.129 A 
ATOM     22  C   UNL A   1      42.260  38.221  27.593  1.00  0.00     0.006 A 
ATOM     23  N   UNL A   1      43.898  41.442  28.030  1.00  0.00    -0.225 NA
ATOM     24  S   UNL A   1      42.071  40.482  26.377  1.00  0.00    -0.123 S 
ATOM     25  C   UNL A   1      41.641  38.834  26.519  1.00  0.00     0.076 A 
BRANCH  22  26
ATOM     26  C   UNL A   1      42.414  36.758  27.611  1.00  0.00    -0.017 A 
ATOM     27  C   UNL A   1      44.027  36.249  27.113  1.00  0.00     0.009 A 
ATOM     28  C   UNL A   1      41.427  35.778  28.688  1.00  0.00     0.009 A 
ATOM     29  C   UNL A   1      44.782  34.777  27.741  1.00  0.00     0.001 A 
ATOM     30  C   UNL A   1      42.112  34.256  29.326  1.00  0.00     0.001 A 
ATOM     31  C   UNL A   1      43.844  33.731  28.868  1.00  0.00     0.000 A 
ENDBRANCH  22  26
ENDBRANCH  15  17
ENDBRANCH  10  15
ENDBRANCH   8  10
ENDBRANCH   7   8
ENDBRANCH   6   7
ENDBRANCH   5   6
ENDBRANCH   4   5
ENDBRANCH   3   4
ENDBRANCH   2   3
ENDBRANCH   1   2
BRANCH   1  32
ATOM     32  C   UNL A   1      47.268  28.474  28.516  1.00  0.00     0.188 C 
BRANCH  32  33
ATOM     33  C   UNL A   1      47.237  27.490  26.959  1.00  0.00     0.188 C 
BRANCH  33  34
ATOM     34  O   UNL A   1      46.101  26.883  26.309  1.00  0.00    -0.376 OA
BRANCH  34  35
ATOM     35  C   UNL A   1      45.769  25.499  26.195  1.00  0.00     0.202 C 
BRANCH  35  36
ATOM     36  C   UNL A   1      44.730  24.785  27.072  1.00  0.00     0.261 C 
BRANCH  36  37
ATOM     37  O   UNL A   1      43.515  24.428  26.413  1.00  0.00    -0.460 OA
BRANCH  37  38
ATOM     38  C   UNL A   1      42.850  25.477  25.868  1.00  0.00     0.338 C 
ATOM     39  O   UNL A   1      42.599  25.615  24.683  1.00  0.00    -0.246 OA
BRANCH  38  40
ATOM     40  C   UNL A   1      42.205  26.268  26.958  1.00  0.00     0.060 A 
ATOM     41  C   UNL A   1      42.419  27.657  26.926  1.00  0.00     0.016 A 
ATOM     42  C   UNL A   1      41.293  25.733  27.873  1.00  0.00     0.016 A 
ATOM     43  C   UNL A   1      41.717  28.509  27.774  1.00  0.00     0.010 A 
ATOM     44  C   UNL A   1      40.655  26.585  28.793  1.00  0.00     0.010 A 
ATOM     45  C   UNL A   1      40.888  27.976  28.765  1.00  0.00    -0.014 A 
BRANCH  45  46
ATOM     46  C   UNL A   1      40.598  28.854  29.933  1.00  0.00     0.031 A 
ATOM     47  C   UNL A   1      41.522  28.719  31.121  1.00  0.00     0.074 A 
ATOM     48  C   UNL A   1      39.680  29.840  29.919  1.00  0.00     0.049 A 
ATOM     49  N   UNL A   1      41.549  29.399  32.237  1.00  0.00    -0.248 NA
ATOM     50  C   UNL A   1      42.568  27.685  31.023  1.00  0.00     0.031 C 
ATOM     51  C   UNL A   1      38.788  30.167  28.808  1.00  0.00     0.029 A 
ATOM     52  N   UNL A   1      39.364  30.772  30.883  1.00  0.00    -0.354 N 
ATOM     53  C   UNL A   1      42.605  28.872  32.972  1.00  0.00     0.074 A 
ATOM     54  C   UNL A   1      43.179  27.802  32.190  1.00  0.00     0.031 C 
ATOM     55  C   UNL A   1      38.023  31.219  29.158  1.00  0.00     0.029 A 
ATOM     56  C   UNL A   1      38.342  31.625  30.529  1.00  0.00     0.049 A 
ATOM     57  H   UNL A   1      39.827  30.823  31.751  1.00  0.00     0.167 HD
ATOM     58  C   UNL A   1      43.064  29.241  34.188  1.00  0.00     0.031 A 
ATOM     59  C   UNL A   1      37.725  32.601  31.232  1.00  0.00     0.031 A 
ATOM     60  C   UNL A   1      42.501  30.299  34.982  1.00  0.00     0.049 A 
ATOM     61  C   UNL A   1      38.182  32.915  32.640  1.00  0.00     0.074 A 
ATOM     62  C   UNL A   1      42.907  30.736  36.230  1.00  0.00     0.029 A 
ATOM     63  N   UNL A   1      41.412  31.072  34.619  1.00  0.00    -0.354 N 
ATOM     64  N   UNL A   1      39.188  32.414  33.316  1.00  0.00    -0.248 NA
ATOM     65  C   UNL A   1      37.421  33.936  33.379  1.00  0.00     0.031 C 
ATOM     66  C   UNL A   1      42.012  31.720  36.659  1.00  0.00     0.029 A 
ATOM     67  C   UNL A   1      41.105  31.958  35.639  1.00  0.00     0.049 A 
ATOM     68  H   UNL A   1      40.929  31.004  33.764  1.00  0.00     0.167 HD
ATOM     69  C   UNL A   1      39.198  33.082  34.541  1.00  0.00     0.074 A 
ATOM     70  C   UNL A   1      38.114  34.038  34.504  1.00  0.00     0.031 C 
ATOM     71  C   UNL A   1      40.030  32.915  35.600  1.00  0.00     0.031 A 
BRANCH  58  72
ATOM     72  C   UNL A   1      44.209  28.456  34.772  1.00  0.00    -0.014 A 
ATOM     73  C   UNL A   1      45.546  28.855  34.593  1.00  0.00     0.010 A 
ATOM     74  C   UNL A   1      43.929  27.332  35.572  1.00  0.00     0.010 A 
ATOM     75  C   UNL A   1      46.581  28.133  35.191  1.00  0.00     0.020 A 
ATOM     76  C   UNL A   1      44.959  26.629  36.199  1.00  0.00     0.020 A 
ATOM     77  C   UNL A   1      46.281  27.030  35.997  1.00  0.00     0.054 A 
BRANCH  77  78
ATOM     78  S   UNL A   1      47.641  26.151  36.811  1.00  0.00     0.124 S 
ATOM     79  O   UNL A   1      47.116  24.790  36.892  1.00  0.00    -0.237 OA
ATOM     80  O   UNL A   1      48.746  26.342  35.874  1.00  0.00    -0.237 OA
ATOM     81  O   UNL A   1      47.787  26.840  38.091  1.00  0.00    -0.744 OA
ENDBRANCH  77  78
ENDBRANCH  58  72
BRANCH  59  82
ATOM     82  C   UNL A   1      36.554  33.332  30.655  1.00  0.00    -0.014 A 
ATOM     83  C   UNL A   1      36.686  34.150  29.517  1.00  0.00     0.010 A 
ATOM     84  C   UNL A   1      35.301  33.267  31.296  1.00  0.00     0.010 A 
ATOM     85  C   UNL A   1      35.604  34.910  29.053  1.00  0.00     0.020 A 
ATOM     86  C   UNL A   1      34.208  33.994  30.814  1.00  0.00     0.020 A 
ATOM     87  C   UNL A   1      34.370  34.822  29.704  1.00  0.00     0.054 A 
BRANCH  87  88
ATOM     88  S   UNL A   1      32.971  35.786  29.064  1.00  0.00     0.124 S 
ATOM     89  O   UNL A   1      33.644  36.880  28.371  1.00  0.00    -0.237 OA
ATOM     90  O   UNL A   1      32.289  34.818  28.210  1.00  0.00    -0.237 OA
ATOM     91  O   UNL A   1      32.238  36.168  30.270  1.00  0.00    -0.744 OA
ENDBRANCH  87  88
ENDBRANCH  59  82
BRANCH  71  92
ATOM     92  C   UNL A   1      39.844  33.812  36.801  1.00  0.00    -0.014 A 
ATOM     93  C   UNL A   1      40.019  35.205  36.716  1.00  0.00     0.010 A 
ATOM     94  C   UNL A   1      39.420  33.255  38.023  1.00  0.00     0.010 A 
ATOM     95  C   UNL A   1      39.811  36.016  37.837  1.00  0.00     0.020 A 
ATOM     96  C   UNL A   1      39.173  34.065  39.134  1.00  0.00     0.020 A 
ATOM     97  C   UNL A   1      39.385  35.441  39.040  1.00  0.00     0.054 A 
BRANCH  97  98
ATOM     98  S   UNL A   1      39.082  36.522  40.465  1.00  0.00     0.124 S 
ATOM     99  O   UNL A   1      40.321  36.380  41.224  1.00  0.00    -0.237 OA
ATOM    100  O   UNL A   1      38.873  37.824  39.838  1.00  0.00    -0.237 OA
ATOM    101  O   UNL A   1      37.897  35.943  41.094  1.00  0.00    -0.744 OA
ENDBRANCH  97  98
ENDBRANCH  71  92
ENDBRANCH  45  46
ENDBRANCH  38  40
ENDBRANCH  37  38
ENDBRANCH  36  37
ENDBRANCH  35  36
ENDBRANCH  34  35
ENDBRANCH  33  34
ENDBRANCH  32  33
ENDBRANCH   1  32
TORSDOF 28
ENDMDL
