MODEL 1
REMARK VINA RESULT:      -9.8      0.000      0.000
REMARK SMILES O=C(OCCOCCOCCOCCOC(=O)[C@@H](Cc1c[nH]c2ccccc12)Nc1ncnc2ccccc12)c1ccc(-c2c3nc(c(-c4ccc(S(=O)(=O)[O-])cc4)c4ccc([nH]4)c(-c4ccc(S(=O)(=O)[O-])cc4)c4nc(c(-c5ccc(S(=O)(=O)[O-])cc5)c5ccc2[nH]5)C=C4)C=C3)cc1
REMARK SMILES IDX 8 1 7 2 6 3 5 4 4 5 3 6 2 7 1 8 40 9 41 10 99 11 42 12 98 13
REMARK SMILES IDX 43 14 44 15 45 16 92 17 46 18 97 19 91 20 93 21 47 22 96 23
REMARK SMILES IDX 90 24 89 25 48 27 78 28 59 29 77 30 60 31 63 32 76 33 94 34
REMARK SMILES IDX 61 35 62 36 75 38 95 39 64 40 49 41 50 42 58 43 51 44 57 45
REMARK SMILES IDX 52 46 53 47 54 48 55 49 56 50 79 51 80 52 88 53 81 54 87 55
REMARK SMILES IDX 82 56 83 57 84 58 85 59 86 60 65 61 66 62 74 63 67 64 73 65
REMARK SMILES IDX 68 66 69 67 70 68 71 69 72 70 9 71 10 72 11 73 12 74 13 75
REMARK SMILES IDX 14 76 15 77 16 78 17 79 18 80 19 81 20 82 21 83 28 84 22 85
REMARK SMILES IDX 23 86 27 87 24 89 26 90 25 91 29 92 30 94 31 95 39 96 32 97
REMARK SMILES IDX 34 98 38 99 33 100 35 101 37 102 36 103
REMARK H PARENT 93 26 63 37 22 88 29 93
REMARK Flexibility Score: inf
ROOT
ATOM      1  C   UNL A   1      32.210  29.596  27.000  1.00  0.00     0.188 C 
ENDROOT
BRANCH   1   2
ATOM      2  C   UNL A   1      33.610  30.116  27.250  1.00  0.00     0.188 C 
BRANCH   2   3
ATOM      3  O   UNL A   1      33.502  31.516  27.382  1.00  0.00    -0.376 OA
BRANCH   3   4
ATOM      4  C   UNL A   1      32.287  32.181  27.127  1.00  0.00     0.202 C 
BRANCH   4   5
ATOM      5  C   UNL A   1      32.271  33.687  27.324  1.00  0.00     0.261 C 
BRANCH   5   6
ATOM      6  O   UNL A   1      33.338  34.259  28.108  1.00  0.00    -0.460 OA
BRANCH   6   7
ATOM      7  C   UNL A   1      33.544  34.378  29.438  1.00  0.00     0.338 C 
ATOM      8  O   UNL A   1      32.679  34.931  30.118  1.00  0.00    -0.246 OA
BRANCH   7   9
ATOM      9  C   UNL A   1      34.756  33.887  30.139  1.00  0.00     0.060 A 
ATOM     10  C   UNL A   1      36.049  34.260  29.803  1.00  0.00     0.016 A 
ATOM     11  C   UNL A   1      34.586  33.153  31.319  1.00  0.00     0.016 A 
ATOM     12  C   UNL A   1      37.159  33.811  30.478  1.00  0.00     0.010 A 
ATOM     13  C   UNL A   1      35.694  32.778  32.086  1.00  0.00     0.010 A 
ATOM     14  C   UNL A   1      36.986  33.091  31.642  1.00  0.00    -0.014 A 
BRANCH  14  15
ATOM     15  C   UNL A   1      38.201  32.598  32.293  1.00  0.00     0.031 A 
ATOM     16  C   UNL A   1      38.935  31.494  31.609  1.00  0.00     0.074 A 
ATOM     17  C   UNL A   1      38.690  33.241  33.370  1.00  0.00     0.049 A 
ATOM     18  N   UNL A   1      39.938  30.790  32.039  1.00  0.00    -0.248 NA
ATOM     19  C   UNL A   1      38.481  31.140  30.250  1.00  0.00     0.031 C 
ATOM     20  C   UNL A   1      38.125  34.461  33.966  1.00  0.00     0.029 A 
ATOM     21  N   UNL A   1      39.787  32.979  34.143  1.00  0.00    -0.354 N 
ATOM     22  C   UNL A   1      40.187  29.861  31.040  1.00  0.00     0.074 A 
ATOM     23  C   UNL A   1      39.261  30.111  29.963  1.00  0.00     0.031 C 
ATOM     24  C   UNL A   1      38.880  34.834  35.010  1.00  0.00     0.029 A 
ATOM     25  C   UNL A   1      39.909  33.826  35.220  1.00  0.00     0.049 A 
ATOM     26  H   UNL A   1      40.426  32.255  33.949  1.00  0.00     0.167 HD
ATOM     27  C   UNL A   1      41.095  28.864  31.062  1.00  0.00     0.031 A 
ATOM     28  C   UNL A   1      40.715  33.734  36.294  1.00  0.00     0.031 A 
ATOM     29  C   UNL A   1      41.991  28.670  32.165  1.00  0.00     0.049 A 
ATOM     30  C   UNL A   1      41.634  32.543  36.350  1.00  0.00     0.074 A 
ATOM     31  C   UNL A   1      42.930  27.677  32.351  1.00  0.00     0.029 A 
ATOM     32  N   UNL A   1      42.043  29.498  33.281  1.00  0.00    -0.354 N 
ATOM     33  N   UNL A   1      41.834  31.618  35.437  1.00  0.00    -0.248 NA
ATOM     34  C   UNL A   1      42.410  32.357  37.579  1.00  0.00     0.031 C 
ATOM     35  C   UNL A   1      43.502  27.865  33.612  1.00  0.00     0.029 A 
ATOM     36  C   UNL A   1      42.967  29.014  34.182  1.00  0.00     0.049 A 
ATOM     37  H   UNL A   1      41.501  30.309  33.408  1.00  0.00     0.167 HD
ATOM     38  C   UNL A   1      42.761  30.742  35.980  1.00  0.00     0.074 A 
ATOM     39  C   UNL A   1      43.107  31.268  37.288  1.00  0.00     0.031 C 
ATOM     40  C   UNL A   1      43.274  29.597  35.464  1.00  0.00     0.031 A 
BRANCH  27  41
ATOM     41  C   UNL A   1      41.064  27.869  29.941  1.00  0.00    -0.014 A 
ATOM     42  C   UNL A   1      42.228  27.463  29.266  1.00  0.00     0.010 A 
ATOM     43  C   UNL A   1      39.824  27.321  29.563  1.00  0.00     0.010 A 
ATOM     44  C   UNL A   1      42.149  26.532  28.226  1.00  0.00     0.020 A 
ATOM     45  C   UNL A   1      39.743  26.375  28.540  1.00  0.00     0.020 A 
ATOM     46  C   UNL A   1      40.906  25.989  27.875  1.00  0.00     0.054 A 
BRANCH  46  47
ATOM     47  S   UNL A   1      40.849  24.732  26.569  1.00  0.00     0.124 S 
ATOM     48  O   UNL A   1      42.056  23.954  26.846  1.00  0.00    -0.237 OA
ATOM     49  O   UNL A   1      39.590  24.058  26.827  1.00  0.00    -0.237 OA
ATOM     50  O   UNL A   1      40.894  25.520  25.331  1.00  0.00    -0.744 OA
ENDBRANCH  46  47
ENDBRANCH  27  41
BRANCH  28  51
ATOM     51  C   UNL A   1      40.585  34.684  37.437  1.00  0.00    -0.014 A 
ATOM     52  C   UNL A   1      39.519  34.592  38.347  1.00  0.00     0.010 A 
ATOM     53  C   UNL A   1      41.518  35.729  37.595  1.00  0.00     0.010 A 
ATOM     54  C   UNL A   1      39.366  35.545  39.363  1.00  0.00     0.020 A 
ATOM     55  C   UNL A   1      41.391  36.661  38.628  1.00  0.00     0.020 A 
ATOM     56  C   UNL A   1      40.300  36.577  39.491  1.00  0.00     0.054 A 
BRANCH  56  57
ATOM     57  S   UNL A   1      40.075  37.810  40.804  1.00  0.00     0.124 S 
ATOM     58  O   UNL A   1      40.871  38.928  40.308  1.00  0.00    -0.237 OA
ATOM     59  O   UNL A   1      38.629  38.011  40.805  1.00  0.00    -0.237 OA
ATOM     60  O   UNL A   1      40.605  37.144  41.993  1.00  0.00    -0.744 OA
ENDBRANCH  56  57
ENDBRANCH  28  51
BRANCH  40  61
ATOM     61  C   UNL A   1      44.272  28.863  36.308  1.00  0.00    -0.014 A 
ATOM     62  C   UNL A   1      43.866  27.812  37.147  1.00  0.00     0.010 A 
ATOM     63  C   UNL A   1      45.639  29.159  36.168  1.00  0.00     0.010 A 
ATOM     64  C   UNL A   1      44.819  27.069  37.842  1.00  0.00     0.020 A 
ATOM     65  C   UNL A   1      46.594  28.397  36.836  1.00  0.00     0.020 A 
ATOM     66  C   UNL A   1      46.177  27.360  37.673  1.00  0.00     0.054 A 
BRANCH  66  67
ATOM     67  S   UNL A   1      47.395  26.318  38.515  1.00  0.00     0.124 S 
ATOM     68  O   UNL A   1      47.415  25.129  37.668  1.00  0.00    -0.237 OA
ATOM     69  O   UNL A   1      48.602  27.141  38.473  1.00  0.00    -0.237 OA
ATOM     70  O   UNL A   1      46.825  26.127  39.847  1.00  0.00    -0.744 OA
ENDBRANCH  66  67
ENDBRANCH  40  61
ENDBRANCH  14  15
ENDBRANCH   7   9
ENDBRANCH   6   7
ENDBRANCH   5   6
ENDBRANCH   4   5
ENDBRANCH   3   4
ENDBRANCH   2   3
ENDBRANCH   1   2
BRANCH   1  71
ATOM     71  O   UNL A   1      31.952  29.289  25.633  1.00  0.00    -0.377 OA
BRANCH  71  72
ATOM     72  C   UNL A   1      32.943  28.658  24.832  1.00  0.00     0.188 C 
BRANCH  72  73
ATOM     73  C   UNL A   1      32.568  27.428  23.996  1.00  0.00     0.188 C 
BRANCH  73  74
ATOM     74  O   UNL A   1      31.185  27.231  23.819  1.00  0.00    -0.376 OA
BRANCH  74  75
ATOM     75  C   UNL A   1      30.580  26.070  24.386  1.00  0.00     0.202 C 
BRANCH  75  76
ATOM     76  C   UNL A   1      30.622  25.742  25.897  1.00  0.00     0.261 C 
BRANCH  76  77
ATOM     77  O   UNL A   1      29.697  24.737  26.370  1.00  0.00    -0.462 OA
BRANCH  77  78
ATOM     78  C   UNL A   1      30.255  23.628  26.917  1.00  0.00     0.329 C 
ATOM     79  O   UNL A   1      29.668  22.947  27.761  1.00  0.00    -0.250 OA
BRANCH  78  80
ATOM     80  C   UNL A   1      31.641  23.157  26.379  1.00  0.00     0.195 C 
BRANCH  80  81
ATOM     81  C   UNL A   1      33.044  23.501  26.910  1.00  0.00     0.074 C 
BRANCH  81  82
ATOM     82  C   UNL A   1      34.268  22.735  26.543  1.00  0.00    -0.020 A 
ATOM     83  C   UNL A   1      34.989  21.818  27.274  1.00  0.00     0.087 A 
ATOM     84  C   UNL A   1      34.944  22.878  25.275  1.00  0.00     0.003 A 
ATOM     85  N   UNL A   1      36.076  21.438  26.531  1.00  0.00    -0.361 N 
ATOM     86  C   UNL A   1      36.063  22.052  25.301  1.00  0.00     0.046 A 
ATOM     87  C   UNL A   1      34.714  23.661  24.120  1.00  0.00     0.010 A 
ATOM     88  H   UNL A   1      36.771  20.810  26.836  1.00  0.00     0.166 HD
ATOM     89  C   UNL A   1      36.958  21.955  24.227  1.00  0.00     0.026 A 
ATOM     90  C   UNL A   1      35.595  23.574  23.035  1.00  0.00     0.001 A 
ATOM     91  C   UNL A   1      36.699  22.729  23.090  1.00  0.00     0.002 A 
ENDBRANCH  81  82
ENDBRANCH  80  81
BRANCH  80  92
ATOM     92  N   UNL A   1      31.604  21.706  26.121  1.00  0.00    -0.356 N 
ATOM     93  H   UNL A   1      31.398  21.095  26.865  1.00  0.00     0.163 HD
BRANCH  92  94
ATOM     94  C   UNL A   1      31.848  21.174  24.872  1.00  0.00     0.137 A 
ATOM     95  N   UNL A   1      31.559  22.057  23.903  1.00  0.00    -0.219 NA
ATOM     96  C   UNL A   1      32.293  19.857  24.593  1.00  0.00     0.043 A 
ATOM     97  C   UNL A   1      31.766  21.660  22.648  1.00  0.00     0.224 A 
ATOM     98  C   UNL A   1      32.424  19.565  23.226  1.00  0.00     0.076 A 
ATOM     99  C   UNL A   1      32.579  18.812  25.523  1.00  0.00     0.014 A 
ATOM    100  N   UNL A   1      32.175  20.450  22.259  1.00  0.00    -0.236 NA
ATOM    101  C   UNL A   1      32.817  18.289  22.836  1.00  0.00     0.029 A 
ATOM    102  C   UNL A   1      32.998  17.547  25.111  1.00  0.00     0.001 A 
ATOM    103  C   UNL A   1      33.108  17.282  23.757  1.00  0.00     0.002 A 
ENDBRANCH  92  94
ENDBRANCH  80  92
ENDBRANCH  78  80
ENDBRANCH  77  78
ENDBRANCH  76  77
ENDBRANCH  75  76
ENDBRANCH  74  75
ENDBRANCH  73  74
ENDBRANCH  72  73
ENDBRANCH  71  72
ENDBRANCH   1  71
TORSDOF 27
ENDMDL
MODEL 2
REMARK VINA RESULT:      -9.5      1.729      2.478
REMARK SMILES O=C(OCCOCCOCCOCCOC(=O)[C@@H](Cc1c[nH]c2ccccc12)Nc1ncnc2ccccc12)c1ccc(-c2c3nc(c(-c4ccc(S(=O)(=O)[O-])cc4)c4ccc([nH]4)c(-c4ccc(S(=O)(=O)[O-])cc4)c4nc(c(-c5ccc(S(=O)(=O)[O-])cc5)c5ccc2[nH]5)C=C4)C=C3)cc1
REMARK SMILES IDX 8 1 7 2 6 3 5 4 4 5 3 6 2 7 1 8 40 9 41 10 99 11 42 12 98 13
REMARK SMILES IDX 43 14 44 15 45 16 92 17 46 18 97 19 91 20 93 21 47 22 96 23
REMARK SMILES IDX 90 24 89 25 48 27 78 28 59 29 77 30 60 31 63 32 76 33 94 34
REMARK SMILES IDX 61 35 62 36 75 38 95 39 64 40 49 41 50 42 58 43 51 44 57 45
REMARK SMILES IDX 52 46 53 47 54 48 55 49 56 50 79 51 80 52 88 53 81 54 87 55
REMARK SMILES IDX 82 56 83 57 84 58 85 59 86 60 65 61 66 62 74 63 67 64 73 65
REMARK SMILES IDX 68 66 69 67 70 68 71 69 72 70 9 71 10 72 11 73 12 74 13 75
REMARK SMILES IDX 14 76 15 77 16 78 17 79 18 80 19 81 20 82 21 83 28 84 22 85
REMARK SMILES IDX 23 86 27 87 24 89 26 90 25 91 29 92 30 94 31 95 39 96 32 97
REMARK SMILES IDX 34 98 38 99 33 100 35 101 37 102 36 103
REMARK H PARENT 93 26 63 37 22 88 29 93
REMARK Flexibility Score: inf
ROOT
ATOM      1  C   UNL A   1      32.144  29.175  26.907  1.00  0.00     0.188 C 
ENDROOT
BRANCH   1   2
ATOM      2  C   UNL A   1      33.483  29.729  27.346  1.00  0.00     0.188 C 
BRANCH   2   3
ATOM      3  O   UNL A   1      33.388  31.133  27.255  1.00  0.00    -0.376 OA
BRANCH   3   4
ATOM      4  C   UNL A   1      32.187  31.758  26.869  1.00  0.00     0.202 C 
BRANCH   4   5
ATOM      5  C   UNL A   1      32.050  33.238  27.182  1.00  0.00     0.261 C 
BRANCH   5   6
ATOM      6  O   UNL A   1      33.175  33.883  27.816  1.00  0.00    -0.460 OA
BRANCH   6   7
ATOM      7  C   UNL A   1      33.455  34.197  29.099  1.00  0.00     0.338 C 
ATOM      8  O   UNL A   1      32.656  34.898  29.721  1.00  0.00    -0.246 OA
BRANCH   7   9
ATOM      9  C   UNL A   1      34.677  33.753  29.815  1.00  0.00     0.060 A 
ATOM     10  C   UNL A   1      34.696  32.733  30.755  1.00  0.00     0.016 A 
ATOM     11  C   UNL A   1      35.912  34.259  29.393  1.00  0.00     0.016 A 
ATOM     12  C   UNL A   1      35.842  32.322  31.393  1.00  0.00     0.010 A 
ATOM     13  C   UNL A   1      37.102  33.778  29.948  1.00  0.00     0.010 A 
ATOM     14  C   UNL A   1      37.056  32.821  30.972  1.00  0.00    -0.014 A 
BRANCH  14  15
ATOM     15  C   UNL A   1      38.238  32.385  31.718  1.00  0.00     0.031 A 
ATOM     16  C   UNL A   1      39.133  31.397  31.050  1.00  0.00     0.074 A 
ATOM     17  C   UNL A   1      38.556  32.990  32.878  1.00  0.00     0.049 A 
ATOM     18  N   UNL A   1      40.147  30.750  31.541  1.00  0.00    -0.248 NA
ATOM     19  C   UNL A   1      38.853  31.104  29.630  1.00  0.00     0.031 C 
ATOM     20  C   UNL A   1      37.825  34.113  33.483  1.00  0.00     0.029 A 
ATOM     21  N   UNL A   1      39.588  32.766  33.747  1.00  0.00    -0.354 N 
ATOM     22  C   UNL A   1      40.578  29.918  30.519  1.00  0.00     0.074 A 
ATOM     23  C   UNL A   1      39.747  30.165  29.366  1.00  0.00     0.031 C 
ATOM     24  C   UNL A   1      38.434  34.474  34.623  1.00  0.00     0.029 A 
ATOM     25  C   UNL A   1      39.523  33.543  34.880  1.00  0.00     0.049 A 
ATOM     26  H   UNL A   1      40.305  32.113  33.577  1.00  0.00     0.167 HD
ATOM     27  C   UNL A   1      41.566  29.001  30.577  1.00  0.00     0.031 A 
ATOM     28  C   UNL A   1      40.221  33.443  36.027  1.00  0.00     0.031 A 
ATOM     29  C   UNL A   1      42.359  28.805  31.756  1.00  0.00     0.049 A 
ATOM     30  C   UNL A   1      41.233  32.331  36.108  1.00  0.00     0.074 A 
ATOM     31  C   UNL A   1      43.360  27.883  31.979  1.00  0.00     0.029 A 
ATOM     32  N   UNL A   1      42.223  29.554  32.919  1.00  0.00    -0.354 N 
ATOM     33  N   UNL A   1      41.606  31.492  35.166  1.00  0.00    -0.248 NA
ATOM     34  C   UNL A   1      41.894  32.124  37.399  1.00  0.00     0.031 C 
ATOM     35  C   UNL A   1      43.782  28.028  33.304  1.00  0.00     0.029 A 
ATOM     36  C   UNL A   1      43.091  29.086  33.883  1.00  0.00     0.049 A 
ATOM     37  H   UNL A   1      41.600  30.306  33.037  1.00  0.00     0.167 HD
ATOM     38  C   UNL A   1      42.549  30.660  35.751  1.00  0.00     0.074 A 
ATOM     39  C   UNL A   1      42.712  31.119  37.118  1.00  0.00     0.031 C 
ATOM     40  C   UNL A   1      43.212  29.601  35.224  1.00  0.00     0.031 A 
BRANCH  27  41
ATOM     41  C   UNL A   1      41.738  28.088  29.400  1.00  0.00    -0.014 A 
ATOM     42  C   UNL A   1      40.812  27.076  29.096  1.00  0.00     0.010 A 
ATOM     43  C   UNL A   1      42.863  28.261  28.573  1.00  0.00     0.010 A 
ATOM     44  C   UNL A   1      41.014  26.247  27.988  1.00  0.00     0.020 A 
ATOM     45  C   UNL A   1      43.057  27.452  27.453  1.00  0.00     0.020 A 
ATOM     46  C   UNL A   1      42.133  26.447  27.170  1.00  0.00     0.054 A 
BRANCH  46  47
ATOM     47  S   UNL A   1      42.328  25.401  25.701  1.00  0.00     0.124 S 
ATOM     48  O   UNL A   1      42.762  24.134  26.288  1.00  0.00    -0.237 OA
ATOM     49  O   UNL A   1      40.997  25.405  25.124  1.00  0.00    -0.237 OA
ATOM     50  O   UNL A   1      43.353  26.099  24.915  1.00  0.00    -0.744 OA
ENDBRANCH  46  47
ENDBRANCH  27  41
BRANCH  28  51
ATOM     51  C   UNL A   1      39.891  34.296  37.205  1.00  0.00    -0.014 A 
ATOM     52  C   UNL A   1      40.419  35.590  37.342  1.00  0.00     0.010 A 
ATOM     53  C   UNL A   1      39.071  33.790  38.234  1.00  0.00     0.010 A 
ATOM     54  C   UNL A   1      40.168  36.343  38.497  1.00  0.00     0.020 A 
ATOM     55  C   UNL A   1      38.786  34.550  39.371  1.00  0.00     0.020 A 
ATOM     56  C   UNL A   1      39.358  35.814  39.506  1.00  0.00     0.054 A 
BRANCH  56  57
ATOM     57  S   UNL A   1      39.057  36.799  41.000  1.00  0.00     0.124 S 
ATOM     58  O   UNL A   1      40.354  36.743  41.665  1.00  0.00    -0.237 OA
ATOM     59  O   UNL A   1      38.680  38.099  40.452  1.00  0.00    -0.237 OA
ATOM     60  O   UNL A   1      37.978  36.078  41.673  1.00  0.00    -0.744 OA
ENDBRANCH  56  57
ENDBRANCH  28  51
BRANCH  40  61
ATOM     61  C   UNL A   1      44.182  28.895  36.123  1.00  0.00    -0.014 A 
ATOM     62  C   UNL A   1      43.766  27.813  36.916  1.00  0.00     0.010 A 
ATOM     63  C   UNL A   1      45.541  29.251  36.082  1.00  0.00     0.010 A 
ATOM     64  C   UNL A   1      44.700  27.099  37.664  1.00  0.00     0.020 A 
ATOM     65  C   UNL A   1      46.481  28.518  36.802  1.00  0.00     0.020 A 
ATOM     66  C   UNL A   1      46.053  27.449  37.593  1.00  0.00     0.054 A 
BRANCH  66  67
ATOM     67  S   UNL A   1      47.256  26.445  38.501  1.00  0.00     0.124 S 
ATOM     68  O   UNL A   1      46.391  25.533  39.243  1.00  0.00    -0.237 OA
ATOM     69  O   UNL A   1      48.038  25.838  37.427  1.00  0.00    -0.237 OA
ATOM     70  O   UNL A   1      47.978  27.422  39.314  1.00  0.00    -0.744 OA
ENDBRANCH  66  67
ENDBRANCH  40  61
ENDBRANCH  14  15
ENDBRANCH   7   9
ENDBRANCH   6   7
ENDBRANCH   5   6
ENDBRANCH   4   5
ENDBRANCH   3   4
ENDBRANCH   2   3
ENDBRANCH   1   2
BRANCH   1  71
ATOM     71  O   UNL A   1      32.207  28.419  25.701  1.00  0.00    -0.377 OA
BRANCH  71  72
ATOM     72  C   UNL A   1      33.382  28.427  24.902  1.00  0.00     0.188 C 
BRANCH  72  73
ATOM     73  C   UNL A   1      33.692  27.223  24.002  1.00  0.00     0.188 C 
BRANCH  73  74
ATOM     74  O   UNL A   1      32.694  26.230  23.977  1.00  0.00    -0.376 OA
BRANCH  74  75
ATOM     75  C   UNL A   1      32.976  24.959  24.562  1.00  0.00     0.202 C 
BRANCH  75  76
ATOM     76  C   UNL A   1      33.869  24.780  25.812  1.00  0.00     0.261 C 
BRANCH  76  77
ATOM     77  O   UNL A   1      33.798  23.502  26.484  1.00  0.00    -0.462 OA
BRANCH  77  78
ATOM     78  C   UNL A   1      34.909  22.727  26.403  1.00  0.00     0.329 C 
ATOM     79  O   UNL A   1      35.263  21.991  27.327  1.00  0.00    -0.250 OA
BRANCH  78  80
ATOM     80  C   UNL A   1      35.695  22.702  25.057  1.00  0.00     0.195 C 
BRANCH  80  81
ATOM     81  C   UNL A   1      37.178  22.365  24.818  1.00  0.00     0.074 C 
BRANCH  81  82
ATOM     82  C   UNL A   1      38.238  22.571  25.843  1.00  0.00    -0.020 A 
ATOM     83  C   UNL A   1      38.508  23.669  26.628  1.00  0.00     0.087 A 
ATOM     84  C   UNL A   1      39.234  21.576  26.167  1.00  0.00     0.003 A 
ATOM     85  N   UNL A   1      39.629  23.402  27.370  1.00  0.00    -0.361 N 
ATOM     86  C   UNL A   1      40.081  22.126  27.124  1.00  0.00     0.046 A 
ATOM     87  C   UNL A   1      39.504  20.267  25.705  1.00  0.00     0.010 A 
ATOM     88  H   UNL A   1      40.052  24.035  27.994  1.00  0.00     0.166 HD
ATOM     89  C   UNL A   1      41.175  21.431  27.656  1.00  0.00     0.026 A 
ATOM     90  C   UNL A   1      40.589  19.555  26.229  1.00  0.00     0.001 A 
ATOM     91  C   UNL A   1      41.410  20.131  27.195  1.00  0.00     0.002 A 
ENDBRANCH  81  82
ENDBRANCH  80  81
BRANCH  80  92
ATOM     92  N   UNL A   1      34.905  21.991  24.035  1.00  0.00    -0.356 N 
ATOM     93  H   UNL A   1      35.008  22.248  23.090  1.00  0.00     0.163 HD
BRANCH  92  94
ATOM     94  C   UNL A   1      34.026  20.978  24.357  1.00  0.00     0.137 A 
ATOM     95  N   UNL A   1      32.773  21.444  24.484  1.00  0.00    -0.219 NA
ATOM     96  C   UNL A   1      34.359  19.619  24.585  1.00  0.00     0.043 A 
ATOM     97  C   UNL A   1      31.829  20.552  24.782  1.00  0.00     0.224 A 
ATOM     98  C   UNL A   1      33.269  18.805  24.935  1.00  0.00     0.076 A 
ATOM     99  C   UNL A   1      35.650  19.012  24.537  1.00  0.00     0.014 A 
ATOM    100  N   UNL A   1      32.017  19.254  25.026  1.00  0.00    -0.236 NA
ATOM    101  C   UNL A   1      33.488  17.461  25.220  1.00  0.00     0.029 A 
ATOM    102  C   UNL A   1      35.842  17.656  24.800  1.00  0.00     0.001 A 
ATOM    103  C   UNL A   1      34.753  16.878  25.153  1.00  0.00     0.002 A 
ENDBRANCH  92  94
ENDBRANCH  80  92
ENDBRANCH  78  80
ENDBRANCH  77  78
ENDBRANCH  76  77
ENDBRANCH  75  76
ENDBRANCH  74  75
ENDBRANCH  73  74
ENDBRANCH  72  73
ENDBRANCH  71  72
ENDBRANCH   1  71
TORSDOF 27
ENDMDL
MODEL 3
REMARK VINA RESULT:      -8.5      8.960     16.539
REMARK SMILES O=C(OCCOCCOCCOCCOC(=O)[C@@H](Cc1c[nH]c2ccccc12)Nc1ncnc2ccccc12)c1ccc(-c2c3nc(c(-c4ccc(S(=O)(=O)[O-])cc4)c4ccc([nH]4)c(-c4ccc(S(=O)(=O)[O-])cc4)c4nc(c(-c5ccc(S(=O)(=O)[O-])cc5)c5ccc2[nH]5)C=C4)C=C3)cc1
REMARK SMILES IDX 8 1 7 2 6 3 5 4 4 5 3 6 2 7 1 8 40 9 41 10 99 11 42 12 98 13
REMARK SMILES IDX 43 14 44 15 45 16 92 17 46 18 97 19 91 20 93 21 47 22 96 23
REMARK SMILES IDX 90 24 89 25 48 27 78 28 59 29 77 30 60 31 63 32 76 33 94 34
REMARK SMILES IDX 61 35 62 36 75 38 95 39 64 40 49 41 50 42 58 43 51 44 57 45
REMARK SMILES IDX 52 46 53 47 54 48 55 49 56 50 79 51 80 52 88 53 81 54 87 55
REMARK SMILES IDX 82 56 83 57 84 58 85 59 86 60 65 61 66 62 74 63 67 64 73 65
REMARK SMILES IDX 68 66 69 67 70 68 71 69 72 70 9 71 10 72 11 73 12 74 13 75
REMARK SMILES IDX 14 76 15 77 16 78 17 79 18 80 19 81 20 82 21 83 28 84 22 85
REMARK SMILES IDX 23 86 27 87 24 89 26 90 25 91 29 92 30 94 31 95 39 96 32 97
REMARK SMILES IDX 34 98 38 99 33 100 35 101 37 102 36 103
REMARK H PARENT 93 26 63 37 22 88 29 93
REMARK Flexibility Score: inf
ROOT
ATOM      1  C   UNL A   1      38.824  33.899  31.491  1.00  0.00     0.188 C 
ENDROOT
BRANCH   1   2
ATOM      2  C   UNL A   1      38.938  32.578  32.221  1.00  0.00     0.188 C 
BRANCH   2   3
ATOM      3  O   UNL A   1      38.006  31.705  31.623  1.00  0.00    -0.376 OA
BRANCH   3   4
ATOM      4  C   UNL A   1      37.576  30.537  32.281  1.00  0.00     0.202 C 
BRANCH   4   5
ATOM      5  C   UNL A   1      36.894  29.479  31.431  1.00  0.00     0.261 C 
BRANCH   5   6
ATOM      6  O   UNL A   1      36.544  29.846  30.080  1.00  0.00    -0.460 OA
BRANCH   6   7
ATOM      7  C   UNL A   1      37.063  29.528  28.875  1.00  0.00     0.338 C 
ATOM      8  O   UNL A   1      36.299  29.433  27.913  1.00  0.00    -0.246 OA
BRANCH   7   9
ATOM      9  C   UNL A   1      38.505  29.279  28.630  1.00  0.00     0.060 A 
ATOM     10  C   UNL A   1      39.382  28.798  29.592  1.00  0.00     0.016 A 
ATOM     11  C   UNL A   1      38.976  29.354  27.314  1.00  0.00     0.016 A 
ATOM     12  C   UNL A   1      40.711  28.554  29.341  1.00  0.00     0.010 A 
ATOM     13  C   UNL A   1      40.296  29.004  27.012  1.00  0.00     0.010 A 
ATOM     14  C   UNL A   1      41.169  28.626  28.042  1.00  0.00    -0.014 A 
BRANCH  14  15
ATOM     15  C   UNL A   1      42.601  28.403  27.839  1.00  0.00     0.031 A 
ATOM     16  C   UNL A   1      43.522  29.502  28.250  1.00  0.00     0.074 A 
ATOM     17  C   UNL A   1      43.040  27.190  27.451  1.00  0.00     0.049 A 
ATOM     18  N   UNL A   1      44.800  29.616  28.047  1.00  0.00    -0.248 NA
ATOM     19  C   UNL A   1      42.922  30.623  29.000  1.00  0.00     0.031 C 
ATOM     20  C   UNL A   1      42.195  26.007  27.232  1.00  0.00     0.029 A 
ATOM     21  N   UNL A   1      44.306  26.740  27.195  1.00  0.00    -0.354 N 
ATOM     22  C   UNL A   1      45.144  30.853  28.573  1.00  0.00     0.074 A 
ATOM     23  C   UNL A   1      43.955  31.438  29.142  1.00  0.00     0.031 C 
ATOM     24  C   UNL A   1      42.970  24.972  26.872  1.00  0.00     0.029 A 
ATOM     25  C   UNL A   1      44.339  25.445  26.732  1.00  0.00     0.049 A 
ATOM     26  H   UNL A   1      45.112  27.289  27.328  1.00  0.00     0.167 HD
ATOM     27  C   UNL A   1      46.355  31.445  28.536  1.00  0.00     0.031 A 
ATOM     28  C   UNL A   1      45.357  24.760  26.179  1.00  0.00     0.031 A 
ATOM     29  C   UNL A   1      47.501  30.807  27.956  1.00  0.00     0.049 A 
ATOM     30  C   UNL A   1      46.667  25.491  26.039  1.00  0.00     0.074 A 
ATOM     31  C   UNL A   1      48.780  31.302  27.803  1.00  0.00     0.029 A 
ATOM     32  N   UNL A   1      47.492  29.523  27.425  1.00  0.00    -0.354 N 
ATOM     33  N   UNL A   1      46.988  26.688  26.477  1.00  0.00    -0.248 NA
ATOM     34  C   UNL A   1      47.737  24.805  25.310  1.00  0.00     0.031 C 
ATOM     35  C   UNL A   1      49.526  30.342  27.115  1.00  0.00     0.029 A 
ATOM     36  C   UNL A   1      48.731  29.223  26.900  1.00  0.00     0.049 A 
ATOM     37  H   UNL A   1      46.716  28.918  27.423  1.00  0.00     0.167 HD
ATOM     38  C   UNL A   1      48.299  26.899  26.079  1.00  0.00     0.074 A 
ATOM     39  C   UNL A   1      48.721  25.690  25.396  1.00  0.00     0.031 C 
ATOM     40  C   UNL A   1      49.087  27.990  26.243  1.00  0.00     0.031 A 
BRANCH  27  41
ATOM     41  C   UNL A   1      46.450  32.864  29.013  1.00  0.00    -0.014 A 
ATOM     42  C   UNL A   1      46.819  33.189  30.329  1.00  0.00     0.010 A 
ATOM     43  C   UNL A   1      46.167  33.899  28.102  1.00  0.00     0.010 A 
ATOM     44  C   UNL A   1      46.893  34.527  30.728  1.00  0.00     0.020 A 
ATOM     45  C   UNL A   1      46.262  35.236  28.490  1.00  0.00     0.020 A 
ATOM     46  C   UNL A   1      46.621  35.542  29.802  1.00  0.00     0.054 A 
BRANCH  46  47
ATOM     47  S   UNL A   1      46.795  37.267  30.333  1.00  0.00     0.124 S 
ATOM     48  O   UNL A   1      48.225  37.502  30.133  1.00  0.00    -0.237 OA
ATOM     49  O   UNL A   1      45.908  37.973  29.427  1.00  0.00    -0.237 OA
ATOM     50  O   UNL A   1      46.365  37.241  31.736  1.00  0.00    -0.744 OA
ENDBRANCH  46  47
ENDBRANCH  27  41
BRANCH  28  51
ATOM     51  C   UNL A   1      45.146  23.403  25.597  1.00  0.00    -0.014 A 
ATOM     52  C   UNL A   1      45.341  22.241  26.361  1.00  0.00     0.010 A 
ATOM     53  C   UNL A   1      44.787  23.266  24.240  1.00  0.00     0.010 A 
ATOM     54  C   UNL A   1      45.221  20.974  25.774  1.00  0.00     0.020 A 
ATOM     55  C   UNL A   1      44.629  22.006  23.659  1.00  0.00     0.020 A 
ATOM     56  C   UNL A   1      44.873  20.867  24.424  1.00  0.00     0.054 A 
BRANCH  56  57
ATOM     57  S   UNL A   1      44.738  19.218  23.678  1.00  0.00     0.124 S 
ATOM     58  O   UNL A   1      46.043  18.641  23.982  1.00  0.00    -0.237 OA
ATOM     59  O   UNL A   1      43.605  18.638  24.394  1.00  0.00    -0.237 OA
ATOM     60  O   UNL A   1      44.494  19.501  22.265  1.00  0.00    -0.744 OA
ENDBRANCH  56  57
ENDBRANCH  28  51
BRANCH  40  61
ATOM     61  C   UNL A   1      50.480  27.908  25.693  1.00  0.00    -0.014 A 
ATOM     62  C   UNL A   1      50.750  28.281  24.367  1.00  0.00     0.010 A 
ATOM     63  C   UNL A   1      51.538  27.560  26.552  1.00  0.00     0.010 A 
ATOM     64  C   UNL A   1      52.064  28.301  23.903  1.00  0.00     0.020 A 
ATOM     65  C   UNL A   1      52.854  27.612  26.101  1.00  0.00     0.020 A 
ATOM     66  C   UNL A   1      53.108  27.978  24.777  1.00  0.00     0.054 A 
BRANCH  66  67
ATOM     67  S   UNL A   1      54.811  28.105  24.174  1.00  0.00     0.124 S 
ATOM     68  O   UNL A   1      54.959  26.864  23.419  1.00  0.00    -0.237 OA
ATOM     69  O   UNL A   1      54.776  29.328  23.377  1.00  0.00    -0.237 OA
ATOM     70  O   UNL A   1      55.605  28.188  25.399  1.00  0.00    -0.744 OA
ENDBRANCH  66  67
ENDBRANCH  40  61
ENDBRANCH  14  15
ENDBRANCH   7   9
ENDBRANCH   6   7
ENDBRANCH   5   6
ENDBRANCH   4   5
ENDBRANCH   3   4
ENDBRANCH   2   3
ENDBRANCH   1   2
BRANCH   1  71
ATOM     71  O   UNL A   1      39.040  33.795  30.087  1.00  0.00    -0.377 OA
BRANCH  71  72
ATOM     72  C   UNL A   1      40.359  33.800  29.554  1.00  0.00     0.188 C 
BRANCH  72  73
ATOM     73  C   UNL A   1      41.168  35.103  29.552  1.00  0.00     0.188 C 
BRANCH  73  74
ATOM     74  O   UNL A   1      41.337  35.693  28.284  1.00  0.00    -0.376 OA
BRANCH  74  75
ATOM     75  C   UNL A   1      42.629  35.661  27.679  1.00  0.00     0.202 C 
BRANCH  75  76
ATOM     76  C   UNL A   1      43.236  36.859  26.913  1.00  0.00     0.261 C 
BRANCH  76  77
ATOM     77  O   UNL A   1      42.477  38.090  26.923  1.00  0.00    -0.462 OA
BRANCH  77  78
ATOM     78  C   UNL A   1      43.005  39.107  27.649  1.00  0.00     0.329 C 
ATOM     79  O   UNL A   1      42.889  39.165  28.875  1.00  0.00    -0.250 OA
BRANCH  78  80
ATOM     80  C   UNL A   1      43.866  40.174  26.907  1.00  0.00     0.195 C 
BRANCH  80  81
ATOM     81  C   UNL A   1      45.037  39.954  25.933  1.00  0.00     0.074 C 
BRANCH  81  82
ATOM     82  C   UNL A   1      46.346  39.376  26.346  1.00  0.00    -0.020 A 
ATOM     83  C   UNL A   1      46.819  38.087  26.234  1.00  0.00     0.087 A 
ATOM     84  C   UNL A   1      47.381  40.140  27.002  1.00  0.00     0.003 A 
ATOM     85  N   UNL A   1      48.056  38.032  26.820  1.00  0.00    -0.361 N 
ATOM     86  C   UNL A   1      48.433  39.273  27.279  1.00  0.00     0.046 A 
ATOM     87  C   UNL A   1      47.499  41.490  27.409  1.00  0.00     0.010 A 
ATOM     88  H   UNL A   1      48.601  37.216  26.902  1.00  0.00     0.166 HD
ATOM     89  C   UNL A   1      49.603  39.685  27.929  1.00  0.00     0.026 A 
ATOM     90  C   UNL A   1      48.663  41.922  28.055  1.00  0.00     0.001 A 
ATOM     91  C   UNL A   1      49.702  41.029  28.307  1.00  0.00     0.002 A 
ENDBRANCH  81  82
ENDBRANCH  80  81
BRANCH  80  92
ATOM     92  N   UNL A   1      42.986  41.203  26.324  1.00  0.00    -0.356 N 
ATOM     93  H   UNL A   1      42.032  41.207  26.568  1.00  0.00     0.163 HD
BRANCH  92  94
ATOM     94  C   UNL A   1      43.452  42.161  25.448  1.00  0.00     0.137 A 
ATOM     95  N   UNL A   1      43.012  41.934  24.200  1.00  0.00    -0.219 NA
ATOM     96  C   UNL A   1      44.325  43.233  25.763  1.00  0.00     0.043 A 
ATOM     97  C   UNL A   1      43.388  42.804  23.264  1.00  0.00     0.224 A 
ATOM     98  C   UNL A   1      44.672  44.041  24.669  1.00  0.00     0.076 A 
ATOM     99  C   UNL A   1      44.905  43.548  27.029  1.00  0.00     0.014 A 
ATOM    100  N   UNL A   1      44.208  43.844  23.434  1.00  0.00    -0.236 NA
ATOM    101  C   UNL A   1      45.555  45.100  24.856  1.00  0.00     0.029 A 
ATOM    102  C   UNL A   1      45.768  44.631  27.200  1.00  0.00     0.001 A 
ATOM    103  C   UNL A   1      46.102  45.405  26.103  1.00  0.00     0.002 A 
ENDBRANCH  92  94
ENDBRANCH  80  92
ENDBRANCH  78  80
ENDBRANCH  77  78
ENDBRANCH  76  77
ENDBRANCH  75  76
ENDBRANCH  74  75
ENDBRANCH  73  74
ENDBRANCH  72  73
ENDBRANCH  71  72
ENDBRANCH   1  71
TORSDOF 27
ENDMDL
