MODEL 1
REMARK VINA RESULT:      -7.0      0.000      0.000
REMARK SMILES COc1ccc2c(c1)c(CC(=O)OCCOCCOCCOCCOC(=O)c1ccc(-c3c4nc(c(-c5ccc(S(=O)(=O)[O-])cc5)c5ccc([nH]5)c(-c5ccc(S(=O)(=O)[O-])cc5)c5nc(c(-c6ccc(S(=O)(=O)[O-])cc6)c6ccc3[nH]6)C=C5)C=C4)cc1)c(C)n2C(=O)c1ccc(Cl)cc1
REMARK SMILES IDX 19 1 18 2 17 3 16 4 15 5 14 6 13 7 11 8 12 9 10 10 9 11 3 12
REMARK SMILES IDX 4 13 8 14 5 15 7 16 6 17 90 18 88 19 89 20 2 21 1 22 91 23
REMARK SMILES IDX 92 24 93 25 94 26 99 27 95 28 98 29 96 30 97 31 20 32 21 33
REMARK SMILES IDX 22 34 23 35 24 36 25 37 26 38 27 39 28 40 29 41 87 42 30 43
REMARK SMILES IDX 86 44 31 45 32 46 33 47 80 48 34 49 85 50 79 51 81 52 35 53
REMARK SMILES IDX 84 54 78 55 77 56 36 58 66 59 47 60 65 61 48 62 51 63 64 64
REMARK SMILES IDX 82 65 49 66 50 67 63 69 83 70 52 71 37 72 38 73 46 74 39 75
REMARK SMILES IDX 45 76 40 77 41 78 42 79 43 80 44 81 67 82 68 83 76 84 69 85
REMARK SMILES IDX 75 86 70 87 71 88 72 89 73 90 74 91 53 92 54 93 62 94 55 95
REMARK SMILES IDX 61 96 56 97 57 98 58 99 59 100 60 101
REMARK H PARENT 81 57 51 68
REMARK Flexibility Score: inf
ROOT
ATOM      1  O   UNL A   1      44.101  21.805  24.186  1.00  0.00    -0.377 OA
ENDROOT
BRANCH   1   2
ATOM      2  C   UNL A   1      44.818  20.860  24.944  1.00  0.00     0.188 C 
BRANCH   2   3
ATOM      3  C   UNL A   1      44.422  19.390  24.918  1.00  0.00     0.188 C 
BRANCH   3   4
ATOM      4  O   UNL A   1      43.015  19.228  24.967  1.00  0.00    -0.376 OA
BRANCH   4   5
ATOM      5  C   UNL A   1      42.372  19.506  26.203  1.00  0.00     0.202 C 
BRANCH   5   6
ATOM      6  C   UNL A   1      41.221  20.536  26.279  1.00  0.00     0.261 C 
BRANCH   6   7
ATOM      7  O   UNL A   1      41.406  21.896  25.834  1.00  0.00    -0.463 OA
BRANCH   7   8
ATOM      8  C   UNL A   1      40.826  22.896  26.537  1.00  0.00     0.310 C 
ATOM      9  O   UNL A   1      39.783  22.766  27.173  1.00  0.00    -0.252 OA
BRANCH   8  10
ATOM     10  C   UNL A   1      41.577  24.223  26.487  1.00  0.00     0.160 C 
BRANCH  10  11
ATOM     11  C   UNL A   1      42.174  24.814  27.762  1.00  0.00    -0.008 A 
ATOM     12  C   UNL A   1      40.632  28.115  28.988  1.00  0.00     0.119 A 
ATOM     13  C   UNL A   1      41.412  28.241  30.120  1.00  0.00     0.048 A 
ATOM     14  C   UNL A   1      40.912  27.095  28.065  1.00  0.00     0.057 A 
ATOM     15  C   UNL A   1      42.418  27.313  30.388  1.00  0.00     0.031 A 
ATOM     16  C   UNL A   1      41.847  26.071  28.374  1.00  0.00     0.008 A 
ATOM     17  C   UNL A   1      42.614  26.200  29.539  1.00  0.00     0.057 A 
ATOM     18  N   UNL A   1      43.507  25.112  29.600  1.00  0.00    -0.280 N 
ATOM     19  C   UNL A   1      43.219  24.272  28.510  1.00  0.00     0.028 A 
ATOM     20  C   UNL A   1      43.918  22.978  28.215  1.00  0.00     0.065 C 
BRANCH  12  21
ATOM     21  O   UNL A   1      39.553  28.909  28.704  1.00  0.00    -0.497 OA
ATOM     22  C   UNL A   1      39.380  29.248  27.327  1.00  0.00     0.278 C 
ENDBRANCH  12  21
BRANCH  18  23
ATOM     23  C   UNL A   1      44.533  24.938  30.582  1.00  0.00     0.262 C 
ATOM     24  O   UNL A   1      44.415  24.079  31.453  1.00  0.00    -0.268 OA
BRANCH  23  25
ATOM     25  C   UNL A   1      45.808  25.677  30.627  1.00  0.00     0.040 A 
ATOM     26  C   UNL A   1      46.626  25.602  31.760  1.00  0.00     0.015 A 
ATOM     27  C   UNL A   1      46.177  26.465  29.529  1.00  0.00     0.015 A 
ATOM     28  C   UNL A   1      47.790  26.375  31.817  1.00  0.00     0.021 A 
ATOM     29  C   UNL A   1      47.343  27.232  29.592  1.00  0.00     0.021 A 
ATOM     30  C   UNL A   1      48.136  27.194  30.740  1.00  0.00     0.041 A 
ATOM     31  Cl  UNL A   1      49.543  28.182  30.833  1.00  0.00    -0.084 Cl
ENDBRANCH  23  25
ENDBRANCH  18  23
ENDBRANCH  10  11
ENDBRANCH   8  10
ENDBRANCH   7   8
ENDBRANCH   6   7
ENDBRANCH   5   6
ENDBRANCH   4   5
ENDBRANCH   3   4
ENDBRANCH   2   3
ENDBRANCH   1   2
BRANCH   1  32
ATOM     32  C   UNL A   1      44.657  23.092  24.082  1.00  0.00     0.188 C 
BRANCH  32  33
ATOM     33  C   UNL A   1      45.891  23.257  24.979  1.00  0.00     0.188 C 
BRANCH  33  34
ATOM     34  O   UNL A   1      45.956  24.303  25.963  1.00  0.00    -0.376 OA
BRANCH  34  35
ATOM     35  C   UNL A   1      45.937  25.661  25.543  1.00  0.00     0.202 C 
BRANCH  35  36
ATOM     36  C   UNL A   1      47.266  26.401  25.789  1.00  0.00     0.261 C 
BRANCH  36  37
ATOM     37  O   UNL A   1      47.094  27.696  26.384  1.00  0.00    -0.460 OA
BRANCH  37  38
ATOM     38  C   UNL A   1      46.507  28.664  25.626  1.00  0.00     0.338 C 
ATOM     39  O   UNL A   1      46.414  28.702  24.423  1.00  0.00    -0.246 OA
BRANCH  38  40
ATOM     40  C   UNL A   1      45.740  29.518  26.570  1.00  0.00     0.060 A 
ATOM     41  C   UNL A   1      46.283  30.704  27.070  1.00  0.00     0.016 A 
ATOM     42  C   UNL A   1      44.616  28.938  27.176  1.00  0.00     0.016 A 
ATOM     43  C   UNL A   1      45.805  31.198  28.282  1.00  0.00     0.010 A 
ATOM     44  C   UNL A   1      44.133  29.445  28.385  1.00  0.00     0.010 A 
ATOM     45  C   UNL A   1      44.770  30.536  28.976  1.00  0.00    -0.014 A 
BRANCH  45  46
ATOM     46  C   UNL A   1      44.283  31.182  30.204  1.00  0.00     0.031 A 
ATOM     47  C   UNL A   1      44.565  30.366  31.415  1.00  0.00     0.074 A 
ATOM     48  C   UNL A   1      43.778  32.419  30.397  1.00  0.00     0.049 A 
ATOM     49  N   UNL A   1      43.730  29.828  32.242  1.00  0.00    -0.248 NA
ATOM     50  C   UNL A   1      45.974  30.007  31.635  1.00  0.00     0.031 C 
ATOM     51  C   UNL A   1      43.745  33.555  29.478  1.00  0.00     0.029 A 
ATOM     52  N   UNL A   1      43.267  32.942  31.558  1.00  0.00    -0.354 N 
ATOM     53  C   UNL A   1      44.516  29.162  33.176  1.00  0.00     0.074 A 
ATOM     54  C   UNL A   1      45.867  29.186  32.674  1.00  0.00     0.031 C 
ATOM     55  C   UNL A   1      43.464  34.680  30.181  1.00  0.00     0.029 A 
ATOM     56  C   UNL A   1      43.164  34.325  31.561  1.00  0.00     0.049 A 
ATOM     57  H   UNL A   1      42.998  32.384  32.323  1.00  0.00     0.167 HD
ATOM     58  C   UNL A   1      44.055  28.759  34.389  1.00  0.00     0.031 A 
ATOM     59  C   UNL A   1      42.938  35.116  32.642  1.00  0.00     0.031 A 
ATOM     60  C   UNL A   1      42.623  28.744  34.465  1.00  0.00     0.049 A 
ATOM     61  C   UNL A   1      42.365  34.284  33.729  1.00  0.00     0.074 A 
ATOM     62  C   UNL A   1      41.627  28.065  33.793  1.00  0.00     0.029 A 
ATOM     63  N   UNL A   1      42.001  29.773  35.129  1.00  0.00    -0.354 N 
ATOM     64  N   UNL A   1      41.168  33.769  33.720  1.00  0.00    -0.248 NA
ATOM     65  C   UNL A   1      43.258  33.760  34.749  1.00  0.00     0.031 C 
ATOM     66  C   UNL A   1      40.536  28.975  33.722  1.00  0.00     0.029 A 
ATOM     67  C   UNL A   1      40.916  30.150  34.377  1.00  0.00     0.049 A 
ATOM     68  H   UNL A   1      42.283  30.169  35.985  1.00  0.00     0.167 HD
ATOM     69  C   UNL A   1      41.276  32.596  34.451  1.00  0.00     0.074 A 
ATOM     70  C   UNL A   1      42.542  32.713  35.161  1.00  0.00     0.031 C 
ATOM     71  C   UNL A   1      40.466  31.523  34.205  1.00  0.00     0.031 A 
BRANCH  58  72
ATOM     72  C   UNL A   1      44.948  28.635  35.593  1.00  0.00    -0.014 A 
ATOM     73  C   UNL A   1      46.161  29.348  35.707  1.00  0.00     0.010 A 
ATOM     74  C   UNL A   1      44.492  27.962  36.741  1.00  0.00     0.010 A 
ATOM     75  C   UNL A   1      46.918  29.344  36.876  1.00  0.00     0.020 A 
ATOM     76  C   UNL A   1      45.218  27.999  37.941  1.00  0.00     0.020 A 
ATOM     77  C   UNL A   1      46.435  28.679  37.994  1.00  0.00     0.054 A 
BRANCH  77  78
ATOM     78  S   UNL A   1      47.378  28.818  39.530  1.00  0.00     0.124 S 
ATOM     79  O   UNL A   1      46.803  27.740  40.333  1.00  0.00    -0.237 OA
ATOM     80  O   UNL A   1      48.749  28.602  39.077  1.00  0.00    -0.237 OA
ATOM     81  O   UNL A   1      47.082  30.171  39.992  1.00  0.00    -0.744 OA
ENDBRANCH  77  78
ENDBRANCH  58  72
BRANCH  59  82
ATOM     82  C   UNL A   1      43.497  36.463  32.933  1.00  0.00    -0.014 A 
ATOM     83  C   UNL A   1      42.899  37.272  33.918  1.00  0.00     0.010 A 
ATOM     84  C   UNL A   1      44.393  37.077  32.033  1.00  0.00     0.010 A 
ATOM     85  C   UNL A   1      43.115  38.653  33.954  1.00  0.00     0.020 A 
ATOM     86  C   UNL A   1      44.610  38.466  32.059  1.00  0.00     0.020 A 
ATOM     87  C   UNL A   1      43.937  39.248  32.998  1.00  0.00     0.054 A 
BRANCH  87  88
ATOM     88  S   UNL A   1      44.017  41.062  32.948  1.00  0.00     0.124 S 
ATOM     89  O   UNL A   1      45.038  41.290  31.929  1.00  0.00    -0.237 OA
ATOM     90  O   UNL A   1      42.656  41.426  32.563  1.00  0.00    -0.237 OA
ATOM     91  O   UNL A   1      44.396  41.431  34.309  1.00  0.00    -0.744 OA
ENDBRANCH  87  88
ENDBRANCH  59  82
BRANCH  71  92
ATOM     92  C   UNL A   1      39.183  31.716  33.419  1.00  0.00    -0.014 A 
ATOM     93  C   UNL A   1      39.290  31.988  32.039  1.00  0.00     0.010 A 
ATOM     94  C   UNL A   1      37.909  31.802  34.010  1.00  0.00     0.010 A 
ATOM     95  C   UNL A   1      38.183  32.401  31.291  1.00  0.00     0.020 A 
ATOM     96  C   UNL A   1      36.785  32.153  33.251  1.00  0.00     0.020 A 
ATOM     97  C   UNL A   1      36.938  32.503  31.910  1.00  0.00     0.054 A 
BRANCH  97  98
ATOM     98  S   UNL A   1      35.541  33.154  30.955  1.00  0.00     0.124 S 
ATOM     99  O   UNL A   1      34.435  32.317  31.416  1.00  0.00    -0.237 OA
ATOM    100  O   UNL A   1      35.486  34.553  31.373  1.00  0.00    -0.237 OA
ATOM    101  O   UNL A   1      35.936  32.935  29.566  1.00  0.00    -0.744 OA
ENDBRANCH  97  98
ENDBRANCH  71  92
ENDBRANCH  45  46
ENDBRANCH  38  40
ENDBRANCH  37  38
ENDBRANCH  36  37
ENDBRANCH  35  36
ENDBRANCH  34  35
ENDBRANCH  33  34
ENDBRANCH  32  33
ENDBRANCH   1  32
TORSDOF 27
ENDMDL
MODEL 2
REMARK VINA RESULT:      -6.5      4.642      7.341
REMARK SMILES COc1ccc2c(c1)c(CC(=O)OCCOCCOCCOCCOC(=O)c1ccc(-c3c4nc(c(-c5ccc(S(=O)(=O)[O-])cc5)c5ccc([nH]5)c(-c5ccc(S(=O)(=O)[O-])cc5)c5nc(c(-c6ccc(S(=O)(=O)[O-])cc6)c6ccc3[nH]6)C=C5)C=C4)cc1)c(C)n2C(=O)c1ccc(Cl)cc1
REMARK SMILES IDX 19 1 18 2 17 3 16 4 15 5 14 6 13 7 11 8 12 9 10 10 9 11 3 12
REMARK SMILES IDX 4 13 8 14 5 15 7 16 6 17 90 18 88 19 89 20 2 21 1 22 91 23
REMARK SMILES IDX 92 24 93 25 94 26 99 27 95 28 98 29 96 30 97 31 20 32 21 33
REMARK SMILES IDX 22 34 23 35 24 36 25 37 26 38 27 39 28 40 29 41 87 42 30 43
REMARK SMILES IDX 86 44 31 45 32 46 33 47 80 48 34 49 85 50 79 51 81 52 35 53
REMARK SMILES IDX 84 54 78 55 77 56 36 58 66 59 47 60 65 61 48 62 51 63 64 64
REMARK SMILES IDX 82 65 49 66 50 67 63 69 83 70 52 71 37 72 38 73 46 74 39 75
REMARK SMILES IDX 45 76 40 77 41 78 42 79 43 80 44 81 67 82 68 83 76 84 69 85
REMARK SMILES IDX 75 86 70 87 71 88 72 89 73 90 74 91 53 92 54 93 62 94 55 95
REMARK SMILES IDX 61 96 56 97 57 98 58 99 59 100 60 101
REMARK H PARENT 81 57 51 68
REMARK Flexibility Score: inf
ROOT
ATOM      1  O   UNL A   1      43.792  22.507  24.672  1.00  0.00    -0.377 OA
ENDROOT
BRANCH   1   2
ATOM      2  C   UNL A   1      44.936  21.758  25.007  1.00  0.00     0.188 C 
BRANCH   2   3
ATOM      3  C   UNL A   1      45.050  20.298  24.590  1.00  0.00     0.188 C 
BRANCH   3   4
ATOM      4  O   UNL A   1      43.782  19.669  24.543  1.00  0.00    -0.376 OA
BRANCH   4   5
ATOM      5  C   UNL A   1      43.235  19.217  25.775  1.00  0.00     0.202 C 
BRANCH   5   6
ATOM      6  C   UNL A   1      41.857  19.725  26.259  1.00  0.00     0.261 C 
BRANCH   6   7
ATOM      7  O   UNL A   1      41.439  21.086  26.026  1.00  0.00    -0.463 OA
BRANCH   7   8
ATOM      8  C   UNL A   1      40.856  21.770  27.037  1.00  0.00     0.310 C 
ATOM      9  O   UNL A   1      40.468  21.247  28.079  1.00  0.00    -0.252 OA
BRANCH   8  10
ATOM     10  C   UNL A   1      40.716  23.270  26.789  1.00  0.00     0.160 C 
BRANCH  10  11
ATOM     11  C   UNL A   1      41.418  24.266  27.707  1.00  0.00    -0.008 A 
ATOM     12  C   UNL A   1      39.573  27.578  28.346  1.00  0.00     0.119 A 
ATOM     13  C   UNL A   1      40.508  28.114  29.209  1.00  0.00     0.048 A 
ATOM     14  C   UNL A   1      39.857  26.376  27.679  1.00  0.00     0.057 A 
ATOM     15  C   UNL A   1      41.690  27.425  29.482  1.00  0.00     0.031 A 
ATOM     16  C   UNL A   1      40.994  25.599  28.031  1.00  0.00     0.008 A 
ATOM     17  C   UNL A   1      41.921  26.146  28.927  1.00  0.00     0.057 A 
ATOM     18  N   UNL A   1      42.983  25.233  29.071  1.00  0.00    -0.280 N 
ATOM     19  C   UNL A   1      42.656  24.088  28.324  1.00  0.00     0.028 A 
ATOM     20  C   UNL A   1      43.504  22.853  28.228  1.00  0.00     0.065 C 
BRANCH  12  21
ATOM     21  O   UNL A   1      38.342  28.127  28.108  1.00  0.00    -0.497 OA
ATOM     22  C   UNL A   1      38.067  29.351  28.791  1.00  0.00     0.278 C 
ENDBRANCH  12  21
BRANCH  18  23
ATOM     23  C   UNL A   1      44.182  25.468  29.817  1.00  0.00     0.262 C 
ATOM     24  O   UNL A   1      45.199  25.855  29.245  1.00  0.00    -0.268 OA
BRANCH  23  25
ATOM     25  C   UNL A   1      44.317  25.345  31.280  1.00  0.00     0.040 A 
ATOM     26  C   UNL A   1      44.616  24.105  31.857  1.00  0.00     0.015 A 
ATOM     27  C   UNL A   1      44.128  26.479  32.079  1.00  0.00     0.015 A 
ATOM     28  C   UNL A   1      44.659  23.990  33.250  1.00  0.00     0.021 A 
ATOM     29  C   UNL A   1      44.175  26.358  33.470  1.00  0.00     0.021 A 
ATOM     30  C   UNL A   1      44.426  25.113  34.048  1.00  0.00     0.041 A 
ATOM     31  Cl  UNL A   1      44.431  24.958  35.764  1.00  0.00    -0.084 Cl
ENDBRANCH  23  25
ENDBRANCH  18  23
ENDBRANCH  10  11
ENDBRANCH   8  10
ENDBRANCH   7   8
ENDBRANCH   6   7
ENDBRANCH   5   6
ENDBRANCH   4   5
ENDBRANCH   3   4
ENDBRANCH   2   3
ENDBRANCH   1   2
BRANCH   1  32
ATOM     32  C   UNL A   1      43.954  23.900  24.560  1.00  0.00     0.188 C 
BRANCH  32  33
ATOM     33  C   UNL A   1      45.114  24.413  25.422  1.00  0.00     0.188 C 
BRANCH  33  34
ATOM     34  O   UNL A   1      45.932  25.511  24.985  1.00  0.00    -0.376 OA
BRANCH  34  35
ATOM     35  C   UNL A   1      45.428  26.838  25.075  1.00  0.00     0.202 C 
BRANCH  35  36
ATOM     36  C   UNL A   1      44.216  26.974  26.018  1.00  0.00     0.261 C 
BRANCH  36  37
ATOM     37  O   UNL A   1      44.262  28.152  26.835  1.00  0.00    -0.460 OA
BRANCH  37  38
ATOM     38  C   UNL A   1      43.352  29.134  26.577  1.00  0.00     0.338 C 
ATOM     39  O   UNL A   1      42.173  29.004  26.352  1.00  0.00    -0.246 OA
BRANCH  38  40
ATOM     40  C   UNL A   1      44.022  30.417  26.917  1.00  0.00     0.060 A 
ATOM     41  C   UNL A   1      44.313  30.747  28.243  1.00  0.00     0.016 A 
ATOM     42  C   UNL A   1      44.052  31.397  25.915  1.00  0.00     0.016 A 
ATOM     43  C   UNL A   1      44.452  32.091  28.581  1.00  0.00     0.010 A 
ATOM     44  C   UNL A   1      44.205  32.743  26.259  1.00  0.00     0.010 A 
ATOM     45  C   UNL A   1      44.337  33.099  27.601  1.00  0.00    -0.014 A 
BRANCH  45  46
ATOM     46  C   UNL A   1      44.582  34.480  28.044  1.00  0.00     0.031 A 
ATOM     47  C   UNL A   1      46.027  34.743  28.281  1.00  0.00     0.074 A 
ATOM     48  C   UNL A   1      43.743  35.534  28.116  1.00  0.00     0.049 A 
ATOM     49  N   UNL A   1      46.623  35.063  29.382  1.00  0.00    -0.248 NA
ATOM     50  C   UNL A   1      46.923  34.480  27.144  1.00  0.00     0.031 C 
ATOM     51  C   UNL A   1      42.385  35.669  27.592  1.00  0.00     0.029 A 
ATOM     52  N   UNL A   1      44.011  36.785  28.611  1.00  0.00    -0.354 N 
ATOM     53  C   UNL A   1      47.969  35.171  29.053  1.00  0.00     0.074 A 
ATOM     54  C   UNL A   1      48.110  34.665  27.710  1.00  0.00     0.031 C 
ATOM     55  C   UNL A   1      42.045  36.982  27.586  1.00  0.00     0.029 A 
ATOM     56  C   UNL A   1      43.098  37.756  28.229  1.00  0.00     0.049 A 
ATOM     57  H   UNL A   1      44.786  36.977  29.188  1.00  0.00     0.167 HD
ATOM     58  C   UNL A   1      48.879  35.814  29.831  1.00  0.00     0.031 A 
ATOM     59  C   UNL A   1      43.247  39.100  28.356  1.00  0.00     0.031 A 
ATOM     60  C   UNL A   1      48.413  36.032  31.170  1.00  0.00     0.049 A 
ATOM     61  C   UNL A   1      44.302  39.369  29.363  1.00  0.00     0.074 A 
ATOM     62  C   UNL A   1      48.021  35.207  32.204  1.00  0.00     0.029 A 
ATOM     63  N   UNL A   1      47.982  37.293  31.504  1.00  0.00    -0.354 N 
ATOM     64  N   UNL A   1      44.182  39.154  30.642  1.00  0.00    -0.248 NA
ATOM     65  C   UNL A   1      45.657  39.624  28.902  1.00  0.00     0.031 C 
ATOM     66  C   UNL A   1      46.993  35.919  32.882  1.00  0.00     0.029 A 
ATOM     67  C   UNL A   1      46.832  37.151  32.242  1.00  0.00     0.049 A 
ATOM     68  H   UNL A   1      48.416  38.141  31.259  1.00  0.00     0.167 HD
ATOM     69  C   UNL A   1      45.462  38.850  31.078  1.00  0.00     0.074 A 
ATOM     70  C   UNL A   1      46.337  39.281  29.996  1.00  0.00     0.031 C 
ATOM     71  C   UNL A   1      45.679  38.033  32.152  1.00  0.00     0.031 A 
BRANCH  58  72
ATOM     72  C   UNL A   1      50.105  36.476  29.265  1.00  0.00    -0.014 A 
ATOM     73  C   UNL A   1      50.027  37.516  28.314  1.00  0.00     0.010 A 
ATOM     74  C   UNL A   1      51.368  36.219  29.828  1.00  0.00     0.010 A 
ATOM     75  C   UNL A   1      51.149  38.225  27.893  1.00  0.00     0.020 A 
ATOM     76  C   UNL A   1      52.495  36.966  29.454  1.00  0.00     0.020 A 
ATOM     77  C   UNL A   1      52.378  37.955  28.477  1.00  0.00     0.054 A 
BRANCH  77  78
ATOM     78  S   UNL A   1      53.782  38.993  28.006  1.00  0.00     0.124 S 
ATOM     79  O   UNL A   1      53.477  39.292  26.608  1.00  0.00    -0.237 OA
ATOM     80  O   UNL A   1      53.664  40.117  28.929  1.00  0.00    -0.237 OA
ATOM     81  O   UNL A   1      54.936  38.126  28.225  1.00  0.00    -0.744 OA
ENDBRANCH  77  78
ENDBRANCH  58  72
BRANCH  59  82
ATOM     82  C   UNL A   1      42.795  40.170  27.426  1.00  0.00    -0.014 A 
ATOM     83  C   UNL A   1      41.539  40.068  26.797  1.00  0.00     0.010 A 
ATOM     84  C   UNL A   1      43.715  41.106  26.909  1.00  0.00     0.010 A 
ATOM     85  C   UNL A   1      41.241  40.804  25.647  1.00  0.00     0.020 A 
ATOM     86  C   UNL A   1      43.424  41.845  25.749  1.00  0.00     0.020 A 
ATOM     87  C   UNL A   1      42.201  41.657  25.105  1.00  0.00     0.054 A 
BRANCH  87  88
ATOM     88  S   UNL A   1      41.853  42.426  23.497  1.00  0.00     0.124 S 
ATOM     89  O   UNL A   1      40.447  42.792  23.635  1.00  0.00    -0.237 OA
ATOM     90  O   UNL A   1      42.793  43.544  23.473  1.00  0.00    -0.237 OA
ATOM     91  O   UNL A   1      42.132  41.363  22.535  1.00  0.00    -0.744 OA
ENDBRANCH  87  88
ENDBRANCH  59  82
BRANCH  71  92
ATOM     92  C   UNL A   1      44.550  37.763  33.129  1.00  0.00    -0.014 A 
ATOM     93  C   UNL A   1      44.638  38.341  34.413  1.00  0.00     0.010 A 
ATOM     94  C   UNL A   1      43.510  36.846  32.891  1.00  0.00     0.010 A 
ATOM     95  C   UNL A   1      43.768  37.966  35.441  1.00  0.00     0.020 A 
ATOM     96  C   UNL A   1      42.596  36.515  33.899  1.00  0.00     0.020 A 
ATOM     97  C   UNL A   1      42.764  37.034  35.182  1.00  0.00     0.054 A 
BRANCH  97  98
ATOM     98  S   UNL A   1      41.723  36.470  36.555  1.00  0.00     0.124 S 
ATOM     99  O   UNL A   1      41.978  35.031  36.566  1.00  0.00    -0.237 OA
ATOM    100  O   UNL A   1      42.259  37.211  37.694  1.00  0.00    -0.237 OA
ATOM    101  O   UNL A   1      40.372  36.848  36.147  1.00  0.00    -0.744 OA
ENDBRANCH  97  98
ENDBRANCH  71  92
ENDBRANCH  45  46
ENDBRANCH  38  40
ENDBRANCH  37  38
ENDBRANCH  36  37
ENDBRANCH  35  36
ENDBRANCH  34  35
ENDBRANCH  33  34
ENDBRANCH  32  33
ENDBRANCH   1  32
TORSDOF 27
ENDMDL
MODEL 3
REMARK VINA RESULT:      -6.1      6.400     10.282
REMARK SMILES COc1ccc2c(c1)c(CC(=O)OCCOCCOCCOCCOC(=O)c1ccc(-c3c4nc(c(-c5ccc(S(=O)(=O)[O-])cc5)c5ccc([nH]5)c(-c5ccc(S(=O)(=O)[O-])cc5)c5nc(c(-c6ccc(S(=O)(=O)[O-])cc6)c6ccc3[nH]6)C=C5)C=C4)cc1)c(C)n2C(=O)c1ccc(Cl)cc1
REMARK SMILES IDX 19 1 18 2 17 3 16 4 15 5 14 6 13 7 11 8 12 9 10 10 9 11 3 12
REMARK SMILES IDX 4 13 8 14 5 15 7 16 6 17 90 18 88 19 89 20 2 21 1 22 91 23
REMARK SMILES IDX 92 24 93 25 94 26 99 27 95 28 98 29 96 30 97 31 20 32 21 33
REMARK SMILES IDX 22 34 23 35 24 36 25 37 26 38 27 39 28 40 29 41 87 42 30 43
REMARK SMILES IDX 86 44 31 45 32 46 33 47 80 48 34 49 85 50 79 51 81 52 35 53
REMARK SMILES IDX 84 54 78 55 77 56 36 58 66 59 47 60 65 61 48 62 51 63 64 64
REMARK SMILES IDX 82 65 49 66 50 67 63 69 83 70 52 71 37 72 38 73 46 74 39 75
REMARK SMILES IDX 45 76 40 77 41 78 42 79 43 80 44 81 67 82 68 83 76 84 69 85
REMARK SMILES IDX 75 86 70 87 71 88 72 89 73 90 74 91 53 92 54 93 62 94 55 95
REMARK SMILES IDX 61 96 56 97 57 98 58 99 59 100 60 101
REMARK H PARENT 81 57 51 68
REMARK Flexibility Score: inf
ROOT
ATOM      1  O   UNL A   1      43.208  24.421  24.763  1.00  0.00    -0.377 OA
ENDROOT
BRANCH   1   2
ATOM      2  C   UNL A   1      44.074  23.419  25.240  1.00  0.00     0.188 C 
BRANCH   2   3
ATOM      3  C   UNL A   1      44.853  22.547  24.266  1.00  0.00     0.188 C 
BRANCH   3   4
ATOM      4  O   UNL A   1      44.204  21.307  24.042  1.00  0.00    -0.376 OA
BRANCH   4   5
ATOM      5  C   UNL A   1      44.325  20.318  25.056  1.00  0.00     0.202 C 
BRANCH   5   6
ATOM      6  C   UNL A   1      43.116  19.951  25.946  1.00  0.00     0.261 C 
BRANCH   6   7
ATOM      7  O   UNL A   1      41.792  19.816  25.390  1.00  0.00    -0.463 OA
BRANCH   7   8
ATOM      8  C   UNL A   1      40.726  19.862  26.223  1.00  0.00     0.310 C 
ATOM      9  O   UNL A   1      40.818  19.821  27.447  1.00  0.00    -0.252 OA
BRANCH   8  10
ATOM     10  C   UNL A   1      39.377  19.976  25.520  1.00  0.00     0.160 C 
BRANCH  10  11
ATOM     11  C   UNL A   1      38.488  21.193  25.762  1.00  0.00    -0.008 A 
ATOM     12  C   UNL A   1      40.201  24.265  27.312  1.00  0.00     0.119 A 
ATOM     13  C   UNL A   1      39.088  25.083  27.310  1.00  0.00     0.048 A 
ATOM     14  C   UNL A   1      40.066  22.913  26.961  1.00  0.00     0.057 A 
ATOM     15  C   UNL A   1      37.855  24.591  26.882  1.00  0.00     0.031 A 
ATOM     16  C   UNL A   1      38.853  22.422  26.407  1.00  0.00     0.008 A 
ATOM     17  C   UNL A   1      37.739  23.272  26.389  1.00  0.00     0.057 A 
ATOM     18  N   UNL A   1      36.648  22.553  25.863  1.00  0.00    -0.280 N 
ATOM     19  C   UNL A   1      37.126  21.288  25.478  1.00  0.00     0.028 A 
ATOM     20  C   UNL A   1      36.295  20.214  24.838  1.00  0.00     0.065 C 
BRANCH  12  21
ATOM     21  O   UNL A   1      41.468  24.691  27.607  1.00  0.00    -0.497 OA
ATOM     22  C   UNL A   1      41.555  25.916  28.338  1.00  0.00     0.278 C 
ENDBRANCH  12  21
BRANCH  18  23
ATOM     23  C   UNL A   1      35.303  23.034  25.780  1.00  0.00     0.262 C 
ATOM     24  O   UNL A   1      34.556  22.951  26.753  1.00  0.00    -0.268 OA
BRANCH  23  25
ATOM     25  C   UNL A   1      34.704  23.704  24.610  1.00  0.00     0.040 A 
ATOM     26  C   UNL A   1      34.337  25.052  24.682  1.00  0.00     0.015 A 
ATOM     27  C   UNL A   1      34.497  22.967  23.437  1.00  0.00     0.015 A 
ATOM     28  C   UNL A   1      33.696  25.647  23.591  1.00  0.00     0.021 A 
ATOM     29  C   UNL A   1      33.858  23.569  22.350  1.00  0.00     0.021 A 
ATOM     30  C   UNL A   1      33.449  24.900  22.437  1.00  0.00     0.041 A 
ATOM     31  Cl  UNL A   1      32.615  25.621  21.114  1.00  0.00    -0.084 Cl
ENDBRANCH  23  25
ENDBRANCH  18  23
ENDBRANCH  10  11
ENDBRANCH   8  10
ENDBRANCH   7   8
ENDBRANCH   6   7
ENDBRANCH   5   6
ENDBRANCH   4   5
ENDBRANCH   3   4
ENDBRANCH   2   3
ENDBRANCH   1   2
BRANCH   1  32
ATOM     32  C   UNL A   1      43.528  25.750  25.095  1.00  0.00     0.188 C 
BRANCH  32  33
ATOM     33  C   UNL A   1      44.333  25.837  26.398  1.00  0.00     0.188 C 
BRANCH  33  34
ATOM     34  O   UNL A   1      45.749  26.086  26.377  1.00  0.00    -0.376 OA
BRANCH  34  35
ATOM     35  C   UNL A   1      46.235  27.311  25.845  1.00  0.00     0.202 C 
BRANCH  35  36
ATOM     36  C   UNL A   1      45.183  28.438  25.831  1.00  0.00     0.261 C 
BRANCH  36  37
ATOM     37  O   UNL A   1      45.126  29.177  27.059  1.00  0.00    -0.460 OA
BRANCH  37  38
ATOM     38  C   UNL A   1      44.197  30.170  27.154  1.00  0.00     0.338 C 
ATOM     39  O   UNL A   1      43.060  30.080  27.550  1.00  0.00    -0.246 OA
BRANCH  38  40
ATOM     40  C   UNL A   1      44.936  31.446  26.959  1.00  0.00     0.060 A 
ATOM     41  C   UNL A   1      45.925  31.849  27.858  1.00  0.00     0.016 A 
ATOM     42  C   UNL A   1      44.389  32.357  26.045  1.00  0.00     0.016 A 
ATOM     43  C   UNL A   1      46.225  33.206  27.956  1.00  0.00     0.010 A 
ATOM     44  C   UNL A   1      44.703  33.716  26.139  1.00  0.00     0.010 A 
ATOM     45  C   UNL A   1      45.571  34.153  27.140  1.00  0.00    -0.014 A 
BRANCH  45  46
ATOM     46  C   UNL A   1      46.017  35.549  27.263  1.00  0.00     0.031 A 
ATOM     47  C   UNL A   1      47.494  35.675  27.148  1.00  0.00     0.074 A 
ATOM     48  C   UNL A   1      45.302  36.692  27.309  1.00  0.00     0.049 A 
ATOM     49  N   UNL A   1      48.343  36.097  28.026  1.00  0.00    -0.248 NA
ATOM     50  C   UNL A   1      48.093  35.127  25.921  1.00  0.00     0.031 C 
ATOM     51  C   UNL A   1      43.877  36.898  27.056  1.00  0.00     0.029 A 
ATOM     52  N   UNL A   1      45.772  37.966  27.500  1.00  0.00    -0.354 N 
ATOM     53  C   UNL A   1      49.587  35.991  27.416  1.00  0.00     0.074 A 
ATOM     54  C   UNL A   1      49.387  35.260  26.189  1.00  0.00     0.031 C 
ATOM     55  C   UNL A   1      43.650  38.224  26.878  1.00  0.00     0.029 A 
ATOM     56  C   UNL A   1      44.878  38.963  27.140  1.00  0.00     0.049 A 
ATOM     57  H   UNL A   1      46.668  38.157  27.861  1.00  0.00     0.167 HD
ATOM     58  C   UNL A   1      50.696  36.640  27.860  1.00  0.00     0.031 A 
ATOM     59  C   UNL A   1      45.158  40.282  26.984  1.00  0.00     0.031 A 
ATOM     60  C   UNL A   1      50.556  37.127  29.203  1.00  0.00     0.049 A 
ATOM     61  C   UNL A   1      46.428  40.585  27.688  1.00  0.00     0.074 A 
ATOM     62  C   UNL A   1      50.338  36.532  30.429  1.00  0.00     0.029 A 
ATOM     63  N   UNL A   1      50.312  38.466  29.380  1.00  0.00    -0.354 N 
ATOM     64  N   UNL A   1      46.577  40.597  28.982  1.00  0.00    -0.248 NA
ATOM     65  C   UNL A   1      47.663  40.600  26.921  1.00  0.00     0.031 C 
ATOM     66  C   UNL A   1      49.546  37.461  31.159  1.00  0.00     0.029 A 
ATOM     67  C   UNL A   1      49.346  38.582  30.350  1.00  0.00     0.049 A 
ATOM     68  H   UNL A   1      50.748  39.207  28.900  1.00  0.00     0.167 HD
ATOM     69  C   UNL A   1      47.894  40.219  29.196  1.00  0.00     0.074 A 
ATOM     70  C   UNL A   1      48.540  40.363  27.898  1.00  0.00     0.031 C 
ATOM     71  C   UNL A   1      48.276  39.567  30.335  1.00  0.00     0.031 A 
BRANCH  58  72
ATOM     72  C   UNL A   1      51.815  37.052  26.944  1.00  0.00    -0.014 A 
ATOM     73  C   UNL A   1      51.578  37.552  25.646  1.00  0.00     0.010 A 
ATOM     74  C   UNL A   1      53.129  37.149  27.437  1.00  0.00     0.010 A 
ATOM     75  C   UNL A   1      52.599  38.065  24.849  1.00  0.00     0.020 A 
ATOM     76  C   UNL A   1      54.154  37.717  26.665  1.00  0.00     0.020 A 
ATOM     77  C   UNL A   1      53.882  38.157  25.369  1.00  0.00     0.054 A 
BRANCH  77  78
ATOM     78  S   UNL A   1      55.147  38.959  24.355  1.00  0.00     0.124 S 
ATOM     79  O   UNL A   1      55.572  37.864  23.486  1.00  0.00    -0.237 OA
ATOM     80  O   UNL A   1      54.396  40.026  23.701  1.00  0.00    -0.237 OA
ATOM     81  O   UNL A   1      56.136  39.404  25.333  1.00  0.00    -0.744 OA
ENDBRANCH  77  78
ENDBRANCH  58  72
BRANCH  59  82
ATOM     82  C   UNL A   1      44.600  41.233  25.985  1.00  0.00    -0.014 A 
ATOM     83  C   UNL A   1      43.204  41.371  25.854  1.00  0.00     0.010 A 
ATOM     84  C   UNL A   1      45.411  41.748  24.953  1.00  0.00     0.010 A 
ATOM     85  C   UNL A   1      42.634  41.922  24.702  1.00  0.00     0.020 A 
ATOM     86  C   UNL A   1      44.844  42.296  23.789  1.00  0.00     0.020 A 
ATOM     87  C   UNL A   1      43.456  42.342  23.659  1.00  0.00     0.054 A 
BRANCH  87  88
ATOM     88  S   UNL A   1      42.671  42.847  22.100  1.00  0.00     0.124 S 
ATOM     89  O   UNL A   1      42.864  41.663  21.268  1.00  0.00    -0.237 OA
ATOM     90  O   UNL A   1      41.293  43.105  22.512  1.00  0.00    -0.237 OA
ATOM     91  O   UNL A   1      43.428  44.028  21.695  1.00  0.00    -0.744 OA
ENDBRANCH  87  88
ENDBRANCH  59  82
BRANCH  71  92
ATOM     92  C   UNL A   1      47.373  39.596  31.554  1.00  0.00    -0.014 A 
ATOM     93  C   UNL A   1      46.406  38.576  31.682  1.00  0.00     0.010 A 
ATOM     94  C   UNL A   1      47.332  40.660  32.473  1.00  0.00     0.010 A 
ATOM     95  C   UNL A   1      45.393  38.650  32.642  1.00  0.00     0.020 A 
ATOM     96  C   UNL A   1      46.358  40.707  33.478  1.00  0.00     0.020 A 
ATOM     97  C   UNL A   1      45.362  39.731  33.522  1.00  0.00     0.054 A 
BRANCH  97  98
ATOM     98  S   UNL A   1      43.975  39.872  34.681  1.00  0.00     0.124 S 
ATOM     99  O   UNL A   1      44.425  40.939  35.573  1.00  0.00    -0.237 OA
ATOM    100  O   UNL A   1      42.856  40.215  33.807  1.00  0.00    -0.237 OA
ATOM    101  O   UNL A   1      43.900  38.550  35.298  1.00  0.00    -0.744 OA
ENDBRANCH  97  98
ENDBRANCH  71  92
ENDBRANCH  45  46
ENDBRANCH  38  40
ENDBRANCH  37  38
ENDBRANCH  36  37
ENDBRANCH  35  36
ENDBRANCH  34  35
ENDBRANCH  33  34
ENDBRANCH  32  33
ENDBRANCH   1  32
TORSDOF 27
ENDMDL
