MODEL 1
REMARK VINA RESULT:      -6.9      0.000      0.000
REMARK SMILES Cc1ccc(-c2ccc(C(=O)Nc3ccc(C(=O)OCCOCCOCCOCCOC(=O)c4ccc(-c5c6nc(c(-c7ccc(S(=O)(=O)[O-])cc7)c7ccc([nH]7)c(-c7ccc(S(=O)(=O)[O-])cc7)c7nc(c(-c8ccc(S(=O)(=O)[O-])cc8)c8ccc5[nH]8)C=C7)C=C6)cc4)c(O)c3)o2)c([N+](=O)[O-])c1
REMARK SMILES IDX 24 1 23 2 22 3 21 4 20 5 19 6 17 7 18 8 16 9 13 10 14 11
REMARK SMILES IDX 96 12 15 13 94 14 12 15 10 16 11 17 9 19 6 20 7 21 97 22
REMARK SMILES IDX 8 23 5 24 1 25 2 26 3 27 102 28 4 29 98 30 99 31 100 32
REMARK SMILES IDX 101 33 95 34 25 36 26 37 27 38 28 39 29 40 30 41 31 42 32 43
REMARK SMILES IDX 33 44 34 45 35 46 93 47 36 48 92 49 37 50 38 51 39 52 86 53
REMARK SMILES IDX 40 54 91 55 85 56 87 57 41 58 90 59 84 60 83 61 42 63 72 64
REMARK SMILES IDX 53 65 71 66 54 67 57 68 70 69 88 70 55 71 56 72 69 74 89 75
REMARK SMILES IDX 58 76 43 77 44 78 52 79 45 80 51 81 46 82 47 83 48 84 49 85
REMARK SMILES IDX 50 86 73 87 74 88 82 89 75 90 81 91 76 92 77 93 78 94 79 95
REMARK SMILES IDX 80 96 59 97 60 98 68 99 61 100 67 101 62 102 63 103 64 104
REMARK SMILES IDX 65 105 66 106
REMARK H PARENT 12 18 95 35 87 62 57 73
REMARK Flexibility Score: inf
ROOT
ATOM      1  C   UNL A   1      56.684  30.599  27.569  1.00  0.00     0.188 C 
ENDROOT
BRANCH   1   2
ATOM      2  C   UNL A   1      55.377  30.390  26.760  1.00  0.00     0.188 C 
BRANCH   2   3
ATOM      3  O   UNL A   1      54.310  31.318  26.794  1.00  0.00    -0.376 OA
BRANCH   3   4
ATOM      4  C   UNL A   1      53.041  30.781  26.485  1.00  0.00     0.202 C 
BRANCH   4   5
ATOM      5  C   UNL A   1      51.861  31.683  26.772  1.00  0.00     0.261 C 
BRANCH   5   6
ATOM      6  O   UNL A   1      50.704  30.973  26.357  1.00  0.00    -0.460 OA
BRANCH   6   7
ATOM      7  C   UNL A   1      50.071  30.472  27.416  1.00  0.00     0.341 C 
ATOM      8  O   UNL A   1      49.949  30.985  28.508  1.00  0.00    -0.246 OA
BRANCH   7   9
ATOM      9  C   UNL A   1      49.369  29.241  27.022  1.00  0.00     0.101 A 
ATOM     10  C   UNL A   1      48.309  26.980  25.899  1.00  0.00     0.045 A 
ATOM     11  C   UNL A   1      47.446  28.018  26.231  1.00  0.00     0.027 A 
ATOM     12  C   UNL A   1      49.589  26.926  26.446  1.00  0.00     0.073 A 
ATOM     13  C   UNL A   1      47.992  29.184  26.756  1.00  0.00     0.022 A 
ATOM     14  C   UNL A   1      50.121  28.070  27.007  1.00  0.00     0.132 A 
BRANCH  10  15
ATOM     15  N   UNL A   1      48.018  26.053  24.897  1.00  0.00    -0.319 N 
ATOM     16  C   UNL A   1      47.220  24.914  24.951  1.00  0.00     0.291 C 
ATOM     17  O   UNL A   1      47.136  24.287  23.889  1.00  0.00    -0.265 OA
ATOM     18  H   UNL A   1      48.439  26.231  24.025  1.00  0.00     0.170 HD
BRANCH  16  19
ATOM     19  C   UNL A   1      46.459  24.530  26.141  1.00  0.00     0.192 A 
ATOM     20  C   UNL A   1      44.581  24.127  27.249  1.00  0.00     0.142 A 
ATOM     21  C   UNL A   1      45.602  23.820  28.111  1.00  0.00     0.052 A 
ATOM     22  O   UNL A   1      45.079  24.459  26.023  1.00  0.00    -0.451 OA
ATOM     23  C   UNL A   1      46.759  24.295  27.473  1.00  0.00     0.057 A 
BRANCH  20  24
ATOM     24  C   UNL A   1      43.149  24.243  27.453  1.00  0.00     0.095 A 
ATOM     25  C   UNL A   1      38.883  24.942  27.685  1.00  0.00     0.044 C 
ATOM     26  C   UNL A   1      40.356  24.670  27.640  1.00  0.00    -0.044 A 
ATOM     27  C   UNL A   1      41.255  25.484  28.342  1.00  0.00     0.004 A 
ATOM     28  C   UNL A   1      40.850  23.604  26.887  1.00  0.00     0.089 A 
ATOM     29  C   UNL A   1      42.637  25.274  28.250  1.00  0.00     0.019 A 
ATOM     30  C   UNL A   1      42.231  23.389  26.811  1.00  0.00     0.280 A 
BRANCH  30  31
ATOM     31  N   UNL A   1      42.668  22.214  26.058  1.00  0.00     0.063 N 
ATOM     32  O   UNL A   1      42.865  22.343  24.843  1.00  0.00    -0.258 OA
ATOM     33  O   UNL A   1      42.858  21.177  26.708  1.00  0.00    -0.258 OA
ENDBRANCH  30  31
ENDBRANCH  20  24
ENDBRANCH  16  19
ENDBRANCH  10  15
BRANCH  14  34
ATOM     34  O   UNL A   1      51.402  27.993  27.482  1.00  0.00    -0.507 OA
ATOM     35  H   UNL A   1      52.075  28.525  27.105  1.00  0.00     0.293 HD
ENDBRANCH  14  34
ENDBRANCH   7   9
ENDBRANCH   6   7
ENDBRANCH   5   6
ENDBRANCH   4   5
ENDBRANCH   3   4
ENDBRANCH   2   3
ENDBRANCH   1   2
BRANCH   1  36
ATOM     36  O   UNL A   1      56.663  30.773  28.975  1.00  0.00    -0.377 OA
BRANCH  36  37
ATOM     37  C   UNL A   1      57.232  29.738  29.794  1.00  0.00     0.188 C 
BRANCH  37  38
ATOM     38  C   UNL A   1      56.561  28.373  29.862  1.00  0.00     0.188 C 
BRANCH  38  39
ATOM     39  O   UNL A   1      55.761  28.316  31.043  1.00  0.00    -0.376 OA
BRANCH  39  40
ATOM     40  C   UNL A   1      55.808  27.111  31.787  1.00  0.00     0.202 C 
BRANCH  40  41
ATOM     41  C   UNL A   1      54.456  26.663  32.344  1.00  0.00     0.261 C 
BRANCH  41  42
ATOM     42  O   UNL A   1      53.804  25.740  31.446  1.00  0.00    -0.460 OA
BRANCH  42  43
ATOM     43  C   UNL A   1      52.924  26.291  30.557  1.00  0.00     0.338 C 
ATOM     44  O   UNL A   1      53.267  26.823  29.516  1.00  0.00    -0.246 OA
BRANCH  43  45
ATOM     45  C   UNL A   1      51.514  26.066  30.989  1.00  0.00     0.060 A 
ATOM     46  C   UNL A   1      50.561  25.470  30.150  1.00  0.00     0.016 A 
ATOM     47  C   UNL A   1      51.096  26.612  32.189  1.00  0.00     0.016 A 
ATOM     48  C   UNL A   1      49.177  25.614  30.404  1.00  0.00     0.010 A 
ATOM     49  C   UNL A   1      49.744  26.799  32.401  1.00  0.00     0.010 A 
ATOM     50  C   UNL A   1      48.752  26.355  31.502  1.00  0.00    -0.014 A 
BRANCH  50  51
ATOM     51  C   UNL A   1      47.364  26.817  31.806  1.00  0.00     0.031 A 
ATOM     52  C   UNL A   1      46.994  28.215  31.331  1.00  0.00     0.074 A 
ATOM     53  C   UNL A   1      46.401  25.872  32.024  1.00  0.00     0.049 A 
ATOM     54  N   UNL A   1      45.804  28.708  31.245  1.00  0.00    -0.248 NA
ATOM     55  C   UNL A   1      47.979  29.172  30.809  1.00  0.00     0.031 C 
ATOM     56  C   UNL A   1      44.979  25.954  31.655  1.00  0.00     0.029 A 
ATOM     57  N   UNL A   1      46.457  24.577  32.521  1.00  0.00    -0.354 N 
ATOM     58  C   UNL A   1      45.818  29.767  30.338  1.00  0.00     0.074 A 
ATOM     59  C   UNL A   1      47.215  30.061  30.159  1.00  0.00     0.031 C 
ATOM     60  C   UNL A   1      44.317  24.824  31.957  1.00  0.00     0.029 A 
ATOM     61  C   UNL A   1      45.176  24.135  32.881  1.00  0.00     0.049 A 
ATOM     62  H   UNL A   1      47.281  24.043  32.609  1.00  0.00     0.167 HD
ATOM     63  C   UNL A   1      44.647  30.173  29.745  1.00  0.00     0.031 A 
ATOM     64  C   UNL A   1      44.796  23.980  34.188  1.00  0.00     0.031 A 
ATOM     65  C   UNL A   1      43.488  29.453  30.324  1.00  0.00     0.049 A 
ATOM     66  C   UNL A   1      43.835  25.134  34.571  1.00  0.00     0.074 A 
ATOM     67  C   UNL A   1      42.435  28.714  29.812  1.00  0.00     0.029 A 
ATOM     68  N   UNL A   1      43.425  29.276  31.709  1.00  0.00    -0.354 N 
ATOM     69  N   UNL A   1      43.890  26.337  34.028  1.00  0.00    -0.248 NA
ATOM     70  C   UNL A   1      42.595  24.956  35.333  1.00  0.00     0.031 C 
ATOM     71  C   UNL A   1      41.859  27.965  30.887  1.00  0.00     0.029 A 
ATOM     72  C   UNL A   1      42.524  28.290  32.065  1.00  0.00     0.049 A 
ATOM     73  H   UNL A   1      43.958  29.793  32.355  1.00  0.00     0.167 HD
ATOM     74  C   UNL A   1      42.683  26.977  34.172  1.00  0.00     0.074 A 
ATOM     75  C   UNL A   1      41.935  26.103  35.068  1.00  0.00     0.031 C 
ATOM     76  C   UNL A   1      42.216  28.066  33.474  1.00  0.00     0.031 A 
BRANCH  63  77
ATOM     77  C   UNL A   1      44.499  31.101  28.515  1.00  0.00    -0.014 A 
ATOM     78  C   UNL A   1      44.994  32.428  28.583  1.00  0.00     0.010 A 
ATOM     79  C   UNL A   1      43.874  30.779  27.289  1.00  0.00     0.010 A 
ATOM     80  C   UNL A   1      44.873  33.362  27.532  1.00  0.00     0.020 A 
ATOM     81  C   UNL A   1      43.768  31.698  26.210  1.00  0.00     0.020 A 
ATOM     82  C   UNL A   1      44.269  32.990  26.340  1.00  0.00     0.054 A 
BRANCH  82  83
ATOM     83  S   UNL A   1      44.200  34.192  24.974  1.00  0.00     0.124 S 
ATOM     84  O   UNL A   1      44.540  33.376  23.811  1.00  0.00    -0.237 OA
ATOM     85  O   UNL A   1      42.817  34.658  25.028  1.00  0.00    -0.237 OA
ATOM     86  O   UNL A   1      45.201  35.194  25.338  1.00  0.00    -0.744 OA
ENDBRANCH  82  83
ENDBRANCH  63  77
BRANCH  64  87
ATOM     87  C   UNL A   1      45.822  23.171  34.936  1.00  0.00    -0.014 A 
ATOM     88  C   UNL A   1      46.652  23.959  35.782  1.00  0.00     0.010 A 
ATOM     89  C   UNL A   1      45.489  21.875  35.380  1.00  0.00     0.010 A 
ATOM     90  C   UNL A   1      46.846  23.614  37.129  1.00  0.00     0.020 A 
ATOM     91  C   UNL A   1      45.697  21.519  36.733  1.00  0.00     0.020 A 
ATOM     92  C   UNL A   1      46.300  22.428  37.614  1.00  0.00     0.054 A 
BRANCH  92  93
ATOM     93  S   UNL A   1      46.120  22.241  39.424  1.00  0.00     0.124 S 
ATOM     94  O   UNL A   1      45.785  20.830  39.564  1.00  0.00    -0.237 OA
ATOM     95  O   UNL A   1      47.439  22.635  39.918  1.00  0.00    -0.237 OA
ATOM     96  O   UNL A   1      45.049  23.179  39.742  1.00  0.00    -0.744 OA
ENDBRANCH  92  93
ENDBRANCH  64  87
BRANCH  76  97
ATOM     97  C   UNL A   1      41.386  29.142  34.140  1.00  0.00    -0.014 A 
ATOM     98  C   UNL A   1      40.133  29.533  33.656  1.00  0.00     0.010 A 
ATOM     99  C   UNL A   1      41.760  29.622  35.426  1.00  0.00     0.010 A 
ATOM    100  C   UNL A   1      39.319  30.397  34.387  1.00  0.00     0.020 A 
ATOM    101  C   UNL A   1      40.929  30.437  36.190  1.00  0.00     0.020 A 
ATOM    102  C   UNL A   1      39.720  30.842  35.648  1.00  0.00     0.054 A 
BRANCH 102 103
ATOM    103  S   UNL A   1      38.615  31.922  36.575  1.00  0.00     0.124 S 
ATOM    104  O   UNL A   1      39.552  32.620  37.453  1.00  0.00    -0.237 OA
ATOM    105  O   UNL A   1      38.014  32.741  35.523  1.00  0.00    -0.237 OA
ATOM    106  O   UNL A   1      37.699  31.001  37.240  1.00  0.00    -0.744 OA
ENDBRANCH 102 103
ENDBRANCH  76  97
ENDBRANCH  50  51
ENDBRANCH  43  45
ENDBRANCH  42  43
ENDBRANCH  41  42
ENDBRANCH  40  41
ENDBRANCH  39  40
ENDBRANCH  38  39
ENDBRANCH  37  38
ENDBRANCH  36  37
ENDBRANCH   1  36
TORSDOF 28
ENDMDL
MODEL 2
REMARK VINA RESULT:      -6.6      8.793     14.999
REMARK SMILES Cc1ccc(-c2ccc(C(=O)Nc3ccc(C(=O)OCCOCCOCCOCCOC(=O)c4ccc(-c5c6nc(c(-c7ccc(S(=O)(=O)[O-])cc7)c7ccc([nH]7)c(-c7ccc(S(=O)(=O)[O-])cc7)c7nc(c(-c8ccc(S(=O)(=O)[O-])cc8)c8ccc5[nH]8)C=C7)C=C6)cc4)c(O)c3)o2)c([N+](=O)[O-])c1
REMARK SMILES IDX 24 1 23 2 22 3 21 4 20 5 19 6 17 7 18 8 16 9 13 10 14 11
REMARK SMILES IDX 96 12 15 13 94 14 12 15 10 16 11 17 9 19 6 20 7 21 97 22
REMARK SMILES IDX 8 23 5 24 1 25 2 26 3 27 102 28 4 29 98 30 99 31 100 32
REMARK SMILES IDX 101 33 95 34 25 36 26 37 27 38 28 39 29 40 30 41 31 42 32 43
REMARK SMILES IDX 33 44 34 45 35 46 93 47 36 48 92 49 37 50 38 51 39 52 86 53
REMARK SMILES IDX 40 54 91 55 85 56 87 57 41 58 90 59 84 60 83 61 42 63 72 64
REMARK SMILES IDX 53 65 71 66 54 67 57 68 70 69 88 70 55 71 56 72 69 74 89 75
REMARK SMILES IDX 58 76 43 77 44 78 52 79 45 80 51 81 46 82 47 83 48 84 49 85
REMARK SMILES IDX 50 86 73 87 74 88 82 89 75 90 81 91 76 92 77 93 78 94 79 95
REMARK SMILES IDX 80 96 59 97 60 98 68 99 61 100 67 101 62 102 63 103 64 104
REMARK SMILES IDX 65 105 66 106
REMARK H PARENT 12 18 95 35 87 62 57 73
REMARK Flexibility Score: inf
ROOT
ATOM      1  C   UNL A   1      43.154  41.684  25.919  1.00  0.00     0.188 C 
ENDROOT
BRANCH   1   2
ATOM      2  C   UNL A   1      42.917  42.081  24.438  1.00  0.00     0.188 C 
BRANCH   2   3
ATOM      3  O   UNL A   1      43.352  43.318  23.907  1.00  0.00    -0.376 OA
BRANCH   3   4
ATOM      4  C   UNL A   1      42.393  44.006  23.131  1.00  0.00     0.202 C 
BRANCH   4   5
ATOM      5  C   UNL A   1      41.548  43.143  22.220  1.00  0.00     0.261 C 
BRANCH   5   6
ATOM      6  O   UNL A   1      41.463  43.832  20.982  1.00  0.00    -0.460 OA
BRANCH   6   7
ATOM      7  C   UNL A   1      42.261  43.258  20.084  1.00  0.00     0.341 C 
ATOM      8  O   UNL A   1      42.663  42.114  20.084  1.00  0.00    -0.246 OA
BRANCH   7   9
ATOM      9  C   UNL A   1      42.465  44.183  18.958  1.00  0.00     0.101 A 
ATOM     10  C   UNL A   1      43.128  46.130  17.150  1.00  0.00     0.045 A 
ATOM     11  C   UNL A   1      41.790  45.983  17.500  1.00  0.00     0.027 A 
ATOM     12  C   UNL A   1      44.040  45.108  17.408  1.00  0.00     0.073 A 
ATOM     13  C   UNL A   1      41.463  45.026  18.455  1.00  0.00     0.022 A 
ATOM     14  C   UNL A   1      43.703  44.132  18.324  1.00  0.00     0.132 A 
BRANCH  10  15
ATOM     15  N   UNL A   1      43.656  47.338  16.692  1.00  0.00    -0.319 N 
ATOM     16  C   UNL A   1      44.525  48.221  17.327  1.00  0.00     0.291 C 
ATOM     17  O   UNL A   1      44.833  49.216  16.661  1.00  0.00    -0.265 OA
ATOM     18  H   UNL A   1      43.370  47.606  15.789  1.00  0.00     0.170 HD
BRANCH  16  19
ATOM     19  C   UNL A   1      45.110  47.956  18.642  1.00  0.00     0.192 A 
ATOM     20  C   UNL A   1      46.809  47.604  20.023  1.00  0.00     0.142 A 
ATOM     21  C   UNL A   1      45.685  47.633  20.807  1.00  0.00     0.052 A 
ATOM     22  O   UNL A   1      46.492  47.899  18.729  1.00  0.00    -0.451 OA
ATOM     23  C   UNL A   1      44.617  47.628  19.895  1.00  0.00     0.057 A 
BRANCH  20  24
ATOM     24  C   UNL A   1      48.181  47.235  20.318  1.00  0.00     0.095 A 
ATOM     25  C   UNL A   1      52.103  45.990  21.662  1.00  0.00     0.044 C 
ATOM     26  C   UNL A   1      50.764  46.435  21.156  1.00  0.00    -0.044 A 
ATOM     27  C   UNL A   1      50.281  47.718  21.447  1.00  0.00     0.004 A 
ATOM     28  C   UNL A   1      49.978  45.568  20.396  1.00  0.00     0.089 A 
ATOM     29  C   UNL A   1      49.003  48.114  21.033  1.00  0.00     0.019 A 
ATOM     30  C   UNL A   1      48.708  45.976  19.971  1.00  0.00     0.280 A 
BRANCH  30  31
ATOM     31  N   UNL A   1      47.972  45.040  19.123  1.00  0.00     0.063 N 
ATOM     32  O   UNL A   1      47.047  44.396  19.635  1.00  0.00    -0.258 OA
ATOM     33  O   UNL A   1      48.301  44.994  17.929  1.00  0.00    -0.258 OA
ENDBRANCH  30  31
ENDBRANCH  20  24
ENDBRANCH  16  19
ENDBRANCH  10  15
BRANCH  14  34
ATOM     34  O   UNL A   1      44.646  43.178  18.591  1.00  0.00    -0.507 OA
ATOM     35  H   UNL A   1      45.413  43.113  18.055  1.00  0.00     0.293 HD
ENDBRANCH  14  34
ENDBRANCH   7   9
ENDBRANCH   6   7
ENDBRANCH   5   6
ENDBRANCH   4   5
ENDBRANCH   3   4
ENDBRANCH   2   3
ENDBRANCH   1   2
BRANCH   1  36
ATOM     36  O   UNL A   1      43.904  40.533  26.264  1.00  0.00    -0.377 OA
BRANCH  36  37
ATOM     37  C   UNL A   1      44.519  40.489  27.561  1.00  0.00     0.188 C 
BRANCH  37  38
ATOM     38  C   UNL A   1      45.959  40.012  27.699  1.00  0.00     0.188 C 
BRANCH  38  39
ATOM     39  O   UNL A   1      46.701  40.471  26.570  1.00  0.00    -0.376 OA
BRANCH  39  40
ATOM     40  C   UNL A   1      47.140  39.485  25.651  1.00  0.00     0.202 C 
BRANCH  40  41
ATOM     41  C   UNL A   1      46.453  38.128  25.809  1.00  0.00     0.261 C 
BRANCH  41  42
ATOM     42  O   UNL A   1      47.311  37.055  25.367  1.00  0.00    -0.460 OA
BRANCH  42  43
ATOM     43  C   UNL A   1      47.859  36.281  26.351  1.00  0.00     0.338 C 
ATOM     44  O   UNL A   1      48.636  36.708  27.186  1.00  0.00    -0.246 OA
BRANCH  43  45
ATOM     45  C   UNL A   1      47.305  34.895  26.313  1.00  0.00     0.060 A 
ATOM     46  C   UNL A   1      45.967  34.634  25.983  1.00  0.00     0.016 A 
ATOM     47  C   UNL A   1      48.091  33.858  26.779  1.00  0.00     0.016 A 
ATOM     48  C   UNL A   1      45.362  33.401  26.322  1.00  0.00     0.010 A 
ATOM     49  C   UNL A   1      47.481  32.679  27.160  1.00  0.00     0.010 A 
ATOM     50  C   UNL A   1      46.102  32.433  26.991  1.00  0.00    -0.014 A 
BRANCH  50  51
ATOM     51  C   UNL A   1      45.594  31.185  27.638  1.00  0.00     0.031 A 
ATOM     52  C   UNL A   1      44.699  31.366  28.856  1.00  0.00     0.074 A 
ATOM     53  C   UNL A   1      45.534  30.045  26.886  1.00  0.00     0.049 A 
ATOM     54  N   UNL A   1      43.947  30.468  29.398  1.00  0.00    -0.248 NA
ATOM     55  C   UNL A   1      44.508  32.660  29.526  1.00  0.00     0.031 C 
ATOM     56  C   UNL A   1      44.524  28.979  26.972  1.00  0.00     0.029 A 
ATOM     57  N   UNL A   1      46.276  29.602  25.799  1.00  0.00    -0.354 N 
ATOM     58  C   UNL A   1      42.944  31.101  30.131  1.00  0.00     0.074 A 
ATOM     59  C   UNL A   1      43.392  32.464  30.240  1.00  0.00     0.031 C 
ATOM     60  C   UNL A   1      44.721  28.027  26.045  1.00  0.00     0.029 A 
ATOM     61  C   UNL A   1      46.070  28.230  25.594  1.00  0.00     0.049 A 
ATOM     62  H   UNL A   1      46.864  30.170  25.250  1.00  0.00     0.167 HD
ATOM     63  C   UNL A   1      41.790  30.420  30.438  1.00  0.00     0.031 A 
ATOM     64  C   UNL A   1      47.035  27.297  25.871  1.00  0.00     0.031 A 
ATOM     65  C   UNL A   1      41.892  29.001  30.024  1.00  0.00     0.049 A 
ATOM     66  C   UNL A   1      46.641  26.537  27.163  1.00  0.00     0.074 A 
ATOM     67  C   UNL A   1      41.122  28.144  29.256  1.00  0.00     0.029 A 
ATOM     68  N   UNL A   1      43.079  28.306  30.276  1.00  0.00    -0.354 N 
ATOM     69  N   UNL A   1      45.934  27.078  28.139  1.00  0.00    -0.248 NA
ATOM     70  C   UNL A   1      46.738  25.083  27.326  1.00  0.00     0.031 C 
ATOM     71  C   UNL A   1      41.930  27.013  28.915  1.00  0.00     0.029 A 
ATOM     72  C   UNL A   1      43.175  27.153  29.521  1.00  0.00     0.049 A 
ATOM     73  H   UNL A   1      43.765  28.604  30.916  1.00  0.00     0.167 HD
ATOM     74  C   UNL A   1      45.337  26.096  28.892  1.00  0.00     0.074 A 
ATOM     75  C   UNL A   1      45.939  24.865  28.392  1.00  0.00     0.031 C 
ATOM     76  C   UNL A   1      44.276  26.223  29.756  1.00  0.00     0.031 A 
BRANCH  63  77
ATOM     77  C   UNL A   1      40.465  31.024  30.963  1.00  0.00    -0.014 A 
ATOM     78  C   UNL A   1      39.658  31.794  30.088  1.00  0.00     0.010 A 
ATOM     79  C   UNL A   1      39.959  30.922  32.279  1.00  0.00     0.010 A 
ATOM     80  C   UNL A   1      38.455  32.418  30.481  1.00  0.00     0.020 A 
ATOM     81  C   UNL A   1      38.734  31.520  32.684  1.00  0.00     0.020 A 
ATOM     82  C   UNL A   1      37.988  32.269  31.779  1.00  0.00     0.054 A 
BRANCH  82  83
ATOM     83  S   UNL A   1      36.393  33.018  32.234  1.00  0.00     0.124 S 
ATOM     84  O   UNL A   1      36.696  33.673  33.504  1.00  0.00    -0.237 OA
ATOM     85  O   UNL A   1      36.131  33.919  31.113  1.00  0.00    -0.237 OA
ATOM     86  O   UNL A   1      35.483  31.877  32.330  1.00  0.00    -0.744 OA
ENDBRANCH  82  83
ENDBRANCH  63  77
BRANCH  64  87
ATOM     87  C   UNL A   1      48.342  27.697  25.240  1.00  0.00    -0.014 A 
ATOM     88  C   UNL A   1      49.255  28.282  26.162  1.00  0.00     0.010 A 
ATOM     89  C   UNL A   1      48.882  26.902  24.209  1.00  0.00     0.010 A 
ATOM     90  C   UNL A   1      50.579  27.823  26.258  1.00  0.00     0.020 A 
ATOM     91  C   UNL A   1      50.220  26.451  24.295  1.00  0.00     0.020 A 
ATOM     92  C   UNL A   1      51.029  26.851  25.368  1.00  0.00     0.054 A 
BRANCH  92  93
ATOM     93  S   UNL A   1      52.537  25.916  25.807  1.00  0.00     0.124 S 
ATOM     94  O   UNL A   1      51.995  24.662  26.312  1.00  0.00    -0.237 OA
ATOM     95  O   UNL A   1      53.246  25.835  24.530  1.00  0.00    -0.237 OA
ATOM     96  O   UNL A   1      53.173  26.775  26.800  1.00  0.00    -0.744 OA
ENDBRANCH  92  93
ENDBRANCH  64  87
BRANCH  76  97
ATOM     97  C   UNL A   1      44.203  25.438  31.048  1.00  0.00    -0.014 A 
ATOM     98  C   UNL A   1      44.240  24.039  31.081  1.00  0.00     0.010 A 
ATOM     99  C   UNL A   1      44.334  26.117  32.290  1.00  0.00     0.010 A 
ATOM    100  C   UNL A   1      44.348  23.353  32.290  1.00  0.00     0.020 A 
ATOM    101  C   UNL A   1      44.503  25.442  33.497  1.00  0.00     0.020 A 
ATOM    102  C   UNL A   1      44.481  24.057  33.488  1.00  0.00     0.054 A 
BRANCH 102 103
ATOM    103  S   UNL A   1      44.662  23.127  35.021  1.00  0.00     0.124 S 
ATOM    104  O   UNL A   1      46.081  23.316  35.315  1.00  0.00    -0.237 OA
ATOM    105  O   UNL A   1      43.739  23.814  35.921  1.00  0.00    -0.237 OA
ATOM    106  O   UNL A   1      44.273  21.768  34.656  1.00  0.00    -0.744 OA
ENDBRANCH 102 103
ENDBRANCH  76  97
ENDBRANCH  50  51
ENDBRANCH  43  45
ENDBRANCH  42  43
ENDBRANCH  41  42
ENDBRANCH  40  41
ENDBRANCH  39  40
ENDBRANCH  38  39
ENDBRANCH  37  38
ENDBRANCH  36  37
ENDBRANCH   1  36
TORSDOF 28
ENDMDL
MODEL 3
REMARK VINA RESULT:      -6.4     10.277     16.702
REMARK SMILES Cc1ccc(-c2ccc(C(=O)Nc3ccc(C(=O)OCCOCCOCCOCCOC(=O)c4ccc(-c5c6nc(c(-c7ccc(S(=O)(=O)[O-])cc7)c7ccc([nH]7)c(-c7ccc(S(=O)(=O)[O-])cc7)c7nc(c(-c8ccc(S(=O)(=O)[O-])cc8)c8ccc5[nH]8)C=C7)C=C6)cc4)c(O)c3)o2)c([N+](=O)[O-])c1
REMARK SMILES IDX 24 1 23 2 22 3 21 4 20 5 19 6 17 7 18 8 16 9 13 10 14 11
REMARK SMILES IDX 96 12 15 13 94 14 12 15 10 16 11 17 9 19 6 20 7 21 97 22
REMARK SMILES IDX 8 23 5 24 1 25 2 26 3 27 102 28 4 29 98 30 99 31 100 32
REMARK SMILES IDX 101 33 95 34 25 36 26 37 27 38 28 39 29 40 30 41 31 42 32 43
REMARK SMILES IDX 33 44 34 45 35 46 93 47 36 48 92 49 37 50 38 51 39 52 86 53
REMARK SMILES IDX 40 54 91 55 85 56 87 57 41 58 90 59 84 60 83 61 42 63 72 64
REMARK SMILES IDX 53 65 71 66 54 67 57 68 70 69 88 70 55 71 56 72 69 74 89 75
REMARK SMILES IDX 58 76 43 77 44 78 52 79 45 80 51 81 46 82 47 83 48 84 49 85
REMARK SMILES IDX 50 86 73 87 74 88 82 89 75 90 81 91 76 92 77 93 78 94 79 95
REMARK SMILES IDX 80 96 59 97 60 98 68 99 61 100 67 101 62 102 63 103 64 104
REMARK SMILES IDX 65 105 66 106
REMARK H PARENT 12 18 95 35 87 62 57 73
REMARK Flexibility Score: inf
ROOT
ATOM      1  C   UNL A   1      42.638  41.305  25.659  1.00  0.00     0.188 C 
ENDROOT
BRANCH   1   2
ATOM      2  C   UNL A   1      42.108  41.859  24.311  1.00  0.00     0.188 C 
BRANCH   2   3
ATOM      3  O   UNL A   1      42.725  42.943  23.643  1.00  0.00    -0.376 OA
BRANCH   3   4
ATOM      4  C   UNL A   1      41.935  43.560  22.648  1.00  0.00     0.202 C 
BRANCH   4   5
ATOM      5  C   UNL A   1      41.433  42.646  21.552  1.00  0.00     0.261 C 
BRANCH   5   6
ATOM      6  O   UNL A   1      41.193  43.472  20.422  1.00  0.00    -0.460 OA
BRANCH   6   7
ATOM      7  C   UNL A   1      42.074  43.200  19.462  1.00  0.00     0.341 C 
ATOM      8  O   UNL A   1      42.671  42.159  19.287  1.00  0.00    -0.246 OA
BRANCH   7   9
ATOM      9  C   UNL A   1      42.105  44.316  18.504  1.00  0.00     0.101 A 
ATOM     10  C   UNL A   1      42.586  46.471  16.885  1.00  0.00     0.045 A 
ATOM     11  C   UNL A   1      41.505  46.531  17.758  1.00  0.00     0.027 A 
ATOM     12  C   UNL A   1      43.171  45.246  16.571  1.00  0.00     0.073 A 
ATOM     13  C   UNL A   1      41.292  45.455  18.613  1.00  0.00     0.022 A 
ATOM     14  C   UNL A   1      42.930  44.164  17.393  1.00  0.00     0.132 A 
BRANCH  10  15
ATOM     15  N   UNL A   1      43.239  47.614  16.420  1.00  0.00    -0.319 N 
ATOM     16  C   UNL A   1      44.169  48.424  17.063  1.00  0.00     0.291 C 
ATOM     17  O   UNL A   1      44.590  49.371  16.388  1.00  0.00    -0.265 OA
ATOM     18  H   UNL A   1      43.006  47.887  15.503  1.00  0.00     0.170 HD
BRANCH  16  19
ATOM     19  C   UNL A   1      44.688  48.135  18.401  1.00  0.00     0.192 A 
ATOM     20  C   UNL A   1      45.643  46.831  19.919  1.00  0.00     0.142 A 
ATOM     21  C   UNL A   1      45.466  48.048  20.525  1.00  0.00     0.052 A 
ATOM     22  O   UNL A   1      45.274  46.896  18.607  1.00  0.00    -0.451 OA
ATOM     23  C   UNL A   1      44.663  48.774  19.631  1.00  0.00     0.057 A 
BRANCH  20  24
ATOM     24  C   UNL A   1      46.045  45.540  20.447  1.00  0.00     0.095 A 
ATOM     25  C   UNL A   1      47.136  41.500  21.555  1.00  0.00     0.044 C 
ATOM     26  C   UNL A   1      46.767  42.912  21.215  1.00  0.00    -0.044 A 
ATOM     27  C   UNL A   1      45.433  43.337  21.278  1.00  0.00     0.004 A 
ATOM     28  C   UNL A   1      47.752  43.820  20.821  1.00  0.00     0.089 A 
ATOM     29  C   UNL A   1      45.075  44.637  20.898  1.00  0.00     0.019 A 
ATOM     30  C   UNL A   1      47.390  45.123  20.458  1.00  0.00     0.280 A 
BRANCH  30  31
ATOM     31  N   UNL A   1      48.482  46.033  20.122  1.00  0.00     0.063 N 
ATOM     32  O   UNL A   1      49.094  46.575  21.051  1.00  0.00    -0.258 OA
ATOM     33  O   UNL A   1      48.752  46.159  18.919  1.00  0.00    -0.258 OA
ENDBRANCH  30  31
ENDBRANCH  20  24
ENDBRANCH  16  19
ENDBRANCH  10  15
BRANCH  14  34
ATOM     34  O   UNL A   1      43.567  42.993  17.084  1.00  0.00    -0.507 OA
ATOM     35  H   UNL A   1      43.071  42.207  16.966  1.00  0.00     0.293 HD
ENDBRANCH  14  34
ENDBRANCH   7   9
ENDBRANCH   6   7
ENDBRANCH   5   6
ENDBRANCH   4   5
ENDBRANCH   3   4
ENDBRANCH   2   3
ENDBRANCH   1   2
BRANCH   1  36
ATOM     36  O   UNL A   1      43.562  40.231  25.704  1.00  0.00    -0.377 OA
BRANCH  36  37
ATOM     37  C   UNL A   1      43.630  39.446  26.906  1.00  0.00     0.188 C 
BRANCH  37  38
ATOM     38  C   UNL A   1      44.301  38.079  26.879  1.00  0.00     0.188 C 
BRANCH  38  39
ATOM     39  O   UNL A   1      43.318  37.084  27.162  1.00  0.00    -0.376 OA
BRANCH  39  40
ATOM     40  C   UNL A   1      43.493  36.336  28.353  1.00  0.00     0.202 C 
BRANCH  40  41
ATOM     41  C   UNL A   1      43.312  37.147  29.638  1.00  0.00     0.261 C 
BRANCH  41  42
ATOM     42  O   UNL A   1      43.727  36.388  30.794  1.00  0.00    -0.460 OA
BRANCH  42  43
ATOM     43  C   UNL A   1      44.637  36.994  31.613  1.00  0.00     0.338 C 
ATOM     44  O   UNL A   1      45.370  37.896  31.249  1.00  0.00    -0.246 OA
BRANCH  43  45
ATOM     45  C   UNL A   1      44.536  36.470  33.007  1.00  0.00     0.060 A 
ATOM     46  C   UNL A   1      44.563  35.097  33.292  1.00  0.00     0.016 A 
ATOM     47  C   UNL A   1      44.242  37.356  34.026  1.00  0.00     0.016 A 
ATOM     48  C   UNL A   1      44.085  34.601  34.528  1.00  0.00     0.010 A 
ATOM     49  C   UNL A   1      43.723  36.864  35.207  1.00  0.00     0.010 A 
ATOM     50  C   UNL A   1      43.583  35.486  35.476  1.00  0.00    -0.014 A 
BRANCH  50  51
ATOM     51  C   UNL A   1      42.826  35.153  36.720  1.00  0.00     0.031 A 
ATOM     52  C   UNL A   1      43.619  35.162  38.021  1.00  0.00     0.074 A 
ATOM     53  C   UNL A   1      41.472  35.336  36.722  1.00  0.00     0.049 A 
ATOM     54  N   UNL A   1      43.133  35.170  39.217  1.00  0.00    -0.248 NA
ATOM     55  C   UNL A   1      45.084  35.259  38.066  1.00  0.00     0.031 C 
ATOM     56  C   UNL A   1      40.637  35.764  37.856  1.00  0.00     0.029 A 
ATOM     57  N   UNL A   1      40.521  35.295  35.711  1.00  0.00    -0.354 N 
ATOM     58  C   UNL A   1      44.097  35.668  40.092  1.00  0.00     0.074 A 
ATOM     59  C   UNL A   1      45.318  35.633  39.332  1.00  0.00     0.031 C 
ATOM     60  C   UNL A   1      39.349  35.905  37.503  1.00  0.00     0.029 A 
ATOM     61  C   UNL A   1      39.232  35.202  36.256  1.00  0.00     0.049 A 
ATOM     62  H   UNL A   1      40.724  35.327  34.748  1.00  0.00     0.167 HD
ATOM     63  C   UNL A   1      43.714  36.180  41.308  1.00  0.00     0.031 A 
ATOM     64  C   UNL A   1      38.489  34.053  36.181  1.00  0.00     0.031 A 
ATOM     65  C   UNL A   1      42.265  35.964  41.537  1.00  0.00     0.049 A 
ATOM     66  C   UNL A   1      38.461  33.382  37.578  1.00  0.00     0.074 A 
ATOM     67  C   UNL A   1      41.193  36.772  41.876  1.00  0.00     0.029 A 
ATOM     68  N   UNL A   1      41.706  34.725  41.208  1.00  0.00    -0.354 N 
ATOM     69  N   UNL A   1      39.442  33.489  38.456  1.00  0.00    -0.248 NA
ATOM     70  C   UNL A   1      37.257  32.820  38.199  1.00  0.00     0.031 C 
ATOM     71  C   UNL A   1      39.991  36.054  41.580  1.00  0.00     0.029 A 
ATOM     72  C   UNL A   1      40.330  34.788  41.113  1.00  0.00     0.049 A 
ATOM     73  H   UNL A   1      42.232  33.906  41.062  1.00  0.00     0.167 HD
ATOM     74  C   UNL A   1      38.975  33.232  39.722  1.00  0.00     0.074 A 
ATOM     75  C   UNL A   1      37.622  32.737  39.495  1.00  0.00     0.031 C 
ATOM     76  C   UNL A   1      39.561  33.561  40.921  1.00  0.00     0.031 A 
BRANCH  63  77
ATOM     77  C   UNL A   1      44.572  37.039  42.269  1.00  0.00    -0.014 A 
ATOM     78  C   UNL A   1      44.884  38.376  41.913  1.00  0.00     0.010 A 
ATOM     79  C   UNL A   1      45.133  36.620  43.496  1.00  0.00     0.010 A 
ATOM     80  C   UNL A   1      45.690  39.226  42.701  1.00  0.00     0.020 A 
ATOM     81  C   UNL A   1      45.924  37.472  44.316  1.00  0.00     0.020 A 
ATOM     82  C   UNL A   1      46.200  38.774  43.909  1.00  0.00     0.054 A 
BRANCH  82  83
ATOM     83  S   UNL A   1      47.169  39.919  44.940  1.00  0.00     0.124 S 
ATOM     84  O   UNL A   1      48.185  39.046  45.522  1.00  0.00    -0.237 OA
ATOM     85  O   UNL A   1      47.662  40.889  43.964  1.00  0.00    -0.237 OA
ATOM     86  O   UNL A   1      46.192  40.448  45.891  1.00  0.00    -0.744 OA
ENDBRANCH  82  83
ENDBRANCH  63  77
BRANCH  64  87
ATOM     87  C   UNL A   1      38.462  33.541  34.766  1.00  0.00    -0.014 A 
ATOM     88  C   UNL A   1      37.550  32.466  34.573  1.00  0.00     0.010 A 
ATOM     89  C   UNL A   1      38.627  34.449  33.700  1.00  0.00     0.010 A 
ATOM     90  C   UNL A   1      36.610  32.494  33.531  1.00  0.00     0.020 A 
ATOM     91  C   UNL A   1      37.690  34.469  32.641  1.00  0.00     0.020 A 
ATOM     92  C   UNL A   1      36.640  33.541  32.614  1.00  0.00     0.054 A 
BRANCH  92  93
ATOM     93  S   UNL A   1      35.148  33.839  31.600  1.00  0.00     0.124 S 
ATOM     94  O   UNL A   1      34.659  35.108  32.124  1.00  0.00    -0.237 OA
ATOM     95  O   UNL A   1      35.687  33.876  30.241  1.00  0.00    -0.237 OA
ATOM     96  O   UNL A   1      34.320  32.674  31.892  1.00  0.00    -0.744 OA
ENDBRANCH  92  93
ENDBRANCH  64  87
BRANCH  76  97
ATOM     97  C   UNL A   1      39.492  32.640  42.120  1.00  0.00    -0.014 A 
ATOM     98  C   UNL A   1      40.388  31.582  42.308  1.00  0.00     0.010 A 
ATOM     99  C   UNL A   1      38.651  32.977  43.217  1.00  0.00     0.010 A 
ATOM    100  C   UNL A   1      40.410  30.864  43.503  1.00  0.00     0.020 A 
ATOM    101  C   UNL A   1      38.707  32.305  44.435  1.00  0.00     0.020 A 
ATOM    102  C   UNL A   1      39.572  31.230  44.558  1.00  0.00     0.054 A 
BRANCH 102 103
ATOM    103  S   UNL A   1      39.667  30.300  46.099  1.00  0.00     0.124 S 
ATOM    104  O   UNL A   1      40.341  31.253  46.978  1.00  0.00    -0.237 OA
ATOM    105  O   UNL A   1      38.261  30.049  46.407  1.00  0.00    -0.237 OA
ATOM    106  O   UNL A   1      40.443  29.115  45.747  1.00  0.00    -0.744 OA
ENDBRANCH 102 103
ENDBRANCH  76  97
ENDBRANCH  50  51
ENDBRANCH  43  45
ENDBRANCH  42  43
ENDBRANCH  41  42
ENDBRANCH  40  41
ENDBRANCH  39  40
ENDBRANCH  38  39
ENDBRANCH  37  38
ENDBRANCH  36  37
ENDBRANCH   1  36
TORSDOF 28
ENDMDL
