MODEL 1
REMARK VINA RESULT:      -8.4      0.000      0.000
REMARK SMILES Cn1cc(C(=O)NCCc2ccccc2)c(C(=O)OCCOCCOCCOCCOC(=O)c2ccc(-c3c4nc(c(-c5ccc(S(=O)(=O)[O-])cc5)c5ccc([nH]5)c(-c5ccc(S(=O)(=O)[O-])cc5)c5nc(c(-c6ccc(S(=O)(=O)[O-])cc6)c6ccc3[nH]6)C=C5)C=C4)cc2)n1
REMARK SMILES IDX 24 1 23 2 22 3 21 4 20 5 19 6 17 7 18 8 16 9 1 10 2 11 3 12
REMARK SMILES IDX 94 13 4 14 5 15 6 16 7 17 8 19 9 20 10 21 11 22 15 23 12 24
REMARK SMILES IDX 14 25 13 26 25 27 26 28 27 29 28 30 29 31 30 32 31 33 32 34
REMARK SMILES IDX 33 35 34 36 35 37 93 38 36 39 92 40 37 41 38 42 39 43 86 44
REMARK SMILES IDX 40 45 91 46 85 47 87 48 41 49 90 50 84 51 83 52 42 54 72 55
REMARK SMILES IDX 53 56 71 57 54 58 57 59 70 60 88 61 55 62 56 63 69 65 89 66
REMARK SMILES IDX 58 67 43 68 44 69 52 70 45 71 51 72 46 73 47 74 48 75 49 76
REMARK SMILES IDX 50 77 73 78 74 79 82 80 75 81 81 82 76 83 77 84 78 85 79 86
REMARK SMILES IDX 80 87 59 88 60 89 68 90 61 91 67 92 62 93 63 94 64 95 65 96
REMARK SMILES IDX 66 97
REMARK H PARENT 7 18 87 53 57 64
REMARK Flexibility Score: inf
ROOT
ATOM      1  C   UNL A   1      33.416  30.936  27.414  1.00  0.00     0.188 C 
ENDROOT
BRANCH   1   2
ATOM      2  C   UNL A   1      34.660  30.045  27.240  1.00  0.00     0.188 C 
BRANCH   2   3
ATOM      3  O   UNL A   1      34.515  29.060  26.208  1.00  0.00    -0.376 OA
BRANCH   3   4
ATOM      4  C   UNL A   1      33.584  28.010  26.470  1.00  0.00     0.202 C 
BRANCH   4   5
ATOM      5  C   UNL A   1      34.203  26.621  26.306  1.00  0.00     0.261 C 
BRANCH   5   6
ATOM      6  O   UNL A   1      34.027  26.115  24.980  1.00  0.00    -0.458 OA
BRANCH   6   7
ATOM      7  C   UNL A   1      34.487  24.870  24.695  1.00  0.00     0.359 C 
ATOM      8  O   UNL A   1      35.387  24.314  25.320  1.00  0.00    -0.244 OA
BRANCH   7   9
ATOM      9  C   UNL A   1      33.621  24.201  23.705  1.00  0.00     0.183 A 
ATOM     10  C   UNL A   1      33.099  23.282  20.366  1.00  0.00     0.173 C 
ATOM     11  N   UNL A   1      33.060  23.448  21.800  1.00  0.00    -0.274 N 
ATOM     12  C   UNL A   1      32.259  22.781  22.675  1.00  0.00     0.123 A 
ATOM     13  N   UNL A   1      33.902  24.303  22.388  1.00  0.00    -0.165 NA
ATOM     14  C   UNL A   1      32.515  23.301  23.932  1.00  0.00     0.092 A 
BRANCH  14  15
ATOM     15  C   UNL A   1      31.899  22.996  25.218  1.00  0.00     0.255 C 
ATOM     16  O   UNL A   1      32.075  21.916  25.777  1.00  0.00    -0.269 OA
ATOM     17  N   UNL A   1      31.134  23.898  25.900  1.00  0.00    -0.352 N 
ATOM     18  H   UNL A   1      30.718  23.517  26.707  1.00  0.00     0.163 HD
BRANCH  17  19
ATOM     19  C   UNL A   1      30.799  25.298  25.698  1.00  0.00     0.121 C 
BRANCH  19  20
ATOM     20  C   UNL A   1      29.947  25.509  24.440  1.00  0.00     0.057 C 
BRANCH  20  21
ATOM     21  C   UNL A   1      29.855  26.973  24.073  1.00  0.00    -0.046 A 
ATOM     22  C   UNL A   1      28.738  27.457  23.376  1.00  0.00     0.004 A 
ATOM     23  C   UNL A   1      30.913  27.850  24.352  1.00  0.00     0.004 A 
ATOM     24  C   UNL A   1      28.691  28.785  22.948  1.00  0.00     0.000 A 
ATOM     25  C   UNL A   1      30.870  29.173  23.911  1.00  0.00     0.000 A 
ATOM     26  C   UNL A   1      29.762  29.640  23.207  1.00  0.00     0.000 A 
ENDBRANCH  20  21
ENDBRANCH  19  20
ENDBRANCH  17  19
ENDBRANCH  14  15
ENDBRANCH   7   9
ENDBRANCH   6   7
ENDBRANCH   5   6
ENDBRANCH   4   5
ENDBRANCH   3   4
ENDBRANCH   2   3
ENDBRANCH   1   2
BRANCH   1  27
ATOM     27  O   UNL A   1      33.463  31.968  28.392  1.00  0.00    -0.377 OA
BRANCH  27  28
ATOM     28  C   UNL A   1      34.194  33.130  28.010  1.00  0.00     0.188 C 
BRANCH  28  29
ATOM     29  C   UNL A   1      33.313  34.390  28.080  1.00  0.00     0.188 C 
BRANCH  29  30
ATOM     30  O   UNL A   1      33.461  35.101  29.312  1.00  0.00    -0.376 OA
BRANCH  30  31
ATOM     31  C   UNL A   1      34.476  34.622  30.192  1.00  0.00     0.202 C 
BRANCH  31  32
ATOM     32  C   UNL A   1      34.008  33.917  31.476  1.00  0.00     0.261 C 
BRANCH  32  33
ATOM     33  O   UNL A   1      34.474  32.566  31.646  1.00  0.00    -0.460 OA
BRANCH  33  34
ATOM     34  C   UNL A   1      35.418  32.346  32.584  1.00  0.00     0.338 C 
ATOM     35  O   UNL A   1      35.324  32.525  33.786  1.00  0.00    -0.246 OA
BRANCH  34  36
ATOM     36  C   UNL A   1      36.558  31.677  31.929  1.00  0.00     0.060 A 
ATOM     37  C   UNL A   1      37.498  31.012  32.726  1.00  0.00     0.016 A 
ATOM     38  C   UNL A   1      36.701  31.714  30.539  1.00  0.00     0.016 A 
ATOM     39  C   UNL A   1      38.612  30.415  32.134  1.00  0.00     0.010 A 
ATOM     40  C   UNL A   1      37.826  31.132  29.951  1.00  0.00     0.010 A 
ATOM     41  C   UNL A   1      38.801  30.510  30.749  1.00  0.00    -0.014 A 
BRANCH  41  42
ATOM     42  C   UNL A   1      40.108  30.142  30.153  1.00  0.00     0.031 A 
ATOM     43  C   UNL A   1      41.159  31.211  30.034  1.00  0.00     0.074 A 
ATOM     44  C   UNL A   1      40.356  28.892  29.724  1.00  0.00     0.049 A 
ATOM     45  N   UNL A   1      42.360  31.138  29.524  1.00  0.00    -0.248 NA
ATOM     46  C   UNL A   1      40.807  32.542  30.560  1.00  0.00     0.031 C 
ATOM     47  C   UNL A   1      39.431  27.763  29.810  1.00  0.00     0.029 A 
ATOM     48  N   UNL A   1      41.471  28.369  29.117  1.00  0.00    -0.354 N 
ATOM     49  C   UNL A   1      42.907  32.407  29.666  1.00  0.00     0.074 A 
ATOM     50  C   UNL A   1      41.900  33.239  30.289  1.00  0.00     0.031 C 
ATOM     51  C   UNL A   1      40.013  26.681  29.263  1.00  0.00     0.029 A 
ATOM     52  C   UNL A   1      41.341  27.046  28.769  1.00  0.00     0.049 A 
ATOM     53  H   UNL A   1      42.288  28.893  28.948  1.00  0.00     0.167 HD
ATOM     54  C   UNL A   1      44.138  32.845  29.313  1.00  0.00     0.031 A 
ATOM     55  C   UNL A   1      42.191  26.230  28.114  1.00  0.00     0.031 A 
ATOM     56  C   UNL A   1      45.132  32.029  28.673  1.00  0.00     0.049 A 
ATOM     57  C   UNL A   1      43.531  26.759  27.670  1.00  0.00     0.074 A 
ATOM     58  C   UNL A   1      46.412  32.379  28.284  1.00  0.00     0.029 A 
ATOM     59  N   UNL A   1      44.953  30.701  28.318  1.00  0.00    -0.354 N 
ATOM     60  N   UNL A   1      44.047  27.954  27.845  1.00  0.00    -0.248 NA
ATOM     61  C   UNL A   1      44.407  25.827  26.945  1.00  0.00     0.031 C 
ATOM     62  C   UNL A   1      46.993  31.273  27.653  1.00  0.00     0.029 A 
ATOM     63  C   UNL A   1      46.090  30.223  27.693  1.00  0.00     0.049 A 
ATOM     64  H   UNL A   1      44.137  30.177  28.486  1.00  0.00     0.167 HD
ATOM     65  C   UNL A   1      45.316  27.905  27.276  1.00  0.00     0.074 A 
ATOM     66  C   UNL A   1      45.494  26.564  26.760  1.00  0.00     0.031 C 
ATOM     67  C   UNL A   1      46.252  28.883  27.191  1.00  0.00     0.031 A 
BRANCH  54  68
ATOM     68  C   UNL A   1      44.464  34.284  29.592  1.00  0.00    -0.014 A 
ATOM     69  C   UNL A   1      45.077  34.667  30.798  1.00  0.00     0.010 A 
ATOM     70  C   UNL A   1      44.181  35.263  28.623  1.00  0.00     0.010 A 
ATOM     71  C   UNL A   1      45.375  36.009  31.043  1.00  0.00     0.020 A 
ATOM     72  C   UNL A   1      44.496  36.605  28.857  1.00  0.00     0.020 A 
ATOM     73  C   UNL A   1      45.079  36.970  30.072  1.00  0.00     0.054 A 
BRANCH  73  74
ATOM     74  S   UNL A   1      45.499  38.703  30.402  1.00  0.00     0.124 S 
ATOM     75  O   UNL A   1      44.202  39.261  30.779  1.00  0.00    -0.237 OA
ATOM     76  O   UNL A   1      46.475  38.597  31.484  1.00  0.00    -0.237 OA
ATOM     77  O   UNL A   1      46.035  39.178  29.130  1.00  0.00    -0.744 OA
ENDBRANCH  73  74
ENDBRANCH  54  68
BRANCH  55  78
ATOM     78  C   UNL A   1      41.799  24.827  27.812  1.00  0.00    -0.014 A 
ATOM     79  C   UNL A   1      42.213  23.771  28.644  1.00  0.00     0.010 A 
ATOM     80  C   UNL A   1      41.032  24.536  26.669  1.00  0.00     0.010 A 
ATOM     81  C   UNL A   1      41.889  22.450  28.326  1.00  0.00     0.020 A 
ATOM     82  C   UNL A   1      40.685  23.218  26.361  1.00  0.00     0.020 A 
ATOM     83  C   UNL A   1      41.129  22.180  27.183  1.00  0.00     0.054 A 
BRANCH  83  84
ATOM     84  S   UNL A   1      40.692  20.462  26.800  1.00  0.00     0.124 S 
ATOM     85  O   UNL A   1      41.782  20.062  25.916  1.00  0.00    -0.237 OA
ATOM     86  O   UNL A   1      40.683  19.833  28.119  1.00  0.00    -0.237 OA
ATOM     87  O   UNL A   1      39.381  20.578  26.167  1.00  0.00    -0.744 OA
ENDBRANCH  83  84
ENDBRANCH  55  78
BRANCH  67  88
ATOM     88  C   UNL A   1      47.568  28.534  26.550  1.00  0.00    -0.014 A 
ATOM     89  C   UNL A   1      48.745  28.439  27.310  1.00  0.00     0.010 A 
ATOM     90  C   UNL A   1      47.608  28.230  25.177  1.00  0.00     0.010 A 
ATOM     91  C   UNL A   1      49.948  28.068  26.703  1.00  0.00     0.020 A 
ATOM     92  C   UNL A   1      48.805  27.838  24.571  1.00  0.00     0.020 A 
ATOM     93  C   UNL A   1      49.971  27.772  25.336  1.00  0.00     0.054 A 
BRANCH  93  94
ATOM     94  S   UNL A   1      51.532  27.243  24.579  1.00  0.00     0.124 S 
ATOM     95  O   UNL A   1      51.815  26.005  25.300  1.00  0.00    -0.237 OA
ATOM     96  O   UNL A   1      51.172  27.083  23.172  1.00  0.00    -0.237 OA
ATOM     97  O   UNL A   1      52.444  28.350  24.859  1.00  0.00    -0.744 OA
ENDBRANCH  93  94
ENDBRANCH  67  88
ENDBRANCH  41  42
ENDBRANCH  34  36
ENDBRANCH  33  34
ENDBRANCH  32  33
ENDBRANCH  31  32
ENDBRANCH  30  31
ENDBRANCH  29  30
ENDBRANCH  28  29
ENDBRANCH  27  28
ENDBRANCH   1  27
TORSDOF 27
ENDMDL
MODEL 2
REMARK VINA RESULT:      -8.4      1.311      3.108
REMARK SMILES Cn1cc(C(=O)NCCc2ccccc2)c(C(=O)OCCOCCOCCOCCOC(=O)c2ccc(-c3c4nc(c(-c5ccc(S(=O)(=O)[O-])cc5)c5ccc([nH]5)c(-c5ccc(S(=O)(=O)[O-])cc5)c5nc(c(-c6ccc(S(=O)(=O)[O-])cc6)c6ccc3[nH]6)C=C5)C=C4)cc2)n1
REMARK SMILES IDX 24 1 23 2 22 3 21 4 20 5 19 6 17 7 18 8 16 9 1 10 2 11 3 12
REMARK SMILES IDX 94 13 4 14 5 15 6 16 7 17 8 19 9 20 10 21 11 22 15 23 12 24
REMARK SMILES IDX 14 25 13 26 25 27 26 28 27 29 28 30 29 31 30 32 31 33 32 34
REMARK SMILES IDX 33 35 34 36 35 37 93 38 36 39 92 40 37 41 38 42 39 43 86 44
REMARK SMILES IDX 40 45 91 46 85 47 87 48 41 49 90 50 84 51 83 52 42 54 72 55
REMARK SMILES IDX 53 56 71 57 54 58 57 59 70 60 88 61 55 62 56 63 69 65 89 66
REMARK SMILES IDX 58 67 43 68 44 69 52 70 45 71 51 72 46 73 47 74 48 75 49 76
REMARK SMILES IDX 50 77 73 78 74 79 82 80 75 81 81 82 76 83 77 84 78 85 79 86
REMARK SMILES IDX 80 87 59 88 60 89 68 90 61 91 67 92 62 93 63 94 64 95 65 96
REMARK SMILES IDX 66 97
REMARK H PARENT 7 18 87 53 57 64
REMARK Flexibility Score: inf
ROOT
ATOM      1  C   UNL A   1      33.532  31.078  27.301  1.00  0.00     0.188 C 
ENDROOT
BRANCH   1   2
ATOM      2  C   UNL A   1      34.768  30.180  27.104  1.00  0.00     0.188 C 
BRANCH   2   3
ATOM      3  O   UNL A   1      34.633  29.258  26.014  1.00  0.00    -0.376 OA
BRANCH   3   4
ATOM      4  C   UNL A   1      33.422  28.503  25.977  1.00  0.00     0.202 C 
BRANCH   4   5
ATOM      5  C   UNL A   1      33.623  27.048  26.404  1.00  0.00     0.261 C 
BRANCH   5   6
ATOM      6  O   UNL A   1      33.664  26.166  25.279  1.00  0.00    -0.458 OA
BRANCH   6   7
ATOM      7  C   UNL A   1      33.726  24.829  25.505  1.00  0.00     0.359 C 
ATOM      8  O   UNL A   1      34.747  24.242  25.852  1.00  0.00    -0.244 OA
BRANCH   7   9
ATOM      9  C   UNL A   1      32.378  24.229  25.502  1.00  0.00     0.183 A 
ATOM     10  C   UNL A   1      29.682  22.994  27.366  1.00  0.00     0.173 C 
ATOM     11  N   UNL A   1      30.574  23.488  26.343  1.00  0.00    -0.274 N 
ATOM     12  C   UNL A   1      30.262  23.737  25.042  1.00  0.00     0.123 A 
ATOM     13  N   UNL A   1      31.838  23.785  26.658  1.00  0.00    -0.165 NA
ATOM     14  C   UNL A   1      31.431  24.137  24.417  1.00  0.00     0.092 A 
BRANCH  14  15
ATOM     15  C   UNL A   1      31.682  24.469  23.020  1.00  0.00     0.255 C 
ATOM     16  O   UNL A   1      31.369  25.559  22.549  1.00  0.00    -0.269 OA
ATOM     17  N   UNL A   1      32.320  23.616  22.164  1.00  0.00    -0.352 N 
ATOM     18  H   UNL A   1      32.337  23.944  21.236  1.00  0.00     0.163 HD
BRANCH  17  19
ATOM     19  C   UNL A   1      32.978  22.330  22.322  1.00  0.00     0.121 C 
BRANCH  19  20
ATOM     20  C   UNL A   1      31.974  21.173  22.381  1.00  0.00     0.057 C 
BRANCH  20  21
ATOM     21  C   UNL A   1      32.565  19.960  23.063  1.00  0.00    -0.046 A 
ATOM     22  C   UNL A   1      33.534  20.116  24.065  1.00  0.00     0.004 A 
ATOM     23  C   UNL A   1      32.217  18.665  22.653  1.00  0.00     0.004 A 
ATOM     24  C   UNL A   1      34.156  19.001  24.629  1.00  0.00     0.000 A 
ATOM     25  C   UNL A   1      32.849  17.553  23.209  1.00  0.00     0.000 A 
ATOM     26  C   UNL A   1      33.821  17.720  24.193  1.00  0.00     0.000 A 
ENDBRANCH  20  21
ENDBRANCH  19  20
ENDBRANCH  17  19
ENDBRANCH  14  15
ENDBRANCH   7   9
ENDBRANCH   6   7
ENDBRANCH   5   6
ENDBRANCH   4   5
ENDBRANCH   3   4
ENDBRANCH   2   3
ENDBRANCH   1   2
BRANCH   1  27
ATOM     27  O   UNL A   1      33.563  32.041  28.348  1.00  0.00    -0.377 OA
BRANCH  27  28
ATOM     28  C   UNL A   1      34.249  33.251  28.036  1.00  0.00     0.188 C 
BRANCH  28  29
ATOM     29  C   UNL A   1      33.305  34.463  28.118  1.00  0.00     0.188 C 
BRANCH  29  30
ATOM     30  O   UNL A   1      33.385  35.142  29.373  1.00  0.00    -0.376 OA
BRANCH  30  31
ATOM     31  C   UNL A   1      34.429  34.720  30.248  1.00  0.00     0.202 C 
BRANCH  31  32
ATOM     32  C   UNL A   1      34.015  33.907  31.485  1.00  0.00     0.261 C 
BRANCH  32  33
ATOM     33  O   UNL A   1      34.579  32.587  31.578  1.00  0.00    -0.460 OA
BRANCH  33  34
ATOM     34  C   UNL A   1      35.534  32.382  32.509  1.00  0.00     0.338 C 
ATOM     35  O   UNL A   1      35.450  32.571  33.709  1.00  0.00    -0.246 OA
BRANCH  34  36
ATOM     36  C   UNL A   1      36.672  31.713  31.849  1.00  0.00     0.060 A 
ATOM     37  C   UNL A   1      37.601  31.026  32.641  1.00  0.00     0.016 A 
ATOM     38  C   UNL A   1      36.825  31.773  30.461  1.00  0.00     0.016 A 
ATOM     39  C   UNL A   1      38.713  30.429  32.045  1.00  0.00     0.010 A 
ATOM     40  C   UNL A   1      37.948  31.191  29.870  1.00  0.00     0.010 A 
ATOM     41  C   UNL A   1      38.912  30.547  30.663  1.00  0.00    -0.014 A 
BRANCH  41  42
ATOM     42  C   UNL A   1      40.219  30.177  30.069  1.00  0.00     0.031 A 
ATOM     43  C   UNL A   1      41.272  31.245  29.952  1.00  0.00     0.074 A 
ATOM     44  C   UNL A   1      40.466  28.926  29.641  1.00  0.00     0.049 A 
ATOM     45  N   UNL A   1      42.473  31.170  29.443  1.00  0.00    -0.248 NA
ATOM     46  C   UNL A   1      40.921  32.576  30.476  1.00  0.00     0.031 C 
ATOM     47  C   UNL A   1      39.540  27.799  29.725  1.00  0.00     0.029 A 
ATOM     48  N   UNL A   1      41.581  28.402  29.035  1.00  0.00    -0.354 N 
ATOM     49  C   UNL A   1      43.022  32.438  29.586  1.00  0.00     0.074 A 
ATOM     50  C   UNL A   1      42.015  33.271  30.207  1.00  0.00     0.031 C 
ATOM     51  C   UNL A   1      40.121  26.715  29.179  1.00  0.00     0.029 A 
ATOM     52  C   UNL A   1      41.451  27.079  28.687  1.00  0.00     0.049 A 
ATOM     53  H   UNL A   1      42.399  28.924  28.867  1.00  0.00     0.167 HD
ATOM     54  C   UNL A   1      44.254  32.874  29.235  1.00  0.00     0.031 A 
ATOM     55  C   UNL A   1      42.300  26.262  28.033  1.00  0.00     0.031 A 
ATOM     56  C   UNL A   1      45.247  32.057  28.596  1.00  0.00     0.049 A 
ATOM     57  C   UNL A   1      43.641  26.789  27.591  1.00  0.00     0.074 A 
ATOM     58  C   UNL A   1      46.529  32.405  28.209  1.00  0.00     0.029 A 
ATOM     59  N   UNL A   1      45.067  30.729  28.241  1.00  0.00    -0.354 N 
ATOM     60  N   UNL A   1      44.158  27.983  27.766  1.00  0.00    -0.248 NA
ATOM     61  C   UNL A   1      44.517  25.856  26.868  1.00  0.00     0.031 C 
ATOM     62  C   UNL A   1      47.109  31.299  27.578  1.00  0.00     0.029 A 
ATOM     63  C   UNL A   1      46.205  30.250  27.618  1.00  0.00     0.049 A 
ATOM     64  H   UNL A   1      44.250  30.206  28.408  1.00  0.00     0.167 HD
ATOM     65  C   UNL A   1      45.428  27.933  27.200  1.00  0.00     0.074 A 
ATOM     66  C   UNL A   1      45.605  26.591  26.684  1.00  0.00     0.031 C 
ATOM     67  C   UNL A   1      46.365  28.910  27.116  1.00  0.00     0.031 A 
BRANCH  54  68
ATOM     68  C   UNL A   1      44.581  34.314  29.514  1.00  0.00    -0.014 A 
ATOM     69  C   UNL A   1      44.575  35.269  28.483  1.00  0.00     0.010 A 
ATOM     70  C   UNL A   1      44.869  34.721  30.829  1.00  0.00     0.010 A 
ATOM     71  C   UNL A   1      44.881  36.605  28.757  1.00  0.00     0.020 A 
ATOM     72  C   UNL A   1      45.155  36.060  31.109  1.00  0.00     0.020 A 
ATOM     73  C   UNL A   1      45.173  36.990  30.068  1.00  0.00     0.054 A 
BRANCH  73  74
ATOM     74  S   UNL A   1      45.539  38.735  30.404  1.00  0.00     0.124 S 
ATOM     75  O   UNL A   1      44.532  39.065  31.410  1.00  0.00    -0.237 OA
ATOM     76  O   UNL A   1      46.917  38.687  30.887  1.00  0.00    -0.237 OA
ATOM     77  O   UNL A   1      45.360  39.382  29.108  1.00  0.00    -0.744 OA
ENDBRANCH  73  74
ENDBRANCH  54  68
BRANCH  55  78
ATOM     78  C   UNL A   1      41.907  24.860  27.731  1.00  0.00    -0.014 A 
ATOM     79  C   UNL A   1      42.192  23.823  28.637  1.00  0.00     0.010 A 
ATOM     80  C   UNL A   1      41.270  24.549  26.516  1.00  0.00     0.010 A 
ATOM     81  C   UNL A   1      41.870  22.500  28.325  1.00  0.00     0.020 A 
ATOM     82  C   UNL A   1      40.924  23.230  26.210  1.00  0.00     0.020 A 
ATOM     83  C   UNL A   1      41.241  22.210  27.110  1.00  0.00     0.054 A 
BRANCH  83  84
ATOM     84  S   UNL A   1      40.803  20.491  26.731  1.00  0.00     0.124 S 
ATOM     85  O   UNL A   1      41.883  20.095  25.832  1.00  0.00    -0.237 OA
ATOM     86  O   UNL A   1      40.815  19.861  28.050  1.00  0.00    -0.237 OA
ATOM     87  O   UNL A   1      39.483  20.604  26.116  1.00  0.00    -0.744 OA
ENDBRANCH  83  84
ENDBRANCH  55  78
BRANCH  67  88
ATOM     88  C   UNL A   1      47.682  28.559  26.477  1.00  0.00    -0.014 A 
ATOM     89  C   UNL A   1      48.868  28.517  27.229  1.00  0.00     0.010 A 
ATOM     90  C   UNL A   1      47.716  28.200  25.117  1.00  0.00     0.010 A 
ATOM     91  C   UNL A   1      50.072  28.144  26.625  1.00  0.00     0.020 A 
ATOM     92  C   UNL A   1      48.914  27.805  24.516  1.00  0.00     0.020 A 
ATOM     93  C   UNL A   1      50.088  27.792  25.272  1.00  0.00     0.054 A 
BRANCH  93  94
ATOM     94  S   UNL A   1      51.651  27.262  24.521  1.00  0.00     0.124 S 
ATOM     95  O   UNL A   1      51.697  25.848  24.883  1.00  0.00    -0.237 OA
ATOM     96  O   UNL A   1      51.442  27.541  23.103  1.00  0.00    -0.237 OA
ATOM     97  O   UNL A   1      52.652  28.105  25.173  1.00  0.00    -0.744 OA
ENDBRANCH  93  94
ENDBRANCH  67  88
ENDBRANCH  41  42
ENDBRANCH  34  36
ENDBRANCH  33  34
ENDBRANCH  32  33
ENDBRANCH  31  32
ENDBRANCH  30  31
ENDBRANCH  29  30
ENDBRANCH  28  29
ENDBRANCH  27  28
ENDBRANCH   1  27
TORSDOF 27
ENDMDL
MODEL 3
REMARK VINA RESULT:      -7.9      8.153     11.825
REMARK SMILES Cn1cc(C(=O)NCCc2ccccc2)c(C(=O)OCCOCCOCCOCCOC(=O)c2ccc(-c3c4nc(c(-c5ccc(S(=O)(=O)[O-])cc5)c5ccc([nH]5)c(-c5ccc(S(=O)(=O)[O-])cc5)c5nc(c(-c6ccc(S(=O)(=O)[O-])cc6)c6ccc3[nH]6)C=C5)C=C4)cc2)n1
REMARK SMILES IDX 24 1 23 2 22 3 21 4 20 5 19 6 17 7 18 8 16 9 1 10 2 11 3 12
REMARK SMILES IDX 94 13 4 14 5 15 6 16 7 17 8 19 9 20 10 21 11 22 15 23 12 24
REMARK SMILES IDX 14 25 13 26 25 27 26 28 27 29 28 30 29 31 30 32 31 33 32 34
REMARK SMILES IDX 33 35 34 36 35 37 93 38 36 39 92 40 37 41 38 42 39 43 86 44
REMARK SMILES IDX 40 45 91 46 85 47 87 48 41 49 90 50 84 51 83 52 42 54 72 55
REMARK SMILES IDX 53 56 71 57 54 58 57 59 70 60 88 61 55 62 56 63 69 65 89 66
REMARK SMILES IDX 58 67 43 68 44 69 52 70 45 71 51 72 46 73 47 74 48 75 49 76
REMARK SMILES IDX 50 77 73 78 74 79 82 80 75 81 81 82 76 83 77 84 78 85 79 86
REMARK SMILES IDX 80 87 59 88 60 89 68 90 61 91 67 92 62 93 63 94 64 95 65 96
REMARK SMILES IDX 66 97
REMARK H PARENT 7 18 87 53 57 64
REMARK Flexibility Score: inf
ROOT
ATOM      1  C   UNL A   1      31.777  29.177  26.593  1.00  0.00     0.188 C 
ENDROOT
BRANCH   1   2
ATOM      2  C   UNL A   1      32.138  29.503  25.132  1.00  0.00     0.188 C 
BRANCH   2   3
ATOM      3  O   UNL A   1      32.983  28.518  24.522  1.00  0.00    -0.376 OA
BRANCH   3   4
ATOM      4  C   UNL A   1      33.488  28.840  23.227  1.00  0.00     0.202 C 
BRANCH   4   5
ATOM      5  C   UNL A   1      33.559  27.623  22.303  1.00  0.00     0.261 C 
BRANCH   5   6
ATOM      6  O   UNL A   1      33.365  26.401  23.020  1.00  0.00    -0.458 OA
BRANCH   6   7
ATOM      7  C   UNL A   1      33.166  25.259  22.312  1.00  0.00     0.359 C 
ATOM      8  O   UNL A   1      33.442  25.137  21.122  1.00  0.00    -0.244 OA
BRANCH   7   9
ATOM      9  C   UNL A   1      32.801  24.142  23.205  1.00  0.00     0.183 A 
ATOM     10  C   UNL A   1      33.021  20.719  23.907  1.00  0.00     0.173 C 
ATOM     11  N   UNL A   1      32.806  22.147  23.930  1.00  0.00    -0.274 N 
ATOM     12  C   UNL A   1      32.366  22.887  24.983  1.00  0.00     0.123 A 
ATOM     13  N   UNL A   1      33.090  22.873  22.845  1.00  0.00    -0.165 NA
ATOM     14  C   UNL A   1      32.251  24.193  24.539  1.00  0.00     0.092 A 
BRANCH  14  15
ATOM     15  C   UNL A   1      31.770  25.382  25.231  1.00  0.00     0.255 C 
ATOM     16  O   UNL A   1      32.327  25.811  26.239  1.00  0.00    -0.269 OA
ATOM     17  N   UNL A   1      30.710  26.117  24.781  1.00  0.00    -0.352 N 
ATOM     18  H   UNL A   1      30.452  26.838  25.401  1.00  0.00     0.163 HD
BRANCH  17  19
ATOM     19  C   UNL A   1      29.881  26.071  23.589  1.00  0.00     0.121 C 
BRANCH  19  20
ATOM     20  C   UNL A   1      28.570  26.847  23.770  1.00  0.00     0.057 C 
BRANCH  20  21
ATOM     21  C   UNL A   1      28.630  28.200  23.097  1.00  0.00    -0.046 A 
ATOM     22  C   UNL A   1      29.810  28.621  22.464  1.00  0.00     0.004 A 
ATOM     23  C   UNL A   1      27.543  29.081  23.160  1.00  0.00     0.004 A 
ATOM     24  C   UNL A   1      29.905  29.906  21.927  1.00  0.00     0.000 A 
ATOM     25  C   UNL A   1      27.644  30.369  22.635  1.00  0.00     0.000 A 
ATOM     26  C   UNL A   1      28.826  30.783  22.022  1.00  0.00     0.000 A 
ENDBRANCH  20  21
ENDBRANCH  19  20
ENDBRANCH  17  19
ENDBRANCH  14  15
ENDBRANCH   7   9
ENDBRANCH   6   7
ENDBRANCH   5   6
ENDBRANCH   4   5
ENDBRANCH   3   4
ENDBRANCH   2   3
ENDBRANCH   1   2
BRANCH   1  27
ATOM     27  O   UNL A   1      32.509  29.826  27.626  1.00  0.00    -0.377 OA
BRANCH  27  28
ATOM     28  C   UNL A   1      33.411  30.837  27.184  1.00  0.00     0.188 C 
BRANCH  28  29
ATOM     29  C   UNL A   1      34.844  30.555  27.668  1.00  0.00     0.188 C 
BRANCH  29  30
ATOM     30  O   UNL A   1      35.282  31.479  28.668  1.00  0.00    -0.376 OA
BRANCH  30  31
ATOM     31  C   UNL A   1      36.664  31.829  28.634  1.00  0.00     0.202 C 
BRANCH  31  32
ATOM     32  C   UNL A   1      37.411  31.843  29.978  1.00  0.00     0.261 C 
BRANCH  32  33
ATOM     33  O   UNL A   1      37.455  33.115  30.649  1.00  0.00    -0.460 OA
BRANCH  33  34
ATOM     34  C   UNL A   1      36.467  33.391  31.526  1.00  0.00     0.338 C 
ATOM     35  O   UNL A   1      35.295  33.613  31.275  1.00  0.00    -0.246 OA
BRANCH  34  36
ATOM     36  C   UNL A   1      37.007  33.212  32.887  1.00  0.00     0.060 A 
ATOM     37  C   UNL A   1      37.485  34.334  33.575  1.00  0.00     0.016 A 
ATOM     38  C   UNL A   1      37.051  31.944  33.474  1.00  0.00     0.016 A 
ATOM     39  C   UNL A   1      38.048  34.182  34.844  1.00  0.00     0.010 A 
ATOM     40  C   UNL A   1      37.632  31.793  34.734  1.00  0.00     0.010 A 
ATOM     41  C   UNL A   1      38.162  32.905  35.408  1.00  0.00    -0.014 A 
BRANCH  41  42
ATOM     42  C   UNL A   1      39.011  32.699  36.606  1.00  0.00     0.031 A 
ATOM     43  C   UNL A   1      40.482  32.461  36.400  1.00  0.00     0.074 A 
ATOM     44  C   UNL A   1      38.491  32.717  37.846  1.00  0.00     0.049 A 
ATOM     45  N   UNL A   1      41.414  32.226  37.285  1.00  0.00    -0.248 NA
ATOM     46  C   UNL A   1      40.965  32.490  35.008  1.00  0.00     0.031 C 
ATOM     47  C   UNL A   1      37.089  32.965  38.178  1.00  0.00     0.029 A 
ATOM     48  N   UNL A   1      39.094  32.511  39.062  1.00  0.00    -0.354 N 
ATOM     49  C   UNL A   1      42.592  32.080  36.562  1.00  0.00     0.074 A 
ATOM     50  C   UNL A   1      42.254  32.229  35.163  1.00  0.00     0.031 C 
ATOM     51  C   UNL A   1      36.936  32.884  39.512  1.00  0.00     0.029 A 
ATOM     52  C   UNL A   1      38.224  32.558  40.125  1.00  0.00     0.049 A 
ATOM     53  H   UNL A   1      40.060  32.346  39.164  1.00  0.00     0.167 HD
ATOM     54  C   UNL A   1      43.844  31.846  37.018  1.00  0.00     0.031 A 
ATOM     55  C   UNL A   1      38.441  32.345  41.438  1.00  0.00     0.031 A 
ATOM     56  C   UNL A   1      44.179  31.674  38.403  1.00  0.00     0.049 A 
ATOM     57  C   UNL A   1      39.833  32.018  41.915  1.00  0.00     0.074 A 
ATOM     58  C   UNL A   1      45.421  31.441  38.966  1.00  0.00     0.029 A 
ATOM     59  N   UNL A   1      43.266  31.707  39.446  1.00  0.00    -0.354 N 
ATOM     60  N   UNL A   1      40.943  31.918  41.221  1.00  0.00    -0.248 NA
ATOM     61  C   UNL A   1      40.004  31.780  43.356  1.00  0.00     0.031 C 
ATOM     62  C   UNL A   1      45.252  31.288  40.346  1.00  0.00     0.029 A 
ATOM     63  C   UNL A   1      43.913  31.474  40.646  1.00  0.00     0.049 A 
ATOM     64  H   UNL A   1      42.300  31.870  39.346  1.00  0.00     0.167 HD
ATOM     65  C   UNL A   1      41.944  31.635  42.144  1.00  0.00     0.074 A 
ATOM     66  C   UNL A   1      41.312  31.586  43.446  1.00  0.00     0.031 C 
ATOM     67  C   UNL A   1      43.269  31.435  41.933  1.00  0.00     0.031 A 
BRANCH  54  68
ATOM     68  C   UNL A   1      44.940  31.736  35.996  1.00  0.00    -0.014 A 
ATOM     69  C   UNL A   1      45.256  30.500  35.406  1.00  0.00     0.010 A 
ATOM     70  C   UNL A   1      45.641  32.888  35.599  1.00  0.00     0.010 A 
ATOM     71  C   UNL A   1      46.278  30.412  34.457  1.00  0.00     0.020 A 
ATOM     72  C   UNL A   1      46.650  32.807  34.635  1.00  0.00     0.020 A 
ATOM     73  C   UNL A   1      46.970  31.566  34.081  1.00  0.00     0.054 A 
BRANCH  73  74
ATOM     74  S   UNL A   1      48.274  31.432  32.826  1.00  0.00     0.124 S 
ATOM     75  O   UNL A   1      48.126  30.046  32.387  1.00  0.00    -0.237 OA
ATOM     76  O   UNL A   1      47.886  32.445  31.849  1.00  0.00    -0.237 OA
ATOM     77  O   UNL A   1      49.498  31.723  33.567  1.00  0.00    -0.744 OA
ENDBRANCH  73  74
ENDBRANCH  54  68
BRANCH  55  78
ATOM     78  C   UNL A   1      37.311  32.410  42.404  1.00  0.00    -0.014 A 
ATOM     79  C   UNL A   1      36.954  33.627  43.010  1.00  0.00     0.010 A 
ATOM     80  C   UNL A   1      36.604  31.243  42.747  1.00  0.00     0.010 A 
ATOM     81  C   UNL A   1      35.928  33.674  43.958  1.00  0.00     0.020 A 
ATOM     82  C   UNL A   1      35.561  31.289  43.675  1.00  0.00     0.020 A 
ATOM     83  C   UNL A   1      35.240  32.502  44.288  1.00  0.00     0.054 A 
BRANCH  83  84
ATOM     84  S   UNL A   1      33.891  32.584  45.499  1.00  0.00     0.124 S 
ATOM     85  O   UNL A   1      34.233  33.787  46.251  1.00  0.00    -0.237 OA
ATOM     86  O   UNL A   1      32.706  32.683  44.650  1.00  0.00    -0.237 OA
ATOM     87  O   UNL A   1      34.018  31.328  46.233  1.00  0.00    -0.744 OA
ENDBRANCH  83  84
ENDBRANCH  55  78
BRANCH  67  88
ATOM     88  C   UNL A   1      44.135  31.182  43.137  1.00  0.00    -0.014 A 
ATOM     89  C   UNL A   1      44.460  29.875  43.538  1.00  0.00     0.010 A 
ATOM     90  C   UNL A   1      44.685  32.273  43.834  1.00  0.00     0.010 A 
ATOM     91  C   UNL A   1      45.303  29.662  44.632  1.00  0.00     0.020 A 
ATOM     92  C   UNL A   1      45.547  32.064  44.915  1.00  0.00     0.020 A 
ATOM     93  C   UNL A   1      45.840  30.758  45.316  1.00  0.00     0.054 A 
BRANCH  93  94
ATOM     94  S   UNL A   1      46.973  30.460  46.700  1.00  0.00     0.124 S 
ATOM     95  O   UNL A   1      48.156  29.943  46.018  1.00  0.00    -0.237 OA
ATOM     96  O   UNL A   1      47.119  31.788  47.291  1.00  0.00    -0.237 OA
ATOM     97  O   UNL A   1      46.258  29.492  47.530  1.00  0.00    -0.744 OA
ENDBRANCH  93  94
ENDBRANCH  67  88
ENDBRANCH  41  42
ENDBRANCH  34  36
ENDBRANCH  33  34
ENDBRANCH  32  33
ENDBRANCH  31  32
ENDBRANCH  30  31
ENDBRANCH  29  30
ENDBRANCH  28  29
ENDBRANCH  27  28
ENDBRANCH   1  27
TORSDOF 27
ENDMDL
