MODEL 1
REMARK VINA RESULT:      -9.2      0.000      0.000
REMARK SMILES C[C@@H]([NH3+])CCC(=O)N1CC(n2cc(C(=O)OCCOCCOCCOCCOC(=O)c3ccc(-c4c5nc(c(-c6ccc(S(=O)(=O)[O-])cc6)c6ccc([nH]6)c(-c6ccc(S(=O)(=O)[O-])cc6)c6nc(c(-c7ccc(S(=O)(=O)[O-])cc7)c7ccc4[nH]7)C=C6)C=C5)cc3)nn2)C1
REMARK SMILES IDX 21 1 20 2 19 3 18 4 17 5 16 6 14 7 15 8 13 9 11 10 12 11
REMARK SMILES IDX 92 12 91 13 10 14 6 15 7 16 8 17 9 18 93 19 5 20 4 21 2 22
REMARK SMILES IDX 1 23 3 24 22 28 23 29 24 30 25 31 26 32 27 33 28 34 29 35
REMARK SMILES IDX 30 36 31 37 32 38 90 39 33 40 89 41 34 42 35 43 36 44 83 45
REMARK SMILES IDX 37 46 88 47 82 48 84 49 38 50 87 51 81 52 80 53 39 55 69 56
REMARK SMILES IDX 50 57 68 58 51 59 54 60 67 61 85 62 52 63 53 64 66 66 86 67
REMARK SMILES IDX 55 68 40 69 41 70 49 71 42 72 48 73 43 74 44 75 45 76 46 77
REMARK SMILES IDX 47 78 70 79 71 80 79 81 72 82 78 83 73 84 74 85 75 86 76 87
REMARK SMILES IDX 77 88 56 89 57 90 65 91 58 92 64 93 59 94 60 95 61 96 62 97
REMARK SMILES IDX 63 98
REMARK H PARENT 3 25 3 26 3 27 84 54 54 65
REMARK Flexibility Score: inf
ROOT
ATOM      1  C   UNL A   1      42.297  18.756  25.931  1.00  0.00     0.188 C 
ENDROOT
BRANCH   1   2
ATOM      2  C   UNL A   1      41.521  19.788  26.781  1.00  0.00     0.188 C 
BRANCH   2   3
ATOM      3  O   UNL A   1      41.284  21.122  26.340  1.00  0.00    -0.376 OA
BRANCH   3   4
ATOM      4  C   UNL A   1      40.272  21.944  26.896  1.00  0.00     0.202 C 
BRANCH   4   5
ATOM      5  C   UNL A   1      39.228  22.633  26.006  1.00  0.00     0.261 C 
BRANCH   5   6
ATOM      6  O   UNL A   1      37.865  22.456  26.396  1.00  0.00    -0.458 OA
BRANCH   6   7
ATOM      7  C   UNL A   1      37.008  22.129  25.391  1.00  0.00     0.360 C 
ATOM      8  O   UNL A   1      37.351  21.621  24.323  1.00  0.00    -0.244 OA
BRANCH   7   9
ATOM      9  C   UNL A   1      35.621  22.361  25.757  1.00  0.00     0.190 A 
ATOM     10  N   UNL A   1      33.726  23.156  26.457  1.00  0.00    -0.245 N 
ATOM     11  C   UNL A   1      35.052  23.480  26.342  1.00  0.00     0.147 A 
ATOM     12  N   UNL A   1      33.497  21.901  26.045  1.00  0.00    -0.066 NA
ATOM     13  N   UNL A   1      34.647  21.403  25.613  1.00  0.00    -0.123 NA
BRANCH  10  14
ATOM     14  C   UNL A   1      32.701  24.126  26.702  1.00  0.00     0.148 C 
ATOM     15  C   UNL A   1      30.000  25.448  25.337  1.00  0.00     0.222 C 
ATOM     16  O   UNL A   1      29.224  25.715  26.254  1.00  0.00    -0.275 OA
ATOM     17  N   UNL A   1      31.052  24.583  25.511  1.00  0.00    -0.338 N 
ATOM     18  C   UNL A   1      31.252  23.652  26.633  1.00  0.00     0.148 C 
ATOM     19  C   UNL A   1      32.462  24.911  25.416  1.00  0.00     0.148 C 
BRANCH  15  20
ATOM     20  C   UNL A   1      29.695  25.881  23.904  1.00  0.00     0.106 C 
BRANCH  20  21
ATOM     21  C   UNL A   1      29.597  27.365  23.533  1.00  0.00     0.074 C 
BRANCH  21  22
ATOM     22  C   UNL A   1      30.819  28.036  22.886  1.00  0.00     0.178 C 
ATOM     23  C   UNL A   1      31.789  28.689  23.865  1.00  0.00     0.075 C 
BRANCH  22  24
ATOM     24  N   UNL A   1      31.548  27.077  22.051  1.00  0.00    -0.355 N 
ATOM     25  H   UNL A   1      32.419  26.818  22.514  1.00  0.00     0.344 HD
ATOM     26  H   UNL A   1      31.756  27.502  21.148  1.00  0.00     0.344 HD
ATOM     27  H   UNL A   1      30.976  26.244  21.912  1.00  0.00     0.344 HD
ENDBRANCH  22  24
ENDBRANCH  21  22
ENDBRANCH  20  21
ENDBRANCH  15  20
ENDBRANCH  10  14
ENDBRANCH   7   9
ENDBRANCH   6   7
ENDBRANCH   5   6
ENDBRANCH   4   5
ENDBRANCH   3   4
ENDBRANCH   2   3
ENDBRANCH   1   2
BRANCH   1  28
ATOM     28  O   UNL A   1      43.702  18.942  25.917  1.00  0.00    -0.377 OA
BRANCH  28  29
ATOM     29  C   UNL A   1      44.309  18.878  24.626  1.00  0.00     0.188 C 
BRANCH  29  30
ATOM     30  C   UNL A   1      45.087  20.124  24.126  1.00  0.00     0.188 C 
BRANCH  30  31
ATOM     31  O   UNL A   1      44.284  21.292  23.977  1.00  0.00    -0.376 OA
BRANCH  31  32
ATOM     32  C   UNL A   1      44.824  22.583  24.213  1.00  0.00     0.202 C 
BRANCH  32  33
ATOM     33  C   UNL A   1      44.456  23.225  25.547  1.00  0.00     0.261 C 
BRANCH  33  34
ATOM     34  O   UNL A   1      44.503  24.638  25.514  1.00  0.00    -0.460 OA
BRANCH  34  35
ATOM     35  C   UNL A   1      43.309  25.254  25.532  1.00  0.00     0.338 C 
ATOM     36  O   UNL A   1      42.210  24.747  25.335  1.00  0.00    -0.246 OA
BRANCH  35  37
ATOM     37  C   UNL A   1      43.544  26.683  25.727  1.00  0.00     0.060 A 
ATOM     38  C   UNL A   1      44.445  27.008  26.738  1.00  0.00     0.016 A 
ATOM     39  C   UNL A   1      42.591  27.590  25.234  1.00  0.00     0.016 A 
ATOM     40  C   UNL A   1      44.153  28.109  27.498  1.00  0.00     0.010 A 
ATOM     41  C   UNL A   1      42.287  28.675  26.005  1.00  0.00     0.010 A 
ATOM     42  C   UNL A   1      42.997  28.832  27.188  1.00  0.00    -0.014 A 
BRANCH  42  43
ATOM     43  C   UNL A   1      42.534  29.786  28.159  1.00  0.00     0.031 A 
ATOM     44  C   UNL A   1      43.488  30.884  28.357  1.00  0.00     0.074 A 
ATOM     45  C   UNL A   1      41.323  29.683  28.731  1.00  0.00     0.049 A 
ATOM     46  N   UNL A   1      44.265  31.075  29.367  1.00  0.00    -0.248 NA
ATOM     47  C   UNL A   1      43.772  31.737  27.191  1.00  0.00     0.031 C 
ATOM     48  C   UNL A   1      40.215  28.792  28.370  1.00  0.00     0.029 A 
ATOM     49  N   UNL A   1      40.784  30.468  29.694  1.00  0.00    -0.354 N 
ATOM     50  C   UNL A   1      44.966  32.229  29.058  1.00  0.00     0.074 A 
ATOM     51  C   UNL A   1      44.812  32.437  27.640  1.00  0.00     0.031 C 
ATOM     52  C   UNL A   1      39.075  29.265  28.924  1.00  0.00     0.029 A 
ATOM     53  C   UNL A   1      39.401  30.402  29.772  1.00  0.00     0.049 A 
ATOM     54  H   UNL A   1      41.327  31.036  30.287  1.00  0.00     0.167 HD
ATOM     55  C   UNL A   1      45.343  33.105  30.027  1.00  0.00     0.031 A 
ATOM     56  C   UNL A   1      38.601  31.298  30.402  1.00  0.00     0.031 A 
ATOM     57  C   UNL A   1      45.283  32.518  31.340  1.00  0.00     0.049 A 
ATOM     58  C   UNL A   1      39.456  32.056  31.356  1.00  0.00     0.074 A 
ATOM     59  C   UNL A   1      45.877  31.425  31.939  1.00  0.00     0.029 A 
ATOM     60  N   UNL A   1      44.194  32.837  32.120  1.00  0.00    -0.354 N 
ATOM     61  N   UNL A   1      40.022  31.514  32.399  1.00  0.00    -0.248 NA
ATOM     62  C   UNL A   1      40.068  33.296  30.896  1.00  0.00     0.031 C 
ATOM     63  C   UNL A   1      44.870  30.867  32.778  1.00  0.00     0.029 A 
ATOM     64  C   UNL A   1      43.736  31.678  32.695  1.00  0.00     0.049 A 
ATOM     65  H   UNL A   1      43.812  33.736  32.243  1.00  0.00     0.167 HD
ATOM     66  C   UNL A   1      41.286  32.088  32.464  1.00  0.00     0.074 A 
ATOM     67  C   UNL A   1      41.219  33.247  31.575  1.00  0.00     0.031 C 
ATOM     68  C   UNL A   1      42.344  31.413  33.004  1.00  0.00     0.031 A 
BRANCH  55  69
ATOM     69  C   UNL A   1      45.323  34.592  29.798  1.00  0.00    -0.014 A 
ATOM     70  C   UNL A   1      46.519  35.317  29.927  1.00  0.00     0.010 A 
ATOM     71  C   UNL A   1      44.122  35.334  29.729  1.00  0.00     0.010 A 
ATOM     72  C   UNL A   1      46.504  36.713  30.032  1.00  0.00     0.020 A 
ATOM     73  C   UNL A   1      44.099  36.723  29.780  1.00  0.00     0.020 A 
ATOM     74  C   UNL A   1      45.291  37.403  29.968  1.00  0.00     0.054 A 
BRANCH  74  75
ATOM     75  S   UNL A   1      45.268  39.193  30.210  1.00  0.00     0.124 S 
ATOM     76  O   UNL A   1      45.001  39.672  28.858  1.00  0.00    -0.237 OA
ATOM     77  O   UNL A   1      44.184  39.359  31.173  1.00  0.00    -0.237 OA
ATOM     78  O   UNL A   1      46.604  39.484  30.726  1.00  0.00    -0.744 OA
ENDBRANCH  74  75
ENDBRANCH  55  69
BRANCH  56  79
ATOM     79  C   UNL A   1      37.274  31.785  29.945  1.00  0.00    -0.014 A 
ATOM     80  C   UNL A   1      36.239  32.037  30.863  1.00  0.00     0.010 A 
ATOM     81  C   UNL A   1      37.110  32.264  28.627  1.00  0.00     0.010 A 
ATOM     82  C   UNL A   1      35.111  32.793  30.493  1.00  0.00     0.020 A 
ATOM     83  C   UNL A   1      35.988  33.008  28.248  1.00  0.00     0.020 A 
ATOM     84  C   UNL A   1      35.003  33.291  29.191  1.00  0.00     0.054 A 
BRANCH  84  85
ATOM     85  S   UNL A   1      33.638  34.414  28.768  1.00  0.00     0.124 S 
ATOM     86  O   UNL A   1      33.021  34.656  30.069  1.00  0.00    -0.237 OA
ATOM     87  O   UNL A   1      34.336  35.551  28.176  1.00  0.00    -0.237 OA
ATOM     88  O   UNL A   1      32.830  33.633  27.834  1.00  0.00    -0.744 OA
ENDBRANCH  84  85
ENDBRANCH  56  79
BRANCH  68  89
ATOM     89  C   UNL A   1      42.063  30.152  33.791  1.00  0.00    -0.014 A 
ATOM     90  C   UNL A   1      41.935  28.875  33.207  1.00  0.00     0.010 A 
ATOM     91  C   UNL A   1      42.079  30.246  35.193  1.00  0.00     0.010 A 
ATOM     92  C   UNL A   1      41.800  27.730  34.008  1.00  0.00     0.020 A 
ATOM     93  C   UNL A   1      41.961  29.109  35.995  1.00  0.00     0.020 A 
ATOM     94  C   UNL A   1      41.812  27.856  35.400  1.00  0.00     0.054 A 
BRANCH  94  95
ATOM     95  S   UNL A   1      41.679  26.370  36.434  1.00  0.00     0.124 S 
ATOM     96  O   UNL A   1      43.040  26.213  36.942  1.00  0.00    -0.237 OA
ATOM     97  O   UNL A   1      40.677  26.753  37.425  1.00  0.00    -0.237 OA
ATOM     98  O   UNL A   1      41.247  25.332  35.498  1.00  0.00    -0.744 OA
ENDBRANCH  94  95
ENDBRANCH  68  89
ENDBRANCH  42  43
ENDBRANCH  35  37
ENDBRANCH  34  35
ENDBRANCH  33  34
ENDBRANCH  32  33
ENDBRANCH  31  32
ENDBRANCH  30  31
ENDBRANCH  29  30
ENDBRANCH  28  29
ENDBRANCH   1  28
TORSDOF 28
ENDMDL
MODEL 2
REMARK VINA RESULT:      -8.2      1.793      2.334
REMARK SMILES C[C@@H]([NH3+])CCC(=O)N1CC(n2cc(C(=O)OCCOCCOCCOCCOC(=O)c3ccc(-c4c5nc(c(-c6ccc(S(=O)(=O)[O-])cc6)c6ccc([nH]6)c(-c6ccc(S(=O)(=O)[O-])cc6)c6nc(c(-c7ccc(S(=O)(=O)[O-])cc7)c7ccc4[nH]7)C=C6)C=C5)cc3)nn2)C1
REMARK SMILES IDX 21 1 20 2 19 3 18 4 17 5 16 6 14 7 15 8 13 9 11 10 12 11
REMARK SMILES IDX 92 12 91 13 10 14 6 15 7 16 8 17 9 18 93 19 5 20 4 21 2 22
REMARK SMILES IDX 1 23 3 24 22 28 23 29 24 30 25 31 26 32 27 33 28 34 29 35
REMARK SMILES IDX 30 36 31 37 32 38 90 39 33 40 89 41 34 42 35 43 36 44 83 45
REMARK SMILES IDX 37 46 88 47 82 48 84 49 38 50 87 51 81 52 80 53 39 55 69 56
REMARK SMILES IDX 50 57 68 58 51 59 54 60 67 61 85 62 52 63 53 64 66 66 86 67
REMARK SMILES IDX 55 68 40 69 41 70 49 71 42 72 48 73 43 74 44 75 45 76 46 77
REMARK SMILES IDX 47 78 70 79 71 80 79 81 72 82 78 83 73 84 74 85 75 86 76 87
REMARK SMILES IDX 77 88 56 89 57 90 65 91 58 92 64 93 59 94 60 95 61 96 62 97
REMARK SMILES IDX 63 98
REMARK H PARENT 3 25 3 26 3 27 84 54 54 65
REMARK Flexibility Score: inf
ROOT
ATOM      1  C   UNL A   1      41.597  19.304  26.137  1.00  0.00     0.188 C 
ENDROOT
BRANCH   1   2
ATOM      2  C   UNL A   1      40.737  20.464  26.690  1.00  0.00     0.188 C 
BRANCH   2   3
ATOM      3  O   UNL A   1      40.140  21.445  25.846  1.00  0.00    -0.376 OA
BRANCH   3   4
ATOM      4  C   UNL A   1      38.845  21.972  26.083  1.00  0.00     0.202 C 
BRANCH   4   5
ATOM      5  C   UNL A   1      37.763  21.944  24.994  1.00  0.00     0.261 C 
BRANCH   5   6
ATOM      6  O   UNL A   1      37.046  23.165  24.800  1.00  0.00    -0.458 OA
BRANCH   6   7
ATOM      7  C   UNL A   1      36.131  23.150  23.793  1.00  0.00     0.360 C 
ATOM      8  O   UNL A   1      36.411  23.008  22.602  1.00  0.00    -0.244 OA
BRANCH   7   9
ATOM      9  C   UNL A   1      34.768  23.229  24.290  1.00  0.00     0.190 A 
ATOM     10  N   UNL A   1      32.788  23.840  24.938  1.00  0.00    -0.245 N 
ATOM     11  C   UNL A   1      33.958  24.343  24.435  1.00  0.00     0.147 A 
ATOM     12  N   UNL A   1      32.885  22.522  25.163  1.00  0.00    -0.066 NA
ATOM     13  N   UNL A   1      34.090  22.135  24.769  1.00  0.00    -0.123 NA
BRANCH  10  14
ATOM     14  C   UNL A   1      31.557  24.572  24.939  1.00  0.00     0.148 C 
ATOM     15  C   UNL A   1      30.117  27.226  23.601  1.00  0.00     0.222 C 
ATOM     16  O   UNL A   1      28.921  26.963  23.473  1.00  0.00    -0.275 OA
ATOM     17  N   UNL A   1      31.054  26.242  23.796  1.00  0.00    -0.338 N 
ATOM     18  C   UNL A   1      30.870  24.796  23.595  1.00  0.00     0.148 C 
ATOM     19  C   UNL A   1      31.883  26.063  24.974  1.00  0.00     0.148 C 
BRANCH  15  20
ATOM     20  C   UNL A   1      30.643  28.631  23.316  1.00  0.00     0.106 C 
BRANCH  20  21
ATOM     21  C   UNL A   1      29.711  29.847  23.366  1.00  0.00     0.074 C 
BRANCH  21  22
ATOM     22  C   UNL A   1      29.355  30.548  22.046  1.00  0.00     0.178 C 
ATOM     23  C   UNL A   1      27.952  30.256  21.520  1.00  0.00     0.075 C 
BRANCH  22  24
ATOM     24  N   UNL A   1      29.531  31.998  22.172  1.00  0.00    -0.355 N 
ATOM     25  H   UNL A   1      29.785  32.389  21.265  1.00  0.00     0.344 HD
ATOM     26  H   UNL A   1      30.272  32.192  22.846  1.00  0.00     0.344 HD
ATOM     27  H   UNL A   1      28.659  32.420  22.493  1.00  0.00     0.344 HD
ENDBRANCH  22  24
ENDBRANCH  21  22
ENDBRANCH  20  21
ENDBRANCH  15  20
ENDBRANCH  10  14
ENDBRANCH   7   9
ENDBRANCH   6   7
ENDBRANCH   5   6
ENDBRANCH   4   5
ENDBRANCH   3   4
ENDBRANCH   2   3
ENDBRANCH   1   2
BRANCH   1  28
ATOM     28  O   UNL A   1      42.996  19.510  26.238  1.00  0.00    -0.377 OA
BRANCH  28  29
ATOM     29  C   UNL A   1      43.796  18.632  25.445  1.00  0.00     0.188 C 
BRANCH  29  30
ATOM     30  C   UNL A   1      45.248  19.069  25.114  1.00  0.00     0.188 C 
BRANCH  30  31
ATOM     31  O   UNL A   1      45.334  20.228  24.290  1.00  0.00    -0.376 OA
BRANCH  31  32
ATOM     32  C   UNL A   1      45.877  21.440  24.792  1.00  0.00     0.202 C 
BRANCH  32  33
ATOM     33  C   UNL A   1      44.937  22.289  25.642  1.00  0.00     0.261 C 
BRANCH  33  34
ATOM     34  O   UNL A   1      45.041  23.674  25.370  1.00  0.00    -0.460 OA
BRANCH  34  35
ATOM     35  C   UNL A   1      43.883  24.353  25.392  1.00  0.00     0.338 C 
ATOM     36  O   UNL A   1      42.750  23.890  25.322  1.00  0.00    -0.246 OA
BRANCH  35  37
ATOM     37  C   UNL A   1      44.200  25.780  25.411  1.00  0.00     0.060 A 
ATOM     38  C   UNL A   1      45.279  26.142  26.214  1.00  0.00     0.016 A 
ATOM     39  C   UNL A   1      43.206  26.690  25.012  1.00  0.00     0.016 A 
ATOM     40  C   UNL A   1      45.167  27.316  26.909  1.00  0.00     0.010 A 
ATOM     41  C   UNL A   1      43.085  27.850  25.721  1.00  0.00     0.010 A 
ATOM     42  C   UNL A   1      44.002  28.069  26.742  1.00  0.00    -0.014 A 
BRANCH  42  43
ATOM     43  C   UNL A   1      43.755  29.123  27.687  1.00  0.00     0.031 A 
ATOM     44  C   UNL A   1      44.838  30.113  27.709  1.00  0.00     0.074 A 
ATOM     45  C   UNL A   1      42.610  29.193  28.387  1.00  0.00     0.049 A 
ATOM     46  N   UNL A   1      45.738  30.271  28.618  1.00  0.00    -0.248 NA
ATOM     47  C   UNL A   1      45.083  30.861  26.465  1.00  0.00     0.031 C 
ATOM     48  C   UNL A   1      41.379  28.417  28.205  1.00  0.00     0.029 A 
ATOM     49  N   UNL A   1      42.269  30.089  29.344  1.00  0.00    -0.354 N 
ATOM     50  C   UNL A   1      46.522  31.317  28.160  1.00  0.00     0.074 A 
ATOM     51  C   UNL A   1      46.235  31.461  26.755  1.00  0.00     0.031 C 
ATOM     52  C   UNL A   1      40.365  29.050  28.840  1.00  0.00     0.029 A 
ATOM     53  C   UNL A   1      40.904  30.187  29.569  1.00  0.00     0.049 A 
ATOM     54  H   UNL A   1      42.933  30.623  29.837  1.00  0.00     0.167 HD
ATOM     55  C   UNL A   1      47.096  32.198  29.022  1.00  0.00     0.031 A 
ATOM     56  C   UNL A   1      40.280  31.204  30.215  1.00  0.00     0.031 A 
ATOM     57  C   UNL A   1      47.117  31.697  30.371  1.00  0.00     0.049 A 
ATOM     58  C   UNL A   1      41.313  31.912  31.021  1.00  0.00     0.074 A 
ATOM     59  C   UNL A   1      47.652  30.579  30.980  1.00  0.00     0.029 A 
ATOM     60  N   UNL A   1      46.163  32.183  31.236  1.00  0.00    -0.354 N 
ATOM     61  N   UNL A   1      41.928  31.368  32.035  1.00  0.00    -0.248 NA
ATOM     62  C   UNL A   1      42.001  33.044  30.417  1.00  0.00     0.031 C 
ATOM     63  C   UNL A   1      46.690  30.189  31.955  1.00  0.00     0.029 A 
ATOM     64  C   UNL A   1      45.648  31.120  31.934  1.00  0.00     0.049 A 
ATOM     65  H   UNL A   1      45.896  33.125  31.336  1.00  0.00     0.167 HD
ATOM     66  C   UNL A   1      43.246  31.795  31.929  1.00  0.00     0.074 A 
ATOM     67  C   UNL A   1      43.208  32.902  30.975  1.00  0.00     0.031 C 
ATOM     68  C   UNL A   1      44.279  31.035  32.402  1.00  0.00     0.031 A 
BRANCH  55  69
ATOM     69  C   UNL A   1      47.212  33.661  28.695  1.00  0.00    -0.014 A 
ATOM     70  C   UNL A   1      48.443  34.162  28.241  1.00  0.00     0.010 A 
ATOM     71  C   UNL A   1      46.232  34.605  29.077  1.00  0.00     0.010 A 
ATOM     72  C   UNL A   1      48.695  35.540  28.220  1.00  0.00     0.020 A 
ATOM     73  C   UNL A   1      46.452  35.976  29.012  1.00  0.00     0.020 A 
ATOM     74  C   UNL A   1      47.697  36.435  28.616  1.00  0.00     0.054 A 
BRANCH  74  75
ATOM     75  S   UNL A   1      48.063  38.202  28.689  1.00  0.00     0.124 S 
ATOM     76  O   UNL A   1      49.066  38.255  29.747  1.00  0.00    -0.237 OA
ATOM     77  O   UNL A   1      48.544  38.472  27.338  1.00  0.00    -0.237 OA
ATOM     78  O   UNL A   1      46.772  38.804  29.017  1.00  0.00    -0.744 OA
ENDBRANCH  74  75
ENDBRANCH  55  69
BRANCH  56  79
ATOM     79  C   UNL A   1      38.971  31.814  29.865  1.00  0.00    -0.014 A 
ATOM     80  C   UNL A   1      37.935  31.039  29.315  1.00  0.00     0.010 A 
ATOM     81  C   UNL A   1      38.646  33.107  30.329  1.00  0.00     0.010 A 
ATOM     82  C   UNL A   1      36.612  31.517  29.285  1.00  0.00     0.020 A 
ATOM     83  C   UNL A   1      37.335  33.593  30.294  1.00  0.00     0.020 A 
ATOM     84  C   UNL A   1      36.318  32.785  29.795  1.00  0.00     0.054 A 
BRANCH  84  85
ATOM     85  S   UNL A   1      34.587  33.325  29.919  1.00  0.00     0.124 S 
ATOM     86  O   UNL A   1      33.998  32.763  28.706  1.00  0.00    -0.237 OA
ATOM     87  O   UNL A   1      34.155  32.717  31.173  1.00  0.00    -0.237 OA
ATOM     88  O   UNL A   1      34.683  34.783  29.942  1.00  0.00    -0.744 OA
ENDBRANCH  84  85
ENDBRANCH  56  79
BRANCH  68  89
ATOM     89  C   UNL A   1      43.951  29.861  33.299  1.00  0.00    -0.014 A 
ATOM     90  C   UNL A   1      43.760  29.966  34.692  1.00  0.00     0.010 A 
ATOM     91  C   UNL A   1      43.678  28.629  32.679  1.00  0.00     0.010 A 
ATOM     92  C   UNL A   1      43.334  28.860  35.444  1.00  0.00     0.020 A 
ATOM     93  C   UNL A   1      43.238  27.529  33.419  1.00  0.00     0.020 A 
ATOM     94  C   UNL A   1      43.076  27.645  34.800  1.00  0.00     0.054 A 
BRANCH  94  95
ATOM     95  S   UNL A   1      42.486  26.228  35.768  1.00  0.00     0.124 S 
ATOM     96  O   UNL A   1      41.046  26.465  35.832  1.00  0.00    -0.237 OA
ATOM     97  O   UNL A   1      42.901  25.086  34.957  1.00  0.00    -0.237 OA
ATOM     98  O   UNL A   1      43.190  26.359  37.043  1.00  0.00    -0.744 OA
ENDBRANCH  94  95
ENDBRANCH  68  89
ENDBRANCH  42  43
ENDBRANCH  35  37
ENDBRANCH  34  35
ENDBRANCH  33  34
ENDBRANCH  32  33
ENDBRANCH  31  32
ENDBRANCH  30  31
ENDBRANCH  29  30
ENDBRANCH  28  29
ENDBRANCH   1  28
TORSDOF 28
ENDMDL
MODEL 3
REMARK VINA RESULT:      -8.0      2.053      7.005
REMARK SMILES C[C@@H]([NH3+])CCC(=O)N1CC(n2cc(C(=O)OCCOCCOCCOCCOC(=O)c3ccc(-c4c5nc(c(-c6ccc(S(=O)(=O)[O-])cc6)c6ccc([nH]6)c(-c6ccc(S(=O)(=O)[O-])cc6)c6nc(c(-c7ccc(S(=O)(=O)[O-])cc7)c7ccc4[nH]7)C=C6)C=C5)cc3)nn2)C1
REMARK SMILES IDX 21 1 20 2 19 3 18 4 17 5 16 6 14 7 15 8 13 9 11 10 12 11
REMARK SMILES IDX 92 12 91 13 10 14 6 15 7 16 8 17 9 18 93 19 5 20 4 21 2 22
REMARK SMILES IDX 1 23 3 24 22 28 23 29 24 30 25 31 26 32 27 33 28 34 29 35
REMARK SMILES IDX 30 36 31 37 32 38 90 39 33 40 89 41 34 42 35 43 36 44 83 45
REMARK SMILES IDX 37 46 88 47 82 48 84 49 38 50 87 51 81 52 80 53 39 55 69 56
REMARK SMILES IDX 50 57 68 58 51 59 54 60 67 61 85 62 52 63 53 64 66 66 86 67
REMARK SMILES IDX 55 68 40 69 41 70 49 71 42 72 48 73 43 74 44 75 45 76 46 77
REMARK SMILES IDX 47 78 70 79 71 80 79 81 72 82 78 83 73 84 74 85 75 86 76 87
REMARK SMILES IDX 77 88 56 89 57 90 65 91 58 92 64 93 59 94 60 95 61 96 62 97
REMARK SMILES IDX 63 98
REMARK H PARENT 3 25 3 26 3 27 84 54 54 65
REMARK Flexibility Score: inf
ROOT
ATOM      1  C   UNL A   1      42.188  19.223  25.794  1.00  0.00     0.188 C 
ENDROOT
BRANCH   1   2
ATOM      2  C   UNL A   1      41.339  20.316  26.482  1.00  0.00     0.188 C 
BRANCH   2   3
ATOM      3  O   UNL A   1      40.482  21.192  25.756  1.00  0.00    -0.376 OA
BRANCH   3   4
ATOM      4  C   UNL A   1      39.288  21.724  26.305  1.00  0.00     0.202 C 
BRANCH   4   5
ATOM      5  C   UNL A   1      38.034  21.922  25.442  1.00  0.00     0.261 C 
BRANCH   5   6
ATOM      6  O   UNL A   1      37.220  23.048  25.777  1.00  0.00    -0.458 OA
BRANCH   6   7
ATOM      7  C   UNL A   1      36.249  23.355  24.874  1.00  0.00     0.360 C 
ATOM      8  O   UNL A   1      36.407  23.349  23.654  1.00  0.00    -0.244 OA
BRANCH   7   9
ATOM      9  C   UNL A   1      34.967  23.602  25.513  1.00  0.00     0.190 A 
ATOM     10  N   UNL A   1      33.050  24.382  26.169  1.00  0.00    -0.245 N 
ATOM     11  C   UNL A   1      34.087  24.653  25.317  1.00  0.00     0.147 A 
ATOM     12  N   UNL A   1      33.298  23.285  26.898  1.00  0.00    -0.066 NA
ATOM     13  N   UNL A   1      34.467  22.797  26.507  1.00  0.00    -0.123 NA
BRANCH  10  14
ATOM     14  C   UNL A   1      31.769  25.015  26.071  1.00  0.00     0.148 C 
ATOM     15  C   UNL A   1      29.939  26.867  24.039  1.00  0.00     0.222 C 
ATOM     16  O   UNL A   1      28.765  26.538  24.208  1.00  0.00    -0.275 OA
ATOM     17  N   UNL A   1      30.978  26.072  24.457  1.00  0.00    -0.338 N 
ATOM     18  C   UNL A   1      30.899  24.661  24.868  1.00  0.00     0.148 C 
ATOM     19  C   UNL A   1      31.963  26.404  25.470  1.00  0.00     0.148 C 
BRANCH  15  20
ATOM     20  C   UNL A   1      30.298  28.057  23.150  1.00  0.00     0.106 C 
BRANCH  20  21
ATOM     21  C   UNL A   1      29.206  28.922  22.514  1.00  0.00     0.074 C 
BRANCH  21  22
ATOM     22  C   UNL A   1      29.104  30.396  22.937  1.00  0.00     0.178 C 
ATOM     23  C   UNL A   1      27.719  30.840  23.399  1.00  0.00     0.075 C 
BRANCH  22  24
ATOM     24  N   UNL A   1      30.082  30.696  23.988  1.00  0.00    -0.355 N 
ATOM     25  H   UNL A   1      30.239  29.861  24.552  1.00  0.00     0.344 HD
ATOM     26  H   UNL A   1      29.725  31.445  24.580  1.00  0.00     0.344 HD
ATOM     27  H   UNL A   1      30.961  30.988  23.561  1.00  0.00     0.344 HD
ENDBRANCH  22  24
ENDBRANCH  21  22
ENDBRANCH  20  21
ENDBRANCH  15  20
ENDBRANCH  10  14
ENDBRANCH   7   9
ENDBRANCH   6   7
ENDBRANCH   5   6
ENDBRANCH   4   5
ENDBRANCH   3   4
ENDBRANCH   2   3
ENDBRANCH   1   2
BRANCH   1  28
ATOM     28  O   UNL A   1      43.569  19.264  26.111  1.00  0.00    -0.377 OA
BRANCH  28  29
ATOM     29  C   UNL A   1      44.449  18.965  25.026  1.00  0.00     0.188 C 
BRANCH  29  30
ATOM     30  C   UNL A   1      45.709  19.851  24.846  1.00  0.00     0.188 C 
BRANCH  30  31
ATOM     31  O   UNL A   1      45.450  21.119  24.248  1.00  0.00    -0.376 OA
BRANCH  31  32
ATOM     32  C   UNL A   1      45.972  22.312  24.812  1.00  0.00     0.202 C 
BRANCH  32  33
ATOM     33  C   UNL A   1      45.661  22.541  26.288  1.00  0.00     0.261 C 
BRANCH  33  34
ATOM     34  O   UNL A   1      45.229  23.860  26.565  1.00  0.00    -0.460 OA
BRANCH  34  35
ATOM     35  C   UNL A   1      43.902  24.058  26.487  1.00  0.00     0.338 C 
ATOM     36  O   UNL A   1      43.030  23.203  26.379  1.00  0.00    -0.246 OA
BRANCH  35  37
ATOM     37  C   UNL A   1      43.666  25.500  26.446  1.00  0.00     0.060 A 
ATOM     38  C   UNL A   1      44.795  26.296  26.622  1.00  0.00     0.016 A 
ATOM     39  C   UNL A   1      42.360  25.969  26.666  1.00  0.00     0.016 A 
ATOM     40  C   UNL A   1      44.639  27.437  27.361  1.00  0.00     0.010 A 
ATOM     41  C   UNL A   1      42.208  27.095  27.422  1.00  0.00     0.010 A 
ATOM     42  C   UNL A   1      43.365  27.729  27.857  1.00  0.00    -0.014 A 
BRANCH  42  43
ATOM     43  C   UNL A   1      43.267  28.743  28.871  1.00  0.00     0.031 A 
ATOM     44  C   UNL A   1      43.323  28.179  30.225  1.00  0.00     0.074 A 
ATOM     45  C   UNL A   1      43.213  30.049  28.564  1.00  0.00     0.049 A 
ATOM     46  N   UNL A   1      42.350  28.042  31.059  1.00  0.00    -0.248 NA
ATOM     47  C   UNL A   1      44.561  27.478  30.604  1.00  0.00     0.031 C 
ATOM     48  C   UNL A   1      43.445  30.693  27.266  1.00  0.00     0.029 A 
ATOM     49  N   UNL A   1      43.062  31.100  29.405  1.00  0.00    -0.354 N 
ATOM     50  C   UNL A   1      42.922  27.452  32.174  1.00  0.00     0.074 A 
ATOM     51  C   UNL A   1      44.188  26.910  31.748  1.00  0.00     0.031 C 
ATOM     52  C   UNL A   1      43.674  32.012  27.467  1.00  0.00     0.029 A 
ATOM     53  C   UNL A   1      43.475  32.315  28.876  1.00  0.00     0.049 A 
ATOM     54  H   UNL A   1      42.691  31.010  30.312  1.00  0.00     0.167 HD
ATOM     55  C   UNL A   1      42.478  27.734  33.427  1.00  0.00     0.031 A 
ATOM     56  C   UNL A   1      43.736  33.439  29.589  1.00  0.00     0.031 A 
ATOM     57  C   UNL A   1      41.179  28.355  33.413  1.00  0.00     0.049 A 
ATOM     58  C   UNL A   1      43.067  33.287  30.910  1.00  0.00     0.074 A 
ATOM     59  C   UNL A   1      39.937  27.989  32.933  1.00  0.00     0.029 A 
ATOM     60  N   UNL A   1      41.134  29.719  33.588  1.00  0.00    -0.354 N 
ATOM     61  N   UNL A   1      41.771  33.244  31.058  1.00  0.00    -0.248 NA
ATOM     62  C   UNL A   1      43.832  32.710  32.007  1.00  0.00     0.031 C 
ATOM     63  C   UNL A   1      39.368  29.188  32.417  1.00  0.00     0.029 A 
ATOM     64  C   UNL A   1      40.263  30.233  32.661  1.00  0.00     0.049 A 
ATOM     65  H   UNL A   1      41.637  30.235  34.259  1.00  0.00     0.167 HD
ATOM     66  C   UNL A   1      41.550  32.275  32.029  1.00  0.00     0.074 A 
ATOM     67  C   UNL A   1      42.857  32.055  32.645  1.00  0.00     0.031 C 
ATOM     68  C   UNL A   1      40.398  31.541  32.049  1.00  0.00     0.031 A 
BRANCH  55  69
ATOM     69  C   UNL A   1      43.421  27.848  34.593  1.00  0.00    -0.014 A 
ATOM     70  C   UNL A   1      43.394  26.860  35.591  1.00  0.00     0.010 A 
ATOM     71  C   UNL A   1      44.140  29.032  34.876  1.00  0.00     0.010 A 
ATOM     72  C   UNL A   1      44.015  27.072  36.828  1.00  0.00     0.020 A 
ATOM     73  C   UNL A   1      44.803  29.233  36.081  1.00  0.00     0.020 A 
ATOM     74  C   UNL A   1      44.706  28.263  37.065  1.00  0.00     0.054 A 
BRANCH  74  75
ATOM     75  S   UNL A   1      45.412  28.575  38.698  1.00  0.00     0.124 S 
ATOM     76  O   UNL A   1      44.808  27.509  39.491  1.00  0.00    -0.237 OA
ATOM     77  O   UNL A   1      46.844  28.449  38.443  1.00  0.00    -0.237 OA
ATOM     78  O   UNL A   1      44.956  29.927  39.014  1.00  0.00    -0.744 OA
ENDBRANCH  74  75
ENDBRANCH  55  69
BRANCH  56  79
ATOM     79  C   UNL A   1      44.826  34.418  29.343  1.00  0.00    -0.014 A 
ATOM     80  C   UNL A   1      44.603  35.800  29.476  1.00  0.00     0.010 A 
ATOM     81  C   UNL A   1      46.163  33.978  29.244  1.00  0.00     0.010 A 
ATOM     82  C   UNL A   1      45.679  36.701  29.567  1.00  0.00     0.020 A 
ATOM     83  C   UNL A   1      47.239  34.868  29.324  1.00  0.00     0.020 A 
ATOM     84  C   UNL A   1      46.993  36.225  29.511  1.00  0.00     0.054 A 
BRANCH  84  85
ATOM     85  S   UNL A   1      48.376  37.366  29.809  1.00  0.00     0.124 S 
ATOM     86  O   UNL A   1      49.493  36.450  30.024  1.00  0.00    -0.237 OA
ATOM     87  O   UNL A   1      48.421  38.139  28.571  1.00  0.00    -0.237 OA
ATOM     88  O   UNL A   1      47.953  38.117  30.989  1.00  0.00    -0.744 OA
ENDBRANCH  84  85
ENDBRANCH  56  79
BRANCH  68  89
ATOM     89  C   UNL A   1      39.245  31.994  31.180  1.00  0.00    -0.014 A 
ATOM     90  C   UNL A   1      39.034  31.546  29.860  1.00  0.00     0.010 A 
ATOM     91  C   UNL A   1      38.255  32.790  31.781  1.00  0.00     0.010 A 
ATOM     92  C   UNL A   1      37.876  31.910  29.155  1.00  0.00     0.020 A 
ATOM     93  C   UNL A   1      37.092  33.142  31.090  1.00  0.00     0.020 A 
ATOM     94  C   UNL A   1      36.911  32.708  29.777  1.00  0.00     0.054 A 
BRANCH  94  95
ATOM     95  S   UNL A   1      35.395  33.142  28.878  1.00  0.00     0.124 S 
ATOM     96  O   UNL A   1      34.616  31.908  28.955  1.00  0.00    -0.237 OA
ATOM     97  O   UNL A   1      34.871  34.266  29.651  1.00  0.00    -0.237 OA
ATOM     98  O   UNL A   1      35.871  33.490  27.540  1.00  0.00    -0.744 OA
ENDBRANCH  94  95
ENDBRANCH  68  89
ENDBRANCH  42  43
ENDBRANCH  35  37
ENDBRANCH  34  35
ENDBRANCH  33  34
ENDBRANCH  32  33
ENDBRANCH  31  32
ENDBRANCH  30  31
ENDBRANCH  29  30
ENDBRANCH  28  29
ENDBRANCH   1  28
TORSDOF 28
ENDMDL
