MODEL 1
REMARK VINA RESULT:      -9.2      0.000      0.000
REMARK SMILES C[C@@H](CC(=O)OCCOCCOCCOCCOC(=O)c1ccc(-c2c3nc(c(-c4ccc(S(=O)(=O)[O-])cc4)c4ccc([nH]4)c(-c4ccc(S(=O)(=O)[O-])cc4)c4nc(c(-c5ccc(S(=O)(=O)[O-])cc5)c5ccc2[nH]5)C=C4)C=C3)cc1)NC(=O)[C@@H]1CCCN(C(N)=O)C1
REMARK SMILES IDX 11 1 10 2 9 3 8 4 7 5 6 6 4 7 5 8 3 9 2 10 1 11 81 12 82 13
REMARK SMILES IDX 83 15 84 16 85 17 92 18 86 19 88 20 87 21 89 22 90 23 91 24
REMARK SMILES IDX 12 27 13 28 14 29 15 30 16 31 17 32 18 33 19 34 20 35 21 36
REMARK SMILES IDX 22 37 80 38 23 39 79 40 24 41 25 42 26 43 73 44 27 45 78 46
REMARK SMILES IDX 72 47 74 48 28 49 77 50 71 51 70 52 29 54 59 55 40 56 58 57
REMARK SMILES IDX 41 58 44 59 57 60 75 61 42 62 43 63 56 65 76 66 45 67 30 68
REMARK SMILES IDX 31 69 39 70 32 71 38 72 33 73 34 74 35 75 36 76 37 77 60 78
REMARK SMILES IDX 61 79 69 80 62 81 68 82 63 83 64 84 65 85 66 86 67 87 46 88
REMARK SMILES IDX 47 89 55 90 48 91 54 92 49 93 50 94 51 95 52 96 53 97
REMARK H PARENT 81 14 90 25 90 26 74 53 44 64
REMARK Flexibility Score: inf
ROOT
ATOM      1  C   UNL A   1      37.320  21.499  25.763  1.00  0.00     0.188 C 
ENDROOT
BRANCH   1   2
ATOM      2  C   UNL A   1      35.896  21.863  25.347  1.00  0.00     0.188 C 
BRANCH   2   3
ATOM      3  O   UNL A   1      34.806  21.570  26.201  1.00  0.00    -0.376 OA
BRANCH   3   4
ATOM      4  C   UNL A   1      34.479  22.446  27.277  1.00  0.00     0.202 C 
BRANCH   4   5
ATOM      5  C   UNL A   1      33.052  22.477  27.850  1.00  0.00     0.261 C 
BRANCH   5   6
ATOM      6  O   UNL A   1      32.214  23.525  27.309  1.00  0.00    -0.463 OA
BRANCH   6   7
ATOM      7  C   UNL A   1      31.017  23.168  26.801  1.00  0.00     0.307 C 
ATOM      8  O   UNL A   1      29.943  23.585  27.230  1.00  0.00    -0.252 OA
BRANCH   7   9
ATOM      9  C   UNL A   1      31.041  22.230  25.600  1.00  0.00     0.147 C 
BRANCH   9  10
ATOM     10  C   UNL A   1      31.711  22.509  24.239  1.00  0.00     0.090 C 
ATOM     11  C   UNL A   1      32.425  21.334  23.585  1.00  0.00     0.031 C 
BRANCH  10  12
ATOM     12  N   UNL A   1      32.583  23.695  24.230  1.00  0.00    -0.353 N 
ATOM     13  C   UNL A   1      32.431  25.035  24.086  1.00  0.00     0.225 C 
ATOM     14  H   UNL A   1      33.527  23.452  24.364  1.00  0.00     0.163 HD
ATOM     15  O   UNL A   1      33.378  25.725  24.495  1.00  0.00    -0.275 OA
BRANCH  13  16
ATOM     16  C   UNL A   1      31.221  25.771  23.493  1.00  0.00     0.098 C 
ATOM     17  C   UNL A   1      31.396  26.890  22.474  1.00  0.00     0.017 C 
ATOM     18  C   UNL A   1      30.401  26.343  24.676  1.00  0.00     0.134 C 
ATOM     19  C   UNL A   1      32.068  28.120  23.087  1.00  0.00     0.022 C 
ATOM     20  N   UNL A   1      31.080  27.504  25.267  1.00  0.00    -0.324 N 
ATOM     21  C   UNL A   1      31.347  28.603  24.341  1.00  0.00     0.121 C 
BRANCH  20  22
ATOM     22  C   UNL A   1      31.515  27.625  26.566  1.00  0.00     0.314 C 
ATOM     23  N   UNL A   1      32.017  26.523  27.162  1.00  0.00    -0.351 N 
ATOM     24  O   UNL A   1      31.458  28.664  27.218  1.00  0.00    -0.249 OA
ATOM     25  H   UNL A   1      32.074  25.676  26.663  1.00  0.00     0.161 HD
ATOM     26  H   UNL A   1      32.324  26.566  28.096  1.00  0.00     0.161 HD
ENDBRANCH  20  22
ENDBRANCH  13  16
ENDBRANCH  10  12
ENDBRANCH   9  10
ENDBRANCH   7   9
ENDBRANCH   6   7
ENDBRANCH   5   6
ENDBRANCH   4   5
ENDBRANCH   3   4
ENDBRANCH   2   3
ENDBRANCH   1   2
BRANCH   1  27
ATOM     27  O   UNL A   1      38.341  22.429  25.448  1.00  0.00    -0.377 OA
BRANCH  27  28
ATOM     28  C   UNL A   1      39.153  22.963  26.492  1.00  0.00     0.188 C 
BRANCH  28  29
ATOM     29  C   UNL A   1      40.231  22.067  27.113  1.00  0.00     0.188 C 
BRANCH  29  30
ATOM     30  O   UNL A   1      41.114  21.522  26.147  1.00  0.00    -0.376 OA
BRANCH  30  31
ATOM     31  C   UNL A   1      42.244  22.271  25.726  1.00  0.00     0.202 C 
BRANCH  31  32
ATOM     32  C   UNL A   1      42.748  23.463  26.561  1.00  0.00     0.261 C 
BRANCH  32  33
ATOM     33  O   UNL A   1      42.966  24.712  25.887  1.00  0.00    -0.460 OA
BRANCH  33  34
ATOM     34  C   UNL A   1      41.999  25.643  25.930  1.00  0.00     0.338 C 
ATOM     35  O   UNL A   1      41.186  25.899  25.051  1.00  0.00    -0.246 OA
BRANCH  34  36
ATOM     36  C   UNL A   1      41.948  26.190  27.299  1.00  0.00     0.060 A 
ATOM     37  C   UNL A   1      40.800  25.962  28.067  1.00  0.00     0.016 A 
ATOM     38  C   UNL A   1      42.993  26.972  27.802  1.00  0.00     0.016 A 
ATOM     39  C   UNL A   1      40.655  26.589  29.303  1.00  0.00     0.010 A 
ATOM     40  C   UNL A   1      42.840  27.610  29.038  1.00  0.00     0.010 A 
ATOM     41  C   UNL A   1      41.642  27.470  29.762  1.00  0.00    -0.014 A 
BRANCH  41  42
ATOM     42  C   UNL A   1      41.300  28.411  30.858  1.00  0.00     0.031 A 
ATOM     43  C   UNL A   1      42.142  28.385  32.110  1.00  0.00     0.074 A 
ATOM     44  C   UNL A   1      40.326  29.328  30.718  1.00  0.00     0.049 A 
ATOM     45  N   UNL A   1      42.079  29.148  33.170  1.00  0.00    -0.248 NA
ATOM     46  C   UNL A   1      43.200  27.361  32.170  1.00  0.00     0.031 C 
ATOM     47  C   UNL A   1      39.474  29.486  29.539  1.00  0.00     0.029 A 
ATOM     48  N   UNL A   1      39.900  30.311  31.577  1.00  0.00    -0.354 N 
ATOM     49  C   UNL A   1      43.082  28.695  34.021  1.00  0.00     0.074 A 
ATOM     50  C   UNL A   1      43.712  27.568  33.373  1.00  0.00     0.031 C 
ATOM     51  C   UNL A   1      38.629  30.511  29.749  1.00  0.00     0.029 A 
ATOM     52  C   UNL A   1      38.860  31.062  31.083  1.00  0.00     0.049 A 
ATOM     53  H   UNL A   1      40.300  30.462  32.463  1.00  0.00     0.167 HD
ATOM     54  C   UNL A   1      43.455  29.180  35.229  1.00  0.00     0.031 A 
ATOM     55  C   UNL A   1      38.172  32.074  31.647  1.00  0.00     0.031 A 
ATOM     56  C   UNL A   1      42.818  30.293  35.880  1.00  0.00     0.049 A 
ATOM     57  C   UNL A   1      38.559  32.552  33.024  1.00  0.00     0.074 A 
ATOM     58  C   UNL A   1      43.127  30.870  37.100  1.00  0.00     0.029 A 
ATOM     59  N   UNL A   1      41.736  30.994  35.370  1.00  0.00    -0.354 N 
ATOM     60  N   UNL A   1      39.529  32.132  33.803  1.00  0.00    -0.248 NA
ATOM     61  C   UNL A   1      37.769  33.655  33.589  1.00  0.00     0.031 C 
ATOM     62  C   UNL A   1      42.190  31.877  37.356  1.00  0.00     0.029 A 
ATOM     63  C   UNL A   1      41.344  31.978  36.263  1.00  0.00     0.049 A 
ATOM     64  H   UNL A   1      41.308  30.818  34.500  1.00  0.00     0.167 HD
ATOM     65  C   UNL A   1      39.482  32.940  34.936  1.00  0.00     0.074 A 
ATOM     66  C   UNL A   1      38.404  33.885  34.728  1.00  0.00     0.031 C 
ATOM     67  C   UNL A   1      40.261  32.905  36.047  1.00  0.00     0.031 A 
BRANCH  54  68
ATOM     68  C   UNL A   1      44.584  28.479  35.942  1.00  0.00    -0.014 A 
ATOM     69  C   UNL A   1      45.930  28.778  35.659  1.00  0.00     0.010 A 
ATOM     70  C   UNL A   1      44.293  27.524  36.934  1.00  0.00     0.010 A 
ATOM     71  C   UNL A   1      46.961  28.108  36.324  1.00  0.00     0.020 A 
ATOM     72  C   UNL A   1      45.321  26.875  37.624  1.00  0.00     0.020 A 
ATOM     73  C   UNL A   1      46.649  27.160  37.304  1.00  0.00     0.054 A 
BRANCH  73  74
ATOM     74  S   UNL A   1      48.006  26.325  38.170  1.00  0.00     0.124 S 
ATOM     75  O   UNL A   1      47.376  25.959  39.437  1.00  0.00    -0.237 OA
ATOM     76  O   UNL A   1      48.316  25.211  37.278  1.00  0.00    -0.237 OA
ATOM     77  O   UNL A   1      49.042  27.351  38.265  1.00  0.00    -0.744 OA
ENDBRANCH  73  74
ENDBRANCH  54  68
BRANCH  55  78
ATOM     78  C   UNL A   1      37.033  32.700  30.916  1.00  0.00    -0.014 A 
ATOM     79  C   UNL A   1      37.255  33.684  29.937  1.00  0.00     0.010 A 
ATOM     80  C   UNL A   1      35.711  32.316  31.208  1.00  0.00     0.010 A 
ATOM     81  C   UNL A   1      36.177  34.286  29.279  1.00  0.00     0.020 A 
ATOM     82  C   UNL A   1      34.634  32.891  30.530  1.00  0.00     0.020 A 
ATOM     83  C   UNL A   1      34.873  33.881  29.576  1.00  0.00     0.054 A 
BRANCH  83  84
ATOM     84  S   UNL A   1      33.494  34.637  28.671  1.00  0.00     0.124 S 
ATOM     85  O   UNL A   1      32.548  34.929  29.744  1.00  0.00    -0.237 OA
ATOM     86  O   UNL A   1      34.126  35.797  28.049  1.00  0.00    -0.237 OA
ATOM     87  O   UNL A   1      33.081  33.589  27.740  1.00  0.00    -0.744 OA
ENDBRANCH  83  84
ENDBRANCH  55  78
BRANCH  67  88
ATOM     88  C   UNL A   1      39.999  33.944  37.109  1.00  0.00    -0.014 A 
ATOM     89  C   UNL A   1      39.192  33.666  38.227  1.00  0.00     0.010 A 
ATOM     90  C   UNL A   1      40.592  35.215  36.995  1.00  0.00     0.010 A 
ATOM     91  C   UNL A   1      38.936  34.657  39.179  1.00  0.00     0.020 A 
ATOM     92  C   UNL A   1      40.367  36.198  37.963  1.00  0.00     0.020 A 
ATOM     93  C   UNL A   1      39.521  35.919  39.037  1.00  0.00     0.054 A 
BRANCH  93  94
ATOM     94  S   UNL A   1      39.175  37.188  40.287  1.00  0.00     0.124 S 
ATOM     95  O   UNL A   1      38.330  36.461  41.230  1.00  0.00    -0.237 OA
ATOM     96  O   UNL A   1      40.508  37.531  40.773  1.00  0.00    -0.237 OA
ATOM     97  O   UNL A   1      38.502  38.243  39.533  1.00  0.00    -0.744 OA
ENDBRANCH  93  94
ENDBRANCH  67  88
ENDBRANCH  41  42
ENDBRANCH  34  36
ENDBRANCH  33  34
ENDBRANCH  32  33
ENDBRANCH  31  32
ENDBRANCH  30  31
ENDBRANCH  29  30
ENDBRANCH  28  29
ENDBRANCH  27  28
ENDBRANCH   1  27
TORSDOF 27
ENDMDL
MODEL 2
REMARK VINA RESULT:      -9.1      2.038      3.665
REMARK SMILES C[C@@H](CC(=O)OCCOCCOCCOCCOC(=O)c1ccc(-c2c3nc(c(-c4ccc(S(=O)(=O)[O-])cc4)c4ccc([nH]4)c(-c4ccc(S(=O)(=O)[O-])cc4)c4nc(c(-c5ccc(S(=O)(=O)[O-])cc5)c5ccc2[nH]5)C=C4)C=C3)cc1)NC(=O)[C@@H]1CCCN(C(N)=O)C1
REMARK SMILES IDX 11 1 10 2 9 3 8 4 7 5 6 6 4 7 5 8 3 9 2 10 1 11 81 12 82 13
REMARK SMILES IDX 83 15 84 16 85 17 92 18 86 19 88 20 87 21 89 22 90 23 91 24
REMARK SMILES IDX 12 27 13 28 14 29 15 30 16 31 17 32 18 33 19 34 20 35 21 36
REMARK SMILES IDX 22 37 80 38 23 39 79 40 24 41 25 42 26 43 73 44 27 45 78 46
REMARK SMILES IDX 72 47 74 48 28 49 77 50 71 51 70 52 29 54 59 55 40 56 58 57
REMARK SMILES IDX 41 58 44 59 57 60 75 61 42 62 43 63 56 65 76 66 45 67 30 68
REMARK SMILES IDX 31 69 39 70 32 71 38 72 33 73 34 74 35 75 36 76 37 77 60 78
REMARK SMILES IDX 61 79 69 80 62 81 68 82 63 83 64 84 65 85 66 86 67 87 46 88
REMARK SMILES IDX 47 89 55 90 48 91 54 92 49 93 50 94 51 95 52 96 53 97
REMARK H PARENT 81 14 90 25 90 26 74 53 44 64
REMARK Flexibility Score: inf
ROOT
ATOM      1  C   UNL A   1      36.566  23.432  26.135  1.00  0.00     0.188 C 
ENDROOT
BRANCH   1   2
ATOM      2  C   UNL A   1      36.015  24.430  25.119  1.00  0.00     0.188 C 
BRANCH   2   3
ATOM      3  O   UNL A   1      34.618  24.546  24.917  1.00  0.00    -0.376 OA
BRANCH   3   4
ATOM      4  C   UNL A   1      34.111  25.260  23.792  1.00  0.00     0.202 C 
BRANCH   4   5
ATOM      5  C   UNL A   1      33.178  26.467  23.992  1.00  0.00     0.261 C 
BRANCH   5   6
ATOM      6  O   UNL A   1      32.298  26.358  25.137  1.00  0.00    -0.463 OA
BRANCH   6   7
ATOM      7  C   UNL A   1      31.351  25.399  25.107  1.00  0.00     0.307 C 
ATOM      8  O   UNL A   1      30.569  25.243  24.172  1.00  0.00    -0.252 OA
BRANCH   7   9
ATOM      9  C   UNL A   1      31.309  24.449  26.298  1.00  0.00     0.147 C 
BRANCH   9  10
ATOM     10  C   UNL A   1      30.890  22.965  26.264  1.00  0.00     0.090 C 
ATOM     11  C   UNL A   1      29.527  22.635  26.859  1.00  0.00     0.031 C 
BRANCH  10  12
ATOM     12  N   UNL A   1      31.906  22.041  26.792  1.00  0.00    -0.353 N 
ATOM     13  C   UNL A   1      33.113  21.565  26.398  1.00  0.00     0.225 C 
ATOM     14  H   UNL A   1      31.639  21.668  27.663  1.00  0.00     0.163 HD
ATOM     15  O   UNL A   1      33.811  21.072  27.298  1.00  0.00    -0.275 OA
BRANCH  13  16
ATOM     16  C   UNL A   1      33.698  21.588  24.979  1.00  0.00     0.098 C 
ATOM     17  C   UNL A   1      32.816  21.832  23.761  1.00  0.00     0.017 C 
ATOM     18  C   UNL A   1      34.432  20.242  24.758  1.00  0.00     0.134 C 
ATOM     19  C   UNL A   1      31.834  20.682  23.528  1.00  0.00     0.022 C 
ATOM     20  N   UNL A   1      33.469  19.149  24.566  1.00  0.00    -0.324 N 
ATOM     21  C   UNL A   1      32.538  19.331  23.455  1.00  0.00     0.121 C 
BRANCH  20  22
ATOM     22  C   UNL A   1      33.342  18.023  25.347  1.00  0.00     0.314 C 
ATOM     23  N   UNL A   1      32.762  18.165  26.557  1.00  0.00    -0.351 N 
ATOM     24  O   UNL A   1      33.738  16.909  25.018  1.00  0.00    -0.249 OA
ATOM     25  H   UNL A   1      32.435  19.048  26.847  1.00  0.00     0.161 HD
ATOM     26  H   UNL A   1      32.667  17.385  27.151  1.00  0.00     0.161 HD
ENDBRANCH  20  22
ENDBRANCH  13  16
ENDBRANCH  10  12
ENDBRANCH   9  10
ENDBRANCH   7   9
ENDBRANCH   6   7
ENDBRANCH   5   6
ENDBRANCH   4   5
ENDBRANCH   3   4
ENDBRANCH   2   3
ENDBRANCH   1   2
BRANCH   1  27
ATOM     27  O   UNL A   1      37.360  22.373  25.633  1.00  0.00    -0.377 OA
BRANCH  27  28
ATOM     28  C   UNL A   1      38.780  22.437  25.759  1.00  0.00     0.188 C 
BRANCH  28  29
ATOM     29  C   UNL A   1      39.518  21.235  26.360  1.00  0.00     0.188 C 
BRANCH  29  30
ATOM     30  O   UNL A   1      40.890  21.499  26.602  1.00  0.00    -0.376 OA
BRANCH  30  31
ATOM     31  C   UNL A   1      41.479  22.682  26.082  1.00  0.00     0.202 C 
BRANCH  31  32
ATOM     32  C   UNL A   1      41.580  23.952  26.947  1.00  0.00     0.261 C 
BRANCH  32  33
ATOM     33  O   UNL A   1      40.507  24.904  26.871  1.00  0.00    -0.460 OA
BRANCH  33  34
ATOM     34  C   UNL A   1      40.798  26.174  26.548  1.00  0.00     0.338 C 
ATOM     35  O   UNL A   1      41.234  26.579  25.477  1.00  0.00    -0.246 OA
BRANCH  34  36
ATOM     36  C   UNL A   1      40.323  27.046  27.639  1.00  0.00     0.060 A 
ATOM     37  C   UNL A   1      40.768  28.373  27.674  1.00  0.00     0.016 A 
ATOM     38  C   UNL A   1      39.497  26.549  28.652  1.00  0.00     0.016 A 
ATOM     39  C   UNL A   1      40.462  29.180  28.768  1.00  0.00     0.010 A 
ATOM     40  C   UNL A   1      39.202  27.357  29.756  1.00  0.00     0.010 A 
ATOM     41  C   UNL A   1      39.737  28.654  29.846  1.00  0.00    -0.014 A 
BRANCH  41  42
ATOM     42  C   UNL A   1      39.764  29.380  31.141  1.00  0.00     0.031 A 
ATOM     43  C   UNL A   1      40.908  29.109  32.087  1.00  0.00     0.074 A 
ATOM     44  C   UNL A   1      38.849  30.319  31.438  1.00  0.00     0.049 A 
ATOM     45  N   UNL A   1      41.180  29.662  33.240  1.00  0.00    -0.248 NA
ATOM     46  C   UNL A   1      41.875  28.078  31.673  1.00  0.00     0.031 C 
ATOM     47  C   UNL A   1      37.724  30.706  30.587  1.00  0.00     0.029 A 
ATOM     48  N   UNL A   1      38.733  31.131  32.539  1.00  0.00    -0.354 N 
ATOM     49  C   UNL A   1      42.344  29.045  33.689  1.00  0.00     0.074 A 
ATOM     50  C   UNL A   1      42.703  28.050  32.705  1.00  0.00     0.031 C 
ATOM     51  C   UNL A   1      37.033  31.685  31.197  1.00  0.00     0.029 A 
ATOM     52  C   UNL A   1      37.649  31.975  32.491  1.00  0.00     0.049 A 
ATOM     53  H   UNL A   1      39.365  31.109  33.293  1.00  0.00     0.167 HD
ATOM     54  C   UNL A   1      43.058  29.291  34.813  1.00  0.00     0.031 A 
ATOM     55  C   UNL A   1      37.204  32.873  33.392  1.00  0.00     0.031 A 
ATOM     56  C   UNL A   1      42.692  30.272  35.799  1.00  0.00     0.049 A 
ATOM     57  C   UNL A   1      37.976  33.081  34.670  1.00  0.00     0.074 A 
ATOM     58  C   UNL A   1      43.353  30.607  36.968  1.00  0.00     0.029 A 
ATOM     59  N   UNL A   1      41.560  31.070  35.738  1.00  0.00    -0.354 N 
ATOM     60  N   UNL A   1      39.091  32.511  35.065  1.00  0.00    -0.248 NA
ATOM     61  C   UNL A   1      37.440  34.071  35.615  1.00  0.00     0.031 C 
ATOM     62  C   UNL A   1      42.586  31.562  37.645  1.00  0.00     0.029 A 
ATOM     63  C   UNL A   1      41.486  31.876  36.862  1.00  0.00     0.049 A 
ATOM     64  H   UNL A   1      40.904  31.066  35.003  1.00  0.00     0.167 HD
ATOM     65  C   UNL A   1      39.402  33.093  36.291  1.00  0.00     0.074 A 
ATOM     66  C   UNL A   1      38.371  34.076  36.557  1.00  0.00     0.031 C 
ATOM     67  C   UNL A   1      40.447  32.842  37.120  1.00  0.00     0.031 A 
BRANCH  54  68
ATOM     68  C   UNL A   1      44.290  28.455  35.053  1.00  0.00    -0.014 A 
ATOM     69  C   UNL A   1      45.544  28.829  34.535  1.00  0.00     0.010 A 
ATOM     70  C   UNL A   1      44.196  27.288  35.834  1.00  0.00     0.010 A 
ATOM     71  C   UNL A   1      46.671  28.032  34.760  1.00  0.00     0.020 A 
ATOM     72  C   UNL A   1      45.326  26.506  36.088  1.00  0.00     0.020 A 
ATOM     73  C   UNL A   1      46.554  26.875  35.536  1.00  0.00     0.054 A 
BRANCH  73  74
ATOM     74  S   UNL A   1      48.037  25.874  35.835  1.00  0.00     0.124 S 
ATOM     75  O   UNL A   1      47.736  25.267  37.129  1.00  0.00    -0.237 OA
ATOM     76  O   UNL A   1      48.037  24.958  34.697  1.00  0.00    -0.237 OA
ATOM     77  O   UNL A   1      49.121  26.853  35.844  1.00  0.00    -0.744 OA
ENDBRANCH  73  74
ENDBRANCH  54  68
BRANCH  55  78
ATOM     78  C   UNL A   1      35.953  33.640  33.125  1.00  0.00    -0.014 A 
ATOM     79  C   UNL A   1      34.691  33.074  33.370  1.00  0.00     0.010 A 
ATOM     80  C   UNL A   1      36.026  34.948  32.609  1.00  0.00     0.010 A 
ATOM     81  C   UNL A   1      33.524  33.794  33.088  1.00  0.00     0.020 A 
ATOM     82  C   UNL A   1      34.864  35.681  32.357  1.00  0.00     0.020 A 
ATOM     83  C   UNL A   1      33.619  35.095  32.587  1.00  0.00     0.054 A 
BRANCH  83  84
ATOM     84  S   UNL A   1      32.093  36.028  32.279  1.00  0.00     0.124 S 
ATOM     85  O   UNL A   1      32.220  37.139  33.218  1.00  0.00    -0.237 OA
ATOM     86  O   UNL A   1      32.217  36.374  30.866  1.00  0.00    -0.237 OA
ATOM     87  O   UNL A   1      31.036  35.066  32.586  1.00  0.00    -0.744 OA
ENDBRANCH  83  84
ENDBRANCH  55  78
BRANCH  67  88
ATOM     88  C   UNL A   1      40.547  33.668  38.377  1.00  0.00    -0.014 A 
ATOM     89  C   UNL A   1      41.349  34.822  38.439  1.00  0.00     0.010 A 
ATOM     90  C   UNL A   1      39.803  33.294  39.512  1.00  0.00     0.010 A 
ATOM     91  C   UNL A   1      41.452  35.550  39.628  1.00  0.00     0.020 A 
ATOM     92  C   UNL A   1      39.875  34.040  40.692  1.00  0.00     0.020 A 
ATOM     93  C   UNL A   1      40.718  35.150  40.749  1.00  0.00     0.054 A 
BRANCH  93  94
ATOM     94  S   UNL A   1      40.867  36.113  42.279  1.00  0.00     0.124 S 
ATOM     95  O   UNL A   1      41.626  35.207  43.135  1.00  0.00    -0.237 OA
ATOM     96  O   UNL A   1      41.582  37.308  41.838  1.00  0.00    -0.237 OA
ATOM     97  O   UNL A   1      39.481  36.337  42.684  1.00  0.00    -0.744 OA
ENDBRANCH  93  94
ENDBRANCH  67  88
ENDBRANCH  41  42
ENDBRANCH  34  36
ENDBRANCH  33  34
ENDBRANCH  32  33
ENDBRANCH  31  32
ENDBRANCH  30  31
ENDBRANCH  29  30
ENDBRANCH  28  29
ENDBRANCH  27  28
ENDBRANCH   1  27
TORSDOF 27
ENDMDL
MODEL 3
REMARK VINA RESULT:      -9.0      4.935     10.838
REMARK SMILES C[C@@H](CC(=O)OCCOCCOCCOCCOC(=O)c1ccc(-c2c3nc(c(-c4ccc(S(=O)(=O)[O-])cc4)c4ccc([nH]4)c(-c4ccc(S(=O)(=O)[O-])cc4)c4nc(c(-c5ccc(S(=O)(=O)[O-])cc5)c5ccc2[nH]5)C=C4)C=C3)cc1)NC(=O)[C@@H]1CCCN(C(N)=O)C1
REMARK SMILES IDX 11 1 10 2 9 3 8 4 7 5 6 6 4 7 5 8 3 9 2 10 1 11 81 12 82 13
REMARK SMILES IDX 83 15 84 16 85 17 92 18 86 19 88 20 87 21 89 22 90 23 91 24
REMARK SMILES IDX 12 27 13 28 14 29 15 30 16 31 17 32 18 33 19 34 20 35 21 36
REMARK SMILES IDX 22 37 80 38 23 39 79 40 24 41 25 42 26 43 73 44 27 45 78 46
REMARK SMILES IDX 72 47 74 48 28 49 77 50 71 51 70 52 29 54 59 55 40 56 58 57
REMARK SMILES IDX 41 58 44 59 57 60 75 61 42 62 43 63 56 65 76 66 45 67 30 68
REMARK SMILES IDX 31 69 39 70 32 71 38 72 33 73 34 74 35 75 36 76 37 77 60 78
REMARK SMILES IDX 61 79 69 80 62 81 68 82 63 83 64 84 65 85 66 86 67 87 46 88
REMARK SMILES IDX 47 89 55 90 48 91 54 92 49 93 50 94 51 95 52 96 53 97
REMARK H PARENT 81 14 90 25 90 26 74 53 44 64
REMARK Flexibility Score: inf
ROOT
ATOM      1  C   UNL A   1      33.376  33.271  27.572  1.00  0.00     0.188 C 
ENDROOT
BRANCH   1   2
ATOM      2  C   UNL A   1      33.667  31.824  27.967  1.00  0.00     0.188 C 
BRANCH   2   3
ATOM      3  O   UNL A   1      33.902  30.845  26.972  1.00  0.00    -0.376 OA
BRANCH   3   4
ATOM      4  C   UNL A   1      32.926  29.842  26.705  1.00  0.00     0.202 C 
BRANCH   4   5
ATOM      5  C   UNL A   1      32.328  29.694  25.295  1.00  0.00     0.261 C 
BRANCH   5   6
ATOM      6  O   UNL A   1      33.180  28.998  24.355  1.00  0.00    -0.463 OA
BRANCH   6   7
ATOM      7  C   UNL A   1      32.606  28.080  23.552  1.00  0.00     0.307 C 
ATOM      8  O   UNL A   1      31.393  28.005  23.362  1.00  0.00    -0.252 OA
BRANCH   7   9
ATOM      9  C   UNL A   1      33.549  27.131  22.822  1.00  0.00     0.147 C 
BRANCH   9  10
ATOM     10  C   UNL A   1      33.191  25.732  22.279  1.00  0.00     0.090 C 
ATOM     11  C   UNL A   1      32.642  25.680  20.859  1.00  0.00     0.031 C 
BRANCH  10  12
ATOM     12  N   UNL A   1      32.338  24.938  23.178  1.00  0.00    -0.353 N 
ATOM     13  C   UNL A   1      32.315  24.619  24.495  1.00  0.00     0.225 C 
ATOM     14  H   UNL A   1      31.585  24.529  22.694  1.00  0.00     0.163 HD
ATOM     15  O   UNL A   1      31.224  24.211  24.925  1.00  0.00    -0.275 OA
BRANCH  13  16
ATOM     16  C   UNL A   1      33.476  24.723  25.494  1.00  0.00     0.098 C 
ATOM     17  C   UNL A   1      34.927  24.680  25.030  1.00  0.00     0.017 C 
ATOM     18  C   UNL A   1      33.289  23.599  26.542  1.00  0.00     0.134 C 
ATOM     19  C   UNL A   1      35.304  23.309  24.465  1.00  0.00     0.022 C 
ATOM     20  N   UNL A   1      33.628  22.290  25.967  1.00  0.00    -0.324 N 
ATOM     21  C   UNL A   1      34.986  22.179  25.438  1.00  0.00     0.121 C 
BRANCH  20  22
ATOM     22  C   UNL A   1      32.790  21.206  25.846  1.00  0.00     0.314 C 
ATOM     23  N   UNL A   1      33.251  20.009  26.267  1.00  0.00    -0.351 N 
ATOM     24  O   UNL A   1      31.662  21.258  25.365  1.00  0.00    -0.249 OA
ATOM     25  H   UNL A   1      34.153  19.939  26.658  1.00  0.00     0.161 HD
ATOM     26  H   UNL A   1      32.687  19.207  26.183  1.00  0.00     0.161 HD
ENDBRANCH  20  22
ENDBRANCH  13  16
ENDBRANCH  10  12
ENDBRANCH   9  10
ENDBRANCH   7   9
ENDBRANCH   6   7
ENDBRANCH   5   6
ENDBRANCH   4   5
ENDBRANCH   3   4
ENDBRANCH   2   3
ENDBRANCH   1   2
BRANCH   1  27
ATOM     27  O   UNL A   1      32.905  34.135  28.589  1.00  0.00    -0.377 OA
BRANCH  27  28
ATOM     28  C   UNL A   1      33.512  35.414  28.764  1.00  0.00     0.188 C 
BRANCH  28  29
ATOM     29  C   UNL A   1      32.695  36.529  29.427  1.00  0.00     0.188 C 
BRANCH  29  30
ATOM     30  O   UNL A   1      33.361  37.112  30.535  1.00  0.00    -0.376 OA
BRANCH  30  31
ATOM     31  C   UNL A   1      32.864  36.896  31.847  1.00  0.00     0.202 C 
BRANCH  31  32
ATOM     32  C   UNL A   1      33.444  35.775  32.729  1.00  0.00     0.261 C 
BRANCH  32  33
ATOM     33  O   UNL A   1      34.359  34.848  32.123  1.00  0.00    -0.460 OA
BRANCH  33  34
ATOM     34  C   UNL A   1      34.289  33.554  32.474  1.00  0.00     0.338 C 
ATOM     35  O   UNL A   1      33.387  33.010  33.099  1.00  0.00    -0.246 OA
BRANCH  34  36
ATOM     36  C   UNL A   1      35.397  32.838  31.813  1.00  0.00     0.060 A 
ATOM     37  C   UNL A   1      36.181  31.968  32.581  1.00  0.00     0.016 A 
ATOM     38  C   UNL A   1      35.701  33.065  30.467  1.00  0.00     0.016 A 
ATOM     39  C   UNL A   1      37.323  31.393  32.029  1.00  0.00     0.010 A 
ATOM     40  C   UNL A   1      36.856  32.496  29.919  1.00  0.00     0.010 A 
ATOM     41  C   UNL A   1      37.704  31.709  30.718  1.00  0.00    -0.014 A 
BRANCH  41  42
ATOM     42  C   UNL A   1      39.096  31.415  30.292  1.00  0.00     0.031 A 
ATOM     43  C   UNL A   1      40.143  32.484  30.490  1.00  0.00     0.074 A 
ATOM     44  C   UNL A   1      39.446  30.204  29.824  1.00  0.00     0.049 A 
ATOM     45  N   UNL A   1      41.429  32.440  30.257  1.00  0.00    -0.248 NA
ATOM     46  C   UNL A   1      39.674  33.773  31.027  1.00  0.00     0.031 C 
ATOM     47  C   UNL A   1      38.536  29.075  29.632  1.00  0.00     0.029 A 
ATOM     48  N   UNL A   1      40.671  29.721  29.437  1.00  0.00    -0.354 N 
ATOM     49  C   UNL A   1      41.920  33.692  30.613  1.00  0.00     0.074 A 
ATOM     50  C   UNL A   1      40.790  34.485  31.041  1.00  0.00     0.031 C 
ATOM     51  C   UNL A   1      39.239  28.026  29.167  1.00  0.00     0.029 A 
ATOM     52  C   UNL A   1      40.638  28.417  29.002  1.00  0.00     0.049 A 
ATOM     53  H   UNL A   1      41.495  30.258  29.466  1.00  0.00     0.167 HD
ATOM     54  C   UNL A   1      43.198  34.140  30.599  1.00  0.00     0.031 A 
ATOM     55  C   UNL A   1      41.623  27.634  28.521  1.00  0.00     0.031 A 
ATOM     56  C   UNL A   1      44.320  33.354  30.160  1.00  0.00     0.049 A 
ATOM     57  C   UNL A   1      43.028  28.177  28.448  1.00  0.00     0.074 A 
ATOM     58  C   UNL A   1      45.657  33.710  30.116  1.00  0.00     0.029 A 
ATOM     59  N   UNL A   1      44.236  32.056  29.679  1.00  0.00    -0.354 N 
ATOM     60  N   UNL A   1      43.480  29.353  28.817  1.00  0.00    -0.248 NA
ATOM     61  C   UNL A   1      44.059  27.278  27.911  1.00  0.00     0.031 C 
ATOM     62  C   UNL A   1      46.372  32.650  29.548  1.00  0.00     0.029 A 
ATOM     63  C   UNL A   1      45.493  31.606  29.308  1.00  0.00     0.049 A 
ATOM     64  H   UNL A   1      43.407  31.531  29.612  1.00  0.00     0.167 HD
ATOM     65  C   UNL A   1      44.853  29.322  28.582  1.00  0.00     0.074 A 
ATOM     66  C   UNL A   1      45.156  28.004  28.063  1.00  0.00     0.031 C 
ATOM     67  C   UNL A   1      45.779  30.294  28.781  1.00  0.00     0.031 A 
BRANCH  54  68
ATOM     68  C   UNL A   1      43.443  35.561  31.037  1.00  0.00    -0.014 A 
ATOM     69  C   UNL A   1      43.563  35.901  32.397  1.00  0.00     0.010 A 
ATOM     70  C   UNL A   1      43.581  36.573  30.068  1.00  0.00     0.010 A 
ATOM     71  C   UNL A   1      43.779  37.228  32.781  1.00  0.00     0.020 A 
ATOM     72  C   UNL A   1      43.829  37.895  30.446  1.00  0.00     0.020 A 
ATOM     73  C   UNL A   1      43.911  38.217  31.802  1.00  0.00     0.054 A 
BRANCH  73  74
ATOM     74  S   UNL A   1      44.216  39.926  32.328  1.00  0.00     0.124 S 
ATOM     75  O   UNL A   1      42.953  40.273  32.976  1.00  0.00    -0.237 OA
ATOM     76  O   UNL A   1      45.361  39.785  33.222  1.00  0.00    -0.237 OA
ATOM     77  O   UNL A   1      44.487  40.631  31.077  1.00  0.00    -0.744 OA
ENDBRANCH  73  74
ENDBRANCH  54  68
BRANCH  55  78
ATOM     78  C   UNL A   1      41.317  26.250  28.058  1.00  0.00    -0.014 A 
ATOM     79  C   UNL A   1      41.930  25.135  28.654  1.00  0.00     0.010 A 
ATOM     80  C   UNL A   1      40.409  26.045  27.002  1.00  0.00     0.010 A 
ATOM     81  C   UNL A   1      41.656  23.843  28.192  1.00  0.00     0.020 A 
ATOM     82  C   UNL A   1      40.109  24.755  26.559  1.00  0.00     0.020 A 
ATOM     83  C   UNL A   1      40.744  23.662  27.149  1.00  0.00     0.054 A 
BRANCH  83  84
ATOM     84  S   UNL A   1      40.364  21.973  26.601  1.00  0.00     0.124 S 
ATOM     85  O   UNL A   1      40.428  21.225  27.853  1.00  0.00    -0.237 OA
ATOM     86  O   UNL A   1      39.033  22.125  26.020  1.00  0.00    -0.237 OA
ATOM     87  O   UNL A   1      41.425  21.679  25.640  1.00  0.00    -0.744 OA
ENDBRANCH  83  84
ENDBRANCH  55  78
BRANCH  67  88
ATOM     88  C   UNL A   1      47.215  29.956  28.469  1.00  0.00    -0.014 A 
ATOM     89  C   UNL A   1      47.770  30.200  27.200  1.00  0.00     0.010 A 
ATOM     90  C   UNL A   1      48.030  29.404  29.475  1.00  0.00     0.010 A 
ATOM     91  C   UNL A   1      49.094  29.844  26.926  1.00  0.00     0.020 A 
ATOM     92  C   UNL A   1      49.365  29.081  29.216  1.00  0.00     0.020 A 
ATOM     93  C   UNL A   1      49.881  29.281  27.935  1.00  0.00     0.054 A 
BRANCH  93  94
ATOM     94  S   UNL A   1      51.597  28.831  27.555  1.00  0.00     0.124 S 
ATOM     95  O   UNL A   1      51.977  28.061  28.735  1.00  0.00    -0.237 OA
ATOM     96  O   UNL A   1      51.460  28.062  26.320  1.00  0.00    -0.237 OA
ATOM     97  O   UNL A   1      52.269  30.120  27.408  1.00  0.00    -0.744 OA
ENDBRANCH  93  94
ENDBRANCH  67  88
ENDBRANCH  41  42
ENDBRANCH  34  36
ENDBRANCH  33  34
ENDBRANCH  32  33
ENDBRANCH  31  32
ENDBRANCH  30  31
ENDBRANCH  29  30
ENDBRANCH  28  29
ENDBRANCH  27  28
ENDBRANCH   1  27
TORSDOF 27
ENDMDL
