MODEL 1
REMARK VINA RESULT:      -7.3      0.000      0.000
REMARK SMILES Cc1ccc(S(=O)(=O)n2cc(C(=O)C(=O)NCC(=O)NCC(=O)OCCOCCOCCOCCOC(=O)c3ccc(-c4c5nc(c(-c6ccc(S(=O)(=O)[O-])cc6)c6ccc([nH]6)c(-c6ccc(S(=O)(=O)[O-])cc6)c6nc(c(-c7ccc(S(=O)(=O)[O-])cc7)c7ccc4[nH]7)C=C6)C=C5)cc3)c3ccccc32)cc1
REMARK SMILES IDX 28 1 27 2 26 3 25 4 24 5 22 6 23 7 21 8 20 9 18 10 19 11
REMARK SMILES IDX 17 13 16 14 14 15 15 16 12 18 13 19 11 20 9 21 10 22 104 23
REMARK SMILES IDX 99 24 103 25 100 26 102 27 101 28 6 29 7 30 8 31 5 32 1 33
REMARK SMILES IDX 2 34 3 35 106 36 4 37 105 38 29 39 30 40 31 41 32 42 33 43
REMARK SMILES IDX 34 44 35 45 36 46 37 47 38 48 39 49 40 50 98 51 41 52 97 53
REMARK SMILES IDX 42 54 43 55 44 56 91 57 45 58 96 59 90 60 92 61 46 62 95 63
REMARK SMILES IDX 89 64 88 65 47 67 77 68 58 69 76 70 59 71 62 72 75 73 93 74
REMARK SMILES IDX 60 75 61 76 74 78 94 79 63 80 48 81 49 82 57 83 50 84 56 85
REMARK SMILES IDX 51 86 52 87 53 88 54 89 55 90 78 91 79 92 87 93 80 94 86 95
REMARK SMILES IDX 81 96 82 97 83 98 84 99 85 100 64 101 65 102 73 103 66 104
REMARK SMILES IDX 72 105 67 106 68 107 69 108 70 109 71 110
REMARK H PARENT 20 12 16 17 92 66 62 77
REMARK Flexibility Score: inf
ROOT
ATOM      1  C   UNL A   1      46.154  27.825  30.350  1.00  0.00     0.188 C 
ENDROOT
BRANCH   1   2
ATOM      2  O   UNL A   1      47.524  27.474  30.184  1.00  0.00    -0.376 OA
BRANCH   2   3
ATOM      3  C   UNL A   1      48.061  26.501  31.078  1.00  0.00     0.202 C 
BRANCH   3   4
ATOM      4  C   UNL A   1      49.013  25.544  30.397  1.00  0.00     0.261 C 
BRANCH   4   5
ATOM      5  O   UNL A   1      49.663  26.251  29.328  1.00  0.00    -0.462 OA
BRANCH   5   6
ATOM      6  C   UNL A   1      49.613  25.689  28.106  1.00  0.00     0.325 C 
ATOM      7  O   UNL A   1      49.853  24.519  27.844  1.00  0.00    -0.250 OA
BRANCH   6   8
ATOM      8  C   UNL A   1      49.057  26.662  27.077  1.00  0.00     0.238 C 
BRANCH   8   9
ATOM      9  N   UNL A   1      49.164  26.316  25.663  1.00  0.00    -0.344 N 
ATOM     10  C   UNL A   1      48.229  25.752  24.851  1.00  0.00     0.239 C 
ATOM     11  O   UNL A   1      48.359  25.829  23.630  1.00  0.00    -0.273 OA
ATOM     12  H   UNL A   1      50.029  26.517  25.240  1.00  0.00     0.164 HD
BRANCH  10  13
ATOM     13  C   UNL A   1      47.130  24.902  25.468  1.00  0.00     0.216 C 
BRANCH  13  14
ATOM     14  N   UNL A   1      46.447  24.241  24.365  1.00  0.00    -0.340 N 
ATOM     15  C   UNL A   1      45.531  23.216  24.345  1.00  0.00     0.292 C 
ATOM     16  O   UNL A   1      45.155  22.788  23.261  1.00  0.00    -0.265 OA
ATOM     17  H   UNL A   1      46.683  24.591  23.476  1.00  0.00     0.164 HD
BRANCH  15  18
ATOM     18  C   UNL A   1      44.963  22.630  25.662  1.00  0.00     0.252 C 
ATOM     19  O   UNL A   1      45.731  22.012  26.397  1.00  0.00    -0.283 OA
BRANCH  18  20
ATOM     20  C   UNL A   1      43.553  22.800  26.034  1.00  0.00     0.054 A 
ATOM     21  N   UNL A   1      41.601  23.718  26.621  1.00  0.00    -0.240 N 
ATOM     22  C   UNL A   1      42.943  23.960  26.468  1.00  0.00     0.117 A 
ATOM     23  C   UNL A   1      41.339  22.368  26.519  1.00  0.00     0.065 A 
ATOM     24  C   UNL A   1      42.544  21.775  26.112  1.00  0.00     0.012 A 
ATOM     25  C   UNL A   1      40.179  21.610  26.759  1.00  0.00     0.028 A 
ATOM     26  C   UNL A   1      42.559  20.380  25.889  1.00  0.00     0.011 A 
ATOM     27  C   UNL A   1      40.243  20.227  26.577  1.00  0.00     0.002 A 
ATOM     28  C   UNL A   1      41.412  19.619  26.136  1.00  0.00     0.001 A 
BRANCH  21  29
ATOM     29  S   UNL A   1      40.501  24.901  27.171  1.00  0.00     0.268 S 
ATOM     30  O   UNL A   1      40.288  24.610  28.578  1.00  0.00    -0.201 OA
ATOM     31  O   UNL A   1      39.437  24.933  26.195  1.00  0.00    -0.201 OA
BRANCH  29  32
ATOM     32  C   UNL A   1      41.335  26.456  27.054  1.00  0.00     0.088 A 
ATOM     33  C   UNL A   1      43.427  30.198  26.980  1.00  0.00     0.044 C 
ATOM     34  C   UNL A   1      42.687  28.896  27.003  1.00  0.00    -0.051 A 
ATOM     35  C   UNL A   1      42.580  28.174  28.199  1.00  0.00     0.005 A 
ATOM     36  C   UNL A   1      42.092  28.394  25.840  1.00  0.00     0.005 A 
ATOM     37  C   UNL A   1      41.908  26.955  28.227  1.00  0.00     0.022 A 
ATOM     38  C   UNL A   1      41.409  27.179  25.864  1.00  0.00     0.022 A 
ENDBRANCH  29  32
ENDBRANCH  21  29
ENDBRANCH  18  20
ENDBRANCH  15  18
ENDBRANCH  13  14
ENDBRANCH  10  13
ENDBRANCH   8   9
ENDBRANCH   6   8
ENDBRANCH   5   6
ENDBRANCH   4   5
ENDBRANCH   3   4
ENDBRANCH   2   3
ENDBRANCH   1   2
BRANCH   1  39
ATOM     39  C   UNL A   1      45.151  26.677  30.434  1.00  0.00     0.188 C 
BRANCH  39  40
ATOM     40  O   UNL A   1      44.184  26.803  31.443  1.00  0.00    -0.377 OA
BRANCH  40  41
ATOM     41  C   UNL A   1      44.133  27.979  32.221  1.00  0.00     0.188 C 
BRANCH  41  42
ATOM     42  C   UNL A   1      43.778  27.616  33.671  1.00  0.00     0.188 C 
BRANCH  42  43
ATOM     43  O   UNL A   1      43.419  28.681  34.546  1.00  0.00    -0.376 OA
BRANCH  43  44
ATOM     44  C   UNL A   1      42.245  29.416  34.144  1.00  0.00     0.202 C 
BRANCH  44  45
ATOM     45  C   UNL A   1      41.206  29.814  35.243  1.00  0.00     0.261 C 
BRANCH  45  46
ATOM     46  O   UNL A   1      41.119  31.253  35.373  1.00  0.00    -0.460 OA
BRANCH  46  47
ATOM     47  C   UNL A   1      40.058  32.015  35.012  1.00  0.00     0.338 C 
ATOM     48  O   UNL A   1      39.601  31.959  33.878  1.00  0.00    -0.246 OA
BRANCH  47  49
ATOM     49  C   UNL A   1      39.889  33.281  35.896  1.00  0.00     0.060 A 
ATOM     50  C   UNL A   1      39.259  34.303  35.201  1.00  0.00     0.016 A 
ATOM     51  C   UNL A   1      40.974  33.723  36.640  1.00  0.00     0.016 A 
ATOM     52  C   UNL A   1      40.034  35.331  34.663  1.00  0.00     0.010 A 
ATOM     53  C   UNL A   1      41.824  34.664  36.069  1.00  0.00     0.010 A 
ATOM     54  C   UNL A   1      41.400  35.320  34.920  1.00  0.00    -0.014 A 
BRANCH  54  55
ATOM     55  C   UNL A   1      42.396  35.621  33.874  1.00  0.00     0.031 A 
ATOM     56  C   UNL A   1      43.293  36.812  33.980  1.00  0.00     0.074 A 
ATOM     57  C   UNL A   1      42.609  34.666  32.922  1.00  0.00     0.049 A 
ATOM     58  N   UNL A   1      44.208  37.113  33.123  1.00  0.00    -0.248 NA
ATOM     59  C   UNL A   1      43.259  37.772  35.085  1.00  0.00     0.031 C 
ATOM     60  C   UNL A   1      43.678  34.604  31.920  1.00  0.00     0.029 A 
ATOM     61  N   UNL A   1      41.843  33.558  32.557  1.00  0.00    -0.354 N 
ATOM     62  C   UNL A   1      44.993  38.133  33.623  1.00  0.00     0.074 A 
ATOM     63  C   UNL A   1      44.352  38.515  34.853  1.00  0.00     0.031 C 
ATOM     64  C   UNL A   1      43.374  33.709  30.964  1.00  0.00     0.029 A 
ATOM     65  C   UNL A   1      41.988  33.370  31.178  1.00  0.00     0.049 A 
ATOM     66  H   UNL A   1      41.297  33.008  33.162  1.00  0.00     0.167 HD
ATOM     67  C   UNL A   1      46.130  38.478  32.948  1.00  0.00     0.031 A 
ATOM     68  C   UNL A   1      41.000  33.750  30.306  1.00  0.00     0.031 A 
ATOM     69  C   UNL A   1      46.062  37.986  31.565  1.00  0.00     0.049 A 
ATOM     70  C   UNL A   1      41.423  34.986  29.467  1.00  0.00     0.074 A 
ATOM     71  C   UNL A   1      46.817  37.143  30.771  1.00  0.00     0.029 A 
ATOM     72  N   UNL A   1      44.881  38.218  30.849  1.00  0.00    -0.354 N 
ATOM     73  N   UNL A   1      42.414  35.798  29.775  1.00  0.00    -0.248 NA
ATOM     74  C   UNL A   1      40.824  35.366  28.192  1.00  0.00     0.031 C 
ATOM     75  C   UNL A   1      45.952  36.662  29.742  1.00  0.00     0.029 A 
ATOM     76  C   UNL A   1      44.784  37.397  29.746  1.00  0.00     0.049 A 
ATOM     77  H   UNL A   1      44.205  38.886  31.102  1.00  0.00     0.167 HD
ATOM     78  C   UNL A   1      42.656  36.701  28.765  1.00  0.00     0.074 A 
ATOM     79  C   UNL A   1      41.579  36.423  27.825  1.00  0.00     0.031 C 
ATOM     80  C   UNL A   1      43.715  37.584  28.761  1.00  0.00     0.031 A 
BRANCH  67  81
ATOM     81  C   UNL A   1      47.356  39.134  33.578  1.00  0.00    -0.014 A 
ATOM     82  C   UNL A   1      48.203  38.399  34.438  1.00  0.00     0.010 A 
ATOM     83  C   UNL A   1      47.662  40.509  33.466  1.00  0.00     0.010 A 
ATOM     84  C   UNL A   1      49.273  38.996  35.144  1.00  0.00     0.020 A 
ATOM     85  C   UNL A   1      48.743  41.112  34.139  1.00  0.00     0.020 A 
ATOM     86  C   UNL A   1      49.539  40.354  34.988  1.00  0.00     0.054 A 
BRANCH  86  87
ATOM     87  S   UNL A   1      50.915  41.119  35.898  1.00  0.00     0.124 S 
ATOM     88  O   UNL A   1      50.227  41.865  36.948  1.00  0.00    -0.237 OA
ATOM     89  O   UNL A   1      51.687  39.964  36.348  1.00  0.00    -0.237 OA
ATOM     90  O   UNL A   1      51.580  41.945  34.891  1.00  0.00    -0.744 OA
ENDBRANCH  86  87
ENDBRANCH  67  81
BRANCH  68  91
ATOM     91  C   UNL A   1      39.643  33.254  30.739  1.00  0.00    -0.014 A 
ATOM     92  C   UNL A   1      38.788  34.225  31.328  1.00  0.00     0.010 A 
ATOM     93  C   UNL A   1      39.030  32.097  30.228  1.00  0.00     0.010 A 
ATOM     94  C   UNL A   1      37.387  34.147  31.234  1.00  0.00     0.020 A 
ATOM     95  C   UNL A   1      37.614  32.000  30.159  1.00  0.00     0.020 A 
ATOM     96  C   UNL A   1      36.801  33.051  30.612  1.00  0.00     0.054 A 
BRANCH  96  97
ATOM     97  S   UNL A   1      35.005  33.111  30.224  1.00  0.00     0.124 S 
ATOM     98  O   UNL A   1      34.749  34.545  30.147  1.00  0.00    -0.237 OA
ATOM     99  O   UNL A   1      34.892  32.390  28.960  1.00  0.00    -0.237 OA
ATOM    100  O   UNL A   1      34.385  32.431  31.361  1.00  0.00    -0.744 OA
ENDBRANCH  96  97
ENDBRANCH  68  91
BRANCH  80 101
ATOM    101  C   UNL A   1      43.918  38.766  27.812  1.00  0.00    -0.014 A 
ATOM    102  C   UNL A   1      43.203  39.967  27.841  1.00  0.00     0.010 A 
ATOM    103  C   UNL A   1      44.912  38.666  26.797  1.00  0.00     0.010 A 
ATOM    104  C   UNL A   1      43.574  41.056  27.031  1.00  0.00     0.020 A 
ATOM    105  C   UNL A   1      45.282  39.731  25.974  1.00  0.00     0.020 A 
ATOM    106  C   UNL A   1      44.640  40.944  26.135  1.00  0.00     0.054 A 
BRANCH 106 107
ATOM    107  S   UNL A   1      45.178  42.390  25.196  1.00  0.00     0.124 S 
ATOM    108  O   UNL A   1      46.224  42.954  26.047  1.00  0.00    -0.237 OA
ATOM    109  O   UNL A   1      45.643  41.786  23.950  1.00  0.00    -0.237 OA
ATOM    110  O   UNL A   1      43.972  43.207  25.077  1.00  0.00    -0.744 OA
ENDBRANCH 106 107
ENDBRANCH  80 101
ENDBRANCH  54  55
ENDBRANCH  47  49
ENDBRANCH  46  47
ENDBRANCH  45  46
ENDBRANCH  44  45
ENDBRANCH  43  44
ENDBRANCH  42  43
ENDBRANCH  41  42
ENDBRANCH  40  41
ENDBRANCH  39  40
ENDBRANCH   1  39
TORSDOF 30
ENDMDL
MODEL 2
REMARK VINA RESULT:      -6.7      3.386     12.219
REMARK SMILES Cc1ccc(S(=O)(=O)n2cc(C(=O)C(=O)NCC(=O)NCC(=O)OCCOCCOCCOCCOC(=O)c3ccc(-c4c5nc(c(-c6ccc(S(=O)(=O)[O-])cc6)c6ccc([nH]6)c(-c6ccc(S(=O)(=O)[O-])cc6)c6nc(c(-c7ccc(S(=O)(=O)[O-])cc7)c7ccc4[nH]7)C=C6)C=C5)cc3)c3ccccc32)cc1
REMARK SMILES IDX 28 1 27 2 26 3 25 4 24 5 22 6 23 7 21 8 20 9 18 10 19 11
REMARK SMILES IDX 17 13 16 14 14 15 15 16 12 18 13 19 11 20 9 21 10 22 104 23
REMARK SMILES IDX 99 24 103 25 100 26 102 27 101 28 6 29 7 30 8 31 5 32 1 33
REMARK SMILES IDX 2 34 3 35 106 36 4 37 105 38 29 39 30 40 31 41 32 42 33 43
REMARK SMILES IDX 34 44 35 45 36 46 37 47 38 48 39 49 40 50 98 51 41 52 97 53
REMARK SMILES IDX 42 54 43 55 44 56 91 57 45 58 96 59 90 60 92 61 46 62 95 63
REMARK SMILES IDX 89 64 88 65 47 67 77 68 58 69 76 70 59 71 62 72 75 73 93 74
REMARK SMILES IDX 60 75 61 76 74 78 94 79 63 80 48 81 49 82 57 83 50 84 56 85
REMARK SMILES IDX 51 86 52 87 53 88 54 89 55 90 78 91 79 92 87 93 80 94 86 95
REMARK SMILES IDX 81 96 82 97 83 98 84 99 85 100 64 101 65 102 73 103 66 104
REMARK SMILES IDX 72 105 67 106 68 107 69 108 70 109 71 110
REMARK H PARENT 20 12 16 17 92 66 62 77
REMARK Flexibility Score: inf
ROOT
ATOM      1  C   UNL A   1      46.742  33.962  29.984  1.00  0.00     0.188 C 
ENDROOT
BRANCH   1   2
ATOM      2  O   UNL A   1      47.715  34.668  30.746  1.00  0.00    -0.376 OA
BRANCH   2   3
ATOM      3  C   UNL A   1      47.654  36.093  30.723  1.00  0.00     0.202 C 
BRANCH   3   4
ATOM      4  C   UNL A   1      48.351  36.688  29.521  1.00  0.00     0.261 C 
BRANCH   4   5
ATOM      5  O   UNL A   1      49.742  36.840  29.844  1.00  0.00    -0.462 OA
BRANCH   5   6
ATOM      6  C   UNL A   1      50.055  37.754  30.783  1.00  0.00     0.325 C 
ATOM      7  O   UNL A   1      50.704  37.546  31.798  1.00  0.00    -0.250 OA
BRANCH   6   8
ATOM      8  C   UNL A   1      49.632  39.150  30.351  1.00  0.00     0.238 C 
BRANCH   8   9
ATOM      9  N   UNL A   1      50.520  39.905  29.473  1.00  0.00    -0.344 N 
ATOM     10  C   UNL A   1      50.360  41.161  28.975  1.00  0.00     0.239 C 
ATOM     11  O   UNL A   1      51.334  41.767  28.529  1.00  0.00    -0.273 OA
ATOM     12  H   UNL A   1      51.347  39.443  29.205  1.00  0.00     0.164 HD
BRANCH  10  13
ATOM     13  C   UNL A   1      48.956  41.726  28.832  1.00  0.00     0.216 C 
BRANCH  13  14
ATOM     14  N   UNL A   1      48.450  41.261  27.549  1.00  0.00    -0.340 N 
ATOM     15  C   UNL A   1      47.251  41.476  26.910  1.00  0.00     0.292 C 
ATOM     16  O   UNL A   1      47.042  40.903  25.848  1.00  0.00    -0.265 OA
ATOM     17  H   UNL A   1      49.079  40.692  27.048  1.00  0.00     0.164 HD
BRANCH  15  18
ATOM     18  C   UNL A   1      46.196  42.442  27.505  1.00  0.00     0.252 C 
ATOM     19  O   UNL A   1      46.366  43.649  27.349  1.00  0.00    -0.283 OA
BRANCH  18  20
ATOM     20  C   UNL A   1      45.023  41.945  28.235  1.00  0.00     0.054 A 
ATOM     21  N   UNL A   1      43.578  41.473  29.875  1.00  0.00    -0.240 N 
ATOM     22  C   UNL A   1      44.842  41.932  29.604  1.00  0.00     0.117 A 
ATOM     23  C   UNL A   1      42.995  40.965  28.733  1.00  0.00     0.065 A 
ATOM     24  C   UNL A   1      43.868  41.286  27.682  1.00  0.00     0.012 A 
ATOM     25  C   UNL A   1      41.805  40.246  28.519  1.00  0.00     0.028 A 
ATOM     26  C   UNL A   1      43.499  40.914  26.370  1.00  0.00     0.011 A 
ATOM     27  C   UNL A   1      41.496  39.850  27.216  1.00  0.00     0.002 A 
ATOM     28  C   UNL A   1      42.323  40.190  26.152  1.00  0.00     0.001 A 
BRANCH  21  29
ATOM     29  S   UNL A   1      42.977  41.284  31.461  1.00  0.00     0.268 S 
ATOM     30  O   UNL A   1      41.530  41.303  31.333  1.00  0.00    -0.201 OA
ATOM     31  O   UNL A   1      43.716  42.219  32.276  1.00  0.00    -0.201 OA
BRANCH  29  32
ATOM     32  C   UNL A   1      43.459  39.668  31.991  1.00  0.00     0.088 A 
ATOM     33  C   UNL A   1      44.549  35.797  33.479  1.00  0.00     0.044 C 
ATOM     34  C   UNL A   1      44.178  37.151  32.956  1.00  0.00    -0.051 A 
ATOM     35  C   UNL A   1      43.693  38.130  33.833  1.00  0.00     0.005 A 
ATOM     36  C   UNL A   1      44.321  37.453  31.598  1.00  0.00     0.005 A 
ATOM     37  C   UNL A   1      43.330  39.386  33.354  1.00  0.00     0.022 A 
ATOM     38  C   UNL A   1      43.970  38.712  31.113  1.00  0.00     0.022 A 
ENDBRANCH  29  32
ENDBRANCH  21  29
ENDBRANCH  18  20
ENDBRANCH  15  18
ENDBRANCH  13  14
ENDBRANCH  10  13
ENDBRANCH   8   9
ENDBRANCH   6   8
ENDBRANCH   5   6
ENDBRANCH   4   5
ENDBRANCH   3   4
ENDBRANCH   2   3
ENDBRANCH   1   2
BRANCH   1  39
ATOM     39  C   UNL A   1      47.262  33.052  28.873  1.00  0.00     0.188 C 
BRANCH  39  40
ATOM     40  O   UNL A   1      46.394  32.891  27.781  1.00  0.00    -0.377 OA
BRANCH  40  41
ATOM     41  C   UNL A   1      46.845  32.228  26.620  1.00  0.00     0.188 C 
BRANCH  41  42
ATOM     42  C   UNL A   1      45.879  31.082  26.280  1.00  0.00     0.188 C 
BRANCH  42  43
ATOM     43  O   UNL A   1      45.831  29.976  27.177  1.00  0.00    -0.376 OA
BRANCH  43  44
ATOM     44  C   UNL A   1      47.012  29.150  27.173  1.00  0.00     0.202 C 
BRANCH  44  45
ATOM     45  C   UNL A   1      47.151  28.047  28.272  1.00  0.00     0.261 C 
BRANCH  45  46
ATOM     46  O   UNL A   1      46.140  27.025  28.107  1.00  0.00    -0.460 OA
BRANCH  46  47
ATOM     47  C   UNL A   1      46.371  25.691  28.039  1.00  0.00     0.338 C 
ATOM     48  O   UNL A   1      46.628  25.152  26.970  1.00  0.00    -0.246 OA
BRANCH  47  49
ATOM     49  C   UNL A   1      45.735  24.901  29.215  1.00  0.00     0.060 A 
ATOM     50  C   UNL A   1      44.375  24.713  29.023  1.00  0.00     0.016 A 
ATOM     51  C   UNL A   1      46.050  25.275  30.514  1.00  0.00     0.016 A 
ATOM     52  C   UNL A   1      43.477  25.548  29.689  1.00  0.00     0.010 A 
ATOM     53  C   UNL A   1      45.228  26.198  31.151  1.00  0.00     0.010 A 
ATOM     54  C   UNL A   1      43.994  26.482  30.580  1.00  0.00    -0.014 A 
BRANCH  54  55
ATOM     55  C   UNL A   1      43.495  27.869  30.637  1.00  0.00     0.031 A 
ATOM     56  C   UNL A   1      43.363  28.590  31.940  1.00  0.00     0.074 A 
ATOM     57  C   UNL A   1      43.359  28.533  29.451  1.00  0.00     0.049 A 
ATOM     58  N   UNL A   1      42.970  29.812  32.059  1.00  0.00    -0.248 NA
ATOM     59  C   UNL A   1      43.688  28.005  33.241  1.00  0.00     0.031 C 
ATOM     60  C   UNL A   1      43.107  29.961  29.233  1.00  0.00     0.029 A 
ATOM     61  N   UNL A   1      43.312  28.055  28.141  1.00  0.00    -0.354 N 
ATOM     62  C   UNL A   1      43.169  30.239  33.356  1.00  0.00     0.074 A 
ATOM     63  C   UNL A   1      43.616  29.065  34.059  1.00  0.00     0.031 C 
ATOM     64  C   UNL A   1      42.714  30.180  27.966  1.00  0.00     0.029 A 
ATOM     65  C   UNL A   1      42.442  28.874  27.414  1.00  0.00     0.049 A 
ATOM     66  H   UNL A   1      43.804  27.278  27.791  1.00  0.00     0.167 HD
ATOM     67  C   UNL A   1      42.986  31.561  33.649  1.00  0.00     0.031 A 
ATOM     68  C   UNL A   1      41.171  28.460  27.112  1.00  0.00     0.031 A 
ATOM     69  C   UNL A   1      42.173  32.198  32.604  1.00  0.00     0.049 A 
ATOM     70  C   UNL A   1      40.105  29.248  27.921  1.00  0.00     0.074 A 
ATOM     71  C   UNL A   1      42.334  33.251  31.722  1.00  0.00     0.029 A 
ATOM     72  N   UNL A   1      41.008  31.540  32.192  1.00  0.00    -0.354 N 
ATOM     73  N   UNL A   1      40.355  29.949  29.008  1.00  0.00    -0.248 NA
ATOM     74  C   UNL A   1      38.701  29.373  27.541  1.00  0.00     0.031 C 
ATOM     75  C   UNL A   1      41.433  33.022  30.638  1.00  0.00     0.029 A 
ATOM     76  C   UNL A   1      40.557  32.010  30.979  1.00  0.00     0.049 A 
ATOM     77  H   UNL A   1      40.566  30.827  32.708  1.00  0.00     0.167 HD
ATOM     78  C   UNL A   1      39.251  30.666  29.409  1.00  0.00     0.074 A 
ATOM     79  C   UNL A   1      38.223  30.209  28.485  1.00  0.00     0.031 C 
ATOM     80  C   UNL A   1      39.264  31.583  30.439  1.00  0.00     0.031 A 
BRANCH  67  81
ATOM     81  C   UNL A   1      43.658  32.303  34.802  1.00  0.00    -0.014 A 
ATOM     82  C   UNL A   1      45.053  32.532  34.794  1.00  0.00     0.010 A 
ATOM     83  C   UNL A   1      42.993  32.691  35.987  1.00  0.00     0.010 A 
ATOM     84  C   UNL A   1      45.736  33.098  35.893  1.00  0.00     0.020 A 
ATOM     85  C   UNL A   1      43.656  33.283  37.079  1.00  0.00     0.020 A 
ATOM     86  C   UNL A   1      45.031  33.474  37.034  1.00  0.00     0.054 A 
BRANCH  86  87
ATOM     87  S   UNL A   1      45.913  34.202  38.448  1.00  0.00     0.124 S 
ATOM     88  O   UNL A   1      45.002  33.941  39.560  1.00  0.00    -0.237 OA
ATOM     89  O   UNL A   1      47.165  33.450  38.469  1.00  0.00    -0.237 OA
ATOM     90  O   UNL A   1      46.051  35.611  38.084  1.00  0.00    -0.744 OA
ENDBRANCH  86  87
ENDBRANCH  67  81
BRANCH  68  91
ATOM     91  C   UNL A   1      41.153  27.069  26.527  1.00  0.00    -0.014 A 
ATOM     92  C   UNL A   1      42.202  26.770  25.614  1.00  0.00     0.010 A 
ATOM     93  C   UNL A   1      40.494  25.978  27.117  1.00  0.00     0.010 A 
ATOM     94  C   UNL A   1      42.703  25.466  25.450  1.00  0.00     0.020 A 
ATOM     95  C   UNL A   1      40.978  24.655  26.929  1.00  0.00     0.020 A 
ATOM     96  C   UNL A   1      42.114  24.413  26.141  1.00  0.00     0.054 A 
BRANCH  96  97
ATOM     97  S   UNL A   1      42.966  22.783  26.159  1.00  0.00     0.124 S 
ATOM     98  O   UNL A   1      42.098  21.967  25.317  1.00  0.00    -0.237 OA
ATOM     99  O   UNL A   1      44.285  23.067  25.603  1.00  0.00    -0.237 OA
ATOM    100  O   UNL A   1      42.976  22.417  27.576  1.00  0.00    -0.744 OA
ENDBRANCH  96  97
ENDBRANCH  68  91
BRANCH  80 101
ATOM    101  C   UNL A   1      38.047  32.236  31.097  1.00  0.00    -0.014 A 
ATOM    102  C   UNL A   1      38.056  33.431  31.821  1.00  0.00     0.010 A 
ATOM    103  C   UNL A   1      36.781  31.595  30.983  1.00  0.00     0.010 A 
ATOM    104  C   UNL A   1      36.858  34.033  32.248  1.00  0.00     0.020 A 
ATOM    105  C   UNL A   1      35.585  32.169  31.415  1.00  0.00     0.020 A 
ATOM    106  C   UNL A   1      35.627  33.419  32.003  1.00  0.00     0.054 A 
BRANCH 106 107
ATOM    107  S   UNL A   1      34.097  34.268  32.449  1.00  0.00     0.124 S 
ATOM    108  O   UNL A   1      34.582  35.476  33.112  1.00  0.00    -0.237 OA
ATOM    109  O   UNL A   1      33.475  34.477  31.144  1.00  0.00    -0.237 OA
ATOM    110  O   UNL A   1      33.404  33.321  33.321  1.00  0.00    -0.744 OA
ENDBRANCH 106 107
ENDBRANCH  80 101
ENDBRANCH  54  55
ENDBRANCH  47  49
ENDBRANCH  46  47
ENDBRANCH  45  46
ENDBRANCH  44  45
ENDBRANCH  43  44
ENDBRANCH  42  43
ENDBRANCH  41  42
ENDBRANCH  40  41
ENDBRANCH  39  40
ENDBRANCH   1  39
TORSDOF 30
ENDMDL
MODEL 3
REMARK VINA RESULT:      -6.7      3.491      9.292
REMARK SMILES Cc1ccc(S(=O)(=O)n2cc(C(=O)C(=O)NCC(=O)NCC(=O)OCCOCCOCCOCCOC(=O)c3ccc(-c4c5nc(c(-c6ccc(S(=O)(=O)[O-])cc6)c6ccc([nH]6)c(-c6ccc(S(=O)(=O)[O-])cc6)c6nc(c(-c7ccc(S(=O)(=O)[O-])cc7)c7ccc4[nH]7)C=C6)C=C5)cc3)c3ccccc32)cc1
REMARK SMILES IDX 28 1 27 2 26 3 25 4 24 5 22 6 23 7 21 8 20 9 18 10 19 11
REMARK SMILES IDX 17 13 16 14 14 15 15 16 12 18 13 19 11 20 9 21 10 22 104 23
REMARK SMILES IDX 99 24 103 25 100 26 102 27 101 28 6 29 7 30 8 31 5 32 1 33
REMARK SMILES IDX 2 34 3 35 106 36 4 37 105 38 29 39 30 40 31 41 32 42 33 43
REMARK SMILES IDX 34 44 35 45 36 46 37 47 38 48 39 49 40 50 98 51 41 52 97 53
REMARK SMILES IDX 42 54 43 55 44 56 91 57 45 58 96 59 90 60 92 61 46 62 95 63
REMARK SMILES IDX 89 64 88 65 47 67 77 68 58 69 76 70 59 71 62 72 75 73 93 74
REMARK SMILES IDX 60 75 61 76 74 78 94 79 63 80 48 81 49 82 57 83 50 84 56 85
REMARK SMILES IDX 51 86 52 87 53 88 54 89 55 90 78 91 79 92 87 93 80 94 86 95
REMARK SMILES IDX 81 96 82 97 83 98 84 99 85 100 64 101 65 102 73 103 66 104
REMARK SMILES IDX 72 105 67 106 68 107 69 108 70 109 71 110
REMARK H PARENT 20 12 16 17 92 66 62 77
REMARK Flexibility Score: inf
ROOT
ATOM      1  C   UNL A   1      42.788  24.762  25.390  1.00  0.00     0.188 C 
ENDROOT
BRANCH   1   2
ATOM      2  O   UNL A   1      42.010  25.954  25.426  1.00  0.00    -0.376 OA
BRANCH   2   3
ATOM      3  C   UNL A   1      40.835  25.942  26.233  1.00  0.00     0.202 C 
BRANCH   3   4
ATOM      4  C   UNL A   1      41.110  26.321  27.671  1.00  0.00     0.261 C 
BRANCH   4   5
ATOM      5  O   UNL A   1      41.164  27.755  27.749  1.00  0.00    -0.462 OA
BRANCH   5   6
ATOM      6  C   UNL A   1      40.082  28.431  27.318  1.00  0.00     0.325 C 
ATOM      7  O   UNL A   1      40.081  29.330  26.490  1.00  0.00    -0.250 OA
BRANCH   6   8
ATOM      8  C   UNL A   1      38.801  27.830  27.878  1.00  0.00     0.238 C 
BRANCH   8   9
ATOM      9  N   UNL A   1      37.880  28.703  28.599  1.00  0.00    -0.344 N 
ATOM     10  C   UNL A   1      37.779  28.911  29.940  1.00  0.00     0.239 C 
ATOM     11  O   UNL A   1      37.188  29.907  30.357  1.00  0.00    -0.273 OA
ATOM     12  H   UNL A   1      37.248  29.209  28.040  1.00  0.00     0.164 HD
BRANCH  10  13
ATOM     13  C   UNL A   1      38.256  27.829  30.895  1.00  0.00     0.216 C 
BRANCH  13  14
ATOM     14  N   UNL A   1      39.711  27.879  30.884  1.00  0.00    -0.340 N 
ATOM     15  C   UNL A   1      40.608  28.484  31.734  1.00  0.00     0.292 C 
ATOM     16  O   UNL A   1      41.800  28.433  31.459  1.00  0.00    -0.265 OA
ATOM     17  H   UNL A   1      40.127  27.391  30.137  1.00  0.00     0.164 HD
BRANCH  15  18
ATOM     18  C   UNL A   1      40.126  29.191  33.025  1.00  0.00     0.252 C 
ATOM     19  O   UNL A   1      40.293  28.613  34.097  1.00  0.00    -0.283 OA
BRANCH  18  20
ATOM     20  C   UNL A   1      39.488  30.513  32.985  1.00  0.00     0.054 A 
ATOM     21  N   UNL A   1      38.708  32.481  32.264  1.00  0.00    -0.240 N 
ATOM     22  C   UNL A   1      39.496  31.407  31.932  1.00  0.00     0.117 A 
ATOM     23  C   UNL A   1      38.361  32.431  33.597  1.00  0.00     0.065 A 
ATOM     24  C   UNL A   1      38.806  31.184  34.062  1.00  0.00     0.012 A 
ATOM     25  C   UNL A   1      37.720  33.355  34.442  1.00  0.00     0.028 A 
ATOM     26  C   UNL A   1      38.547  30.842  35.408  1.00  0.00     0.011 A 
ATOM     27  C   UNL A   1      37.525  33.004  35.780  1.00  0.00     0.002 A 
ATOM     28  C   UNL A   1      37.920  31.760  36.256  1.00  0.00     0.001 A 
BRANCH  21  29
ATOM     29  S   UNL A   1      38.481  33.820  31.231  1.00  0.00     0.268 S 
ATOM     30  O   UNL A   1      39.571  33.762  30.273  1.00  0.00    -0.201 OA
ATOM     31  O   UNL A   1      38.243  34.950  32.098  1.00  0.00    -0.201 OA
BRANCH  29  32
ATOM     32  C   UNL A   1      36.970  33.531  30.360  1.00  0.00     0.088 A 
ATOM     33  C   UNL A   1      33.420  32.848  28.055  1.00  0.00     0.044 C 
ATOM     34  C   UNL A   1      34.655  33.094  28.865  1.00  0.00    -0.051 A 
ATOM     35  C   UNL A   1      35.851  33.447  28.225  1.00  0.00     0.005 A 
ATOM     36  C   UNL A   1      34.626  32.986  30.259  1.00  0.00     0.005 A 
ATOM     37  C   UNL A   1      37.009  33.663  28.968  1.00  0.00     0.022 A 
ATOM     38  C   UNL A   1      35.779  33.211  31.010  1.00  0.00     0.022 A 
ENDBRANCH  29  32
ENDBRANCH  21  29
ENDBRANCH  18  20
ENDBRANCH  15  18
ENDBRANCH  13  14
ENDBRANCH  10  13
ENDBRANCH   8   9
ENDBRANCH   6   8
ENDBRANCH   5   6
ENDBRANCH   4   5
ENDBRANCH   3   4
ENDBRANCH   2   3
ENDBRANCH   1   2
BRANCH   1  39
ATOM     39  C   UNL A   1      42.993  24.030  26.714  1.00  0.00     0.188 C 
BRANCH  39  40
ATOM     40  O   UNL A   1      44.195  24.321  27.376  1.00  0.00    -0.377 OA
BRANCH  40  41
ATOM     41  C   UNL A   1      44.383  23.892  28.707  1.00  0.00     0.188 C 
BRANCH  41  42
ATOM     42  C   UNL A   1      45.004  25.034  29.528  1.00  0.00     0.188 C 
BRANCH  42  43
ATOM     43  O   UNL A   1      45.493  26.165  28.813  1.00  0.00    -0.376 OA
BRANCH  43  44
ATOM     44  C   UNL A   1      45.545  27.383  29.581  1.00  0.00     0.202 C 
BRANCH  44  45
ATOM     45  C   UNL A   1      45.965  28.702  28.854  1.00  0.00     0.261 C 
BRANCH  45  46
ATOM     46  O   UNL A   1      44.801  29.466  28.459  1.00  0.00    -0.460 OA
BRANCH  46  47
ATOM     47  C   UNL A   1      44.803  30.766  28.077  1.00  0.00     0.338 C 
ATOM     48  O   UNL A   1      43.753  31.370  27.897  1.00  0.00    -0.246 OA
BRANCH  47  49
ATOM     49  C   UNL A   1      46.117  31.190  27.366  1.00  0.00     0.060 A 
ATOM     50  C   UNL A   1      46.988  31.819  28.244  1.00  0.00     0.016 A 
ATOM     51  C   UNL A   1      46.032  31.831  26.138  1.00  0.00     0.016 A 
ATOM     52  C   UNL A   1      47.063  33.212  28.237  1.00  0.00     0.010 A 
ATOM     53  C   UNL A   1      45.989  33.221  26.122  1.00  0.00     0.010 A 
ATOM     54  C   UNL A   1      46.315  33.901  27.289  1.00  0.00    -0.014 A 
BRANCH  54  55
ATOM     55  C   UNL A   1      45.561  35.124  27.624  1.00  0.00     0.031 A 
ATOM     56  C   UNL A   1      46.049  36.473  27.204  1.00  0.00     0.074 A 
ATOM     57  C   UNL A   1      44.309  34.961  28.144  1.00  0.00     0.049 A 
ATOM     58  N   UNL A   1      45.422  37.577  27.431  1.00  0.00    -0.248 NA
ATOM     59  C   UNL A   1      47.288  36.705  26.460  1.00  0.00     0.031 C 
ATOM     60  C   UNL A   1      43.272  35.978  28.351  1.00  0.00     0.029 A 
ATOM     61  N   UNL A   1      43.698  33.844  28.714  1.00  0.00    -0.354 N 
ATOM     62  C   UNL A   1      46.022  38.602  26.729  1.00  0.00     0.074 A 
ATOM     63  C   UNL A   1      47.192  38.004  26.141  1.00  0.00     0.031 C 
ATOM     64  C   UNL A   1      42.316  35.512  29.173  1.00  0.00     0.029 A 
ATOM     65  C   UNL A   1      42.845  34.290  29.729  1.00  0.00     0.049 A 
ATOM     66  H   UNL A   1      43.842  32.907  28.449  1.00  0.00     0.167 HD
ATOM     67  C   UNL A   1      45.404  39.820  26.689  1.00  0.00     0.031 A 
ATOM     68  C   UNL A   1      43.201  34.183  31.049  1.00  0.00     0.031 A 
ATOM     69  C   UNL A   1      44.430  39.925  27.784  1.00  0.00     0.049 A 
ATOM     70  C   UNL A   1      43.513  35.571  31.671  1.00  0.00     0.074 A 
ATOM     71  C   UNL A   1      43.069  40.145  27.886  1.00  0.00     0.029 A 
ATOM     72  N   UNL A   1      44.845  39.538  29.064  1.00  0.00    -0.354 N 
ATOM     73  N   UNL A   1      43.769  36.663  30.980  1.00  0.00    -0.248 NA
ATOM     74  C   UNL A   1      43.490  35.861  33.101  1.00  0.00     0.031 C 
ATOM     75  C   UNL A   1      42.658  39.603  29.142  1.00  0.00     0.029 A 
ATOM     76  C   UNL A   1      43.774  39.310  29.900  1.00  0.00     0.049 A 
ATOM     77  H   UNL A   1      45.786  39.442  29.333  1.00  0.00     0.167 HD
ATOM     78  C   UNL A   1      43.845  37.768  31.796  1.00  0.00     0.074 A 
ATOM     79  C   UNL A   1      43.728  37.189  33.127  1.00  0.00     0.031 C 
ATOM     80  C   UNL A   1      43.975  39.059  31.330  1.00  0.00     0.031 A 
BRANCH  67  81
ATOM     81  C   UNL A   1      45.582  40.855  25.580  1.00  0.00    -0.014 A 
ATOM     82  C   UNL A   1      46.496  40.629  24.525  1.00  0.00     0.010 A 
ATOM     83  C   UNL A   1      44.972  42.130  25.583  1.00  0.00     0.010 A 
ATOM     84  C   UNL A   1      46.787  41.610  23.550  1.00  0.00     0.020 A 
ATOM     85  C   UNL A   1      45.230  43.106  24.601  1.00  0.00     0.020 A 
ATOM     86  C   UNL A   1      46.149  42.847  23.593  1.00  0.00     0.054 A 
BRANCH  86  87
ATOM     87  S   UNL A   1      46.527  44.106  22.336  1.00  0.00     0.124 S 
ATOM     88  O   UNL A   1      46.138  45.347  23.003  1.00  0.00    -0.237 OA
ATOM     89  O   UNL A   1      47.960  43.929  22.122  1.00  0.00    -0.237 OA
ATOM     90  O   UNL A   1      45.686  43.728  21.201  1.00  0.00    -0.744 OA
ENDBRANCH  86  87
ENDBRANCH  67  81
BRANCH  68  91
ATOM     91  C   UNL A   1      43.702  32.801  31.388  1.00  0.00    -0.014 A 
ATOM     92  C   UNL A   1      45.114  32.663  31.490  1.00  0.00     0.010 A 
ATOM     93  C   UNL A   1      42.922  31.815  32.015  1.00  0.00     0.010 A 
ATOM     94  C   UNL A   1      45.715  31.714  32.336  1.00  0.00     0.020 A 
ATOM     95  C   UNL A   1      43.528  30.834  32.846  1.00  0.00     0.020 A 
ATOM     96  C   UNL A   1      44.917  30.824  33.046  1.00  0.00     0.054 A 
BRANCH  96  97
ATOM     97  S   UNL A   1      45.689  29.808  34.370  1.00  0.00     0.124 S 
ATOM     98  O   UNL A   1      45.829  28.507  33.724  1.00  0.00    -0.237 OA
ATOM     99  O   UNL A   1      46.942  30.497  34.659  1.00  0.00    -0.237 OA
ATOM    100  O   UNL A   1      44.710  29.858  35.456  1.00  0.00    -0.744 OA
ENDBRANCH  96  97
ENDBRANCH  68  91
BRANCH  80 101
ATOM    101  C   UNL A   1      44.303  40.303  32.158  1.00  0.00    -0.014 A 
ATOM    102  C   UNL A   1      45.331  40.407  33.099  1.00  0.00     0.010 A 
ATOM    103  C   UNL A   1      43.510  41.472  31.980  1.00  0.00     0.010 A 
ATOM    104  C   UNL A   1      45.655  41.642  33.690  1.00  0.00     0.020 A 
ATOM    105  C   UNL A   1      43.808  42.701  32.570  1.00  0.00     0.020 A 
ATOM    106  C   UNL A   1      44.919  42.790  33.387  1.00  0.00     0.054 A 
BRANCH 106 107
ATOM    107  S   UNL A   1      45.430  44.387  34.059  1.00  0.00     0.124 S 
ATOM    108  O   UNL A   1      45.283  44.189  35.499  1.00  0.00    -0.237 OA
ATOM    109  O   UNL A   1      46.805  44.491  33.579  1.00  0.00    -0.237 OA
ATOM    110  O   UNL A   1      44.492  45.339  33.468  1.00  0.00    -0.744 OA
ENDBRANCH 106 107
ENDBRANCH  80 101
ENDBRANCH  54  55
ENDBRANCH  47  49
ENDBRANCH  46  47
ENDBRANCH  45  46
ENDBRANCH  44  45
ENDBRANCH  43  44
ENDBRANCH  42  43
ENDBRANCH  41  42
ENDBRANCH  40  41
ENDBRANCH  39  40
ENDBRANCH   1  39
TORSDOF 30
ENDMDL
