MODEL 1
REMARK VINA RESULT:      -6.5      0.000      0.000
REMARK SMILES COC(=O)C[C@H](c1ccc(C(=O)OCCOCCOCCOCCOC(=O)c2ccc(-c3c4nc(c(-c5ccc(S(=O)(=O)[O-])cc5)c5ccc([nH]5)c(-c5ccc(S(=O)(=O)[O-])cc5)c5nc(c(-c6ccc(S(=O)(=O)[O-])cc6)c6ccc3[nH]6)C=C5)C=C4)cc2)cc1)c1c(O)n[nH]c1C
REMARK SMILES IDX 18 1 17 2 16 3 15 4 14 5 13 6 11 7 12 8 10 9 7 10 8 11 89 12
REMARK SMILES IDX 9 13 88 14 6 15 5 16 3 17 4 18 2 19 1 20 90 21 91 22 95 23
REMARK SMILES IDX 93 24 94 25 96 26 92 28 19 30 20 31 21 32 22 33 23 34 24 35
REMARK SMILES IDX 25 36 26 37 27 38 28 39 29 40 87 41 30 42 86 43 31 44 32 45
REMARK SMILES IDX 33 46 80 47 34 48 85 49 79 50 81 51 35 52 84 53 78 54 77 55
REMARK SMILES IDX 36 57 66 58 47 59 65 60 48 61 51 62 64 63 82 64 49 65 50 66
REMARK SMILES IDX 63 68 83 69 52 70 37 71 38 72 46 73 39 74 45 75 40 76 41 77
REMARK SMILES IDX 42 78 43 79 44 80 67 81 68 82 76 83 69 84 75 85 70 86 71 87
REMARK SMILES IDX 72 88 73 89 74 90 53 91 54 92 62 93 55 94 61 95 56 96 57 97
REMARK SMILES IDX 58 98 59 99 60 100
REMARK H PARENT 94 27 92 29 81 56 51 67
REMARK Flexibility Score: inf
ROOT
ATOM      1  C   UNL A   1      47.158  19.680  40.918  1.00  0.00     0.188 C 
ENDROOT
BRANCH   1   2
ATOM      2  C   UNL A   1      46.737  18.315  40.335  1.00  0.00     0.188 C 
BRANCH   2   3
ATOM      3  O   UNL A   1      45.682  18.390  39.390  1.00  0.00    -0.376 OA
BRANCH   3   4
ATOM      4  C   UNL A   1      45.967  18.198  38.015  1.00  0.00     0.202 C 
BRANCH   4   5
ATOM      5  C   UNL A   1      46.185  19.422  37.110  1.00  0.00     0.261 C 
BRANCH   5   6
ATOM      6  O   UNL A   1      46.020  19.190  35.708  1.00  0.00    -0.460 OA
BRANCH   6   7
ATOM      7  C   UNL A   1      45.898  20.287  34.935  1.00  0.00     0.338 C 
ATOM      8  O   UNL A   1      44.870  20.895  34.691  1.00  0.00    -0.246 OA
BRANCH   7   9
ATOM      9  C   UNL A   1      47.255  20.787  34.608  1.00  0.00     0.060 A 
ATOM     10  C   UNL A   1      49.904  21.551  34.056  1.00  0.00    -0.040 A 
ATOM     11  C   UNL A   1      49.421  20.293  33.661  1.00  0.00     0.005 A 
ATOM     12  C   UNL A   1      48.995  22.467  34.625  1.00  0.00     0.005 A 
ATOM     13  C   UNL A   1      48.114  19.909  33.945  1.00  0.00     0.016 A 
ATOM     14  C   UNL A   1      47.677  22.087  34.904  1.00  0.00     0.016 A 
BRANCH  10  15
ATOM     15  C   UNL A   1      51.404  21.814  34.179  1.00  0.00     0.068 C 
BRANCH  15  16
ATOM     16  C   UNL A   1      51.729  23.139  34.894  1.00  0.00     0.136 C 
BRANCH  16  17
ATOM     17  C   UNL A   1      52.083  24.266  33.950  1.00  0.00     0.306 C 
ATOM     18  O   UNL A   1      51.920  24.200  32.736  1.00  0.00    -0.252 OA
BRANCH  17  19
ATOM     19  O   UNL A   1      52.597  25.339  34.609  1.00  0.00    -0.469 OA
ATOM     20  C   UNL A   1      54.000  25.235  34.868  1.00  0.00     0.282 C 
ENDBRANCH  17  19
ENDBRANCH  16  17
ENDBRANCH  15  16
BRANCH  15  21
ATOM     21  C   UNL A   1      52.084  20.630  34.818  1.00  0.00     0.044 A 
ATOM     22  C   UNL A   1      52.984  19.683  34.291  1.00  0.00     0.234 A 
ATOM     23  C   UNL A   1      51.847  20.118  36.092  1.00  0.00     0.040 A 
ATOM     24  N   UNL A   1      53.331  18.707  35.114  1.00  0.00    -0.137 NA
ATOM     25  N   UNL A   1      52.639  19.004  36.223  1.00  0.00    -0.279 N 
ATOM     26  C   UNL A   1      50.936  20.546  37.179  1.00  0.00     0.066 C 
ATOM     27  H   UNL A   1      52.694  18.476  37.052  1.00  0.00     0.190 HD
BRANCH  22  28
ATOM     28  O   UNL A   1      53.507  19.563  33.076  1.00  0.00    -0.492 OA
ATOM     29  H   UNL A   1      53.549  20.307  32.508  1.00  0.00     0.295 HD
ENDBRANCH  22  28
ENDBRANCH  15  21
ENDBRANCH  10  15
ENDBRANCH   7   9
ENDBRANCH   6   7
ENDBRANCH   5   6
ENDBRANCH   4   5
ENDBRANCH   3   4
ENDBRANCH   2   3
ENDBRANCH   1   2
BRANCH   1  30
ATOM     30  O   UNL A   1      47.248  20.794  40.044  1.00  0.00    -0.377 OA
BRANCH  30  31
ATOM     31  C   UNL A   1      46.128  21.661  39.877  1.00  0.00     0.188 C 
BRANCH  31  32
ATOM     32  C   UNL A   1      46.190  22.926  38.985  1.00  0.00     0.188 C 
BRANCH  32  33
ATOM     33  O   UNL A   1      45.144  23.859  39.196  1.00  0.00    -0.376 OA
BRANCH  33  34
ATOM     34  C   UNL A   1      45.230  25.104  38.529  1.00  0.00     0.202 C 
BRANCH  34  35
ATOM     35  C   UNL A   1      43.923  25.692  37.979  1.00  0.00     0.261 C 
BRANCH  35  36
ATOM     36  O   UNL A   1      43.996  26.300  36.682  1.00  0.00    -0.460 OA
BRANCH  36  37
ATOM     37  C   UNL A   1      44.431  27.581  36.620  1.00  0.00     0.338 C 
ATOM     38  O   UNL A   1      44.362  28.422  37.490  1.00  0.00    -0.246 OA
BRANCH  37  39
ATOM     39  C   UNL A   1      45.184  27.726  35.353  1.00  0.00     0.060 A 
ATOM     40  C   UNL A   1      44.910  28.814  34.513  1.00  0.00     0.016 A 
ATOM     41  C   UNL A   1      46.168  26.796  35.013  1.00  0.00     0.016 A 
ATOM     42  C   UNL A   1      45.602  28.954  33.308  1.00  0.00     0.010 A 
ATOM     43  C   UNL A   1      46.843  26.927  33.798  1.00  0.00     0.010 A 
ATOM     44  C   UNL A   1      46.540  27.987  32.924  1.00  0.00    -0.014 A 
BRANCH  44  45
ATOM     45  C   UNL A   1      47.058  27.962  31.535  1.00  0.00     0.031 A 
ATOM     46  C   UNL A   1      46.371  27.070  30.537  1.00  0.00     0.074 A 
ATOM     47  C   UNL A   1      48.111  28.713  31.162  1.00  0.00     0.049 A 
ATOM     48  N   UNL A   1      46.676  26.830  29.289  1.00  0.00    -0.248 NA
ATOM     49  C   UNL A   1      45.180  26.348  31.017  1.00  0.00     0.031 C 
ATOM     50  C   UNL A   1      48.832  29.650  32.022  1.00  0.00     0.029 A 
ATOM     51  N   UNL A   1      48.761  28.793  29.955  1.00  0.00    -0.354 N 
ATOM     52  C   UNL A   1      45.726  25.921  28.838  1.00  0.00     0.074 A 
ATOM     53  C   UNL A   1      44.853  25.629  29.953  1.00  0.00     0.031 C 
ATOM     54  C   UNL A   1      49.833  30.206  31.315  1.00  0.00     0.029 A 
ATOM     55  C   UNL A   1      49.848  29.634  29.969  1.00  0.00     0.049 A 
ATOM     56  H   UNL A   1      48.475  28.296  29.155  1.00  0.00     0.167 HD
ATOM     57  C   UNL A   1      45.590  25.379  27.605  1.00  0.00     0.031 A 
ATOM     58  C   UNL A   1      50.764  29.892  29.013  1.00  0.00     0.031 A 
ATOM     59  C   UNL A   1      46.472  25.659  26.504  1.00  0.00     0.049 A 
ATOM     60  C   UNL A   1      50.640  29.216  27.671  1.00  0.00     0.074 A 
ATOM     61  C   UNL A   1      46.413  25.173  25.210  1.00  0.00     0.029 A 
ATOM     62  N   UNL A   1      47.580  26.491  26.568  1.00  0.00    -0.354 N 
ATOM     63  N   UNL A   1      49.723  28.377  27.249  1.00  0.00    -0.248 NA
ATOM     64  C   UNL A   1      51.673  29.528  26.670  1.00  0.00     0.031 C 
ATOM     65  C   UNL A   1      47.522  25.656  24.511  1.00  0.00     0.029 A 
ATOM     66  C   UNL A   1      48.229  26.508  25.346  1.00  0.00     0.049 A 
ATOM     67  H   UNL A   1      47.863  26.996  27.364  1.00  0.00     0.167 HD
ATOM     68  C   UNL A   1      50.047  28.091  25.926  1.00  0.00     0.074 A 
ATOM     69  C   UNL A   1      51.239  28.853  25.615  1.00  0.00     0.031 C 
ATOM     70  C   UNL A   1      49.414  27.275  25.047  1.00  0.00     0.031 A 
BRANCH  57  71
ATOM     71  C   UNL A   1      44.468  24.396  27.395  1.00  0.00    -0.014 A 
ATOM     72  C   UNL A   1      44.718  23.022  27.227  1.00  0.00     0.010 A 
ATOM     73  C   UNL A   1      43.138  24.853  27.398  1.00  0.00     0.010 A 
ATOM     74  C   UNL A   1      43.661  22.129  27.031  1.00  0.00     0.020 A 
ATOM     75  C   UNL A   1      42.076  23.959  27.235  1.00  0.00     0.020 A 
ATOM     76  C   UNL A   1      42.346  22.603  27.036  1.00  0.00     0.054 A 
BRANCH  76  77
ATOM     77  S   UNL A   1      40.993  21.418  26.805  1.00  0.00     0.124 S 
ATOM     78  O   UNL A   1      41.367  20.350  27.730  1.00  0.00    -0.237 OA
ATOM     79  O   UNL A   1      39.819  22.197  27.188  1.00  0.00    -0.237 OA
ATOM     80  O   UNL A   1      41.073  21.070  25.388  1.00  0.00    -0.744 OA
ENDBRANCH  76  77
ENDBRANCH  57  71
BRANCH  58  81
ATOM     81  C   UNL A   1      51.894  30.822  29.295  1.00  0.00    -0.014 A 
ATOM     82  C   UNL A   1      52.743  30.613  30.397  1.00  0.00     0.010 A 
ATOM     83  C   UNL A   1      52.125  31.932  28.461  1.00  0.00     0.010 A 
ATOM     84  C   UNL A   1      53.788  31.502  30.667  1.00  0.00     0.020 A 
ATOM     85  C   UNL A   1      53.187  32.806  28.709  1.00  0.00     0.020 A 
ATOM     86  C   UNL A   1      54.006  32.591  29.818  1.00  0.00     0.054 A 
BRANCH  86  87
ATOM     87  S   UNL A   1      55.401  33.700  30.159  1.00  0.00     0.124 S 
ATOM     88  O   UNL A   1      54.730  34.979  30.368  1.00  0.00    -0.237 OA
ATOM     89  O   UNL A   1      55.999  33.096  31.347  1.00  0.00    -0.237 OA
ATOM     90  O   UNL A   1      56.214  33.610  28.946  1.00  0.00    -0.744 OA
ENDBRANCH  86  87
ENDBRANCH  58  81
BRANCH  70  91
ATOM     91  C   UNL A   1      49.957  27.197  23.643  1.00  0.00    -0.014 A 
ATOM     92  C   UNL A   1      49.268  27.756  22.552  1.00  0.00     0.010 A 
ATOM     93  C   UNL A   1      51.219  26.611  23.424  1.00  0.00     0.010 A 
ATOM     94  C   UNL A   1      49.815  27.702  21.267  1.00  0.00     0.020 A 
ATOM     95  C   UNL A   1      51.784  26.585  22.147  1.00  0.00     0.020 A 
ATOM     96  C   UNL A   1      51.072  27.119  21.073  1.00  0.00     0.054 A 
BRANCH  96  97
ATOM     97  S   UNL A   1      51.780  27.108  19.403  1.00  0.00     0.124 S 
ATOM     98  O   UNL A   1      50.812  26.296  18.668  1.00  0.00    -0.237 OA
ATOM     99  O   UNL A   1      51.805  28.526  19.056  1.00  0.00    -0.237 OA
ATOM    100  O   UNL A   1      53.094  26.494  19.587  1.00  0.00    -0.744 OA
ENDBRANCH  96  97
ENDBRANCH  70  91
ENDBRANCH  44  45
ENDBRANCH  37  39
ENDBRANCH  36  37
ENDBRANCH  35  36
ENDBRANCH  34  35
ENDBRANCH  33  34
ENDBRANCH  32  33
ENDBRANCH  31  32
ENDBRANCH  30  31
ENDBRANCH   1  30
TORSDOF 29
ENDMDL
MODEL 2
REMARK VINA RESULT:      -6.4      7.945     13.794
REMARK SMILES COC(=O)C[C@H](c1ccc(C(=O)OCCOCCOCCOCCOC(=O)c2ccc(-c3c4nc(c(-c5ccc(S(=O)(=O)[O-])cc5)c5ccc([nH]5)c(-c5ccc(S(=O)(=O)[O-])cc5)c5nc(c(-c6ccc(S(=O)(=O)[O-])cc6)c6ccc3[nH]6)C=C5)C=C4)cc2)cc1)c1c(O)n[nH]c1C
REMARK SMILES IDX 18 1 17 2 16 3 15 4 14 5 13 6 11 7 12 8 10 9 7 10 8 11 89 12
REMARK SMILES IDX 9 13 88 14 6 15 5 16 3 17 4 18 2 19 1 20 90 21 91 22 95 23
REMARK SMILES IDX 93 24 94 25 96 26 92 28 19 30 20 31 21 32 22 33 23 34 24 35
REMARK SMILES IDX 25 36 26 37 27 38 28 39 29 40 87 41 30 42 86 43 31 44 32 45
REMARK SMILES IDX 33 46 80 47 34 48 85 49 79 50 81 51 35 52 84 53 78 54 77 55
REMARK SMILES IDX 36 57 66 58 47 59 65 60 48 61 51 62 64 63 82 64 49 65 50 66
REMARK SMILES IDX 63 68 83 69 52 70 37 71 38 72 46 73 39 74 45 75 40 76 41 77
REMARK SMILES IDX 42 78 43 79 44 80 67 81 68 82 76 83 69 84 75 85 70 86 71 87
REMARK SMILES IDX 72 88 73 89 74 90 53 91 54 92 62 93 55 94 61 95 56 96 57 97
REMARK SMILES IDX 58 98 59 99 60 100
REMARK H PARENT 94 27 92 29 81 56 51 67
REMARK Flexibility Score: inf
ROOT
ATOM      1  C   UNL A   1      44.841  28.516  30.601  1.00  0.00     0.188 C 
ENDROOT
BRANCH   1   2
ATOM      2  C   UNL A   1      43.511  28.554  29.819  1.00  0.00     0.188 C 
BRANCH   2   3
ATOM      3  O   UNL A   1      42.389  28.923  30.602  1.00  0.00    -0.376 OA
BRANCH   3   4
ATOM      4  C   UNL A   1      41.389  29.751  30.035  1.00  0.00     0.202 C 
BRANCH   4   5
ATOM      5  C   UNL A   1      39.915  29.320  30.114  1.00  0.00     0.261 C 
BRANCH   5   6
ATOM      6  O   UNL A   1      39.572  28.153  29.359  1.00  0.00    -0.460 OA
BRANCH   6   7
ATOM      7  C   UNL A   1      39.367  28.338  28.040  1.00  0.00     0.338 C 
ATOM      8  O   UNL A   1      38.558  29.093  27.529  1.00  0.00    -0.246 OA
BRANCH   7   9
ATOM      9  C   UNL A   1      40.447  27.650  27.293  1.00  0.00     0.060 A 
ATOM     10  C   UNL A   1      42.495  26.198  26.027  1.00  0.00    -0.040 A 
ATOM     11  C   UNL A   1      41.348  25.550  26.513  1.00  0.00     0.005 A 
ATOM     12  C   UNL A   1      42.538  27.607  26.079  1.00  0.00     0.005 A 
ATOM     13  C   UNL A   1      40.340  26.265  27.151  1.00  0.00     0.016 A 
ATOM     14  C   UNL A   1      41.521  28.331  26.713  1.00  0.00     0.016 A 
BRANCH  10  15
ATOM     15  C   UNL A   1      43.782  25.421  25.757  1.00  0.00     0.068 C 
BRANCH  15  16
ATOM     16  C   UNL A   1      45.026  26.073  26.391  1.00  0.00     0.136 C 
BRANCH  16  17
ATOM     17  C   UNL A   1      46.321  25.372  26.042  1.00  0.00     0.306 C 
ATOM     18  O   UNL A   1      47.077  24.903  26.886  1.00  0.00    -0.252 OA
BRANCH  17  19
ATOM     19  O   UNL A   1      46.533  25.334  24.699  1.00  0.00    -0.469 OA
ATOM     20  C   UNL A   1      47.907  25.159  24.340  1.00  0.00     0.282 C 
ENDBRANCH  17  19
ENDBRANCH  16  17
ENDBRANCH  15  16
BRANCH  15  21
ATOM     21  C   UNL A   1      43.610  23.981  26.169  1.00  0.00     0.044 A 
ATOM     22  C   UNL A   1      43.302  22.832  25.415  1.00  0.00     0.234 A 
ATOM     23  C   UNL A   1      43.587  23.482  27.470  1.00  0.00     0.040 A 
ATOM     24  N   UNL A   1      43.141  21.719  26.113  1.00  0.00    -0.137 NA
ATOM     25  N   UNL A   1      43.342  22.135  27.371  1.00  0.00    -0.279 N 
ATOM     26  C   UNL A   1      43.736  24.141  28.788  1.00  0.00     0.066 C 
ATOM     27  H   UNL A   1      43.318  21.532  28.150  1.00  0.00     0.190 HD
BRANCH  22  28
ATOM     28  O   UNL A   1      43.081  22.679  24.114  1.00  0.00    -0.492 OA
ATOM     29  H   UNL A   1      42.289  23.002  23.732  1.00  0.00     0.295 HD
ENDBRANCH  22  28
ENDBRANCH  15  21
ENDBRANCH  10  15
ENDBRANCH   7   9
ENDBRANCH   6   7
ENDBRANCH   5   6
ENDBRANCH   4   5
ENDBRANCH   3   4
ENDBRANCH   2   3
ENDBRANCH   1   2
BRANCH   1  30
ATOM     30  O   UNL A   1      45.107  27.399  31.434  1.00  0.00    -0.377 OA
BRANCH  30  31
ATOM     31  C   UNL A   1      44.609  27.372  32.770  1.00  0.00     0.188 C 
BRANCH  31  32
ATOM     32  C   UNL A   1      44.194  26.053  33.468  1.00  0.00     0.188 C 
BRANCH  32  33
ATOM     33  O   UNL A   1      45.248  25.361  34.116  1.00  0.00    -0.376 OA
BRANCH  33  34
ATOM     34  C   UNL A   1      44.906  24.255  34.929  1.00  0.00     0.202 C 
BRANCH  34  35
ATOM     35  C   UNL A   1      44.795  24.507  36.440  1.00  0.00     0.261 C 
BRANCH  35  36
ATOM     36  O   UNL A   1      45.200  25.803  36.900  1.00  0.00    -0.460 OA
BRANCH  36  37
ATOM     37  C   UNL A   1      44.266  26.563  37.519  1.00  0.00     0.338 C 
ATOM     38  O   UNL A   1      43.616  26.271  38.500  1.00  0.00    -0.246 OA
BRANCH  37  39
ATOM     39  C   UNL A   1      44.307  27.904  36.892  1.00  0.00     0.060 A 
ATOM     40  C   UNL A   1      45.538  28.554  36.742  1.00  0.00     0.016 A 
ATOM     41  C   UNL A   1      43.128  28.501  36.440  1.00  0.00     0.016 A 
ATOM     42  C   UNL A   1      45.589  29.826  36.167  1.00  0.00     0.010 A 
ATOM     43  C   UNL A   1      43.179  29.781  35.885  1.00  0.00     0.010 A 
ATOM     44  C   UNL A   1      44.405  30.463  35.776  1.00  0.00    -0.014 A 
BRANCH  44  45
ATOM     45  C   UNL A   1      44.413  31.908  35.444  1.00  0.00     0.031 A 
ATOM     46  C   UNL A   1      44.333  32.897  36.577  1.00  0.00     0.074 A 
ATOM     47  C   UNL A   1      44.489  32.339  34.172  1.00  0.00     0.049 A 
ATOM     48  N   UNL A   1      44.260  34.201  36.536  1.00  0.00    -0.248 NA
ATOM     49  C   UNL A   1      44.333  32.334  37.938  1.00  0.00     0.031 C 
ATOM     50  C   UNL A   1      44.617  31.483  32.993  1.00  0.00     0.029 A 
ATOM     51  N   UNL A   1      44.462  33.614  33.663  1.00  0.00    -0.354 N 
ATOM     52  C   UNL A   1      44.191  34.614  37.862  1.00  0.00     0.074 A 
ATOM     53  C   UNL A   1      44.201  33.422  38.680  1.00  0.00     0.031 C 
ATOM     54  C   UNL A   1      44.647  32.260  31.894  1.00  0.00     0.029 A 
ATOM     55  C   UNL A   1      44.501  33.660  32.289  1.00  0.00     0.049 A 
ATOM     56  H   UNL A   1      44.419  34.419  34.228  1.00  0.00     0.167 HD
ATOM     57  C   UNL A   1      44.128  35.874  38.355  1.00  0.00     0.031 A 
ATOM     58  C   UNL A   1      44.403  34.710  31.448  1.00  0.00     0.031 A 
ATOM     59  C   UNL A   1      44.101  37.055  37.536  1.00  0.00     0.049 A 
ATOM     60  C   UNL A   1      44.252  36.099  32.017  1.00  0.00     0.074 A 
ATOM     61  C   UNL A   1      44.052  38.378  37.936  1.00  0.00     0.029 A 
ATOM     62  N   UNL A   1      44.109  37.058  36.148  1.00  0.00    -0.354 N 
ATOM     63  N   UNL A   1      44.213  36.479  33.273  1.00  0.00    -0.248 NA
ATOM     64  C   UNL A   1      44.141  37.205  31.053  1.00  0.00     0.031 C 
ATOM     65  C   UNL A   1      43.962  39.178  36.794  1.00  0.00     0.029 A 
ATOM     66  C   UNL A   1      44.035  38.358  35.678  1.00  0.00     0.049 A 
ATOM     67  H   UNL A   1      44.160  36.255  35.582  1.00  0.00     0.167 HD
ATOM     68  C   UNL A   1      44.110  37.867  33.249  1.00  0.00     0.074 A 
ATOM     69  C   UNL A   1      44.102  38.260  31.855  1.00  0.00     0.031 C 
ATOM     70  C   UNL A   1      44.033  38.737  34.286  1.00  0.00     0.031 A 
BRANCH  57  71
ATOM     71  C   UNL A   1      44.043  36.034  39.850  1.00  0.00    -0.014 A 
ATOM     72  C   UNL A   1      45.199  36.136  40.645  1.00  0.00     0.010 A 
ATOM     73  C   UNL A   1      42.781  36.118  40.466  1.00  0.00     0.010 A 
ATOM     74  C   UNL A   1      45.095  36.282  42.031  1.00  0.00     0.020 A 
ATOM     75  C   UNL A   1      42.672  36.296  41.848  1.00  0.00     0.020 A 
ATOM     76  C   UNL A   1      43.831  36.361  42.624  1.00  0.00     0.054 A 
BRANCH  76  77
ATOM     77  S   UNL A   1      43.727  36.577  44.421  1.00  0.00     0.124 S 
ATOM     78  O   UNL A   1      44.053  37.993  44.574  1.00  0.00    -0.237 OA
ATOM     79  O   UNL A   1      42.340  36.219  44.705  1.00  0.00    -0.237 OA
ATOM     80  O   UNL A   1      44.727  35.648  44.942  1.00  0.00    -0.744 OA
ENDBRANCH  76  77
ENDBRANCH  57  71
BRANCH  58  81
ATOM     81  C   UNL A   1      44.424  34.490  29.975  1.00  0.00    -0.014 A 
ATOM     82  C   UNL A   1      45.589  34.734  29.225  1.00  0.00     0.010 A 
ATOM     83  C   UNL A   1      43.269  34.038  29.308  1.00  0.00     0.010 A 
ATOM     84  C   UNL A   1      45.594  34.546  27.840  1.00  0.00     0.020 A 
ATOM     85  C   UNL A   1      43.280  33.819  27.928  1.00  0.00     0.020 A 
ATOM     86  C   UNL A   1      44.440  34.086  27.200  1.00  0.00     0.054 A 
BRANCH  86  87
ATOM     87  S   UNL A   1      44.488  33.797  25.409  1.00  0.00     0.124 S 
ATOM     88  O   UNL A   1      43.205  34.344  24.979  1.00  0.00    -0.237 OA
ATOM     89  O   UNL A   1      45.669  34.554  25.001  1.00  0.00    -0.237 OA
ATOM     90  O   UNL A   1      44.618  32.345  25.300  1.00  0.00    -0.744 OA
ENDBRANCH  86  87
ENDBRANCH  58  81
BRANCH  70  91
ATOM     91  C   UNL A   1      43.988  40.210  33.967  1.00  0.00    -0.014 A 
ATOM     92  C   UNL A   1      45.161  40.975  33.844  1.00  0.00     0.010 A 
ATOM     93  C   UNL A   1      42.744  40.822  33.717  1.00  0.00     0.010 A 
ATOM     94  C   UNL A   1      45.089  42.330  33.509  1.00  0.00     0.020 A 
ATOM     95  C   UNL A   1      42.670  42.168  33.349  1.00  0.00     0.020 A 
ATOM     96  C   UNL A   1      43.843  42.918  33.260  1.00  0.00     0.054 A 
BRANCH  96  97
ATOM     97  S   UNL A   1      43.783  44.665  32.778  1.00  0.00     0.124 S 
ATOM     98  O   UNL A   1      43.934  44.585  31.327  1.00  0.00    -0.237 OA
ATOM     99  O   UNL A   1      42.466  45.082  33.251  1.00  0.00    -0.237 OA
ATOM    100  O   UNL A   1      44.911  45.261  33.489  1.00  0.00    -0.744 OA
ENDBRANCH  96  97
ENDBRANCH  70  91
ENDBRANCH  44  45
ENDBRANCH  37  39
ENDBRANCH  36  37
ENDBRANCH  35  36
ENDBRANCH  34  35
ENDBRANCH  33  34
ENDBRANCH  32  33
ENDBRANCH  31  32
ENDBRANCH  30  31
ENDBRANCH   1  30
TORSDOF 29
ENDMDL
MODEL 3
REMARK VINA RESULT:      -6.4      8.858     14.976
REMARK SMILES COC(=O)C[C@H](c1ccc(C(=O)OCCOCCOCCOCCOC(=O)c2ccc(-c3c4nc(c(-c5ccc(S(=O)(=O)[O-])cc5)c5ccc([nH]5)c(-c5ccc(S(=O)(=O)[O-])cc5)c5nc(c(-c6ccc(S(=O)(=O)[O-])cc6)c6ccc3[nH]6)C=C5)C=C4)cc2)cc1)c1c(O)n[nH]c1C
REMARK SMILES IDX 18 1 17 2 16 3 15 4 14 5 13 6 11 7 12 8 10 9 7 10 8 11 89 12
REMARK SMILES IDX 9 13 88 14 6 15 5 16 3 17 4 18 2 19 1 20 90 21 91 22 95 23
REMARK SMILES IDX 93 24 94 25 96 26 92 28 19 30 20 31 21 32 22 33 23 34 24 35
REMARK SMILES IDX 25 36 26 37 27 38 28 39 29 40 87 41 30 42 86 43 31 44 32 45
REMARK SMILES IDX 33 46 80 47 34 48 85 49 79 50 81 51 35 52 84 53 78 54 77 55
REMARK SMILES IDX 36 57 66 58 47 59 65 60 48 61 51 62 64 63 82 64 49 65 50 66
REMARK SMILES IDX 63 68 83 69 52 70 37 71 38 72 46 73 39 74 45 75 40 76 41 77
REMARK SMILES IDX 42 78 43 79 44 80 67 81 68 82 76 83 69 84 75 85 70 86 71 87
REMARK SMILES IDX 72 88 73 89 74 90 53 91 54 92 62 93 55 94 61 95 56 96 57 97
REMARK SMILES IDX 58 98 59 99 60 100
REMARK H PARENT 94 27 92 29 81 56 51 67
REMARK Flexibility Score: inf
ROOT
ATOM      1  C   UNL A   1      39.401  33.889  31.140  1.00  0.00     0.188 C 
ENDROOT
BRANCH   1   2
ATOM      2  C   UNL A   1      39.698  32.629  30.301  1.00  0.00     0.188 C 
BRANCH   2   3
ATOM      3  O   UNL A   1      40.922  31.991  30.627  1.00  0.00    -0.376 OA
BRANCH   3   4
ATOM      4  C   UNL A   1      41.344  30.871  29.870  1.00  0.00     0.202 C 
BRANCH   4   5
ATOM      5  C   UNL A   1      41.007  29.454  30.365  1.00  0.00     0.261 C 
BRANCH   5   6
ATOM      6  O   UNL A   1      39.623  29.095  30.314  1.00  0.00    -0.460 OA
BRANCH   6   7
ATOM      7  C   UNL A   1      39.062  29.062  29.089  1.00  0.00     0.338 C 
ATOM      8  O   UNL A   1      38.334  29.908  28.600  1.00  0.00    -0.246 OA
BRANCH   7   9
ATOM      9  C   UNL A   1      39.659  27.940  28.326  1.00  0.00     0.060 A 
ATOM     10  C   UNL A   1      40.870  25.740  27.061  1.00  0.00    -0.040 A 
ATOM     11  C   UNL A   1      40.130  25.572  28.243  1.00  0.00     0.005 A 
ATOM     12  C   UNL A   1      40.888  27.014  26.459  1.00  0.00     0.005 A 
ATOM     13  C   UNL A   1      39.542  26.662  28.877  1.00  0.00     0.016 A 
ATOM     14  C   UNL A   1      40.289  28.112  27.090  1.00  0.00     0.016 A 
BRANCH  10  15
ATOM     15  C   UNL A   1      41.885  24.689  26.614  1.00  0.00     0.068 C 
BRANCH  15  16
ATOM     16  C   UNL A   1      43.338  25.068  26.954  1.00  0.00     0.136 C 
BRANCH  16  17
ATOM     17  C   UNL A   1      44.302  24.865  25.806  1.00  0.00     0.306 C 
ATOM     18  O   UNL A   1      44.638  25.766  25.046  1.00  0.00    -0.252 OA
BRANCH  17  19
ATOM     19  O   UNL A   1      44.737  23.578  25.729  1.00  0.00    -0.469 OA
ATOM     20  C   UNL A   1      45.543  23.178  26.841  1.00  0.00     0.282 C 
ENDBRANCH  17  19
ENDBRANCH  16  17
ENDBRANCH  15  16
BRANCH  15  21
ATOM     21  C   UNL A   1      41.498  23.336  27.155  1.00  0.00     0.044 A 
ATOM     22  C   UNL A   1      40.525  22.411  26.728  1.00  0.00     0.234 A 
ATOM     23  C   UNL A   1      41.952  22.747  28.333  1.00  0.00     0.040 A 
ATOM     24  N   UNL A   1      40.386  21.338  27.491  1.00  0.00    -0.137 NA
ATOM     25  N   UNL A   1      41.287  21.552  28.459  1.00  0.00    -0.279 N 
ATOM     26  C   UNL A   1      42.916  23.203  29.362  1.00  0.00     0.066 C 
ATOM     27  H   UNL A   1      41.457  20.915  29.190  1.00  0.00     0.190 HD
BRANCH  22  28
ATOM     28  O   UNL A   1      39.669  22.455  25.714  1.00  0.00    -0.492 OA
ATOM     29  H   UNL A   1      38.755  22.581  25.877  1.00  0.00     0.295 HD
ENDBRANCH  22  28
ENDBRANCH  15  21
ENDBRANCH  10  15
ENDBRANCH   7   9
ENDBRANCH   6   7
ENDBRANCH   5   6
ENDBRANCH   4   5
ENDBRANCH   3   4
ENDBRANCH   2   3
ENDBRANCH   1   2
BRANCH   1  30
ATOM     30  O   UNL A   1      38.056  34.327  31.254  1.00  0.00    -0.377 OA
BRANCH  30  31
ATOM     31  C   UNL A   1      36.989  33.387  31.141  1.00  0.00     0.188 C 
BRANCH  31  32
ATOM     32  C   UNL A   1      35.568  33.805  30.689  1.00  0.00     0.188 C 
BRANCH  32  33
ATOM     33  O   UNL A   1      34.724  34.276  31.726  1.00  0.00    -0.376 OA
BRANCH  33  34
ATOM     34  C   UNL A   1      35.334  34.923  32.827  1.00  0.00     0.202 C 
BRANCH  34  35
ATOM     35  C   UNL A   1      35.213  34.237  34.195  1.00  0.00     0.261 C 
BRANCH  35  36
ATOM     36  O   UNL A   1      36.411  34.166  34.979  1.00  0.00    -0.460 OA
BRANCH  36  37
ATOM     37  C   UNL A   1      37.171  33.052  34.853  1.00  0.00     0.338 C 
ATOM     38  O   UNL A   1      36.855  32.004  34.332  1.00  0.00    -0.246 OA
BRANCH  37  39
ATOM     39  C   UNL A   1      38.538  33.402  35.304  1.00  0.00     0.060 A 
ATOM     40  C   UNL A   1      38.702  34.176  36.460  1.00  0.00     0.016 A 
ATOM     41  C   UNL A   1      39.648  32.946  34.590  1.00  0.00     0.016 A 
ATOM     42  C   UNL A   1      39.985  34.526  36.886  1.00  0.00     0.010 A 
ATOM     43  C   UNL A   1      40.928  33.315  35.007  1.00  0.00     0.010 A 
ATOM     44  C   UNL A   1      41.102  34.134  36.137  1.00  0.00    -0.014 A 
BRANCH  44  45
ATOM     45  C   UNL A   1      42.429  34.738  36.407  1.00  0.00     0.031 A 
ATOM     46  C   UNL A   1      43.348  34.031  37.368  1.00  0.00     0.074 A 
ATOM     47  C   UNL A   1      42.815  35.883  35.817  1.00  0.00     0.049 A 
ATOM     48  N   UNL A   1      44.522  34.393  37.811  1.00  0.00    -0.248 NA
ATOM     49  C   UNL A   1      42.871  32.745  37.903  1.00  0.00     0.031 C 
ATOM     50  C   UNL A   1      42.037  36.636  34.835  1.00  0.00     0.029 A 
ATOM     51  N   UNL A   1      43.967  36.617  35.969  1.00  0.00    -0.354 N 
ATOM     52  C   UNL A   1      44.920  33.388  38.685  1.00  0.00     0.074 A 
ATOM     53  C   UNL A   1      43.849  32.418  38.734  1.00  0.00     0.031 C 
ATOM     54  C   UNL A   1      42.730  37.733  34.479  1.00  0.00     0.029 A 
ATOM     55  C   UNL A   1      43.980  37.780  35.237  1.00  0.00     0.049 A 
ATOM     56  H   UNL A   1      44.711  36.336  36.548  1.00  0.00     0.167 HD
ATOM     57  C   UNL A   1      46.075  33.281  39.384  1.00  0.00     0.031 A 
ATOM     58  C   UNL A   1      44.886  38.779  35.203  1.00  0.00     0.031 A 
ATOM     59  C   UNL A   1      47.130  34.257  39.346  1.00  0.00     0.049 A 
ATOM     60  C   UNL A   1      46.129  38.677  36.051  1.00  0.00     0.074 A 
ATOM     61  C   UNL A   1      48.345  34.235  40.005  1.00  0.00     0.029 A 
ATOM     62  N   UNL A   1      47.092  35.437  38.617  1.00  0.00    -0.354 N 
ATOM     63  N   UNL A   1      46.505  37.710  36.855  1.00  0.00    -0.248 NA
ATOM     64  C   UNL A   1      47.077  39.799  35.980  1.00  0.00     0.031 C 
ATOM     65  C   UNL A   1      49.013  35.432  39.730  1.00  0.00     0.029 A 
ATOM     66  C   UNL A   1      48.249  36.165  38.835  1.00  0.00     0.049 A 
ATOM     67  H   UNL A   1      46.351  35.716  38.031  1.00  0.00     0.167 HD
ATOM     68  C   UNL A   1      47.746  38.091  37.356  1.00  0.00     0.074 A 
ATOM     69  C   UNL A   1      48.062  39.371  36.758  1.00  0.00     0.031 C 
ATOM     70  C   UNL A   1      48.554  37.438  38.229  1.00  0.00     0.031 A 
BRANCH  57  71
ATOM     71  C   UNL A   1      46.238  32.082  40.281  1.00  0.00    -0.014 A 
ATOM     72  C   UNL A   1      45.738  32.075  41.596  1.00  0.00     0.010 A 
ATOM     73  C   UNL A   1      46.874  30.928  39.787  1.00  0.00     0.010 A 
ATOM     74  C   UNL A   1      45.904  30.953  42.411  1.00  0.00     0.020 A 
ATOM     75  C   UNL A   1      47.013  29.791  40.587  1.00  0.00     0.020 A 
ATOM     76  C   UNL A   1      46.541  29.817  41.901  1.00  0.00     0.054 A 
BRANCH  76  77
ATOM     77  S   UNL A   1      46.718  28.365  42.973  1.00  0.00     0.124 S 
ATOM     78  O   UNL A   1      45.332  27.924  43.114  1.00  0.00    -0.237 OA
ATOM     79  O   UNL A   1      47.578  27.489  42.183  1.00  0.00    -0.237 OA
ATOM     80  O   UNL A   1      47.326  28.901  44.189  1.00  0.00    -0.744 OA
ENDBRANCH  76  77
ENDBRANCH  57  71
BRANCH  58  81
ATOM     81  C   UNL A   1      44.644  39.976  34.349  1.00  0.00    -0.014 A 
ATOM     82  C   UNL A   1      44.007  41.117  34.869  1.00  0.00     0.010 A 
ATOM     83  C   UNL A   1      45.047  39.978  33.000  1.00  0.00     0.010 A 
ATOM     84  C   UNL A   1      43.764  42.227  34.055  1.00  0.00     0.020 A 
ATOM     85  C   UNL A   1      44.834  41.097  32.191  1.00  0.00     0.020 A 
ATOM     86  C   UNL A   1      44.183  42.212  32.721  1.00  0.00     0.054 A 
BRANCH  86  87
ATOM     87  S   UNL A   1      43.905  43.686  31.700  1.00  0.00     0.124 S 
ATOM     88  O   UNL A   1      44.551  43.314  30.446  1.00  0.00    -0.237 OA
ATOM     89  O   UNL A   1      42.447  43.771  31.662  1.00  0.00    -0.237 OA
ATOM     90  O   UNL A   1      44.565  44.753  32.452  1.00  0.00    -0.744 OA
ENDBRANCH  86  87
ENDBRANCH  58  81
BRANCH  70  91
ATOM     91  C   UNL A   1      49.886  38.062  38.556  1.00  0.00    -0.014 A 
ATOM     92  C   UNL A   1      50.049  38.917  39.660  1.00  0.00     0.010 A 
ATOM     93  C   UNL A   1      51.012  37.729  37.779  1.00  0.00     0.010 A 
ATOM     94  C   UNL A   1      51.305  39.451  39.962  1.00  0.00     0.020 A 
ATOM     95  C   UNL A   1      52.276  38.234  38.096  1.00  0.00     0.020 A 
ATOM     96  C   UNL A   1      52.412  39.103  39.179  1.00  0.00     0.054 A 
BRANCH  96  97
ATOM     97  S   UNL A   1      54.039  39.770  39.623  1.00  0.00     0.124 S 
ATOM     98  O   UNL A   1      54.942  38.778  39.044  1.00  0.00    -0.237 OA
ATOM     99  O   UNL A   1      54.038  41.076  38.970  1.00  0.00    -0.237 OA
ATOM    100  O   UNL A   1      54.013  39.809  41.083  1.00  0.00    -0.744 OA
ENDBRANCH  96  97
ENDBRANCH  70  91
ENDBRANCH  44  45
ENDBRANCH  37  39
ENDBRANCH  36  37
ENDBRANCH  35  36
ENDBRANCH  34  35
ENDBRANCH  33  34
ENDBRANCH  32  33
ENDBRANCH  31  32
ENDBRANCH  30  31
ENDBRANCH   1  30
TORSDOF 29
ENDMDL
