MODEL 1
REMARK VINA RESULT:     -10.1      0.000      0.000
REMARK SMILES Cc1ccc(S(=O)(=O)n2cc(C(=O)C(=O)N[C@H](Cc3c[nH]c4ccccc34)C(=O)NCC(=O)OCCOCCOCCOCCOC(=O)c3ccc(-c4c5nc(c(-c6ccc(S(=O)(=O)[O-])cc6)c6ccc([nH]6)c(-c6ccc(S(=O)(=O)[O-])cc6)c6nc(c(-c7ccc(S(=O)(=O)[O-])cc7)c7ccc4[nH]7)C=C6)C=C5)cc3)c3ccccc32)cc1
REMARK SMILES IDX 38 1 37 2 36 3 35 4 34 5 32 6 33 7 31 8 30 9 28 10 29 11
REMARK SMILES IDX 17 13 16 14 14 15 15 16 12 18 13 19 11 20 9 21 10 22 114 23
REMARK SMILES IDX 109 24 113 25 110 26 112 27 111 28 6 29 7 30 8 31 5 32 1 33
REMARK SMILES IDX 2 34 3 35 116 36 4 37 115 38 18 39 19 40 20 41 27 42 21 43
REMARK SMILES IDX 22 44 26 45 23 47 25 48 24 49 39 50 40 51 41 52 42 53 43 54
REMARK SMILES IDX 44 55 45 56 46 57 47 58 48 59 49 60 50 61 108 62 51 63
REMARK SMILES IDX 107 64 52 65 53 66 54 67 101 68 55 69 106 70 100 71 102 72
REMARK SMILES IDX 56 73 105 74 99 75 98 76 57 78 87 79 68 80 86 81 69 82 72 83
REMARK SMILES IDX 85 84 103 85 70 86 71 87 84 89 104 90 73 91 58 92 59 93
REMARK SMILES IDX 67 94 60 95 66 96 61 97 62 98 63 99 64 100 65 101 88 102
REMARK SMILES IDX 89 103 97 104 90 105 96 106 91 107 92 108 93 109 94 110
REMARK SMILES IDX 95 111 74 112 75 113 83 114 76 115 82 116 77 117 78 118
REMARK SMILES IDX 79 119 80 120 81 121
REMARK H PARENT 30 12 16 17 21 46 102 77 72 88
REMARK Flexibility Score: inf
ROOT
ATOM      1  C   UNL A   1      40.891  23.371  26.378  1.00  0.00     0.188 C 
ENDROOT
BRANCH   1   2
ATOM      2  O   UNL A   1      39.698  22.901  26.982  1.00  0.00    -0.376 OA
BRANCH   2   3
ATOM      3  C   UNL A   1      38.507  23.107  26.222  1.00  0.00     0.202 C 
BRANCH   3   4
ATOM      4  C   UNL A   1      38.102  21.945  25.307  1.00  0.00     0.261 C 
BRANCH   4   5
ATOM      5  O   UNL A   1      36.727  22.074  24.889  1.00  0.00    -0.462 OA
BRANCH   5   6
ATOM      6  C   UNL A   1      36.390  23.065  24.036  1.00  0.00     0.325 C 
ATOM      7  O   UNL A   1      36.724  23.136  22.861  1.00  0.00    -0.250 OA
BRANCH   6   8
ATOM      8  C   UNL A   1      35.313  23.957  24.653  1.00  0.00     0.238 C 
BRANCH   8   9
ATOM      9  N   UNL A   1      34.935  23.634  26.017  1.00  0.00    -0.343 N 
ATOM     10  C   UNL A   1      33.860  23.065  26.603  1.00  0.00     0.243 C 
ATOM     11  O   UNL A   1      34.035  22.762  27.789  1.00  0.00    -0.273 OA
ATOM     12  H   UNL A   1      35.627  23.890  26.669  1.00  0.00     0.164 HD
BRANCH  10  13
ATOM     13  C   UNL A   1      32.549  22.656  25.862  1.00  0.00     0.176 C 
BRANCH  13  14
ATOM     14  N   UNL A   1      31.269  22.507  26.647  1.00  0.00    -0.337 N 
ATOM     15  C   UNL A   1      30.233  23.378  27.009  1.00  0.00     0.293 C 
ATOM     16  O   UNL A   1      29.320  22.943  27.702  1.00  0.00    -0.265 OA
ATOM     17  H   UNL A   1      31.131  21.592  26.980  1.00  0.00     0.164 HD
BRANCH  15  18
ATOM     18  C   UNL A   1      30.193  24.815  26.484  1.00  0.00     0.252 C 
ATOM     19  O   UNL A   1      29.044  25.248  26.377  1.00  0.00    -0.283 OA
BRANCH  18  20
ATOM     20  C   UNL A   1      31.341  25.713  26.176  1.00  0.00     0.054 A 
ATOM     21  N   UNL A   1      32.694  27.682  25.997  1.00  0.00    -0.240 N 
ATOM     22  C   UNL A   1      31.886  26.824  26.831  1.00  0.00     0.117 A 
ATOM     23  C   UNL A   1      33.164  27.011  24.853  1.00  0.00     0.065 A 
ATOM     24  C   UNL A   1      31.907  25.758  24.857  1.00  0.00     0.012 A 
ATOM     25  C   UNL A   1      33.903  27.540  23.272  1.00  0.00     0.028 A 
ATOM     26  C   UNL A   1      31.182  25.221  23.262  1.00  0.00     0.011 A 
ATOM     27  C   UNL A   1      33.356  26.794  21.636  1.00  0.00     0.002 A 
ATOM     28  C   UNL A   1      31.903  25.719  21.629  1.00  0.00     0.001 A 
BRANCH  21  29
ATOM     29  S   UNL A   1      32.847  29.366  26.428  1.00  0.00     0.268 S 
ATOM     30  O   UNL A   1      32.724  30.029  25.133  1.00  0.00    -0.201 OA
ATOM     31  O   UNL A   1      31.785  29.533  27.407  1.00  0.00    -0.201 OA
BRANCH  29  32
ATOM     32  C   UNL A   1      34.297  30.151  27.164  1.00  0.00     0.088 A 
ATOM     33  C   UNL A   1      37.106  31.862  30.034  1.00  0.00     0.044 C 
ATOM     34  C   UNL A   1      36.173  31.340  28.975  1.00  0.00    -0.051 A 
ATOM     35  C   UNL A   1      36.502  30.215  28.218  1.00  0.00     0.005 A 
ATOM     36  C   UNL A   1      34.949  31.952  28.722  1.00  0.00     0.005 A 
ATOM     37  C   UNL A   1      35.578  29.645  27.310  1.00  0.00     0.022 A 
ATOM     38  C   UNL A   1      34.028  31.364  27.836  1.00  0.00     0.022 A 
ENDBRANCH  29  32
ENDBRANCH  21  29
ENDBRANCH  18  20
ENDBRANCH  15  18
ENDBRANCH  13  14
BRANCH  13  39
ATOM     39  C   UNL A   1      32.722  21.534  24.797  1.00  0.00     0.072 C 
BRANCH  39  40
ATOM     40  C   UNL A   1      32.821  20.069  25.177  1.00  0.00    -0.020 A 
ATOM     41  C   UNL A   1      32.782  19.640  26.494  1.00  0.00     0.087 A 
ATOM     42  C   UNL A   1      32.950  18.867  24.387  1.00  0.00     0.003 A 
ATOM     43  N   UNL A   1      32.937  18.283  26.536  1.00  0.00    -0.361 N 
ATOM     44  C   UNL A   1      33.157  17.802  25.273  1.00  0.00     0.046 A 
ATOM     45  C   UNL A   1      32.978  18.566  23.010  1.00  0.00     0.010 A 
ATOM     46  H   UNL A   1      32.897  17.735  27.352  1.00  0.00     0.166 HD
ATOM     47  C   UNL A   1      33.529  16.513  24.872  1.00  0.00     0.026 A 
ATOM     48  C   UNL A   1      33.283  17.261  22.586  1.00  0.00     0.001 A 
ATOM     49  C   UNL A   1      33.592  16.261  23.504  1.00  0.00     0.002 A 
ENDBRANCH  39  40
ENDBRANCH  13  39
ENDBRANCH  10  13
ENDBRANCH   8   9
ENDBRANCH   6   8
ENDBRANCH   5   6
ENDBRANCH   4   5
ENDBRANCH   3   4
ENDBRANCH   2   3
ENDBRANCH   1   2
BRANCH   1  50
ATOM     50  C   UNL A   1      42.258  22.990  26.983  1.00  0.00     0.188 C 
BRANCH  50  51
ATOM     51  O   UNL A   1      42.990  24.020  27.638  1.00  0.00    -0.377 OA
BRANCH  51  52
ATOM     52  C   UNL A   1      42.982  25.259  26.907  1.00  0.00     0.188 C 
BRANCH  52  53
ATOM     53  C   UNL A   1      43.334  26.463  27.778  1.00  0.00     0.188 C 
BRANCH  53  54
ATOM     54  O   UNL A   1      44.131  26.181  28.920  1.00  0.00    -0.376 OA
BRANCH  54  55
ATOM     55  C   UNL A   1      45.543  26.205  28.843  1.00  0.00     0.202 C 
BRANCH  55  56
ATOM     56  C   UNL A   1      46.175  27.409  28.150  1.00  0.00     0.261 C 
BRANCH  56  57
ATOM     57  O   UNL A   1      47.603  27.489  28.385  1.00  0.00    -0.460 OA
BRANCH  57  58
ATOM     58  C   UNL A   1      48.155  28.665  28.805  1.00  0.00     0.338 C 
ATOM     59  O   UNL A   1      49.310  28.751  29.193  1.00  0.00    -0.246 OA
BRANCH  58  60
ATOM     60  C   UNL A   1      47.343  29.859  28.456  1.00  0.00     0.060 A 
ATOM     61  C   UNL A   1      47.193  30.275  27.128  1.00  0.00     0.016 A 
ATOM     62  C   UNL A   1      46.773  30.611  29.475  1.00  0.00     0.016 A 
ATOM     63  C   UNL A   1      46.670  31.546  26.839  1.00  0.00     0.010 A 
ATOM     64  C   UNL A   1      46.317  31.887  29.197  1.00  0.00     0.010 A 
ATOM     65  C   UNL A   1      46.327  32.404  27.890  1.00  0.00    -0.014 A 
BRANCH  65  66
ATOM     66  C   UNL A   1      46.289  33.894  27.821  1.00  0.00     0.031 A 
ATOM     67  C   UNL A   1      47.596  34.620  27.563  1.00  0.00     0.074 A 
ATOM     68  C   UNL A   1      45.063  34.357  27.485  1.00  0.00     0.049 A 
ATOM     69  N   UNL A   1      47.825  35.678  26.853  1.00  0.00    -0.248 NA
ATOM     70  C   UNL A   1      48.835  34.089  28.159  1.00  0.00     0.031 C 
ATOM     71  C   UNL A   1      44.662  35.334  26.509  1.00  0.00     0.029 A 
ATOM     72  N   UNL A   1      43.863  34.102  28.148  1.00  0.00    -0.354 N 
ATOM     73  C   UNL A   1      49.207  35.904  26.814  1.00  0.00     0.074 A 
ATOM     74  C   UNL A   1      49.788  34.849  27.601  1.00  0.00     0.031 C 
ATOM     75  C   UNL A   1      43.450  35.819  26.782  1.00  0.00     0.029 A 
ATOM     76  C   UNL A   1      43.110  35.270  28.034  1.00  0.00     0.049 A 
ATOM     77  H   UNL A   1      43.602  33.270  28.604  1.00  0.00     0.167 HD
ATOM     78  C   UNL A   1      49.740  36.961  26.128  1.00  0.00     0.031 A 
ATOM     79  C   UNL A   1      42.342  35.870  28.955  1.00  0.00     0.031 A 
ATOM     80  C   UNL A   1      48.716  37.921  25.834  1.00  0.00     0.049 A 
ATOM     81  C   UNL A   1      42.760  37.367  29.087  1.00  0.00     0.074 A 
ATOM     82  C   UNL A   1      48.111  38.410  24.735  1.00  0.00     0.029 A 
ATOM     83  N   UNL A   1      48.338  38.759  26.846  1.00  0.00    -0.354 N 
ATOM     84  N   UNL A   1      44.040  37.712  29.148  1.00  0.00    -0.248 NA
ATOM     85  C   UNL A   1      41.945  38.581  28.994  1.00  0.00     0.031 C 
ATOM     86  C   UNL A   1      46.916  38.937  25.266  1.00  0.00     0.029 A 
ATOM     87  C   UNL A   1      46.842  39.191  26.791  1.00  0.00     0.049 A 
ATOM     88  H   UNL A   1      48.958  39.064  27.547  1.00  0.00     0.167 HD
ATOM     89  C   UNL A   1      44.274  39.109  28.886  1.00  0.00     0.074 A 
ATOM     90  C   UNL A   1      42.860  39.568  28.810  1.00  0.00     0.031 C 
ATOM     91  C   UNL A   1      45.498  39.820  28.252  1.00  0.00     0.031 A 
BRANCH  78  92
ATOM     92  C   UNL A   1      51.147  37.319  25.690  1.00  0.00    -0.014 A 
ATOM     93  C   UNL A   1      51.604  36.705  24.491  1.00  0.00     0.010 A 
ATOM     94  C   UNL A   1      52.101  38.070  26.387  1.00  0.00     0.010 A 
ATOM     95  C   UNL A   1      52.907  36.782  24.019  1.00  0.00     0.020 A 
ATOM     96  C   UNL A   1      53.433  38.181  25.903  1.00  0.00     0.020 A 
ATOM     97  C   UNL A   1      53.824  37.526  24.728  1.00  0.00     0.054 A 
BRANCH  97  98
ATOM     98  S   UNL A   1      55.511  37.560  24.073  1.00  0.00     0.124 S 
ATOM     99  O   UNL A   1      55.335  37.049  22.716  1.00  0.00    -0.237 OA
ATOM    100  O   UNL A   1      55.851  38.978  24.166  1.00  0.00    -0.237 OA
ATOM    101  O   UNL A   1      56.248  36.682  24.976  1.00  0.00    -0.744 OA
ENDBRANCH  97  98
ENDBRANCH  78  92
BRANCH  79 102
ATOM    102  C   UNL A   1      41.343  34.775  29.299  1.00  0.00    -0.014 A 
ATOM    103  C   UNL A   1      41.663  34.020  30.476  1.00  0.00     0.010 A 
ATOM    104  C   UNL A   1      39.962  35.088  29.176  1.00  0.00     0.010 A 
ATOM    105  C   UNL A   1      40.746  33.744  31.516  1.00  0.00     0.020 A 
ATOM    106  C   UNL A   1      39.040  34.863  30.246  1.00  0.00     0.020 A 
ATOM    107  C   UNL A   1      39.446  34.220  31.421  1.00  0.00     0.054 A 
BRANCH 107 108
ATOM    108  S   UNL A   1      38.431  34.255  32.948  1.00  0.00     0.124 S 
ATOM    109  O   UNL A   1      38.209  32.838  33.213  1.00  0.00    -0.237 OA
ATOM    110  O   UNL A   1      39.305  34.945  33.898  1.00  0.00    -0.237 OA
ATOM    111  O   UNL A   1      37.251  35.013  32.551  1.00  0.00    -0.744 OA
ENDBRANCH 107 108
ENDBRANCH  79 102
BRANCH  91 112
ATOM    112  C   UNL A   1      45.705  41.009  29.635  1.00  0.00    -0.014 A 
ATOM    113  C   UNL A   1      46.495  40.774  30.782  1.00  0.00     0.010 A 
ATOM    114  C   UNL A   1      45.104  42.338  29.729  1.00  0.00     0.010 A 
ATOM    115  C   UNL A   1      46.543  41.667  31.904  1.00  0.00     0.020 A 
ATOM    116  C   UNL A   1      45.029  43.162  30.855  1.00  0.00     0.020 A 
ATOM    117  C   UNL A   1      45.759  42.820  31.957  1.00  0.00     0.054 A 
BRANCH 117 118
ATOM    118  S   UNL A   1      45.639  43.863  33.427  1.00  0.00     0.124 S 
ATOM    119  O   UNL A   1      47.035  44.171  33.720  1.00  0.00    -0.237 OA
ATOM    120  O   UNL A   1      44.830  44.978  32.947  1.00  0.00    -0.237 OA
ATOM    121  O   UNL A   1      44.984  43.000  34.410  1.00  0.00    -0.744 OA
ENDBRANCH 117 118
ENDBRANCH  91 112
ENDBRANCH  65  66
ENDBRANCH  58  60
ENDBRANCH  57  58
ENDBRANCH  56  57
ENDBRANCH  55  56
ENDBRANCH  54  55
ENDBRANCH  53  54
ENDBRANCH  52  53
ENDBRANCH  51  52
ENDBRANCH  50  51
ENDBRANCH   1  50
TORSDOF 32
ENDMDL
MODEL 2
REMARK VINA RESULT:      -7.5      5.176     11.307
REMARK SMILES Cc1ccc(S(=O)(=O)n2cc(C(=O)C(=O)N[C@H](Cc3c[nH]c4ccccc34)C(=O)NCC(=O)OCCOCCOCCOCCOC(=O)c3ccc(-c4c5nc(c(-c6ccc(S(=O)(=O)[O-])cc6)c6ccc([nH]6)c(-c6ccc(S(=O)(=O)[O-])cc6)c6nc(c(-c7ccc(S(=O)(=O)[O-])cc7)c7ccc4[nH]7)C=C6)C=C5)cc3)c3ccccc32)cc1
REMARK SMILES IDX 38 1 37 2 36 3 35 4 34 5 32 6 33 7 31 8 30 9 28 10 29 11
REMARK SMILES IDX 17 13 16 14 14 15 15 16 12 18 13 19 11 20 9 21 10 22 114 23
REMARK SMILES IDX 109 24 113 25 110 26 112 27 111 28 6 29 7 30 8 31 5 32 1 33
REMARK SMILES IDX 2 34 3 35 116 36 4 37 115 38 18 39 19 40 20 41 27 42 21 43
REMARK SMILES IDX 22 44 26 45 23 47 25 48 24 49 39 50 40 51 41 52 42 53 43 54
REMARK SMILES IDX 44 55 45 56 46 57 47 58 48 59 49 60 50 61 108 62 51 63
REMARK SMILES IDX 107 64 52 65 53 66 54 67 101 68 55 69 106 70 100 71 102 72
REMARK SMILES IDX 56 73 105 74 99 75 98 76 57 78 87 79 68 80 86 81 69 82 72 83
REMARK SMILES IDX 85 84 103 85 70 86 71 87 84 89 104 90 73 91 58 92 59 93
REMARK SMILES IDX 67 94 60 95 66 96 61 97 62 98 63 99 64 100 65 101 88 102
REMARK SMILES IDX 89 103 97 104 90 105 96 106 91 107 92 108 93 109 94 110
REMARK SMILES IDX 95 111 74 112 75 113 83 114 76 115 82 116 77 117 78 118
REMARK SMILES IDX 79 119 80 120 81 121
REMARK H PARENT 30 12 16 17 21 46 102 77 72 88
REMARK Flexibility Score: inf
ROOT
ATOM      1  C   UNL A   1      46.219  33.307  34.067  1.00  0.00     0.188 C 
ENDROOT
BRANCH   1   2
ATOM      2  O   UNL A   1      45.857  34.410  34.881  1.00  0.00    -0.376 OA
BRANCH   2   3
ATOM      3  C   UNL A   1      46.784  34.734  35.916  1.00  0.00     0.202 C 
BRANCH   3   4
ATOM      4  C   UNL A   1      46.369  34.302  37.328  1.00  0.00     0.261 C 
BRANCH   4   5
ATOM      5  O   UNL A   1      45.062  34.815  37.660  1.00  0.00    -0.462 OA
BRANCH   5   6
ATOM      6  C   UNL A   1      44.178  34.006  38.283  1.00  0.00     0.325 C 
ATOM      7  O   UNL A   1      43.557  34.283  39.301  1.00  0.00    -0.250 OA
BRANCH   6   8
ATOM      8  C   UNL A   1      43.850  32.799  37.407  1.00  0.00     0.238 C 
BRANCH   8   9
ATOM      9  N   UNL A   1      43.195  33.097  36.146  1.00  0.00    -0.343 N 
ATOM     10  C   UNL A   1      42.088  33.778  35.779  1.00  0.00     0.243 C 
ATOM     11  O   UNL A   1      42.007  33.989  34.563  1.00  0.00    -0.273 OA
ATOM     12  H   UNL A   1      43.672  32.712  35.375  1.00  0.00     0.164 HD
BRANCH  10  13
ATOM     13  C   UNL A   1      41.056  34.406  36.766  1.00  0.00     0.176 C 
BRANCH  13  14
ATOM     14  N   UNL A   1      39.664  33.829  36.850  1.00  0.00    -0.337 N 
ATOM     15  C   UNL A   1      38.542  33.850  36.011  1.00  0.00     0.293 C 
ATOM     16  O   UNL A   1      37.517  33.296  36.393  1.00  0.00    -0.265 OA
ATOM     17  H   UNL A   1      39.510  33.323  37.679  1.00  0.00     0.164 HD
BRANCH  15  18
ATOM     18  C   UNL A   1      38.613  34.476  34.616  1.00  0.00     0.252 C 
ATOM     19  O   UNL A   1      38.994  35.647  34.641  1.00  0.00    -0.283 OA
BRANCH  18  20
ATOM     20  C   UNL A   1      38.352  33.823  33.303  1.00  0.00     0.054 A 
ATOM     21  N   UNL A   1      37.191  32.882  31.430  1.00  0.00    -0.240 N 
ATOM     22  C   UNL A   1      37.362  33.998  32.329  1.00  0.00     0.117 A 
ATOM     23  C   UNL A   1      38.332  32.059  31.393  1.00  0.00     0.065 A 
ATOM     24  C   UNL A   1      38.965  32.567  32.970  1.00  0.00     0.012 A 
ATOM     25  C   UNL A   1      38.676  30.374  30.784  1.00  0.00     0.028 A 
ATOM     26  C   UNL A   1      39.711  31.310  34.076  1.00  0.00     0.011 A 
ATOM     27  C   UNL A   1      39.681  29.152  31.798  1.00  0.00     0.002 A 
ATOM     28  C   UNL A   1      40.093  29.589  33.503  1.00  0.00     0.001 A 
BRANCH  21  29
ATOM     29  S   UNL A   1      35.637  32.647  30.671  1.00  0.00     0.268 S 
ATOM     30  O   UNL A   1      34.903  31.907  31.693  1.00  0.00    -0.201 OA
ATOM     31  O   UNL A   1      35.234  34.009  30.362  1.00  0.00    -0.201 OA
BRANCH  29  32
ATOM     32  C   UNL A   1      35.319  31.706  29.163  1.00  0.00     0.088 A 
ATOM     33  C   UNL A   1      34.144  28.549  26.388  1.00  0.00     0.044 C 
ATOM     34  C   UNL A   1      34.622  29.664  27.277  1.00  0.00    -0.051 A 
ATOM     35  C   UNL A   1      33.989  30.908  27.273  1.00  0.00     0.005 A 
ATOM     36  C   UNL A   1      35.701  29.492  28.139  1.00  0.00     0.005 A 
ATOM     37  C   UNL A   1      34.353  31.920  28.193  1.00  0.00     0.022 A 
ATOM     38  C   UNL A   1      36.039  30.495  29.066  1.00  0.00     0.022 A 
ENDBRANCH  29  32
ENDBRANCH  21  29
ENDBRANCH  18  20
ENDBRANCH  15  18
ENDBRANCH  13  14
BRANCH  13  39
ATOM     39  C   UNL A   1      41.053  35.962  36.808  1.00  0.00     0.072 C 
BRANCH  39  40
ATOM     40  C   UNL A   1      40.887  36.735  38.104  1.00  0.00    -0.020 A 
ATOM     41  C   UNL A   1      39.675  36.809  38.772  1.00  0.00     0.087 A 
ATOM     42  C   UNL A   1      41.814  37.494  38.908  1.00  0.00     0.003 A 
ATOM     43  N   UNL A   1      39.812  37.602  39.875  1.00  0.00    -0.361 N 
ATOM     44  C   UNL A   1      41.076  38.125  39.917  1.00  0.00     0.046 A 
ATOM     45  C   UNL A   1      43.196  37.771  38.859  1.00  0.00     0.010 A 
ATOM     46  H   UNL A   1      39.106  37.772  40.541  1.00  0.00     0.166 HD
ATOM     47  C   UNL A   1      41.597  39.109  40.767  1.00  0.00     0.026 A 
ATOM     48  C   UNL A   1      43.753  38.706  39.749  1.00  0.00     0.001 A 
ATOM     49  C   UNL A   1      42.957  39.392  40.662  1.00  0.00     0.002 A 
ENDBRANCH  39  40
ENDBRANCH  13  39
ENDBRANCH  10  13
ENDBRANCH   8   9
ENDBRANCH   6   8
ENDBRANCH   5   6
ENDBRANCH   4   5
ENDBRANCH   3   4
ENDBRANCH   2   3
ENDBRANCH   1   2
BRANCH   1  50
ATOM     50  C   UNL A   1      46.842  32.051  34.710  1.00  0.00     0.188 C 
BRANCH  50  51
ATOM     51  O   UNL A   1      45.954  31.003  35.085  1.00  0.00    -0.377 OA
BRANCH  51  52
ATOM     52  C   UNL A   1      45.914  29.937  34.120  1.00  0.00     0.188 C 
BRANCH  52  53
ATOM     53  C   UNL A   1      45.901  28.553  34.766  1.00  0.00     0.188 C 
BRANCH  53  54
ATOM     54  O   UNL A   1      47.009  27.721  34.454  1.00  0.00    -0.376 OA
BRANCH  54  55
ATOM     55  C   UNL A   1      46.817  26.425  33.921  1.00  0.00     0.202 C 
BRANCH  55  56
ATOM     56  C   UNL A   1      47.681  26.038  32.724  1.00  0.00     0.261 C 
BRANCH  56  57
ATOM     57  O   UNL A   1      47.186  26.605  31.485  1.00  0.00    -0.460 OA
BRANCH  57  58
ATOM     58  C   UNL A   1      48.062  26.907  30.482  1.00  0.00     0.338 C 
ATOM     59  O   UNL A   1      48.435  26.084  29.661  1.00  0.00    -0.246 OA
BRANCH  58  60
ATOM     60  C   UNL A   1      48.268  28.366  30.294  1.00  0.00     0.060 A 
ATOM     61  C   UNL A   1      48.297  29.244  31.385  1.00  0.00     0.016 A 
ATOM     62  C   UNL A   1      48.375  28.875  29.007  1.00  0.00     0.016 A 
ATOM     63  C   UNL A   1      48.207  30.631  31.180  1.00  0.00     0.010 A 
ATOM     64  C   UNL A   1      48.223  30.235  28.804  1.00  0.00     0.010 A 
ATOM     65  C   UNL A   1      48.062  31.126  29.880  1.00  0.00    -0.014 A 
BRANCH  65  66
ATOM     66  C   UNL A   1      47.429  32.425  29.508  1.00  0.00     0.031 A 
ATOM     67  C   UNL A   1      48.344  33.612  29.269  1.00  0.00     0.074 A 
ATOM     68  C   UNL A   1      46.213  32.255  28.939  1.00  0.00     0.049 A 
ATOM     69  N   UNL A   1      48.253  34.559  28.393  1.00  0.00    -0.248 NA
ATOM     70  C   UNL A   1      49.549  33.761  30.105  1.00  0.00     0.031 C 
ATOM     71  C   UNL A   1      45.647  32.820  27.744  1.00  0.00     0.029 A 
ATOM     72  N   UNL A   1      45.120  31.587  29.489  1.00  0.00    -0.354 N 
ATOM     73  C   UNL A   1      49.398  35.363  28.477  1.00  0.00     0.074 A 
ATOM     74  C   UNL A   1      50.194  34.783  29.526  1.00  0.00     0.031 C 
ATOM     75  C   UNL A   1      44.315  32.754  27.764  1.00  0.00     0.029 A 
ATOM     76  C   UNL A   1      43.992  32.279  29.050  1.00  0.00     0.049 A 
ATOM     77  H   UNL A   1      45.140  30.792  30.068  1.00  0.00     0.167 HD
ATOM     78  C   UNL A   1      49.573  36.447  27.661  1.00  0.00     0.031 A 
ATOM     79  C   UNL A   1      42.881  32.595  29.731  1.00  0.00     0.031 A 
ATOM     80  C   UNL A   1      48.324  36.812  27.057  1.00  0.00     0.049 A 
ATOM     81  C   UNL A   1      42.611  34.127  29.608  1.00  0.00     0.074 A 
ATOM     82  C   UNL A   1      47.801  36.838  25.816  1.00  0.00     0.029 A 
ATOM     83  N   UNL A   1      47.444  37.523  27.825  1.00  0.00    -0.354 N 
ATOM     84  N   UNL A   1      43.596  35.003  29.753  1.00  0.00    -0.248 NA
ATOM     85  C   UNL A   1      41.405  34.835  29.173  1.00  0.00     0.031 C 
ATOM     86  C   UNL A   1      46.416  36.850  26.081  1.00  0.00     0.029 A 
ATOM     87  C   UNL A   1      45.945  37.243  27.503  1.00  0.00     0.049 A 
ATOM     88  H   UNL A   1      47.733  38.158  28.520  1.00  0.00     0.167 HD
ATOM     89  C   UNL A   1      43.282  36.314  29.243  1.00  0.00     0.074 A 
ATOM     90  C   UNL A   1      41.849  36.091  28.906  1.00  0.00     0.031 C 
ATOM     91  C   UNL A   1      44.204  37.401  28.633  1.00  0.00     0.031 A 
BRANCH  78  92
ATOM     92  C   UNL A   1      50.764  37.327  27.334  1.00  0.00    -0.014 A 
ATOM     93  C   UNL A   1      51.354  37.130  26.055  1.00  0.00     0.010 A 
ATOM     94  C   UNL A   1      51.440  38.211  28.182  1.00  0.00     0.010 A 
ATOM     95  C   UNL A   1      52.539  37.720  25.639  1.00  0.00     0.020 A 
ATOM     96  C   UNL A   1      52.642  38.845  27.763  1.00  0.00     0.020 A 
ATOM     97  C   UNL A   1      53.183  38.584  26.497  1.00  0.00     0.054 A 
BRANCH  97  98
ATOM     98  S   UNL A   1      54.738  39.297  25.905  1.00  0.00     0.124 S 
ATOM     99  O   UNL A   1      55.458  38.125  25.412  1.00  0.00    -0.237 OA
ATOM    100  O   UNL A   1      54.281  40.226  24.874  1.00  0.00    -0.237 OA
ATOM    101  O   UNL A   1      55.307  39.919  27.096  1.00  0.00    -0.744 OA
ENDBRANCH  97  98
ENDBRANCH  78  92
BRANCH  79 102
ATOM    102  C   UNL A   1      42.374  31.228  30.166  1.00  0.00    -0.014 A 
ATOM    103  C   UNL A   1      41.890  30.400  29.099  1.00  0.00     0.010 A 
ATOM    104  C   UNL A   1      43.141  30.525  31.135  1.00  0.00     0.010 A 
ATOM    105  C   UNL A   1      42.262  29.048  28.911  1.00  0.00     0.020 A 
ATOM    106  C   UNL A   1      43.568  29.177  30.926  1.00  0.00     0.020 A 
ATOM    107  C   UNL A   1      43.150  28.458  29.798  1.00  0.00     0.054 A 
BRANCH 107 108
ATOM    108  S   UNL A   1      43.963  26.896  29.287  1.00  0.00     0.124 S 
ATOM    109  O   UNL A   1      45.178  27.370  28.635  1.00  0.00    -0.237 OA
ATOM    110  O   UNL A   1      44.159  26.204  30.561  1.00  0.00    -0.237 OA
ATOM    111  O   UNL A   1      42.980  26.277  28.407  1.00  0.00    -0.744 OA
ENDBRANCH 107 108
ENDBRANCH  79 102
BRANCH  91 112
ATOM    112  C   UNL A   1      43.627  38.728  29.761  1.00  0.00    -0.014 A 
ATOM    113  C   UNL A   1      42.981  39.912  29.342  1.00  0.00     0.010 A 
ATOM    114  C   UNL A   1      43.741  38.734  31.218  1.00  0.00     0.010 A 
ATOM    115  C   UNL A   1      42.649  40.989  30.230  1.00  0.00     0.020 A 
ATOM    116  C   UNL A   1      43.549  39.814  32.085  1.00  0.00     0.020 A 
ATOM    117  C   UNL A   1      42.996  40.956  31.581  1.00  0.00     0.054 A 
BRANCH 117 118
ATOM    118  S   UNL A   1      42.777  42.367  32.689  1.00  0.00     0.124 S 
ATOM    119  O   UNL A   1      41.918  41.825  33.737  1.00  0.00    -0.237 OA
ATOM    120  O   UNL A   1      44.150  42.664  33.083  1.00  0.00    -0.237 OA
ATOM    121  O   UNL A   1      42.144  43.376  31.840  1.00  0.00    -0.744 OA
ENDBRANCH 117 118
ENDBRANCH  91 112
ENDBRANCH  65  66
ENDBRANCH  58  60
ENDBRANCH  57  58
ENDBRANCH  56  57
ENDBRANCH  55  56
ENDBRANCH  54  55
ENDBRANCH  53  54
ENDBRANCH  52  53
ENDBRANCH  51  52
ENDBRANCH  50  51
ENDBRANCH   1  50
TORSDOF 32
ENDMDL
MODEL 3
REMARK VINA RESULT:      -7.5      1.885      2.319
REMARK SMILES Cc1ccc(S(=O)(=O)n2cc(C(=O)C(=O)N[C@H](Cc3c[nH]c4ccccc34)C(=O)NCC(=O)OCCOCCOCCOCCOC(=O)c3ccc(-c4c5nc(c(-c6ccc(S(=O)(=O)[O-])cc6)c6ccc([nH]6)c(-c6ccc(S(=O)(=O)[O-])cc6)c6nc(c(-c7ccc(S(=O)(=O)[O-])cc7)c7ccc4[nH]7)C=C6)C=C5)cc3)c3ccccc32)cc1
REMARK SMILES IDX 38 1 37 2 36 3 35 4 34 5 32 6 33 7 31 8 30 9 28 10 29 11
REMARK SMILES IDX 17 13 16 14 14 15 15 16 12 18 13 19 11 20 9 21 10 22 114 23
REMARK SMILES IDX 109 24 113 25 110 26 112 27 111 28 6 29 7 30 8 31 5 32 1 33
REMARK SMILES IDX 2 34 3 35 116 36 4 37 115 38 18 39 19 40 20 41 27 42 21 43
REMARK SMILES IDX 22 44 26 45 23 47 25 48 24 49 39 50 40 51 41 52 42 53 43 54
REMARK SMILES IDX 44 55 45 56 46 57 47 58 48 59 49 60 50 61 108 62 51 63
REMARK SMILES IDX 107 64 52 65 53 66 54 67 101 68 55 69 106 70 100 71 102 72
REMARK SMILES IDX 56 73 105 74 99 75 98 76 57 78 87 79 68 80 86 81 69 82 72 83
REMARK SMILES IDX 85 84 103 85 70 86 71 87 84 89 104 90 73 91 58 92 59 93
REMARK SMILES IDX 67 94 60 95 66 96 61 97 62 98 63 99 64 100 65 101 88 102
REMARK SMILES IDX 89 103 97 104 90 105 96 106 91 107 92 108 93 109 94 110
REMARK SMILES IDX 95 111 74 112 75 113 83 114 76 115 82 116 77 117 78 118
REMARK SMILES IDX 79 119 80 120 81 121
REMARK H PARENT 30 12 16 17 21 46 102 77 72 88
REMARK Flexibility Score: inf
ROOT
ATOM      1  C   UNL A   1      40.910  23.390  26.351  1.00  0.00     0.188 C 
ENDROOT
BRANCH   1   2
ATOM      2  O   UNL A   1      39.732  22.931  26.992  1.00  0.00    -0.376 OA
BRANCH   2   3
ATOM      3  C   UNL A   1      38.526  23.104  26.249  1.00  0.00     0.202 C 
BRANCH   3   4
ATOM      4  C   UNL A   1      38.110  21.909  25.383  1.00  0.00     0.261 C 
BRANCH   4   5
ATOM      5  O   UNL A   1      36.738  22.037  24.954  1.00  0.00    -0.462 OA
BRANCH   5   6
ATOM      6  C   UNL A   1      36.418  22.989  24.052  1.00  0.00     0.325 C 
ATOM      7  O   UNL A   1      36.754  22.994  22.875  1.00  0.00    -0.250 OA
BRANCH   6   8
ATOM      8  C   UNL A   1      35.357  23.929  24.621  1.00  0.00     0.238 C 
BRANCH   8   9
ATOM      9  N   UNL A   1      34.945  23.657  25.986  1.00  0.00    -0.343 N 
ATOM     10  C   UNL A   1      33.851  23.118  26.568  1.00  0.00     0.243 C 
ATOM     11  O   UNL A   1      33.997  22.856  27.767  1.00  0.00    -0.273 OA
ATOM     12  H   UNL A   1      35.623  23.931  26.645  1.00  0.00     0.164 HD
BRANCH  10  13
ATOM     13  C   UNL A   1      32.554  22.693  25.812  1.00  0.00     0.176 C 
BRANCH  13  14
ATOM     14  N   UNL A   1      31.262  22.550  26.578  1.00  0.00    -0.337 N 
ATOM     15  C   UNL A   1      30.233  23.430  26.937  1.00  0.00     0.293 C 
ATOM     16  O   UNL A   1      29.304  22.999  27.612  1.00  0.00    -0.265 OA
ATOM     17  H   UNL A   1      31.107  21.633  26.896  1.00  0.00     0.164 HD
BRANCH  15  18
ATOM     18  C   UNL A   1      30.218  24.875  26.431  1.00  0.00     0.252 C 
ATOM     19  O   UNL A   1      29.077  25.321  26.304  1.00  0.00    -0.283 OA
BRANCH  18  20
ATOM     20  C   UNL A   1      31.382  25.765  26.162  1.00  0.00     0.054 A 
ATOM     21  N   UNL A   1      32.776  27.712  26.087  1.00  0.00    -0.240 N 
ATOM     22  C   UNL A   1      31.961  26.821  26.877  1.00  0.00     0.117 A 
ATOM     23  C   UNL A   1      33.214  27.105  24.895  1.00  0.00     0.065 A 
ATOM     24  C   UNL A   1      31.930  25.882  24.840  1.00  0.00     0.012 A 
ATOM     25  C   UNL A   1      33.942  27.718  23.339  1.00  0.00     0.028 A 
ATOM     26  C   UNL A   1      31.170  25.463  23.226  1.00  0.00     0.011 A 
ATOM     27  C   UNL A   1      33.355  27.089  21.668  1.00  0.00     0.002 A 
ATOM     28  C   UNL A   1      31.878  26.048  21.616  1.00  0.00     0.001 A 
BRANCH  21  29
ATOM     29  S   UNL A   1      32.972  29.362  26.620  1.00  0.00     0.268 S 
ATOM     30  O   UNL A   1      32.760  30.113  25.386  1.00  0.00    -0.201 OA
ATOM     31  O   UNL A   1      31.986  29.464  27.684  1.00  0.00    -0.201 OA
BRANCH  29  32
ATOM     32  C   UNL A   1      34.478  30.090  27.301  1.00  0.00     0.088 A 
ATOM     33  C   UNL A   1      37.273  32.265  29.853  1.00  0.00     0.044 C 
ATOM     34  C   UNL A   1      36.369  31.541  28.893  1.00  0.00    -0.051 A 
ATOM     35  C   UNL A   1      36.483  30.163  28.698  1.00  0.00     0.005 A 
ATOM     36  C   UNL A   1      35.384  32.214  28.176  1.00  0.00     0.005 A 
ATOM     37  C   UNL A   1      35.558  29.456  27.894  1.00  0.00     0.022 A 
ATOM     38  C   UNL A   1      34.455  31.499  27.399  1.00  0.00     0.022 A 
ENDBRANCH  29  32
ENDBRANCH  21  29
ENDBRANCH  18  20
ENDBRANCH  15  18
ENDBRANCH  13  14
BRANCH  13  39
ATOM     39  C   UNL A   1      32.749  21.556  24.766  1.00  0.00     0.072 C 
BRANCH  39  40
ATOM     40  C   UNL A   1      32.825  20.095  25.167  1.00  0.00    -0.020 A 
ATOM     41  C   UNL A   1      32.788  19.687  26.490  1.00  0.00     0.087 A 
ATOM     42  C   UNL A   1      32.926  18.880  24.394  1.00  0.00     0.003 A 
ATOM     43  N   UNL A   1      32.919  18.328  26.551  1.00  0.00    -0.361 N 
ATOM     44  C   UNL A   1      33.120  17.825  25.295  1.00  0.00     0.046 A 
ATOM     45  C   UNL A   1      32.938  18.558  23.021  1.00  0.00     0.010 A 
ATOM     46  H   UNL A   1      32.875  17.793  27.376  1.00  0.00     0.166 HD
ATOM     47  C   UNL A   1      33.466  16.523  24.910  1.00  0.00     0.026 A 
ATOM     48  C   UNL A   1      33.216  17.241  22.615  1.00  0.00     0.001 A 
ATOM     49  C   UNL A   1      33.515  16.250  23.545  1.00  0.00     0.002 A 
ENDBRANCH  39  40
ENDBRANCH  13  39
ENDBRANCH  10  13
ENDBRANCH   8   9
ENDBRANCH   6   8
ENDBRANCH   5   6
ENDBRANCH   4   5
ENDBRANCH   3   4
ENDBRANCH   2   3
ENDBRANCH   1   2
BRANCH   1  50
ATOM     50  C   UNL A   1      42.290  23.042  26.946  1.00  0.00     0.188 C 
BRANCH  50  51
ATOM     51  O   UNL A   1      42.989  24.084  27.620  1.00  0.00    -0.377 OA
BRANCH  51  52
ATOM     52  C   UNL A   1      42.907  25.344  26.932  1.00  0.00     0.188 C 
BRANCH  52  53
ATOM     53  C   UNL A   1      43.211  26.535  27.839  1.00  0.00     0.188 C 
BRANCH  53  54
ATOM     54  O   UNL A   1      43.867  26.223  29.061  1.00  0.00    -0.376 OA
BRANCH  54  55
ATOM     55  C   UNL A   1      45.279  26.227  29.148  1.00  0.00     0.202 C 
BRANCH  55  56
ATOM     56  C   UNL A   1      46.003  27.424  28.538  1.00  0.00     0.261 C 
BRANCH  56  57
ATOM     57  O   UNL A   1      47.443  27.259  28.554  1.00  0.00    -0.460 OA
BRANCH  57  58
ATOM     58  C   UNL A   1      48.234  28.262  29.037  1.00  0.00     0.338 C 
ATOM     59  O   UNL A   1      49.437  28.131  29.205  1.00  0.00    -0.246 OA
BRANCH  58  60
ATOM     60  C   UNL A   1      47.571  29.591  29.040  1.00  0.00     0.060 A 
ATOM     61  C   UNL A   1      47.252  30.249  27.845  1.00  0.00     0.016 A 
ATOM     62  C   UNL A   1      47.317  30.220  30.252  1.00  0.00     0.016 A 
ATOM     63  C   UNL A   1      46.893  31.606  27.858  1.00  0.00     0.010 A 
ATOM     64  C   UNL A   1      47.025  31.572  30.263  1.00  0.00     0.010 A 
ATOM     65  C   UNL A   1      46.883  32.303  29.070  1.00  0.00    -0.014 A 
BRANCH  65  66
ATOM     66  C   UNL A   1      47.068  33.775  29.231  1.00  0.00     0.031 A 
ATOM     67  C   UNL A   1      48.397  34.369  28.802  1.00  0.00     0.074 A 
ATOM     68  C   UNL A   1      45.889  34.439  29.244  1.00  0.00     0.049 A 
ATOM     69  N   UNL A   1      48.646  35.498  28.222  1.00  0.00    -0.248 NA
ATOM     70  C   UNL A   1      49.629  33.591  29.027  1.00  0.00     0.031 C 
ATOM     71  C   UNL A   1      45.464  35.615  28.532  1.00  0.00     0.029 A 
ATOM     72  N   UNL A   1      44.817  34.221  30.108  1.00  0.00    -0.354 N 
ATOM     73  C   UNL A   1      50.012  35.555  27.914  1.00  0.00     0.074 A 
ATOM     74  C   UNL A   1      50.563  34.314  28.392  1.00  0.00     0.031 C 
ATOM     75  C   UNL A   1      44.421  36.190  29.132  1.00  0.00     0.029 A 
ATOM     76  C   UNL A   1      44.250  35.475  30.334  1.00  0.00     0.049 A 
ATOM     77  H   UNL A   1      44.522  33.360  30.483  1.00  0.00     0.167 HD
ATOM     78  C   UNL A   1      50.561  36.642  27.291  1.00  0.00     0.031 A 
ATOM     79  C   UNL A   1      43.783  35.994  31.478  1.00  0.00     0.031 A 
ATOM     80  C   UNL A   1      49.664  37.758  27.372  1.00  0.00     0.049 A 
ATOM     81  C   UNL A   1      44.450  37.381  31.734  1.00  0.00     0.074 A 
ATOM     82  C   UNL A   1      48.941  38.504  26.516  1.00  0.00     0.029 A 
ATOM     83  N   UNL A   1      49.629  38.445  28.553  1.00  0.00    -0.354 N 
ATOM     84  N   UNL A   1      45.754  37.548  31.563  1.00  0.00    -0.248 NA
ATOM     85  C   UNL A   1      43.834  38.683  32.001  1.00  0.00     0.031 C 
ATOM     86  C   UNL A   1      47.971  39.073  27.367  1.00  0.00     0.029 A 
ATOM     87  C   UNL A   1      48.238  39.062  28.892  1.00  0.00     0.049 A 
ATOM     88  H   UNL A   1      50.415  38.543  29.139  1.00  0.00     0.167 HD
ATOM     89  C   UNL A   1      46.151  38.930  31.463  1.00  0.00     0.074 A 
ATOM     90  C   UNL A   1      44.840  39.566  31.767  1.00  0.00     0.031 C 
ATOM     91  C   UNL A   1      47.324  39.584  30.688  1.00  0.00     0.031 A 
BRANCH  78  92
ATOM     92  C   UNL A   1      51.894  36.895  26.612  1.00  0.00    -0.014 A 
ATOM     93  C   UNL A   1      53.023  36.255  27.193  1.00  0.00     0.010 A 
ATOM     94  C   UNL A   1      52.173  37.785  25.568  1.00  0.00     0.010 A 
ATOM     95  C   UNL A   1      54.338  36.490  26.816  1.00  0.00     0.020 A 
ATOM     96  C   UNL A   1      53.512  38.018  25.151  1.00  0.00     0.020 A 
ATOM     97  C   UNL A   1      54.581  37.374  25.787  1.00  0.00     0.054 A 
BRANCH  97  98
ATOM     98  S   UNL A   1      56.318  37.657  25.364  1.00  0.00     0.124 S 
ATOM     99  O   UNL A   1      56.962  37.699  26.675  1.00  0.00    -0.237 OA
ATOM    100  O   UNL A   1      56.635  36.485  24.551  1.00  0.00    -0.237 OA
ATOM    101  O   UNL A   1      56.294  38.926  24.644  1.00  0.00    -0.744 OA
ENDBRANCH  97  98
ENDBRANCH  78  92
BRANCH  79 102
ATOM    102  C   UNL A   1      42.710  34.987  31.870  1.00  0.00    -0.014 A 
ATOM    103  C   UNL A   1      42.985  33.635  31.477  1.00  0.00     0.010 A 
ATOM    104  C   UNL A   1      42.147  35.105  33.170  1.00  0.00     0.010 A 
ATOM    105  C   UNL A   1      42.875  32.520  32.340  1.00  0.00     0.020 A 
ATOM    106  C   UNL A   1      42.085  33.993  34.067  1.00  0.00     0.020 A 
ATOM    107  C   UNL A   1      42.479  32.714  33.655  1.00  0.00     0.054 A 
BRANCH 107 108
ATOM    108  S   UNL A   1      42.787  31.360  34.853  1.00  0.00     0.124 S 
ATOM    109  O   UNL A   1      42.504  31.999  36.133  1.00  0.00    -0.237 OA
ATOM    110  O   UNL A   1      41.829  30.337  34.432  1.00  0.00    -0.237 OA
ATOM    111  O   UNL A   1      44.184  31.014  34.619  1.00  0.00    -0.744 OA
ENDBRANCH 107 108
ENDBRANCH  79 102
BRANCH  91 112
ATOM    112  C   UNL A   1      47.982  40.476  32.150  1.00  0.00    -0.014 A 
ATOM    113  C   UNL A   1      48.690  39.865  33.209  1.00  0.00     0.010 A 
ATOM    114  C   UNL A   1      47.879  41.911  32.406  1.00  0.00     0.010 A 
ATOM    115  C   UNL A   1      49.087  40.562  34.399  1.00  0.00     0.020 A 
ATOM    116  C   UNL A   1      48.138  42.585  33.603  1.00  0.00     0.020 A 
ATOM    117  C   UNL A   1      48.750  41.898  34.612  1.00  0.00     0.054 A 
BRANCH 117 118
ATOM    118  S   UNL A   1      49.055  42.755  36.174  1.00  0.00     0.124 S 
ATOM    119  O   UNL A   1      48.999  41.673  37.152  1.00  0.00    -0.237 OA
ATOM    120  O   UNL A   1      50.373  43.340  35.950  1.00  0.00    -0.237 OA
ATOM    121  O   UNL A   1      47.957  43.716  36.260  1.00  0.00    -0.744 OA
ENDBRANCH 117 118
ENDBRANCH  91 112
ENDBRANCH  65  66
ENDBRANCH  58  60
ENDBRANCH  57  58
ENDBRANCH  56  57
ENDBRANCH  55  56
ENDBRANCH  54  55
ENDBRANCH  53  54
ENDBRANCH  52  53
ENDBRANCH  51  52
ENDBRANCH  50  51
ENDBRANCH   1  50
TORSDOF 32
ENDMDL
