MODEL 1
REMARK VINA RESULT:     -10.4      0.000      0.000
REMARK SMILES CCc1cccc2c3c([nH]c12)[C@](CC)(CC(=O)OCCOCCOCCOCCOC(=O)c1ccc(-c2c4nc(c(-c5ccc(S(=O)(=O)[O-])cc5)c5ccc([nH]5)c(-c5ccc(S(=O)(=O)[O-])cc5)c5nc(c(-c6ccc(S(=O)(=O)[O-])cc6)c6ccc2[nH]6)C=C5)C=C4)cc1)OCC3
REMARK SMILES IDX 25 1 24 2 23 3 22 4 21 5 20 6 19 7 18 8 16 9 17 10 15 11
REMARK SMILES IDX 12 12 3 13 4 14 11 15 5 16 7 17 10 18 6 19 8 20 9 21 95 23
REMARK SMILES IDX 94 24 93 25 2 26 1 27 13 28 14 29 26 30 27 31 28 32 29 33
REMARK SMILES IDX 30 34 31 35 32 36 33 37 34 38 92 39 35 40 91 41 36 42 37 43
REMARK SMILES IDX 38 44 85 45 39 46 90 47 84 48 86 49 40 50 89 51 83 52 82 53
REMARK SMILES IDX 41 55 71 56 52 57 70 58 53 59 56 60 69 61 87 62 54 63 55 64
REMARK SMILES IDX 68 66 88 67 57 68 42 69 43 70 51 71 44 72 50 73 45 74 46 75
REMARK SMILES IDX 47 76 48 77 49 78 72 79 73 80 81 81 74 82 80 83 75 84 76 85
REMARK SMILES IDX 77 86 78 87 79 88 58 89 59 90 67 91 60 92 66 93 61 94 62 95
REMARK SMILES IDX 63 96 64 97 65 98
REMARK H PARENT 10 22 86 54 56 65
REMARK Flexibility Score: inf
ROOT
ATOM      1  C   UNL A   1      41.943  20.605  26.647  1.00  0.00     0.188 C 
ENDROOT
BRANCH   1   2
ATOM      2  O   UNL A   1      41.343  21.681  25.987  1.00  0.00    -0.377 OA
BRANCH   2   3
ATOM      3  C   UNL A   1      40.280  22.384  26.568  1.00  0.00     0.188 C 
BRANCH   3   4
ATOM      4  C   UNL A   1      38.897  21.944  26.085  1.00  0.00     0.188 C 
BRANCH   4   5
ATOM      5  O   UNL A   1      38.674  20.664  25.495  1.00  0.00    -0.376 OA
BRANCH   5   6
ATOM      6  C   UNL A   1      37.442  20.386  24.845  1.00  0.00     0.202 C 
BRANCH   6   7
ATOM      7  C   UNL A   1      36.229  21.256  25.274  1.00  0.00     0.261 C 
BRANCH   7   8
ATOM      8  O   UNL A   1      35.293  21.685  24.242  1.00  0.00    -0.463 OA
BRANCH   8   9
ATOM      9  C   UNL A   1      35.484  22.926  23.745  1.00  0.00     0.309 C 
ATOM     10  O   UNL A   1      36.387  23.216  22.959  1.00  0.00    -0.252 OA
BRANCH   9  11
ATOM     11  C   UNL A   1      34.623  24.042  24.320  1.00  0.00     0.164 C 
BRANCH  11  12
ATOM     12  C   UNL A   1      33.144  24.136  24.791  1.00  0.00     0.118 C 
ATOM     13  C   UNL A   1      31.303  28.928  24.538  1.00  0.00    -0.024 A 
ATOM     14  C   UNL A   1      30.256  29.467  23.760  1.00  0.00     0.006 A 
ATOM     15  C   UNL A   1      31.493  27.521  24.432  1.00  0.00     0.049 A 
ATOM     16  C   UNL A   1      29.280  28.666  23.195  1.00  0.00     0.001 A 
ATOM     17  C   UNL A   1      30.549  26.696  23.816  1.00  0.00     0.003 A 
ATOM     18  N   UNL A   1      32.505  26.680  24.892  1.00  0.00    -0.356 N 
ATOM     19  C   UNL A   1      29.359  27.283  23.335  1.00  0.00     0.010 A 
ATOM     20  C   UNL A   1      31.070  25.366  23.831  1.00  0.00    -0.014 A 
ATOM     21  C   UNL A   1      32.295  25.378  24.478  1.00  0.00     0.052 A 
ATOM     22  H   UNL A   1      33.268  26.976  25.439  1.00  0.00     0.166 HD
ATOM     23  C   UNL A   1      30.521  24.101  23.271  1.00  0.00     0.066 C 
ATOM     24  C   UNL A   1      31.610  23.016  23.234  1.00  0.00     0.166 C 
ATOM     25  O   UNL A   1      32.370  22.961  24.442  1.00  0.00    -0.368 OA
BRANCH  13  26
ATOM     26  C   UNL A   1      32.091  29.816  25.476  1.00  0.00     0.034 C 
ATOM     27  C   UNL A   1      31.973  29.486  26.968  1.00  0.00     0.009 C 
ENDBRANCH  13  26
BRANCH  12  28
ATOM     28  C   UNL A   1      33.186  24.059  26.363  1.00  0.00     0.039 C 
ATOM     29  C   UNL A   1      32.068  23.238  27.004  1.00  0.00     0.007 C 
ENDBRANCH  12  28
ENDBRANCH  11  12
ENDBRANCH   9  11
ENDBRANCH   8   9
ENDBRANCH   7   8
ENDBRANCH   6   7
ENDBRANCH   5   6
ENDBRANCH   4   5
ENDBRANCH   3   4
ENDBRANCH   2   3
ENDBRANCH   1   2
BRANCH   1  30
ATOM     30  C   UNL A   1      42.335  19.406  25.792  1.00  0.00     0.188 C 
BRANCH  30  31
ATOM     31  O   UNL A   1      43.329  19.722  24.838  1.00  0.00    -0.376 OA
BRANCH  31  32
ATOM     32  C   UNL A   1      44.703  19.576  25.167  1.00  0.00     0.202 C 
BRANCH  32  33
ATOM     33  C   UNL A   1      45.711  20.737  25.146  1.00  0.00     0.261 C 
BRANCH  33  34
ATOM     34  O   UNL A   1      45.201  21.984  25.572  1.00  0.00    -0.460 OA
BRANCH  34  35
ATOM     35  C   UNL A   1      44.781  22.943  24.723  1.00  0.00     0.338 C 
ATOM     36  O   UNL A   1      44.808  22.969  23.527  1.00  0.00    -0.246 OA
BRANCH  35  37
ATOM     37  C   UNL A   1      43.990  23.746  25.677  1.00  0.00     0.060 A 
ATOM     38  C   UNL A   1      43.185  24.787  25.190  1.00  0.00     0.016 A 
ATOM     39  C   UNL A   1      44.514  23.760  26.976  1.00  0.00     0.016 A 
ATOM     40  C   UNL A   1      43.009  25.907  25.987  1.00  0.00     0.010 A 
ATOM     41  C   UNL A   1      44.374  24.902  27.748  1.00  0.00     0.010 A 
ATOM     42  C   UNL A   1      43.654  25.986  27.240  1.00  0.00    -0.014 A 
BRANCH  42  43
ATOM     43  C   UNL A   1      43.222  27.046  28.154  1.00  0.00     0.031 A 
ATOM     44  C   UNL A   1      44.247  28.121  28.090  1.00  0.00     0.074 A 
ATOM     45  C   UNL A   1      42.049  27.148  28.814  1.00  0.00     0.049 A 
ATOM     46  N   UNL A   1      45.087  28.462  29.008  1.00  0.00    -0.248 NA
ATOM     47  C   UNL A   1      44.587  28.633  26.740  1.00  0.00     0.031 C 
ATOM     48  C   UNL A   1      40.890  26.259  28.721  1.00  0.00     0.029 A 
ATOM     49  N   UNL A   1      41.590  28.139  29.639  1.00  0.00    -0.354 N 
ATOM     50  C   UNL A   1      45.890  29.420  28.399  1.00  0.00     0.074 A 
ATOM     51  C   UNL A   1      45.745  29.241  26.983  1.00  0.00     0.031 C 
ATOM     52  C   UNL A   1      39.803  26.867  29.251  1.00  0.00     0.029 A 
ATOM     53  C   UNL A   1      40.203  28.143  29.818  1.00  0.00     0.049 A 
ATOM     54  H   UNL A   1      42.186  28.793  30.070  1.00  0.00     0.167 HD
ATOM     55  C   UNL A   1      46.267  30.535  29.074  1.00  0.00     0.031 A 
ATOM     56  C   UNL A   1      39.439  29.152  30.320  1.00  0.00     0.031 A 
ATOM     57  C   UNL A   1      46.170  30.339  30.494  1.00  0.00     0.049 A 
ATOM     58  C   UNL A   1      40.344  30.039  31.082  1.00  0.00     0.074 A 
ATOM     59  C   UNL A   1      46.826  29.549  31.411  1.00  0.00     0.029 A 
ATOM     60  N   UNL A   1      44.956  30.687  31.034  1.00  0.00    -0.354 N 
ATOM     61  N   UNL A   1      40.963  29.673  32.170  1.00  0.00    -0.248 NA
ATOM     62  C   UNL A   1      40.882  31.219  30.420  1.00  0.00     0.031 C 
ATOM     63  C   UNL A   1      45.858  29.228  32.403  1.00  0.00     0.029 A 
ATOM     64  C   UNL A   1      44.663  29.891  32.110  1.00  0.00     0.049 A 
ATOM     65  H   UNL A   1      44.377  31.407  30.694  1.00  0.00     0.167 HD
ATOM     66  C   UNL A   1      42.200  30.285  32.082  1.00  0.00     0.074 A 
ATOM     67  C   UNL A   1      42.040  31.332  31.077  1.00  0.00     0.031 C 
ATOM     68  C   UNL A   1      43.311  29.692  32.604  1.00  0.00     0.031 A 
BRANCH  55  69
ATOM     69  C   UNL A   1      46.226  31.898  28.424  1.00  0.00    -0.014 A 
ATOM     70  C   UNL A   1      45.020  32.582  28.140  1.00  0.00     0.010 A 
ATOM     71  C   UNL A   1      47.413  32.637  28.292  1.00  0.00     0.010 A 
ATOM     72  C   UNL A   1      44.988  33.888  27.665  1.00  0.00     0.020 A 
ATOM     73  C   UNL A   1      47.392  33.973  27.860  1.00  0.00     0.020 A 
ATOM     74  C   UNL A   1      46.180  34.577  27.523  1.00  0.00     0.054 A 
BRANCH  74  75
ATOM     75  S   UNL A   1      46.090  36.278  26.924  1.00  0.00     0.124 S 
ATOM     76  O   UNL A   1      46.981  36.230  25.767  1.00  0.00    -0.237 OA
ATOM     77  O   UNL A   1      44.671  36.428  26.619  1.00  0.00    -0.237 OA
ATOM     78  O   UNL A   1      46.575  37.064  28.055  1.00  0.00    -0.744 OA
ENDBRANCH  74  75
ENDBRANCH  55  69
BRANCH  56  79
ATOM     79  C   UNL A   1      38.109  29.637  29.837  1.00  0.00    -0.014 A 
ATOM     80  C   UNL A   1      37.959  30.037  28.495  1.00  0.00     0.010 A 
ATOM     81  C   UNL A   1      37.103  30.034  30.747  1.00  0.00     0.010 A 
ATOM     82  C   UNL A   1      36.919  30.888  28.096  1.00  0.00     0.020 A 
ATOM     83  C   UNL A   1      36.054  30.890  30.353  1.00  0.00     0.020 A 
ATOM     84  C   UNL A   1      36.000  31.348  29.037  1.00  0.00     0.054 A 
BRANCH  84  85
ATOM     85  S   UNL A   1      34.820  32.634  28.523  1.00  0.00     0.124 S 
ATOM     86  O   UNL A   1      34.637  33.387  29.761  1.00  0.00    -0.237 OA
ATOM     87  O   UNL A   1      35.552  33.334  27.470  1.00  0.00    -0.237 OA
ATOM     88  O   UNL A   1      33.654  31.879  28.072  1.00  0.00    -0.744 OA
ENDBRANCH  84  85
ENDBRANCH  56  79
BRANCH  68  89
ATOM     89  C   UNL A   1      43.138  28.638  33.675  1.00  0.00    -0.014 A 
ATOM     90  C   UNL A   1      43.124  27.304  33.228  1.00  0.00     0.010 A 
ATOM     91  C   UNL A   1      42.825  28.898  35.023  1.00  0.00     0.010 A 
ATOM     92  C   UNL A   1      42.746  26.263  34.072  1.00  0.00     0.020 A 
ATOM     93  C   UNL A   1      42.473  27.846  35.890  1.00  0.00     0.020 A 
ATOM     94  C   UNL A   1      42.407  26.539  35.396  1.00  0.00     0.054 A 
BRANCH  94  95
ATOM     95  S   UNL A   1      41.852  25.153  36.426  1.00  0.00     0.124 S 
ATOM     96  O   UNL A   1      41.723  24.075  35.447  1.00  0.00    -0.237 OA
ATOM     97  O   UNL A   1      42.952  25.000  37.376  1.00  0.00    -0.237 OA
ATOM     98  O   UNL A   1      40.596  25.622  37.003  1.00  0.00    -0.744 OA
ENDBRANCH  94  95
ENDBRANCH  68  89
ENDBRANCH  42  43
ENDBRANCH  35  37
ENDBRANCH  34  35
ENDBRANCH  33  34
ENDBRANCH  32  33
ENDBRANCH  31  32
ENDBRANCH  30  31
ENDBRANCH   1  30
TORSDOF 26
ENDMDL
MODEL 2
REMARK VINA RESULT:      -8.9      1.488      2.022
REMARK SMILES CCc1cccc2c3c([nH]c12)[C@](CC)(CC(=O)OCCOCCOCCOCCOC(=O)c1ccc(-c2c4nc(c(-c5ccc(S(=O)(=O)[O-])cc5)c5ccc([nH]5)c(-c5ccc(S(=O)(=O)[O-])cc5)c5nc(c(-c6ccc(S(=O)(=O)[O-])cc6)c6ccc2[nH]6)C=C5)C=C4)cc1)OCC3
REMARK SMILES IDX 25 1 24 2 23 3 22 4 21 5 20 6 19 7 18 8 16 9 17 10 15 11
REMARK SMILES IDX 12 12 3 13 4 14 11 15 5 16 7 17 10 18 6 19 8 20 9 21 95 23
REMARK SMILES IDX 94 24 93 25 2 26 1 27 13 28 14 29 26 30 27 31 28 32 29 33
REMARK SMILES IDX 30 34 31 35 32 36 33 37 34 38 92 39 35 40 91 41 36 42 37 43
REMARK SMILES IDX 38 44 85 45 39 46 90 47 84 48 86 49 40 50 89 51 83 52 82 53
REMARK SMILES IDX 41 55 71 56 52 57 70 58 53 59 56 60 69 61 87 62 54 63 55 64
REMARK SMILES IDX 68 66 88 67 57 68 42 69 43 70 51 71 44 72 50 73 45 74 46 75
REMARK SMILES IDX 47 76 48 77 49 78 72 79 73 80 81 81 74 82 80 83 75 84 76 85
REMARK SMILES IDX 77 86 78 87 79 88 58 89 59 90 67 91 60 92 66 93 61 94 62 95
REMARK SMILES IDX 63 96 64 97 65 98
REMARK H PARENT 10 22 86 54 56 65
REMARK Flexibility Score: inf
ROOT
ATOM      1  C   UNL A   1      41.193  19.729  26.868  1.00  0.00     0.188 C 
ENDROOT
BRANCH   1   2
ATOM      2  O   UNL A   1      40.557  20.879  26.390  1.00  0.00    -0.377 OA
BRANCH   2   3
ATOM      3  C   UNL A   1      40.273  21.955  27.242  1.00  0.00     0.188 C 
BRANCH   3   4
ATOM      4  C   UNL A   1      39.409  23.046  26.609  1.00  0.00     0.188 C 
BRANCH   4   5
ATOM      5  O   UNL A   1      38.055  22.811  26.224  1.00  0.00    -0.376 OA
BRANCH   5   6
ATOM      6  C   UNL A   1      37.731  22.592  24.858  1.00  0.00     0.202 C 
BRANCH   6   7
ATOM      7  C   UNL A   1      36.287  22.099  24.567  1.00  0.00     0.261 C 
BRANCH   7   8
ATOM      8  O   UNL A   1      35.946  20.727  24.923  1.00  0.00    -0.463 OA
BRANCH   8   9
ATOM      9  C   UNL A   1      34.628  20.453  25.037  1.00  0.00     0.309 C 
ATOM     10  O   UNL A   1      34.119  19.388  24.685  1.00  0.00    -0.252 OA
BRANCH   9  11
ATOM     11  C   UNL A   1      33.721  21.592  25.481  1.00  0.00     0.164 C 
BRANCH  11  12
ATOM     12  C   UNL A   1      32.651  22.467  24.767  1.00  0.00     0.118 C 
ATOM     13  C   UNL A   1      33.796  27.475  24.910  1.00  0.00    -0.024 A 
ATOM     14  C   UNL A   1      34.080  28.380  23.864  1.00  0.00     0.006 A 
ATOM     15  C   UNL A   1      33.423  26.162  24.509  1.00  0.00     0.049 A 
ATOM     16  C   UNL A   1      33.710  28.122  22.556  1.00  0.00     0.001 A 
ATOM     17  C   UNL A   1      33.099  25.861  23.183  1.00  0.00     0.003 A 
ATOM     18  N   UNL A   1      33.248  24.982  25.229  1.00  0.00    -0.356 N 
ATOM     19  C   UNL A   1      33.101  26.911  22.240  1.00  0.00     0.010 A 
ATOM     20  C   UNL A   1      32.829  24.461  23.116  1.00  0.00    -0.014 A 
ATOM     21  C   UNL A   1      32.951  23.926  24.388  1.00  0.00     0.052 A 
ATOM     22  H   UNL A   1      33.325  24.910  26.208  1.00  0.00     0.166 HD
ATOM     23  C   UNL A   1      32.489  23.590  21.957  1.00  0.00     0.066 C 
ATOM     24  C   UNL A   1      32.641  22.109  22.338  1.00  0.00     0.166 C 
ATOM     25  O   UNL A   1      32.070  21.810  23.613  1.00  0.00    -0.368 OA
BRANCH  13  26
ATOM     26  C   UNL A   1      33.817  27.942  26.350  1.00  0.00     0.034 C 
ATOM     27  C   UNL A   1      33.846  29.459  26.562  1.00  0.00     0.009 C 
ENDBRANCH  13  26
BRANCH  12  28
ATOM     28  C   UNL A   1      31.430  22.549  25.759  1.00  0.00     0.039 C 
ATOM     29  C   UNL A   1      31.783  22.945  27.192  1.00  0.00     0.007 C 
ENDBRANCH  12  28
ENDBRANCH  11  12
ENDBRANCH   9  11
ENDBRANCH   8   9
ENDBRANCH   7   8
ENDBRANCH   6   7
ENDBRANCH   5   6
ENDBRANCH   4   5
ENDBRANCH   3   4
ENDBRANCH   2   3
ENDBRANCH   1   2
BRANCH   1  30
ATOM     30  C   UNL A   1      41.746  18.766  25.825  1.00  0.00     0.188 C 
BRANCH  30  31
ATOM     31  O   UNL A   1      42.858  19.297  25.132  1.00  0.00    -0.376 OA
BRANCH  31  32
ATOM     32  C   UNL A   1      43.926  19.894  25.852  1.00  0.00     0.202 C 
BRANCH  32  33
ATOM     33  C   UNL A   1      45.060  20.690  25.186  1.00  0.00     0.261 C 
BRANCH  33  34
ATOM     34  O   UNL A   1      44.962  22.094  25.308  1.00  0.00    -0.460 OA
BRANCH  34  35
ATOM     35  C   UNL A   1      44.207  22.859  24.496  1.00  0.00     0.338 C 
ATOM     36  O   UNL A   1      43.435  22.534  23.641  1.00  0.00    -0.246 OA
BRANCH  35  37
ATOM     37  C   UNL A   1      44.356  24.145  25.208  1.00  0.00     0.060 A 
ATOM     38  C   UNL A   1      45.036  24.170  26.434  1.00  0.00     0.016 A 
ATOM     39  C   UNL A   1      43.370  25.087  24.887  1.00  0.00     0.016 A 
ATOM     40  C   UNL A   1      44.630  25.088  27.390  1.00  0.00     0.010 A 
ATOM     41  C   UNL A   1      42.936  25.969  25.863  1.00  0.00     0.010 A 
ATOM     42  C   UNL A   1      43.540  25.945  27.122  1.00  0.00    -0.014 A 
BRANCH  42  43
ATOM     43  C   UNL A   1      43.328  27.070  28.036  1.00  0.00     0.031 A 
ATOM     44  C   UNL A   1      44.577  27.876  28.031  1.00  0.00     0.074 A 
ATOM     45  C   UNL A   1      42.183  27.437  28.651  1.00  0.00     0.049 A 
ATOM     46  N   UNL A   1      45.433  28.005  28.989  1.00  0.00    -0.248 NA
ATOM     47  C   UNL A   1      45.084  28.305  26.706  1.00  0.00     0.031 C 
ATOM     48  C   UNL A   1      40.854  26.844  28.496  1.00  0.00     0.029 A 
ATOM     49  N   UNL A   1      41.933  28.502  29.474  1.00  0.00    -0.354 N 
ATOM     50  C   UNL A   1      46.461  28.753  28.428  1.00  0.00     0.074 A 
ATOM     51  C   UNL A   1      46.340  28.624  27.005  1.00  0.00     0.031 C 
ATOM     52  C   UNL A   1      39.917  27.685  28.993  1.00  0.00     0.029 A 
ATOM     53  C   UNL A   1      40.579  28.828  29.597  1.00  0.00     0.049 A 
ATOM     54  H   UNL A   1      42.646  28.996  29.940  1.00  0.00     0.167 HD
ATOM     55  C   UNL A   1      47.059  29.745  29.138  1.00  0.00     0.031 A 
ATOM     56  C   UNL A   1      40.050  29.983  30.087  1.00  0.00     0.031 A 
ATOM     57  C   UNL A   1      46.859  29.566  30.548  1.00  0.00     0.049 A 
ATOM     58  C   UNL A   1      41.103  30.629  30.899  1.00  0.00     0.074 A 
ATOM     59  C   UNL A   1      47.272  28.638  31.477  1.00  0.00     0.029 A 
ATOM     60  N   UNL A   1      45.737  30.184  31.045  1.00  0.00    -0.354 N 
ATOM     61  N   UNL A   1      41.572  30.120  32.004  1.00  0.00    -0.248 NA
ATOM     62  C   UNL A   1      41.929  31.656  30.280  1.00  0.00     0.031 C 
ATOM     63  C   UNL A   1      46.215  28.544  32.424  1.00  0.00     0.029 A 
ATOM     64  C   UNL A   1      45.221  29.470  32.096  1.00  0.00     0.049 A 
ATOM     65  H   UNL A   1      45.357  31.022  30.696  1.00  0.00     0.167 HD
ATOM     66  C   UNL A   1      42.921  30.428  31.976  1.00  0.00     0.074 A 
ATOM     67  C   UNL A   1      43.052  31.491  30.984  1.00  0.00     0.031 C 
ATOM     68  C   UNL A   1      43.840  29.587  32.532  1.00  0.00     0.031 A 
BRANCH  55  69
ATOM     69  C   UNL A   1      47.364  31.085  28.510  1.00  0.00    -0.014 A 
ATOM     70  C   UNL A   1      48.461  31.301  27.643  1.00  0.00     0.010 A 
ATOM     71  C   UNL A   1      46.414  32.116  28.590  1.00  0.00     0.010 A 
ATOM     72  C   UNL A   1      48.661  32.497  26.964  1.00  0.00     0.020 A 
ATOM     73  C   UNL A   1      46.578  33.312  27.871  1.00  0.00     0.020 A 
ATOM     74  C   UNL A   1      47.716  33.502  27.086  1.00  0.00     0.054 A 
BRANCH  74  75
ATOM     75  S   UNL A   1      48.005  35.030  26.170  1.00  0.00     0.124 S 
ATOM     76  O   UNL A   1      48.235  35.984  27.253  1.00  0.00    -0.237 OA
ATOM     77  O   UNL A   1      49.177  34.696  25.367  1.00  0.00    -0.237 OA
ATOM     78  O   UNL A   1      46.766  35.219  25.422  1.00  0.00    -0.744 OA
ENDBRANCH  74  75
ENDBRANCH  55  69
BRANCH  56  79
ATOM     79  C   UNL A   1      38.891  30.769  29.559  1.00  0.00    -0.014 A 
ATOM     80  C   UNL A   1      38.729  32.114  29.945  1.00  0.00     0.010 A 
ATOM     81  C   UNL A   1      37.777  30.125  28.976  1.00  0.00     0.010 A 
ATOM     82  C   UNL A   1      37.485  32.756  29.861  1.00  0.00     0.020 A 
ATOM     83  C   UNL A   1      36.523  30.763  28.888  1.00  0.00     0.020 A 
ATOM     84  C   UNL A   1      36.378  32.061  29.377  1.00  0.00     0.054 A 
BRANCH  84  85
ATOM     85  S   UNL A   1      34.745  32.851  29.513  1.00  0.00     0.124 S 
ATOM     86  O   UNL A   1      33.943  32.044  28.597  1.00  0.00    -0.237 OA
ATOM     87  O   UNL A   1      34.429  32.686  30.930  1.00  0.00    -0.237 OA
ATOM     88  O   UNL A   1      34.986  34.227  29.087  1.00  0.00    -0.744 OA
ENDBRANCH  84  85
ENDBRANCH  56  79
BRANCH  68  89
ATOM     89  C   UNL A   1      43.380  28.595  33.576  1.00  0.00    -0.014 A 
ATOM     90  C   UNL A   1      43.338  29.070  34.900  1.00  0.00     0.010 A 
ATOM     91  C   UNL A   1      43.165  27.222  33.348  1.00  0.00     0.010 A 
ATOM     92  C   UNL A   1      43.155  28.203  35.974  1.00  0.00     0.020 A 
ATOM     93  C   UNL A   1      42.948  26.345  34.428  1.00  0.00     0.020 A 
ATOM     94  C   UNL A   1      42.977  26.841  35.735  1.00  0.00     0.054 A 
BRANCH  94  95
ATOM     95  S   UNL A   1      42.817  25.751  37.176  1.00  0.00     0.124 S 
ATOM     96  O   UNL A   1      43.804  24.713  36.888  1.00  0.00    -0.237 OA
ATOM     97  O   UNL A   1      43.156  26.638  38.287  1.00  0.00    -0.237 OA
ATOM     98  O   UNL A   1      41.425  25.313  37.136  1.00  0.00    -0.744 OA
ENDBRANCH  94  95
ENDBRANCH  68  89
ENDBRANCH  42  43
ENDBRANCH  35  37
ENDBRANCH  34  35
ENDBRANCH  33  34
ENDBRANCH  32  33
ENDBRANCH  31  32
ENDBRANCH  30  31
ENDBRANCH   1  30
TORSDOF 26
ENDMDL
MODEL 3
REMARK VINA RESULT:      -8.5      2.270      9.799
REMARK SMILES CCc1cccc2c3c([nH]c12)[C@](CC)(CC(=O)OCCOCCOCCOCCOC(=O)c1ccc(-c2c4nc(c(-c5ccc(S(=O)(=O)[O-])cc5)c5ccc([nH]5)c(-c5ccc(S(=O)(=O)[O-])cc5)c5nc(c(-c6ccc(S(=O)(=O)[O-])cc6)c6ccc2[nH]6)C=C5)C=C4)cc1)OCC3
REMARK SMILES IDX 25 1 24 2 23 3 22 4 21 5 20 6 19 7 18 8 16 9 17 10 15 11
REMARK SMILES IDX 12 12 3 13 4 14 11 15 5 16 7 17 10 18 6 19 8 20 9 21 95 23
REMARK SMILES IDX 94 24 93 25 2 26 1 27 13 28 14 29 26 30 27 31 28 32 29 33
REMARK SMILES IDX 30 34 31 35 32 36 33 37 34 38 92 39 35 40 91 41 36 42 37 43
REMARK SMILES IDX 38 44 85 45 39 46 90 47 84 48 86 49 40 50 89 51 83 52 82 53
REMARK SMILES IDX 41 55 71 56 52 57 70 58 53 59 56 60 69 61 87 62 54 63 55 64
REMARK SMILES IDX 68 66 88 67 57 68 42 69 43 70 51 71 44 72 50 73 45 74 46 75
REMARK SMILES IDX 47 76 48 77 49 78 72 79 73 80 81 81 74 82 80 83 75 84 76 85
REMARK SMILES IDX 77 86 78 87 79 88 58 89 59 90 67 91 60 92 66 93 61 94 62 95
REMARK SMILES IDX 63 96 64 97 65 98
REMARK H PARENT 10 22 86 54 56 65
REMARK Flexibility Score: inf
ROOT
ATOM      1  C   UNL A   1      33.173  29.244  24.651  1.00  0.00     0.188 C 
ENDROOT
BRANCH   1   2
ATOM      2  O   UNL A   1      32.783  28.238  23.763  1.00  0.00    -0.377 OA
BRANCH   2   3
ATOM      3  C   UNL A   1      31.433  27.898  23.604  1.00  0.00     0.188 C 
BRANCH   3   4
ATOM      4  C   UNL A   1      30.718  27.539  24.906  1.00  0.00     0.188 C 
BRANCH   4   5
ATOM      5  O   UNL A   1      31.296  26.658  25.869  1.00  0.00    -0.376 OA
BRANCH   5   6
ATOM      6  C   UNL A   1      32.618  26.173  25.686  1.00  0.00     0.202 C 
BRANCH   6   7
ATOM      7  C   UNL A   1      32.981  24.869  26.448  1.00  0.00     0.261 C 
BRANCH   7   8
ATOM      8  O   UNL A   1      31.908  24.140  27.111  1.00  0.00    -0.463 OA
BRANCH   8   9
ATOM      9  C   UNL A   1      32.072  22.804  27.215  1.00  0.00     0.309 C 
ATOM     10  O   UNL A   1      32.513  22.245  28.220  1.00  0.00    -0.252 OA
BRANCH   9  11
ATOM     11  C   UNL A   1      31.841  21.979  25.955  1.00  0.00     0.164 C 
BRANCH  11  12
ATOM     12  C   UNL A   1      32.762  21.463  24.814  1.00  0.00     0.118 C 
ATOM     13  C   UNL A   1      37.722  22.502  25.670  1.00  0.00    -0.024 A 
ATOM     14  C   UNL A   1      38.819  21.635  25.866  1.00  0.00     0.006 A 
ATOM     15  C   UNL A   1      36.483  21.873  25.361  1.00  0.00     0.049 A 
ATOM     16  C   UNL A   1      38.781  20.311  25.470  1.00  0.00     0.001 A 
ATOM     17  C   UNL A   1      36.410  20.522  25.012  1.00  0.00     0.003 A 
ATOM     18  N   UNL A   1      35.182  22.367  25.278  1.00  0.00    -0.356 N 
ATOM     19  C   UNL A   1      37.612  19.789  24.923  1.00  0.00     0.010 A 
ATOM     20  C   UNL A   1      35.031  20.203  24.822  1.00  0.00    -0.014 A 
ATOM     21  C   UNL A   1      34.281  21.352  25.016  1.00  0.00     0.052 A 
ATOM     22  H   UNL A   1      34.938  23.314  25.392  1.00  0.00     0.166 HD
ATOM     23  C   UNL A   1      34.368  18.912  24.496  1.00  0.00     0.066 C 
ATOM     24  C   UNL A   1      32.854  19.010  24.746  1.00  0.00     0.166 C 
ATOM     25  O   UNL A   1      32.292  20.220  24.235  1.00  0.00    -0.368 OA
BRANCH  13  26
ATOM     26  C   UNL A   1      37.918  24.002  25.710  1.00  0.00     0.034 C 
ATOM     27  C   UNL A   1      38.652  24.549  26.939  1.00  0.00     0.009 C 
ENDBRANCH  13  26
BRANCH  12  28
ATOM     28  C   UNL A   1      32.584  22.478  23.624  1.00  0.00     0.039 C 
ATOM     29  C   UNL A   1      31.236  23.195  23.577  1.00  0.00     0.007 C 
ENDBRANCH  12  28
ENDBRANCH  11  12
ENDBRANCH   9  11
ENDBRANCH   8   9
ENDBRANCH   7   8
ENDBRANCH   6   7
ENDBRANCH   5   6
ENDBRANCH   4   5
ENDBRANCH   3   4
ENDBRANCH   2   3
ENDBRANCH   1   2
BRANCH   1  30
ATOM     30  C   UNL A   1      32.069  30.131  25.215  1.00  0.00     0.188 C 
BRANCH  30  31
ATOM     31  O   UNL A   1      32.142  30.261  26.620  1.00  0.00    -0.376 OA
BRANCH  31  32
ATOM     32  C   UNL A   1      33.402  30.229  27.273  1.00  0.00     0.202 C 
BRANCH  32  33
ATOM     33  C   UNL A   1      34.144  31.488  27.751  1.00  0.00     0.261 C 
BRANCH  33  34
ATOM     34  O   UNL A   1      33.777  31.952  29.034  1.00  0.00    -0.460 OA
BRANCH  34  35
ATOM     35  C   UNL A   1      34.656  32.464  29.917  1.00  0.00     0.338 C 
ATOM     36  O   UNL A   1      34.457  33.048  30.943  1.00  0.00    -0.246 OA
BRANCH  35  37
ATOM     37  C   UNL A   1      35.876  31.791  29.425  1.00  0.00     0.060 A 
ATOM     38  C   UNL A   1      36.068  30.431  29.715  1.00  0.00     0.016 A 
ATOM     39  C   UNL A   1      36.950  32.660  29.199  1.00  0.00     0.016 A 
ATOM     40  C   UNL A   1      37.365  29.976  29.892  1.00  0.00     0.010 A 
ATOM     41  C   UNL A   1      38.241  32.210  29.426  1.00  0.00     0.010 A 
ATOM     42  C   UNL A   1      38.445  30.882  29.807  1.00  0.00    -0.014 A 
BRANCH  42  43
ATOM     43  C   UNL A   1      39.793  30.315  29.726  1.00  0.00     0.031 A 
ATOM     44  C   UNL A   1      40.316  30.234  31.115  1.00  0.00     0.074 A 
ATOM     45  C   UNL A   1      40.413  29.797  28.644  1.00  0.00     0.049 A 
ATOM     46  N   UNL A   1      41.264  30.935  31.641  1.00  0.00    -0.248 NA
ATOM     47  C   UNL A   1      39.462  29.535  32.105  1.00  0.00     0.031 C 
ATOM     48  C   UNL A   1      39.861  29.606  27.302  1.00  0.00     0.029 A 
ATOM     49  N   UNL A   1      41.650  29.220  28.535  1.00  0.00    -0.354 N 
ATOM     50  C   UNL A   1      41.268  30.555  32.977  1.00  0.00     0.074 A 
ATOM     51  C   UNL A   1      39.985  29.971  33.246  1.00  0.00     0.031 C 
ATOM     52  C   UNL A   1      40.648  28.757  26.600  1.00  0.00     0.029 A 
ATOM     53  C   UNL A   1      41.815  28.424  27.397  1.00  0.00     0.049 A 
ATOM     54  H   UNL A   1      42.362  29.355  29.201  1.00  0.00     0.167 HD
ATOM     55  C   UNL A   1      42.439  30.359  33.636  1.00  0.00     0.031 A 
ATOM     56  C   UNL A   1      42.794  27.506  27.168  1.00  0.00     0.031 A 
ATOM     57  C   UNL A   1      43.523  31.035  32.979  1.00  0.00     0.049 A 
ATOM     58  C   UNL A   1      43.908  27.826  28.087  1.00  0.00     0.074 A 
ATOM     59  C   UNL A   1      43.854  32.353  32.762  1.00  0.00     0.029 A 
ATOM     60  N   UNL A   1      44.176  30.279  32.037  1.00  0.00    -0.354 N 
ATOM     61  N   UNL A   1      44.614  28.919  28.008  1.00  0.00    -0.248 NA
ATOM     62  C   UNL A   1      43.992  27.113  29.354  1.00  0.00     0.031 C 
ATOM     63  C   UNL A   1      44.519  32.380  31.505  1.00  0.00     0.029 A 
ATOM     64  C   UNL A   1      44.647  31.075  31.025  1.00  0.00     0.049 A 
ATOM     65  H   UNL A   1      44.291  29.302  32.082  1.00  0.00     0.167 HD
ATOM     66  C   UNL A   1      44.862  29.261  29.326  1.00  0.00     0.074 A 
ATOM     67  C   UNL A   1      44.593  28.049  30.094  1.00  0.00     0.031 C 
ATOM     68  C   UNL A   1      44.965  30.568  29.700  1.00  0.00     0.031 A 
BRANCH  55  69
ATOM     69  C   UNL A   1      42.638  29.168  34.545  1.00  0.00    -0.014 A 
ATOM     70  C   UNL A   1      43.087  29.283  35.881  1.00  0.00     0.010 A 
ATOM     71  C   UNL A   1      42.153  27.910  34.151  1.00  0.00     0.010 A 
ATOM     72  C   UNL A   1      43.143  28.202  36.753  1.00  0.00     0.020 A 
ATOM     73  C   UNL A   1      42.157  26.821  35.037  1.00  0.00     0.020 A 
ATOM     74  C   UNL A   1      42.679  26.970  36.322  1.00  0.00     0.054 A 
BRANCH  74  75
ATOM     75  S   UNL A   1      42.749  25.599  37.495  1.00  0.00     0.124 S 
ATOM     76  O   UNL A   1      43.670  24.685  36.824  1.00  0.00    -0.237 OA
ATOM     77  O   UNL A   1      43.267  26.243  38.698  1.00  0.00    -0.237 OA
ATOM     78  O   UNL A   1      41.363  25.147  37.574  1.00  0.00    -0.744 OA
ENDBRANCH  74  75
ENDBRANCH  55  69
BRANCH  56  79
ATOM     79  C   UNL A   1      42.667  26.148  26.553  1.00  0.00    -0.014 A 
ATOM     80  C   UNL A   1      42.299  25.051  27.356  1.00  0.00     0.010 A 
ATOM     81  C   UNL A   1      43.232  25.864  25.289  1.00  0.00     0.010 A 
ATOM     82  C   UNL A   1      42.584  23.734  26.971  1.00  0.00     0.020 A 
ATOM     83  C   UNL A   1      43.522  24.542  24.895  1.00  0.00     0.020 A 
ATOM     84  C   UNL A   1      43.237  23.489  25.764  1.00  0.00     0.054 A 
BRANCH  84  85
ATOM     85  S   UNL A   1      43.799  21.793  25.423  1.00  0.00     0.124 S 
ATOM     86  O   UNL A   1      43.992  21.825  23.975  1.00  0.00    -0.237 OA
ATOM     87  O   UNL A   1      45.024  21.700  26.213  1.00  0.00    -0.237 OA
ATOM     88  O   UNL A   1      42.695  20.958  25.888  1.00  0.00    -0.744 OA
ENDBRANCH  84  85
ENDBRANCH  56  79
BRANCH  68  89
ATOM     89  C   UNL A   1      45.289  31.603  28.647  1.00  0.00    -0.014 A 
ATOM     90  C   UNL A   1      44.369  32.660  28.520  1.00  0.00     0.010 A 
ATOM     91  C   UNL A   1      46.322  31.494  27.696  1.00  0.00     0.010 A 
ATOM     92  C   UNL A   1      44.427  33.545  27.446  1.00  0.00     0.020 A 
ATOM     93  C   UNL A   1      46.405  32.405  26.625  1.00  0.00     0.020 A 
ATOM     94  C   UNL A   1      45.436  33.404  26.494  1.00  0.00     0.054 A 
BRANCH  94  95
ATOM     95  S   UNL A   1      45.417  34.540  25.080  1.00  0.00     0.124 S 
ATOM     96  O   UNL A   1      44.820  33.716  24.031  1.00  0.00    -0.237 OA
ATOM     97  O   UNL A   1      44.579  35.636  25.561  1.00  0.00    -0.237 OA
ATOM     98  O   UNL A   1      46.824  34.878  24.879  1.00  0.00    -0.744 OA
ENDBRANCH  94  95
ENDBRANCH  68  89
ENDBRANCH  42  43
ENDBRANCH  35  37
ENDBRANCH  34  35
ENDBRANCH  33  34
ENDBRANCH  32  33
ENDBRANCH  31  32
ENDBRANCH  30  31
ENDBRANCH   1  30
TORSDOF 26
ENDMDL
