MODEL 1
REMARK VINA RESULT:      -7.8      0.000      0.000
REMARK SMILES C[C@@H](C(=O)OCCOCCOCCOCCOC(=O)c1ccc(-c2c3nc(c(-c4ccc(S(=O)(=O)[O-])cc4)c4ccc([nH]4)c(-c4ccc(S(=O)(=O)[O-])cc4)c4nc(c(-c5ccc(S(=O)(=O)[O-])cc5)c5ccc2[nH]5)C=C4)C=C3)cc1)c1cc(/C=C/S(C)(=O)=O)cc(C(=O)c2ccccc2)c1
REMARK SMILES IDX 11 1 10 2 9 3 8 4 7 5 6 6 5 7 3 8 4 9 2 10 1 11 80 12 81 13
REMARK SMILES IDX 99 14 82 15 90 16 89 17 83 18 84 19 85 20 86 21 87 22 88 23
REMARK SMILES IDX 91 24 92 25 93 26 94 27 98 28 95 29 97 30 96 31 12 32 13 33
REMARK SMILES IDX 14 34 15 35 16 36 17 37 18 38 19 39 20 40 21 41 79 42 22 43
REMARK SMILES IDX 78 44 23 45 24 46 25 47 72 48 26 49 77 50 71 51 73 52 27 53
REMARK SMILES IDX 76 54 70 55 69 56 28 58 58 59 39 60 57 61 40 62 43 63 56 64
REMARK SMILES IDX 74 65 41 66 42 67 55 69 75 70 44 71 29 72 30 73 38 74 31 75
REMARK SMILES IDX 37 76 32 77 33 78 34 79 35 80 36 81 59 82 60 83 68 84 61 85
REMARK SMILES IDX 67 86 62 87 63 88 64 89 65 90 66 91 45 92 46 93 54 94 47 95
REMARK SMILES IDX 53 96 48 97 49 98 50 99 51 100 52 101
REMARK H PARENT 73 57 43 68
REMARK Flexibility Score: inf
ROOT
ATOM      1  O   UNL A   1      32.567  31.362  27.900  1.00  0.00    -0.377 OA
ENDROOT
BRANCH   1   2
ATOM      2  C   UNL A   1      33.556  32.219  27.376  1.00  0.00     0.188 C 
BRANCH   2   3
ATOM      3  C   UNL A   1      33.649  33.604  28.040  1.00  0.00     0.188 C 
BRANCH   3   4
ATOM      4  O   UNL A   1      33.418  33.746  29.431  1.00  0.00    -0.376 OA
BRANCH   4   5
ATOM      5  C   UNL A   1      33.976  34.840  30.148  1.00  0.00     0.202 C 
BRANCH   5   6
ATOM      6  C   UNL A   1      34.354  34.762  31.643  1.00  0.00     0.261 C 
BRANCH   6   7
ATOM      7  O   UNL A   1      35.156  33.638  32.051  1.00  0.00    -0.463 OA
BRANCH   7   8
ATOM      8  C   UNL A   1      35.718  33.706  33.279  1.00  0.00     0.313 C 
ATOM      9  O   UNL A   1      35.162  33.306  34.298  1.00  0.00    -0.252 OA
BRANCH   8  10
ATOM     10  C   UNL A   1      37.180  34.231  33.287  1.00  0.00     0.126 C 
ATOM     11  C   UNL A   1      37.821  34.507  31.923  1.00  0.00     0.025 C 
BRANCH  10  12
ATOM     12  C   UNL A   1      38.011  33.448  34.319  1.00  0.00    -0.033 A 
ATOM     13  C   UNL A   1      37.715  33.276  35.687  1.00  0.00     0.012 A 
ATOM     14  C   UNL A   1      39.251  32.977  33.860  1.00  0.00     0.016 A 
ATOM     15  C   UNL A   1      38.665  32.736  36.584  1.00  0.00    -0.024 A 
ATOM     16  C   UNL A   1      40.217  32.472  34.727  1.00  0.00     0.023 A 
ATOM     17  C   UNL A   1      39.917  32.338  36.083  1.00  0.00     0.020 A 
BRANCH  15  18
ATOM     18  C   UNL A   1      38.443  32.567  38.038  1.00  0.00     0.020 C 
ATOM     19  C   UNL A   1      37.266  32.445  38.672  1.00  0.00     0.106 C 
BRANCH  19  20
ATOM     20  S   UNL A   1      37.243  32.261  40.408  1.00  0.00     0.168 S 
ATOM     21  C   UNL A   1      35.619  31.608  40.698  1.00  0.00     0.163 C 
ATOM     22  O   UNL A   1      38.188  31.219  40.765  1.00  0.00    -0.225 OA
ATOM     23  O   UNL A   1      37.297  33.558  41.059  1.00  0.00    -0.225 OA
ENDBRANCH  19  20
ENDBRANCH  15  18
BRANCH  16  24
ATOM     24  C   UNL A   1      41.566  32.098  34.215  1.00  0.00     0.193 C 
ATOM     25  O   UNL A   1      42.523  32.848  34.367  1.00  0.00    -0.289 OA
BRANCH  24  26
ATOM     26  C   UNL A   1      41.762  30.784  33.557  1.00  0.00     0.022 A 
ATOM     27  C   UNL A   1      42.829  30.637  32.666  1.00  0.00     0.012 A 
ATOM     28  C   UNL A   1      40.960  29.685  33.890  1.00  0.00     0.012 A 
ATOM     29  C   UNL A   1      43.118  29.376  32.141  1.00  0.00     0.001 A 
ATOM     30  C   UNL A   1      41.257  28.428  33.363  1.00  0.00     0.001 A 
ATOM     31  C   UNL A   1      42.338  28.273  32.495  1.00  0.00     0.000 A 
ENDBRANCH  24  26
ENDBRANCH  16  24
ENDBRANCH  10  12
ENDBRANCH   8  10
ENDBRANCH   7   8
ENDBRANCH   6   7
ENDBRANCH   5   6
ENDBRANCH   4   5
ENDBRANCH   3   4
ENDBRANCH   2   3
ENDBRANCH   1   2
BRANCH   1  32
ATOM     32  C   UNL A   1      32.175  30.248  27.115  1.00  0.00     0.188 C 
BRANCH  32  33
ATOM     33  C   UNL A   1      32.865  30.024  25.757  1.00  0.00     0.188 C 
BRANCH  33  34
ATOM     34  O   UNL A   1      33.852  28.997  25.763  1.00  0.00    -0.376 OA
BRANCH  34  35
ATOM     35  C   UNL A   1      34.448  28.647  27.003  1.00  0.00     0.202 C 
BRANCH  35  36
ATOM     36  C   UNL A   1      35.628  29.509  27.485  1.00  0.00     0.261 C 
BRANCH  36  37
ATOM     37  O   UNL A   1      36.064  29.299  28.836  1.00  0.00    -0.460 OA
BRANCH  37  38
ATOM     38  C   UNL A   1      37.000  30.135  29.333  1.00  0.00     0.338 C 
ATOM     39  O   UNL A   1      36.815  31.060  30.106  1.00  0.00    -0.246 OA
BRANCH  38  40
ATOM     40  C   UNL A   1      38.327  29.609  28.952  1.00  0.00     0.060 A 
ATOM     41  C   UNL A   1      39.184  29.147  29.958  1.00  0.00     0.016 A 
ATOM     42  C   UNL A   1      38.718  29.563  27.611  1.00  0.00     0.016 A 
ATOM     43  C   UNL A   1      40.455  28.675  29.631  1.00  0.00     0.010 A 
ATOM     44  C   UNL A   1      40.000  29.113  27.287  1.00  0.00     0.010 A 
ATOM     45  C   UNL A   1      40.888  28.702  28.299  1.00  0.00    -0.014 A 
BRANCH  45  46
ATOM     46  C   UNL A   1      42.325  28.509  27.989  1.00  0.00     0.031 A 
ATOM     47  C   UNL A   1      43.263  29.663  28.223  1.00  0.00     0.074 A 
ATOM     48  C   UNL A   1      42.797  27.334  27.534  1.00  0.00     0.049 A 
ATOM     49  N   UNL A   1      44.545  29.753  27.984  1.00  0.00    -0.248 NA
ATOM     50  C   UNL A   1      42.670  30.881  28.801  1.00  0.00     0.031 C 
ATOM     51  C   UNL A   1      42.002  26.127  27.316  1.00  0.00     0.029 A 
ATOM     52  N   UNL A   1      44.069  26.970  27.168  1.00  0.00    -0.354 N 
ATOM     53  C   UNL A   1      44.911  31.036  28.375  1.00  0.00     0.074 A 
ATOM     54  C   UNL A   1      43.710  31.700  28.833  1.00  0.00     0.031 C 
ATOM     55  C   UNL A   1      42.803  25.158  26.841  1.00  0.00     0.029 A 
ATOM     56  C   UNL A   1      44.158  25.686  26.686  1.00  0.00     0.049 A 
ATOM     57  H   UNL A   1      44.844  27.572  27.243  1.00  0.00     0.167 HD
ATOM     58  C   UNL A   1      46.137  31.610  28.359  1.00  0.00     0.031 A 
ATOM     59  C   UNL A   1      45.208  25.023  26.157  1.00  0.00     0.031 A 
ATOM     60  C   UNL A   1      47.325  30.954  27.883  1.00  0.00     0.049 A 
ATOM     61  C   UNL A   1      46.547  25.711  26.068  1.00  0.00     0.074 A 
ATOM     62  C   UNL A   1      48.616  31.447  27.830  1.00  0.00     0.029 A 
ATOM     63  N   UNL A   1      47.365  29.666  27.368  1.00  0.00    -0.354 N 
ATOM     64  N   UNL A   1      46.882  26.918  26.459  1.00  0.00    -0.248 NA
ATOM     65  C   UNL A   1      47.651  24.943  25.475  1.00  0.00     0.031 C 
ATOM     66  C   UNL A   1      49.426  30.482  27.222  1.00  0.00     0.029 A 
ATOM     67  C   UNL A   1      48.654  29.358  26.968  1.00  0.00     0.049 A 
ATOM     68  H   UNL A   1      46.592  29.061  27.299  1.00  0.00     0.167 HD
ATOM     69  C   UNL A   1      48.242  27.042  26.186  1.00  0.00     0.074 A 
ATOM     70  C   UNL A   1      48.668  25.782  25.612  1.00  0.00     0.031 C 
ATOM     71  C   UNL A   1      49.065  28.100  26.397  1.00  0.00     0.031 A 
BRANCH  58  72
ATOM     72  C   UNL A   1      46.242  33.035  28.836  1.00  0.00    -0.014 A 
ATOM     73  C   UNL A   1      46.520  33.339  30.181  1.00  0.00     0.010 A 
ATOM     74  C   UNL A   1      46.089  34.088  27.915  1.00  0.00     0.010 A 
ATOM     75  C   UNL A   1      46.602  34.669  30.604  1.00  0.00     0.020 A 
ATOM     76  C   UNL A   1      46.202  35.418  28.328  1.00  0.00     0.020 A 
ATOM     77  C   UNL A   1      46.441  35.700  29.674  1.00  0.00     0.054 A 
BRANCH  77  78
ATOM     78  S   UNL A   1      46.573  37.415  30.248  1.00  0.00     0.124 S 
ATOM     79  O   UNL A   1      48.011  37.657  30.143  1.00  0.00    -0.237 OA
ATOM     80  O   UNL A   1      45.743  38.138  29.289  1.00  0.00    -0.237 OA
ATOM     81  O   UNL A   1      46.049  37.367  31.611  1.00  0.00    -0.744 OA
ENDBRANCH  77  78
ENDBRANCH  58  72
BRANCH  59  82
ATOM     82  C   UNL A   1      45.029  23.636  25.643  1.00  0.00    -0.014 A 
ATOM     83  C   UNL A   1      45.160  23.349  24.273  1.00  0.00     0.010 A 
ATOM     84  C   UNL A   1      44.721  22.587  26.531  1.00  0.00     0.010 A 
ATOM     85  C   UNL A   1      44.974  22.046  23.799  1.00  0.00     0.020 A 
ATOM     86  C   UNL A   1      44.565  21.278  26.066  1.00  0.00     0.020 A 
ATOM     87  C   UNL A   1      44.685  21.018  24.700  1.00  0.00     0.054 A 
BRANCH  87  88
ATOM     88  S   UNL A   1      44.508  19.325  24.070  1.00  0.00     0.124 S 
ATOM     89  O   UNL A   1      43.292  18.876  24.740  1.00  0.00    -0.237 OA
ATOM     90  O   UNL A   1      44.396  19.539  22.629  1.00  0.00    -0.237 OA
ATOM     91  O   UNL A   1      45.741  18.670  24.500  1.00  0.00    -0.744 OA
ENDBRANCH  87  88
ENDBRANCH  59  82
BRANCH  71  92
ATOM     92  C   UNL A   1      50.522  27.935  26.046  1.00  0.00    -0.014 A 
ATOM     93  C   UNL A   1      51.014  28.261  24.770  1.00  0.00     0.010 A 
ATOM     94  C   UNL A   1      51.425  27.505  27.037  1.00  0.00     0.010 A 
ATOM     95  C   UNL A   1      52.376  28.128  24.482  1.00  0.00     0.020 A 
ATOM     96  C   UNL A   1      52.791  27.403  26.763  1.00  0.00     0.020 A 
ATOM     97  C   UNL A   1      53.256  27.701  25.481  1.00  0.00     0.054 A 
BRANCH  97  98
ATOM     98  S   UNL A   1      55.024  27.579  25.094  1.00  0.00     0.124 S 
ATOM     99  O   UNL A   1      55.038  26.549  24.059  1.00  0.00    -0.237 OA
ATOM    100  O   UNL A   1      55.345  28.930  24.639  1.00  0.00    -0.237 OA
ATOM    101  O   UNL A   1      55.633  27.195  26.365  1.00  0.00    -0.744 OA
ENDBRANCH  97  98
ENDBRANCH  71  92
ENDBRANCH  45  46
ENDBRANCH  38  40
ENDBRANCH  37  38
ENDBRANCH  36  37
ENDBRANCH  35  36
ENDBRANCH  34  35
ENDBRANCH  33  34
ENDBRANCH  32  33
ENDBRANCH   1  32
TORSDOF 28
ENDMDL
MODEL 2
REMARK VINA RESULT:      -7.4      7.042     14.966
REMARK SMILES C[C@@H](C(=O)OCCOCCOCCOCCOC(=O)c1ccc(-c2c3nc(c(-c4ccc(S(=O)(=O)[O-])cc4)c4ccc([nH]4)c(-c4ccc(S(=O)(=O)[O-])cc4)c4nc(c(-c5ccc(S(=O)(=O)[O-])cc5)c5ccc2[nH]5)C=C4)C=C3)cc1)c1cc(/C=C/S(C)(=O)=O)cc(C(=O)c2ccccc2)c1
REMARK SMILES IDX 11 1 10 2 9 3 8 4 7 5 6 6 5 7 3 8 4 9 2 10 1 11 80 12 81 13
REMARK SMILES IDX 99 14 82 15 90 16 89 17 83 18 84 19 85 20 86 21 87 22 88 23
REMARK SMILES IDX 91 24 92 25 93 26 94 27 98 28 95 29 97 30 96 31 12 32 13 33
REMARK SMILES IDX 14 34 15 35 16 36 17 37 18 38 19 39 20 40 21 41 79 42 22 43
REMARK SMILES IDX 78 44 23 45 24 46 25 47 72 48 26 49 77 50 71 51 73 52 27 53
REMARK SMILES IDX 76 54 70 55 69 56 28 58 58 59 39 60 57 61 40 62 43 63 56 64
REMARK SMILES IDX 74 65 41 66 42 67 55 69 75 70 44 71 29 72 30 73 38 74 31 75
REMARK SMILES IDX 37 76 32 77 33 78 34 79 35 80 36 81 59 82 60 83 68 84 61 85
REMARK SMILES IDX 67 86 62 87 63 88 64 89 65 90 66 91 45 92 46 93 54 94 47 95
REMARK SMILES IDX 53 96 48 97 49 98 50 99 51 100 52 101
REMARK H PARENT 73 57 43 68
REMARK Flexibility Score: inf
ROOT
ATOM      1  O   UNL A   1      41.154  27.776  35.403  1.00  0.00    -0.377 OA
ENDROOT
BRANCH   1   2
ATOM      2  C   UNL A   1      41.152  29.083  34.875  1.00  0.00     0.188 C 
BRANCH   2   3
ATOM      3  C   UNL A   1      41.330  30.212  35.905  1.00  0.00     0.188 C 
BRANCH   3   4
ATOM      4  O   UNL A   1      40.204  30.932  36.377  1.00  0.00    -0.376 OA
BRANCH   4   5
ATOM      5  C   UNL A   1      39.188  31.356  35.477  1.00  0.00     0.202 C 
BRANCH   5   6
ATOM      6  C   UNL A   1      39.320  32.612  34.588  1.00  0.00     0.261 C 
BRANCH   6   7
ATOM      7  O   UNL A   1      40.327  32.575  33.560  1.00  0.00    -0.463 OA
BRANCH   7   8
ATOM      8  C   UNL A   1      40.500  33.704  32.837  1.00  0.00     0.313 C 
ATOM      9  O   UNL A   1      40.864  34.769  33.328  1.00  0.00    -0.252 OA
BRANCH   8  10
ATOM     10  C   UNL A   1      40.308  33.522  31.307  1.00  0.00     0.126 C 
ATOM     11  C   UNL A   1      41.172  34.401  30.396  1.00  0.00     0.025 C 
BRANCH  10  12
ATOM     12  C   UNL A   1      38.810  33.410  30.975  1.00  0.00    -0.033 A 
ATOM     13  C   UNL A   1      37.785  34.286  31.392  1.00  0.00     0.012 A 
ATOM     14  C   UNL A   1      38.429  32.241  30.300  1.00  0.00     0.016 A 
ATOM     15  C   UNL A   1      36.421  33.957  31.220  1.00  0.00    -0.024 A 
ATOM     16  C   UNL A   1      37.094  31.876  30.149  1.00  0.00     0.023 A 
ATOM     17  C   UNL A   1      36.094  32.741  30.594  1.00  0.00     0.020 A 
BRANCH  15  18
ATOM     18  C   UNL A   1      35.292  34.802  31.670  1.00  0.00     0.020 C 
ATOM     19  C   UNL A   1      34.028  34.776  31.219  1.00  0.00     0.106 C 
BRANCH  19  20
ATOM     20  S   UNL A   1      32.855  35.878  31.895  1.00  0.00     0.168 S 
ATOM     21  C   UNL A   1      33.757  36.617  33.233  1.00  0.00     0.163 C 
ATOM     22  O   UNL A   1      32.607  36.926  30.923  1.00  0.00    -0.225 OA
ATOM     23  O   UNL A   1      31.749  35.147  32.487  1.00  0.00    -0.225 OA
ENDBRANCH  19  20
ENDBRANCH  15  18
BRANCH  16  24
ATOM     24  C   UNL A   1      36.736  30.566  29.535  1.00  0.00     0.193 C 
ATOM     25  O   UNL A   1      35.646  30.403  28.997  1.00  0.00    -0.289 OA
BRANCH  24  26
ATOM     26  C   UNL A   1      37.725  29.461  29.535  1.00  0.00     0.022 A 
ATOM     27  C   UNL A   1      37.859  28.686  30.690  1.00  0.00     0.012 A 
ATOM     28  C   UNL A   1      38.441  29.136  28.376  1.00  0.00     0.012 A 
ATOM     29  C   UNL A   1      38.680  27.557  30.671  1.00  0.00     0.001 A 
ATOM     30  C   UNL A   1      39.257  28.005  28.363  1.00  0.00     0.001 A 
ATOM     31  C   UNL A   1      39.372  27.214  29.507  1.00  0.00     0.000 A 
ENDBRANCH  24  26
ENDBRANCH  16  24
ENDBRANCH  10  12
ENDBRANCH   8  10
ENDBRANCH   7   8
ENDBRANCH   6   7
ENDBRANCH   5   6
ENDBRANCH   4   5
ENDBRANCH   3   4
ENDBRANCH   2   3
ENDBRANCH   1   2
BRANCH   1  32
ATOM     32  C   UNL A   1      42.352  27.025  35.300  1.00  0.00     0.188 C 
BRANCH  32  33
ATOM     33  C   UNL A   1      43.264  27.254  34.081  1.00  0.00     0.188 C 
BRANCH  33  34
ATOM     34  O   UNL A   1      44.534  27.819  34.395  1.00  0.00    -0.376 OA
BRANCH  34  35
ATOM     35  C   UNL A   1      45.510  27.889  33.366  1.00  0.00     0.202 C 
BRANCH  35  36
ATOM     36  C   UNL A   1      46.068  29.280  33.018  1.00  0.00     0.261 C 
BRANCH  36  37
ATOM     37  O   UNL A   1      46.706  29.998  34.083  1.00  0.00    -0.460 OA
BRANCH  37  38
ATOM     38  C   UNL A   1      47.457  31.071  33.757  1.00  0.00     0.338 C 
ATOM     39  O   UNL A   1      48.345  31.114  32.922  1.00  0.00    -0.246 OA
BRANCH  38  40
ATOM     40  C   UNL A   1      46.880  32.252  34.432  1.00  0.00     0.060 A 
ATOM     41  C   UNL A   1      47.117  32.432  35.800  1.00  0.00     0.016 A 
ATOM     42  C   UNL A   1      46.118  33.180  33.717  1.00  0.00     0.016 A 
ATOM     43  C   UNL A   1      46.557  33.520  36.470  1.00  0.00     0.010 A 
ATOM     44  C   UNL A   1      45.539  34.257  34.393  1.00  0.00     0.010 A 
ATOM     45  C   UNL A   1      45.724  34.410  35.779  1.00  0.00    -0.014 A 
BRANCH  45  46
ATOM     46  C   UNL A   1      44.882  35.366  36.538  1.00  0.00     0.031 A 
ATOM     47  C   UNL A   1      45.431  36.744  36.798  1.00  0.00     0.074 A 
ATOM     48  C   UNL A   1      43.651  35.036  36.967  1.00  0.00     0.049 A 
ATOM     49  N   UNL A   1      44.907  37.732  37.475  1.00  0.00    -0.248 NA
ATOM     50  C   UNL A   1      46.752  37.042  36.219  1.00  0.00     0.031 C 
ATOM     51  C   UNL A   1      42.987  33.754  36.733  1.00  0.00     0.029 A 
ATOM     52  N   UNL A   1      42.741  35.758  37.698  1.00  0.00    -0.354 N 
ATOM     53  C   UNL A   1      45.835  38.766  37.410  1.00  0.00     0.074 A 
ATOM     54  C   UNL A   1      46.968  38.273  36.658  1.00  0.00     0.031 C 
ATOM     55  C   UNL A   1      41.778  33.777  37.323  1.00  0.00     0.029 A 
ATOM     56  C   UNL A   1      41.598  35.058  38.005  1.00  0.00     0.049 A 
ATOM     57  H   UNL A   1      42.893  36.690  37.976  1.00  0.00     0.167 HD
ATOM     58  C   UNL A   1      45.750  40.015  37.924  1.00  0.00     0.031 A 
ATOM     59  C   UNL A   1      40.543  35.403  38.770  1.00  0.00     0.031 A 
ATOM     60  C   UNL A   1      44.630  40.494  38.689  1.00  0.00     0.049 A 
ATOM     61  C   UNL A   1      40.507  36.769  39.408  1.00  0.00     0.074 A 
ATOM     62  C   UNL A   1      44.446  41.744  39.251  1.00  0.00     0.029 A 
ATOM     63  N   UNL A   1      43.510  39.741  39.010  1.00  0.00    -0.354 N 
ATOM     64  N   UNL A   1      41.383  37.743  39.321  1.00  0.00    -0.248 NA
ATOM     65  C   UNL A   1      39.336  37.087  40.238  1.00  0.00     0.031 C 
ATOM     66  C   UNL A   1      43.244  41.727  39.966  1.00  0.00     0.029 A 
ATOM     67  C   UNL A   1      42.644  40.491  39.786  1.00  0.00     0.049 A 
ATOM     68  H   UNL A   1      43.355  38.811  38.727  1.00  0.00     0.167 HD
ATOM     69  C   UNL A   1      40.853  38.797  40.061  1.00  0.00     0.074 A 
ATOM     70  C   UNL A   1      39.576  38.347  40.573  1.00  0.00     0.031 C 
ATOM     71  C   UNL A   1      41.375  40.030  40.291  1.00  0.00     0.031 A 
BRANCH  58  72
ATOM     72  C   UNL A   1      46.922  40.935  37.708  1.00  0.00    -0.014 A 
ATOM     73  C   UNL A   1      47.965  41.027  38.648  1.00  0.00     0.010 A 
ATOM     74  C   UNL A   1      46.996  41.700  36.529  1.00  0.00     0.010 A 
ATOM     75  C   UNL A   1      49.038  41.897  38.432  1.00  0.00     0.020 A 
ATOM     76  C   UNL A   1      48.082  42.547  36.295  1.00  0.00     0.020 A 
ATOM     77  C   UNL A   1      49.090  42.652  37.257  1.00  0.00     0.054 A 
BRANCH  77  78
ATOM     78  S   UNL A   1      50.504  43.756  36.995  1.00  0.00     0.124 S 
ATOM     79  O   UNL A   1      50.664  44.359  38.317  1.00  0.00    -0.237 OA
ATOM     80  O   UNL A   1      51.561  42.831  36.595  1.00  0.00    -0.237 OA
ATOM     81  O   UNL A   1      50.046  44.666  35.949  1.00  0.00    -0.744 OA
ENDBRANCH  77  78
ENDBRANCH  58  72
BRANCH  59  82
ATOM     82  C   UNL A   1      39.440  34.427  39.001  1.00  0.00    -0.014 A 
ATOM     83  C   UNL A   1      39.349  33.711  40.207  1.00  0.00     0.010 A 
ATOM     84  C   UNL A   1      38.471  34.206  38.003  1.00  0.00     0.010 A 
ATOM     85  C   UNL A   1      38.319  32.785  40.408  1.00  0.00     0.020 A 
ATOM     86  C   UNL A   1      37.423  33.305  38.211  1.00  0.00     0.020 A 
ATOM     87  C   UNL A   1      37.359  32.594  39.410  1.00  0.00     0.054 A 
BRANCH  87  88
ATOM     88  S   UNL A   1      35.999  31.432  39.716  1.00  0.00     0.124 S 
ATOM     89  O   UNL A   1      36.291  30.364  38.767  1.00  0.00    -0.237 OA
ATOM     90  O   UNL A   1      36.185  31.098  41.126  1.00  0.00    -0.237 OA
ATOM     91  O   UNL A   1      34.804  32.221  39.424  1.00  0.00    -0.744 OA
ENDBRANCH  87  88
ENDBRANCH  59  82
BRANCH  71  92
ATOM     92  C   UNL A   1      40.549  41.000  41.097  1.00  0.00    -0.014 A 
ATOM     93  C   UNL A   1      40.530  40.959  42.503  1.00  0.00     0.010 A 
ATOM     94  C   UNL A   1      39.831  42.012  40.434  1.00  0.00     0.010 A 
ATOM     95  C   UNL A   1      39.780  41.891  43.227  1.00  0.00     0.020 A 
ATOM     96  C   UNL A   1      39.108  42.966  41.155  1.00  0.00     0.020 A 
ATOM     97  C   UNL A   1      39.075  42.890  42.548  1.00  0.00     0.054 A 
BRANCH  97  98
ATOM     98  S   UNL A   1      38.147  44.113  43.513  1.00  0.00     0.124 S 
ATOM     99  O   UNL A   1      38.362  45.334  42.743  1.00  0.00    -0.237 OA
ATOM    100  O   UNL A   1      36.786  43.580  43.479  1.00  0.00    -0.237 OA
ATOM    101  O   UNL A   1      38.789  44.081  44.826  1.00  0.00    -0.744 OA
ENDBRANCH  97  98
ENDBRANCH  71  92
ENDBRANCH  45  46
ENDBRANCH  38  40
ENDBRANCH  37  38
ENDBRANCH  36  37
ENDBRANCH  35  36
ENDBRANCH  34  35
ENDBRANCH  33  34
ENDBRANCH  32  33
ENDBRANCH   1  32
TORSDOF 28
ENDMDL
MODEL 3
REMARK VINA RESULT:      -6.8      4.524      9.828
REMARK SMILES C[C@@H](C(=O)OCCOCCOCCOCCOC(=O)c1ccc(-c2c3nc(c(-c4ccc(S(=O)(=O)[O-])cc4)c4ccc([nH]4)c(-c4ccc(S(=O)(=O)[O-])cc4)c4nc(c(-c5ccc(S(=O)(=O)[O-])cc5)c5ccc2[nH]5)C=C4)C=C3)cc1)c1cc(/C=C/S(C)(=O)=O)cc(C(=O)c2ccccc2)c1
REMARK SMILES IDX 11 1 10 2 9 3 8 4 7 5 6 6 5 7 3 8 4 9 2 10 1 11 80 12 81 13
REMARK SMILES IDX 99 14 82 15 90 16 89 17 83 18 84 19 85 20 86 21 87 22 88 23
REMARK SMILES IDX 91 24 92 25 93 26 94 27 98 28 95 29 97 30 96 31 12 32 13 33
REMARK SMILES IDX 14 34 15 35 16 36 17 37 18 38 19 39 20 40 21 41 79 42 22 43
REMARK SMILES IDX 78 44 23 45 24 46 25 47 72 48 26 49 77 50 71 51 73 52 27 53
REMARK SMILES IDX 76 54 70 55 69 56 28 58 58 59 39 60 57 61 40 62 43 63 56 64
REMARK SMILES IDX 74 65 41 66 42 67 55 69 75 70 44 71 29 72 30 73 38 74 31 75
REMARK SMILES IDX 37 76 32 77 33 78 34 79 35 80 36 81 59 82 60 83 68 84 61 85
REMARK SMILES IDX 67 86 62 87 63 88 64 89 65 90 66 91 45 92 46 93 54 94 47 95
REMARK SMILES IDX 53 96 48 97 49 98 50 99 51 100 52 101
REMARK H PARENT 73 57 43 68
REMARK Flexibility Score: inf
ROOT
ATOM      1  O   UNL A   1      41.932  27.749  28.420  1.00  0.00    -0.377 OA
ENDROOT
BRANCH   1   2
ATOM      2  C   UNL A   1      43.007  28.647  28.584  1.00  0.00     0.188 C 
BRANCH   2   3
ATOM      3  C   UNL A   1      43.203  29.659  27.442  1.00  0.00     0.188 C 
BRANCH   3   4
ATOM      4  O   UNL A   1      43.990  29.318  26.313  1.00  0.00    -0.376 OA
BRANCH   4   5
ATOM      5  C   UNL A   1      45.400  29.176  26.430  1.00  0.00     0.202 C 
BRANCH   5   6
ATOM      6  C   UNL A   1      46.377  30.370  26.348  1.00  0.00     0.261 C 
BRANCH   6   7
ATOM      7  O   UNL A   1      47.290  30.536  27.448  1.00  0.00    -0.463 OA
BRANCH   7   8
ATOM      8  C   UNL A   1      46.792  31.095  28.573  1.00  0.00     0.313 C 
ATOM      9  O   UNL A   1      46.479  30.446  29.567  1.00  0.00    -0.252 OA
BRANCH   8  10
ATOM     10  C   UNL A   1      46.752  32.648  28.555  1.00  0.00     0.126 C 
ATOM     11  C   UNL A   1      47.956  33.376  29.160  1.00  0.00     0.025 C 
BRANCH  10  12
ATOM     12  C   UNL A   1      45.349  33.140  28.952  1.00  0.00    -0.033 A 
ATOM     13  C   UNL A   1      44.479  32.544  29.889  1.00  0.00     0.012 A 
ATOM     14  C   UNL A   1      44.853  34.215  28.199  1.00  0.00     0.016 A 
ATOM     15  C   UNL A   1      43.130  32.950  30.003  1.00  0.00    -0.024 A 
ATOM     16  C   UNL A   1      43.520  34.612  28.267  1.00  0.00     0.023 A 
ATOM     17  C   UNL A   1      42.666  33.991  29.178  1.00  0.00     0.020 A 
BRANCH  15  18
ATOM     18  C   UNL A   1      42.147  32.344  30.929  1.00  0.00     0.020 C 
ATOM     19  C   UNL A   1      41.423  31.231  30.732  1.00  0.00     0.106 C 
BRANCH  19  20
ATOM     20  S   UNL A   1      40.311  30.701  31.969  1.00  0.00     0.168 S 
ATOM     21  C   UNL A   1      41.100  31.268  33.454  1.00  0.00     0.163 C 
ATOM     22  O   UNL A   1      39.082  31.461  31.826  1.00  0.00    -0.225 OA
ATOM     23  O   UNL A   1      40.276  29.252  32.037  1.00  0.00    -0.225 OA
ENDBRANCH  19  20
ENDBRANCH  15  18
BRANCH  16  24
ATOM     24  C   UNL A   1      43.004  35.677  27.359  1.00  0.00     0.193 C 
ATOM     25  O   UNL A   1      42.467  35.387  26.297  1.00  0.00    -0.289 OA
BRANCH  24  26
ATOM     26  C   UNL A   1      43.101  37.099  27.769  1.00  0.00     0.022 A 
ATOM     27  C   UNL A   1      42.798  38.086  26.827  1.00  0.00     0.012 A 
ATOM     28  C   UNL A   1      43.391  37.448  29.094  1.00  0.00     0.012 A 
ATOM     29  C   UNL A   1      42.746  39.423  27.224  1.00  0.00     0.001 A 
ATOM     30  C   UNL A   1      43.335  38.786  29.483  1.00  0.00     0.001 A 
ATOM     31  C   UNL A   1      43.006  39.771  28.551  1.00  0.00     0.000 A 
ENDBRANCH  24  26
ENDBRANCH  16  24
ENDBRANCH  10  12
ENDBRANCH   8  10
ENDBRANCH   7   8
ENDBRANCH   6   7
ENDBRANCH   5   6
ENDBRANCH   4   5
ENDBRANCH   3   4
ENDBRANCH   2   3
ENDBRANCH   1   2
BRANCH   1  32
ATOM     32  C   UNL A   1      42.160  26.582  27.649  1.00  0.00     0.188 C 
BRANCH  32  33
ATOM     33  C   UNL A   1      41.418  25.288  28.032  1.00  0.00     0.188 C 
BRANCH  33  34
ATOM     34  O   UNL A   1      40.958  24.524  26.921  1.00  0.00    -0.376 OA
BRANCH  34  35
ATOM     35  C   UNL A   1      40.662  23.151  27.129  1.00  0.00     0.202 C 
BRANCH  35  36
ATOM     36  C   UNL A   1      41.478  22.125  26.323  1.00  0.00     0.261 C 
BRANCH  36  37
ATOM     37  O   UNL A   1      42.323  22.650  25.290  1.00  0.00    -0.460 OA
BRANCH  37  38
ATOM     38  C   UNL A   1      43.580  22.166  25.199  1.00  0.00     0.338 C 
ATOM     39  O   UNL A   1      43.931  21.153  24.618  1.00  0.00    -0.246 OA
BRANCH  38  40
ATOM     40  C   UNL A   1      44.500  23.188  25.739  1.00  0.00     0.060 A 
ATOM     41  C   UNL A   1      45.573  22.775  26.539  1.00  0.00     0.016 A 
ATOM     42  C   UNL A   1      44.311  24.542  25.450  1.00  0.00     0.016 A 
ATOM     43  C   UNL A   1      46.439  23.720  27.089  1.00  0.00     0.010 A 
ATOM     44  C   UNL A   1      45.165  25.490  26.021  1.00  0.00     0.010 A 
ATOM     45  C   UNL A   1      46.209  25.085  26.873  1.00  0.00    -0.014 A 
BRANCH  45  46
ATOM     46  C   UNL A   1      46.919  26.090  27.702  1.00  0.00     0.031 A 
ATOM     47  C   UNL A   1      46.381  26.383  29.077  1.00  0.00     0.074 A 
ATOM     48  C   UNL A   1      48.027  26.712  27.262  1.00  0.00     0.049 A 
ATOM     49  N   UNL A   1      46.796  27.248  29.964  1.00  0.00    -0.248 NA
ATOM     50  C   UNL A   1      45.213  25.593  29.505  1.00  0.00     0.031 C 
ATOM     51  C   UNL A   1      48.676  26.478  25.973  1.00  0.00     0.029 A 
ATOM     52  N   UNL A   1      48.799  27.678  27.857  1.00  0.00    -0.354 N 
ATOM     53  C   UNL A   1      45.938  27.114  31.051  1.00  0.00     0.074 A 
ATOM     54  C   UNL A   1      44.960  26.108  30.698  1.00  0.00     0.031 C 
ATOM     55  C   UNL A   1      49.744  27.289  25.870  1.00  0.00     0.029 A 
ATOM     56  C   UNL A   1      49.831  28.125  27.067  1.00  0.00     0.049 A 
ATOM     57  H   UNL A   1      48.630  28.019  28.766  1.00  0.00     0.167 HD
ATOM     58  C   UNL A   1      45.965  27.764  32.238  1.00  0.00     0.031 A 
ATOM     59  C   UNL A   1      50.726  29.113  27.276  1.00  0.00     0.031 A 
ATOM     60  C   UNL A   1      46.927  28.778  32.577  1.00  0.00     0.049 A 
ATOM     61  C   UNL A   1      50.684  29.885  28.571  1.00  0.00     0.074 A 
ATOM     62  C   UNL A   1      47.043  29.494  33.754  1.00  0.00     0.029 A 
ATOM     63  N   UNL A   1      47.932  29.229  31.733  1.00  0.00    -0.354 N 
ATOM     64  N   UNL A   1      49.880  29.734  29.596  1.00  0.00    -0.248 NA
ATOM     65  C   UNL A   1      51.678  30.956  28.739  1.00  0.00     0.031 C 
ATOM     66  C   UNL A   1      48.076  30.423  33.600  1.00  0.00     0.029 A 
ATOM     67  C   UNL A   1      48.655  30.233  32.354  1.00  0.00     0.049 A 
ATOM     68  H   UNL A   1      48.107  28.884  30.827  1.00  0.00     0.167 HD
ATOM     69  C   UNL A   1      50.290  30.670  30.542  1.00  0.00     0.074 A 
ATOM     70  C   UNL A   1      51.423  31.370  29.972  1.00  0.00     0.031 C 
ATOM     71  C   UNL A   1      49.780  30.923  31.775  1.00  0.00     0.031 A 
BRANCH  58  72
ATOM     72  C   UNL A   1      44.894  27.423  33.240  1.00  0.00    -0.014 A 
ATOM     73  C   UNL A   1      43.681  28.134  33.287  1.00  0.00     0.010 A 
ATOM     74  C   UNL A   1      45.094  26.352  34.131  1.00  0.00     0.010 A 
ATOM     75  C   UNL A   1      42.705  27.808  34.234  1.00  0.00     0.020 A 
ATOM     76  C   UNL A   1      44.107  26.003  35.058  1.00  0.00     0.020 A 
ATOM     77  C   UNL A   1      42.925  26.745  35.114  1.00  0.00     0.054 A 
BRANCH  77  78
ATOM     78  S   UNL A   1      41.633  26.331  36.317  1.00  0.00     0.124 S 
ATOM     79  O   UNL A   1      42.395  25.629  37.347  1.00  0.00    -0.237 OA
ATOM     80  O   UNL A   1      41.122  27.644  36.700  1.00  0.00    -0.237 OA
ATOM     81  O   UNL A   1      40.703  25.500  35.557  1.00  0.00    -0.744 OA
ENDBRANCH  77  78
ENDBRANCH  58  72
BRANCH  59  82
ATOM     82  C   UNL A   1      51.723  29.449  26.221  1.00  0.00    -0.014 A 
ATOM     83  C   UNL A   1      51.492  30.498  25.314  1.00  0.00     0.010 A 
ATOM     84  C   UNL A   1      52.918  28.710  26.117  1.00  0.00     0.010 A 
ATOM     85  C   UNL A   1      52.428  30.795  24.317  1.00  0.00     0.020 A 
ATOM     86  C   UNL A   1      53.870  29.024  25.142  1.00  0.00     0.020 A 
ATOM     87  C   UNL A   1      53.614  30.059  24.243  1.00  0.00     0.054 A 
BRANCH  87  88
ATOM     88  S   UNL A   1      54.840  30.501  22.980  1.00  0.00     0.124 S 
ATOM     89  O   UNL A   1      54.010  31.122  21.953  1.00  0.00    -0.237 OA
ATOM     90  O   UNL A   1      55.728  31.403  23.709  1.00  0.00    -0.237 OA
ATOM     91  O   UNL A   1      55.433  29.216  22.616  1.00  0.00    -0.744 OA
ENDBRANCH  87  88
ENDBRANCH  59  82
BRANCH  71  92
ATOM     92  C   UNL A   1      50.464  31.972  32.614  1.00  0.00    -0.014 A 
ATOM     93  C   UNL A   1      51.486  31.640  33.520  1.00  0.00     0.010 A 
ATOM     94  C   UNL A   1      50.117  33.326  32.443  1.00  0.00     0.010 A 
ATOM     95  C   UNL A   1      52.125  32.638  34.263  1.00  0.00     0.020 A 
ATOM     96  C   UNL A   1      50.775  34.329  33.158  1.00  0.00     0.020 A 
ATOM     97  C   UNL A   1      51.767  33.976  34.076  1.00  0.00     0.054 A 
BRANCH  97  98
ATOM     98  S   UNL A   1      52.641  35.254  35.020  1.00  0.00     0.124 S 
ATOM     99  O   UNL A   1      53.959  34.651  35.198  1.00  0.00    -0.237 OA
ATOM    100  O   UNL A   1      52.593  36.405  34.120  1.00  0.00    -0.237 OA
ATOM    101  O   UNL A   1      51.848  35.390  36.239  1.00  0.00    -0.744 OA
ENDBRANCH  97  98
ENDBRANCH  71  92
ENDBRANCH  45  46
ENDBRANCH  38  40
ENDBRANCH  37  38
ENDBRANCH  36  37
ENDBRANCH  35  36
ENDBRANCH  34  35
ENDBRANCH  33  34
ENDBRANCH  32  33
ENDBRANCH   1  32
TORSDOF 28
ENDMDL
