MODEL 1
REMARK VINA RESULT:      -8.7      0.000      0.000
REMARK SMILES Cc1cc(C(=O)OCCOCCOCCOCCOC(=O)c2ccc(-c3c4nc(c(-c5ccc(S(=O)(=O)[O-])cc5)c5ccc([nH]5)c(-c5ccc(S(=O)(=O)[O-])cc5)c5nc(c(-c6ccc(S(=O)(=O)[O-])cc6)c6ccc3[nH]6)C=C5)C=C4)cc2)ccc1NCCCC(=O)NC1CC1
REMARK SMILES IDX 11 1 10 2 9 3 8 4 7 5 5 6 6 7 4 8 1 9 2 10 3 11 84 12 83 13
REMARK SMILES IDX 82 14 85 15 86 17 87 18 88 19 89 20 90 21 91 22 92 24 93 25
REMARK SMILES IDX 94 26 12 27 13 28 14 29 15 30 16 31 17 32 18 33 19 34 20 35
REMARK SMILES IDX 21 36 22 37 23 38 81 39 24 40 80 41 25 42 26 43 27 44 74 45
REMARK SMILES IDX 28 46 79 47 73 48 75 49 29 50 78 51 72 52 71 53 30 55 60 56
REMARK SMILES IDX 41 57 59 58 42 59 45 60 58 61 76 62 43 63 44 64 57 66 77 67
REMARK SMILES IDX 46 68 31 69 32 70 40 71 33 72 39 73 34 74 35 75 36 76 37 77
REMARK SMILES IDX 38 78 61 79 62 80 70 81 63 82 69 83 64 84 65 85 66 86 67 87
REMARK SMILES IDX 68 88 47 89 48 90 56 91 49 92 55 93 50 94 51 95 52 96 53 97
REMARK SMILES IDX 54 98
REMARK H PARENT 85 16 91 23 75 54 45 65
REMARK Flexibility Score: inf
ROOT
ATOM      1  C   UNL A   1      38.803  20.823  25.670  1.00  0.00     0.188 C 
ENDROOT
BRANCH   1   2
ATOM      2  O   UNL A   1      38.032  21.974  25.990  1.00  0.00    -0.376 OA
BRANCH   2   3
ATOM      3  C   UNL A   1      37.127  22.400  24.973  1.00  0.00     0.202 C 
BRANCH   3   4
ATOM      4  C   UNL A   1      35.988  23.305  25.424  1.00  0.00     0.261 C 
BRANCH   4   5
ATOM      5  O   UNL A   1      35.511  24.023  24.293  1.00  0.00    -0.460 OA
BRANCH   5   6
ATOM      6  C   UNL A   1      34.423  23.484  23.729  1.00  0.00     0.338 C 
ATOM      7  O   UNL A   1      33.959  22.373  23.888  1.00  0.00    -0.246 OA
BRANCH   6   8
ATOM      8  C   UNL A   1      33.657  24.607  23.183  1.00  0.00     0.060 A 
ATOM      9  C   UNL A   1      33.887  28.279  23.858  1.00  0.00     0.046 C 
ATOM     10  C   UNL A   1      33.374  26.989  23.283  1.00  0.00    -0.027 A 
ATOM     11  C   UNL A   1      33.992  25.835  23.734  1.00  0.00     0.021 A 
ATOM     12  C   UNL A   1      32.368  26.887  22.298  1.00  0.00     0.037 A 
ATOM     13  C   UNL A   1      32.187  25.682  21.617  1.00  0.00     0.027 A 
ATOM     14  C   UNL A   1      32.815  24.528  22.074  1.00  0.00     0.018 A 
BRANCH  12  15
ATOM     15  N   UNL A   1      31.572  27.987  22.082  1.00  0.00    -0.385 N 
ATOM     16  H   UNL A   1      31.993  28.749  21.622  1.00  0.00     0.160 HD
BRANCH  15  17
ATOM     17  C   UNL A   1      30.190  28.151  22.456  1.00  0.00     0.113 C 
BRANCH  17  18
ATOM     18  C   UNL A   1      30.094  28.182  23.984  1.00  0.00     0.031 C 
BRANCH  18  19
ATOM     19  C   UNL A   1      30.132  26.832  24.709  1.00  0.00     0.102 C 
BRANCH  19  20
ATOM     20  C   UNL A   1      30.962  26.695  25.963  1.00  0.00     0.220 C 
ATOM     21  O   UNL A   1      31.308  27.712  26.575  1.00  0.00    -0.275 OA
ATOM     22  N   UNL A   1      31.275  25.495  26.522  1.00  0.00    -0.353 N 
ATOM     23  H   UNL A   1      31.586  25.559  27.454  1.00  0.00     0.163 HD
BRANCH  22  24
ATOM     24  C   UNL A   1      31.239  24.165  26.018  1.00  0.00     0.082 C 
ATOM     25  C   UNL A   1      31.921  23.094  26.846  1.00  0.00     0.027 C 
ATOM     26  C   UNL A   1      30.452  23.028  26.598  1.00  0.00     0.027 C 
ENDBRANCH  22  24
ENDBRANCH  19  20
ENDBRANCH  18  19
ENDBRANCH  17  18
ENDBRANCH  15  17
ENDBRANCH  12  15
ENDBRANCH   6   8
ENDBRANCH   5   6
ENDBRANCH   4   5
ENDBRANCH   3   4
ENDBRANCH   2   3
ENDBRANCH   1   2
BRANCH   1  27
ATOM     27  C   UNL A   1      40.256  20.780  26.149  1.00  0.00     0.188 C 
BRANCH  27  28
ATOM     28  O   UNL A   1      40.878  22.022  26.447  1.00  0.00    -0.377 OA
BRANCH  28  29
ATOM     29  C   UNL A   1      41.081  22.380  27.821  1.00  0.00     0.188 C 
BRANCH  29  30
ATOM     30  C   UNL A   1      41.614  23.776  28.126  1.00  0.00     0.188 C 
BRANCH  30  31
ATOM     31  O   UNL A   1      42.340  24.231  26.975  1.00  0.00    -0.376 OA
BRANCH  31  32
ATOM     32  C   UNL A   1      41.796  25.371  26.325  1.00  0.00     0.202 C 
BRANCH  32  33
ATOM     33  C   UNL A   1      41.378  26.495  27.278  1.00  0.00     0.261 C 
BRANCH  33  34
ATOM     34  O   UNL A   1      42.509  27.298  27.675  1.00  0.00    -0.460 OA
BRANCH  34  35
ATOM     35  C   UNL A   1      42.911  27.150  28.971  1.00  0.00     0.338 C 
ATOM     36  O   UNL A   1      43.725  26.318  29.333  1.00  0.00    -0.246 OA
BRANCH  35  37
ATOM     37  C   UNL A   1      42.369  28.238  29.826  1.00  0.00     0.060 A 
ATOM     38  C   UNL A   1      43.097  29.403  30.094  1.00  0.00     0.016 A 
ATOM     39  C   UNL A   1      41.134  28.057  30.428  1.00  0.00     0.016 A 
ATOM     40  C   UNL A   1      42.656  30.310  31.080  1.00  0.00     0.010 A 
ATOM     41  C   UNL A   1      40.727  28.934  31.415  1.00  0.00     0.010 A 
ATOM     42  C   UNL A   1      41.492  30.045  31.803  1.00  0.00    -0.014 A 
BRANCH  42  43
ATOM     43  C   UNL A   1      41.066  30.703  33.066  1.00  0.00     0.031 A 
ATOM     44  C   UNL A   1      41.677  30.311  34.393  1.00  0.00     0.074 A 
ATOM     45  C   UNL A   1      40.468  31.921  32.964  1.00  0.00     0.049 A 
ATOM     46  N   UNL A   1      41.406  30.871  35.529  1.00  0.00    -0.248 NA
ATOM     47  C   UNL A   1      42.679  29.252  34.563  1.00  0.00     0.031 C 
ATOM     48  C   UNL A   1      40.550  33.011  33.937  1.00  0.00     0.029 A 
ATOM     49  N   UNL A   1      39.681  32.485  31.962  1.00  0.00    -0.354 N 
ATOM     50  C   UNL A   1      42.443  30.596  36.404  1.00  0.00     0.074 A 
ATOM     51  C   UNL A   1      43.125  29.477  35.806  1.00  0.00     0.031 C 
ATOM     52  C   UNL A   1      39.774  34.037  33.566  1.00  0.00     0.029 A 
ATOM     53  C   UNL A   1      38.938  33.539  32.502  1.00  0.00     0.049 A 
ATOM     54  H   UNL A   1      39.652  32.188  31.024  1.00  0.00     0.167 HD
ATOM     55  C   UNL A   1      42.719  31.457  37.433  1.00  0.00     0.031 A 
ATOM     56  C   UNL A   1      37.574  33.561  32.571  1.00  0.00     0.031 A 
ATOM     57  C   UNL A   1      41.701  32.517  37.570  1.00  0.00     0.049 A 
ATOM     58  C   UNL A   1      37.136  33.523  34.027  1.00  0.00     0.074 A 
ATOM     59  C   UNL A   1      41.748  33.893  37.705  1.00  0.00     0.029 A 
ATOM     60  N   UNL A   1      40.346  32.202  37.445  1.00  0.00    -0.354 N 
ATOM     61  N   UNL A   1      37.900  33.024  34.969  1.00  0.00    -0.248 NA
ATOM     62  C   UNL A   1      35.932  34.142  34.579  1.00  0.00     0.031 C 
ATOM     63  C   UNL A   1      40.440  34.408  37.480  1.00  0.00     0.029 A 
ATOM     64  C   UNL A   1      39.573  33.337  37.329  1.00  0.00     0.049 A 
ATOM     65  H   UNL A   1      39.989  31.285  37.439  1.00  0.00     0.167 HD
ATOM     66  C   UNL A   1      37.420  33.383  36.191  1.00  0.00     0.074 A 
ATOM     67  C   UNL A   1      36.136  33.999  35.905  1.00  0.00     0.031 C 
ATOM     68  C   UNL A   1      38.119  33.247  37.355  1.00  0.00     0.031 A 
BRANCH  55  69
ATOM     69  C   UNL A   1      44.039  31.497  38.221  1.00  0.00    -0.014 A 
ATOM     70  C   UNL A   1      45.248  31.810  37.555  1.00  0.00     0.010 A 
ATOM     71  C   UNL A   1      44.181  31.149  39.583  1.00  0.00     0.010 A 
ATOM     72  C   UNL A   1      46.505  31.779  38.194  1.00  0.00     0.020 A 
ATOM     73  C   UNL A   1      45.428  31.157  40.248  1.00  0.00     0.020 A 
ATOM     74  C   UNL A   1      46.588  31.462  39.546  1.00  0.00     0.054 A 
BRANCH  74  75
ATOM     75  S   UNL A   1      48.207  31.482  40.372  1.00  0.00     0.124 S 
ATOM     76  O   UNL A   1      47.845  31.584  41.784  1.00  0.00    -0.237 OA
ATOM     77  O   UNL A   1      48.794  30.207  39.966  1.00  0.00    -0.237 OA
ATOM     78  O   UNL A   1      48.866  32.664  39.818  1.00  0.00    -0.744 OA
ENDBRANCH  74  75
ENDBRANCH  55  69
BRANCH  56  79
ATOM     79  C   UNL A   1      36.914  33.089  31.318  1.00  0.00    -0.014 A 
ATOM     80  C   UNL A   1      35.611  32.570  31.517  1.00  0.00     0.010 A 
ATOM     81  C   UNL A   1      37.198  33.727  30.095  1.00  0.00     0.010 A 
ATOM     82  C   UNL A   1      34.563  32.933  30.666  1.00  0.00     0.020 A 
ATOM     83  C   UNL A   1      36.141  34.095  29.238  1.00  0.00     0.020 A 
ATOM     84  C   UNL A   1      34.823  33.764  29.579  1.00  0.00     0.054 A 
BRANCH  84  85
ATOM     85  S   UNL A   1      33.414  34.644  28.825  1.00  0.00     0.124 S 
ATOM     86  O   UNL A   1      32.822  33.617  27.976  1.00  0.00    -0.237 OA
ATOM     87  O   UNL A   1      32.627  35.034  29.994  1.00  0.00    -0.237 OA
ATOM     88  O   UNL A   1      34.053  35.753  28.125  1.00  0.00    -0.744 OA
ENDBRANCH  84  85
ENDBRANCH  56  79
BRANCH  68  89
ATOM     89  C   UNL A   1      37.472  33.028  38.693  1.00  0.00    -0.014 A 
ATOM     90  C   UNL A   1      38.033  33.522  39.879  1.00  0.00     0.010 A 
ATOM     91  C   UNL A   1      36.136  32.555  38.748  1.00  0.00     0.010 A 
ATOM     92  C   UNL A   1      37.308  33.515  41.072  1.00  0.00     0.020 A 
ATOM     93  C   UNL A   1      35.391  32.583  39.926  1.00  0.00     0.020 A 
ATOM     94  C   UNL A   1      35.992  33.049  41.088  1.00  0.00     0.054 A 
BRANCH  94  95
ATOM     95  S   UNL A   1      35.053  33.128  42.628  1.00  0.00     0.124 S 
ATOM     96  O   UNL A   1      34.060  34.153  42.315  1.00  0.00    -0.237 OA
ATOM     97  O   UNL A   1      34.530  31.769  42.758  1.00  0.00    -0.237 OA
ATOM     98  O   UNL A   1      36.051  33.503  43.626  1.00  0.00    -0.744 OA
ENDBRANCH  94  95
ENDBRANCH  68  89
ENDBRANCH  42  43
ENDBRANCH  35  37
ENDBRANCH  34  35
ENDBRANCH  33  34
ENDBRANCH  32  33
ENDBRANCH  31  32
ENDBRANCH  30  31
ENDBRANCH  29  30
ENDBRANCH  28  29
ENDBRANCH  27  28
ENDBRANCH   1  27
TORSDOF 29
ENDMDL
MODEL 2
REMARK VINA RESULT:      -8.6      1.686      2.750
REMARK SMILES Cc1cc(C(=O)OCCOCCOCCOCCOC(=O)c2ccc(-c3c4nc(c(-c5ccc(S(=O)(=O)[O-])cc5)c5ccc([nH]5)c(-c5ccc(S(=O)(=O)[O-])cc5)c5nc(c(-c6ccc(S(=O)(=O)[O-])cc6)c6ccc3[nH]6)C=C5)C=C4)cc2)ccc1NCCCC(=O)NC1CC1
REMARK SMILES IDX 11 1 10 2 9 3 8 4 7 5 5 6 6 7 4 8 1 9 2 10 3 11 84 12 83 13
REMARK SMILES IDX 82 14 85 15 86 17 87 18 88 19 89 20 90 21 91 22 92 24 93 25
REMARK SMILES IDX 94 26 12 27 13 28 14 29 15 30 16 31 17 32 18 33 19 34 20 35
REMARK SMILES IDX 21 36 22 37 23 38 81 39 24 40 80 41 25 42 26 43 27 44 74 45
REMARK SMILES IDX 28 46 79 47 73 48 75 49 29 50 78 51 72 52 71 53 30 55 60 56
REMARK SMILES IDX 41 57 59 58 42 59 45 60 58 61 76 62 43 63 44 64 57 66 77 67
REMARK SMILES IDX 46 68 31 69 32 70 40 71 33 72 39 73 34 74 35 75 36 76 37 77
REMARK SMILES IDX 38 78 61 79 62 80 70 81 63 82 69 83 64 84 65 85 66 86 67 87
REMARK SMILES IDX 68 88 47 89 48 90 56 91 49 92 55 93 50 94 51 95 52 96 53 97
REMARK SMILES IDX 54 98
REMARK H PARENT 85 16 91 23 75 54 45 65
REMARK Flexibility Score: inf
ROOT
ATOM      1  C   UNL A   1      38.679  19.279  25.187  1.00  0.00     0.188 C 
ENDROOT
BRANCH   1   2
ATOM      2  O   UNL A   1      38.174  20.608  25.159  1.00  0.00    -0.376 OA
BRANCH   2   3
ATOM      3  C   UNL A   1      36.756  20.715  25.041  1.00  0.00     0.202 C 
BRANCH   3   4
ATOM      4  C   UNL A   1      36.067  21.641  26.035  1.00  0.00     0.261 C 
BRANCH   4   5
ATOM      5  O   UNL A   1      35.341  22.621  25.305  1.00  0.00    -0.460 OA
BRANCH   5   6
ATOM      6  C   UNL A   1      34.016  22.424  25.305  1.00  0.00     0.338 C 
ATOM      7  O   UNL A   1      33.407  21.376  25.365  1.00  0.00    -0.246 OA
BRANCH   6   8
ATOM      8  C   UNL A   1      33.418  23.724  25.619  1.00  0.00     0.060 A 
ATOM      9  C   UNL A   1      33.979  27.101  24.111  1.00  0.00     0.046 C 
ATOM     10  C   UNL A   1      33.435  26.054  25.042  1.00  0.00    -0.027 A 
ATOM     11  C   UNL A   1      33.936  24.774  24.877  1.00  0.00     0.021 A 
ATOM     12  C   UNL A   1      32.433  26.277  26.012  1.00  0.00     0.037 A 
ATOM     13  C   UNL A   1      31.788  25.189  26.601  1.00  0.00     0.027 A 
ATOM     14  C   UNL A   1      32.294  23.906  26.426  1.00  0.00     0.018 A 
BRANCH  12  15
ATOM     15  N   UNL A   1      32.165  27.579  26.365  1.00  0.00    -0.385 N 
ATOM     16  H   UNL A   1      31.478  27.711  27.058  1.00  0.00     0.160 HD
BRANCH  15  17
ATOM     17  C   UNL A   1      32.776  28.771  25.834  1.00  0.00     0.113 C 
BRANCH  17  18
ATOM     18  C   UNL A   1      31.801  29.427  24.852  1.00  0.00     0.031 C 
BRANCH  18  19
ATOM     19  C   UNL A   1      30.644  28.562  24.340  1.00  0.00     0.102 C 
BRANCH  19  20
ATOM     20  C   UNL A   1      30.085  28.823  22.962  1.00  0.00     0.220 C 
ATOM     21  O   UNL A   1      30.400  28.076  22.028  1.00  0.00    -0.275 OA
ATOM     22  N   UNL A   1      29.164  29.790  22.702  1.00  0.00    -0.353 N 
ATOM     23  H   UNL A   1      28.703  29.680  21.839  1.00  0.00     0.163 HD
BRANCH  22  24
ATOM     24  C   UNL A   1      28.739  30.930  23.440  1.00  0.00     0.082 C 
ATOM     25  C   UNL A   1      28.822  32.274  22.742  1.00  0.00     0.027 C 
ATOM     26  C   UNL A   1      27.501  31.734  23.175  1.00  0.00     0.027 C 
ENDBRANCH  22  24
ENDBRANCH  19  20
ENDBRANCH  18  19
ENDBRANCH  17  18
ENDBRANCH  15  17
ENDBRANCH  12  15
ENDBRANCH   6   8
ENDBRANCH   5   6
ENDBRANCH   4   5
ENDBRANCH   3   4
ENDBRANCH   2   3
ENDBRANCH   1   2
BRANCH   1  27
ATOM     27  C   UNL A   1      40.044  19.047  25.838  1.00  0.00     0.188 C 
BRANCH  27  28
ATOM     28  O   UNL A   1      40.841  20.195  26.100  1.00  0.00    -0.377 OA
BRANCH  28  29
ATOM     29  C   UNL A   1      41.039  20.601  27.461  1.00  0.00     0.188 C 
BRANCH  29  30
ATOM     30  C   UNL A   1      41.111  22.095  27.759  1.00  0.00     0.188 C 
BRANCH  30  31
ATOM     31  O   UNL A   1      40.672  22.798  26.588  1.00  0.00    -0.376 OA
BRANCH  31  32
ATOM     32  C   UNL A   1      39.386  23.395  26.685  1.00  0.00     0.202 C 
BRANCH  32  33
ATOM     33  C   UNL A   1      39.292  24.513  27.728  1.00  0.00     0.261 C 
BRANCH  33  34
ATOM     34  O   UNL A   1      40.039  25.678  27.322  1.00  0.00    -0.460 OA
BRANCH  34  35
ATOM     35  C   UNL A   1      41.175  25.927  28.035  1.00  0.00     0.338 C 
ATOM     36  O   UNL A   1      42.234  25.358  27.837  1.00  0.00    -0.246 OA
BRANCH  35  37
ATOM     37  C   UNL A   1      40.992  27.092  28.941  1.00  0.00     0.060 A 
ATOM     38  C   UNL A   1      42.021  28.009  29.188  1.00  0.00     0.016 A 
ATOM     39  C   UNL A   1      39.787  27.229  29.612  1.00  0.00     0.016 A 
ATOM     40  C   UNL A   1      41.893  28.966  30.216  1.00  0.00     0.010 A 
ATOM     41  C   UNL A   1      39.684  28.150  30.637  1.00  0.00     0.010 A 
ATOM     42  C   UNL A   1      40.739  29.000  31.000  1.00  0.00    -0.014 A 
BRANCH  42  43
ATOM     43  C   UNL A   1      40.573  29.704  32.298  1.00  0.00     0.031 A 
ATOM     44  C   UNL A   1      41.215  29.175  33.560  1.00  0.00     0.074 A 
ATOM     45  C   UNL A   1      40.221  31.019  32.254  1.00  0.00     0.049 A 
ATOM     46  N   UNL A   1      41.168  29.756  34.717  1.00  0.00    -0.248 NA
ATOM     47  C   UNL A   1      41.999  27.936  33.633  1.00  0.00     0.031 C 
ATOM     48  C   UNL A   1      40.608  32.052  33.215  1.00  0.00     0.029 A 
ATOM     49  N   UNL A   1      39.471  31.746  31.332  1.00  0.00    -0.354 N 
ATOM     50  C   UNL A   1      42.208  29.265  35.489  1.00  0.00     0.074 A 
ATOM     51  C   UNL A   1      42.595  28.045  34.828  1.00  0.00     0.031 C 
ATOM     52  C   UNL A   1      40.020  33.218  32.919  1.00  0.00     0.029 A 
ATOM     53  C   UNL A   1      39.006  32.915  31.941  1.00  0.00     0.049 A 
ATOM     54  H   UNL A   1      39.296  31.479  30.401  1.00  0.00     0.167 HD
ATOM     55  C   UNL A   1      42.744  30.035  36.487  1.00  0.00     0.031 A 
ATOM     56  C   UNL A   1      37.686  33.204  32.140  1.00  0.00     0.031 A 
ATOM     57  C   UNL A   1      41.974  31.272  36.721  1.00  0.00     0.049 A 
ATOM     58  C   UNL A   1      37.388  33.226  33.631  1.00  0.00     0.074 A 
ATOM     59  C   UNL A   1      42.306  32.609  36.850  1.00  0.00     0.029 A 
ATOM     60  N   UNL A   1      40.578  31.233  36.726  1.00  0.00    -0.354 N 
ATOM     61  N   UNL A   1      38.122  32.569  34.496  1.00  0.00    -0.248 NA
ATOM     62  C   UNL A   1      36.387  34.060  34.296  1.00  0.00     0.031 C 
ATOM     63  C   UNL A   1      41.110  33.376  36.753  1.00  0.00     0.029 A 
ATOM     64  C   UNL A   1      40.038  32.500  36.684  1.00  0.00     0.049 A 
ATOM     65  H   UNL A   1      40.047  30.405  36.754  1.00  0.00     0.167 HD
ATOM     66  C   UNL A   1      37.840  32.992  35.758  1.00  0.00     0.074 A 
ATOM     67  C   UNL A   1      36.682  33.854  35.596  1.00  0.00     0.031 C 
ATOM     68  C   UNL A   1      38.604  32.698  36.850  1.00  0.00     0.031 A 
BRANCH  55  69
ATOM     69  C   UNL A   1      44.114  29.798  37.145  1.00  0.00    -0.014 A 
ATOM     70  C   UNL A   1      44.727  28.525  37.057  1.00  0.00     0.010 A 
ATOM     71  C   UNL A   1      44.807  30.739  37.938  1.00  0.00     0.010 A 
ATOM     72  C   UNL A   1      45.937  28.210  37.709  1.00  0.00     0.020 A 
ATOM     73  C   UNL A   1      46.042  30.453  38.560  1.00  0.00     0.020 A 
ATOM     74  C   UNL A   1      46.598  29.183  38.452  1.00  0.00     0.054 A 
BRANCH  74  75
ATOM     75  S   UNL A   1      48.187  28.783  39.240  1.00  0.00     0.124 S 
ATOM     76  O   UNL A   1      49.128  29.630  38.511  1.00  0.00    -0.237 OA
ATOM     77  O   UNL A   1      47.959  29.155  40.634  1.00  0.00    -0.237 OA
ATOM     78  O   UNL A   1      48.339  27.348  39.006  1.00  0.00    -0.744 OA
ENDBRANCH  74  75
ENDBRANCH  55  69
BRANCH  56  79
ATOM     79  C   UNL A   1      36.830  32.896  30.956  1.00  0.00    -0.014 A 
ATOM     80  C   UNL A   1      35.516  32.489  31.289  1.00  0.00     0.010 A 
ATOM     81  C   UNL A   1      37.025  33.598  29.750  1.00  0.00     0.010 A 
ATOM     82  C   UNL A   1      34.413  33.014  30.608  1.00  0.00     0.020 A 
ATOM     83  C   UNL A   1      35.915  34.130  29.064  1.00  0.00     0.020 A 
ATOM     84  C   UNL A   1      34.623  33.899  29.552  1.00  0.00     0.054 A 
BRANCH  84  85
ATOM     85  S   UNL A   1      33.229  34.965  29.048  1.00  0.00     0.124 S 
ATOM     86  O   UNL A   1      32.603  34.181  27.990  1.00  0.00    -0.237 OA
ATOM     87  O   UNL A   1      32.464  35.087  30.288  1.00  0.00    -0.237 OA
ATOM     88  O   UNL A   1      33.891  36.193  28.619  1.00  0.00    -0.744 OA
ENDBRANCH  84  85
ENDBRANCH  56  79
BRANCH  68  89
ATOM     89  C   UNL A   1      38.054  32.586  38.244  1.00  0.00    -0.014 A 
ATOM     90  C   UNL A   1      38.188  33.622  39.179  1.00  0.00     0.010 A 
ATOM     91  C   UNL A   1      37.150  31.538  38.551  1.00  0.00     0.010 A 
ATOM     92  C   UNL A   1      37.475  33.599  40.380  1.00  0.00     0.020 A 
ATOM     93  C   UNL A   1      36.404  31.528  39.728  1.00  0.00     0.020 A 
ATOM     94  C   UNL A   1      36.586  32.555  40.645  1.00  0.00     0.054 A 
BRANCH  94  95
ATOM     95  S   UNL A   1      35.619  32.594  42.170  1.00  0.00     0.124 S 
ATOM     96  O   UNL A   1      36.100  33.825  42.792  1.00  0.00    -0.237 OA
ATOM     97  O   UNL A   1      34.242  32.637  41.678  1.00  0.00    -0.237 OA
ATOM     98  O   UNL A   1      35.992  31.357  42.851  1.00  0.00    -0.744 OA
ENDBRANCH  94  95
ENDBRANCH  68  89
ENDBRANCH  42  43
ENDBRANCH  35  37
ENDBRANCH  34  35
ENDBRANCH  33  34
ENDBRANCH  32  33
ENDBRANCH  31  32
ENDBRANCH  30  31
ENDBRANCH  29  30
ENDBRANCH  28  29
ENDBRANCH  27  28
ENDBRANCH   1  27
TORSDOF 29
ENDMDL
MODEL 3
REMARK VINA RESULT:      -8.3      7.086     14.709
REMARK SMILES Cc1cc(C(=O)OCCOCCOCCOCCOC(=O)c2ccc(-c3c4nc(c(-c5ccc(S(=O)(=O)[O-])cc5)c5ccc([nH]5)c(-c5ccc(S(=O)(=O)[O-])cc5)c5nc(c(-c6ccc(S(=O)(=O)[O-])cc6)c6ccc3[nH]6)C=C5)C=C4)cc2)ccc1NCCCC(=O)NC1CC1
REMARK SMILES IDX 11 1 10 2 9 3 8 4 7 5 5 6 6 7 4 8 1 9 2 10 3 11 84 12 83 13
REMARK SMILES IDX 82 14 85 15 86 17 87 18 88 19 89 20 90 21 91 22 92 24 93 25
REMARK SMILES IDX 94 26 12 27 13 28 14 29 15 30 16 31 17 32 18 33 19 34 20 35
REMARK SMILES IDX 21 36 22 37 23 38 81 39 24 40 80 41 25 42 26 43 27 44 74 45
REMARK SMILES IDX 28 46 79 47 73 48 75 49 29 50 78 51 72 52 71 53 30 55 60 56
REMARK SMILES IDX 41 57 59 58 42 59 45 60 58 61 76 62 43 63 44 64 57 66 77 67
REMARK SMILES IDX 46 68 31 69 32 70 40 71 33 72 39 73 34 74 35 75 36 76 37 77
REMARK SMILES IDX 38 78 61 79 62 80 70 81 63 82 69 83 64 84 65 85 66 86 67 87
REMARK SMILES IDX 68 88 47 89 48 90 56 91 49 92 55 93 50 94 51 95 52 96 53 97
REMARK SMILES IDX 54 98
REMARK H PARENT 85 16 91 23 75 54 45 65
REMARK Flexibility Score: inf
ROOT
ATOM      1  C   UNL A   1      33.591  36.913  31.760  1.00  0.00     0.188 C 
ENDROOT
BRANCH   1   2
ATOM      2  O   UNL A   1      32.545  36.877  30.797  1.00  0.00    -0.376 OA
BRANCH   2   3
ATOM      3  C   UNL A   1      32.957  36.563  29.467  1.00  0.00     0.202 C 
BRANCH   3   4
ATOM      4  C   UNL A   1      32.870  35.095  29.067  1.00  0.00     0.261 C 
BRANCH   4   5
ATOM      5  O   UNL A   1      34.112  34.715  28.488  1.00  0.00    -0.460 OA
BRANCH   5   6
ATOM      6  C   UNL A   1      34.169  33.427  28.126  1.00  0.00     0.338 C 
ATOM      7  O   UNL A   1      33.439  32.820  27.369  1.00  0.00    -0.246 OA
BRANCH   6   8
ATOM      8  C   UNL A   1      35.509  32.966  28.498  1.00  0.00     0.060 A 
ATOM      9  C   UNL A   1      38.247  34.680  30.382  1.00  0.00     0.046 C 
ATOM     10  C   UNL A   1      37.546  33.613  29.590  1.00  0.00    -0.027 A 
ATOM     11  C   UNL A   1      36.272  33.925  29.146  1.00  0.00     0.021 A 
ATOM     12  C   UNL A   1      38.069  32.329  29.324  1.00  0.00     0.037 A 
ATOM     13  C   UNL A   1      37.223  31.322  28.855  1.00  0.00     0.027 A 
ATOM     14  C   UNL A   1      35.943  31.643  28.416  1.00  0.00     0.018 A 
BRANCH  12  15
ATOM     15  N   UNL A   1      39.419  32.139  29.504  1.00  0.00    -0.385 N 
ATOM     16  H   UNL A   1      39.852  31.485  28.908  1.00  0.00     0.160 HD
BRANCH  15  17
ATOM     17  C   UNL A   1      40.270  32.789  30.468  1.00  0.00     0.113 C 
BRANCH  17  18
ATOM     18  C   UNL A   1      41.637  33.042  29.825  1.00  0.00     0.031 C 
BRANCH  18  19
ATOM     19  C   UNL A   1      42.366  34.328  30.227  1.00  0.00     0.102 C 
BRANCH  19  20
ATOM     20  C   UNL A   1      43.799  34.526  29.795  1.00  0.00     0.220 C 
ATOM     21  O   UNL A   1      44.672  33.760  30.219  1.00  0.00    -0.275 OA
ATOM     22  N   UNL A   1      44.179  35.454  28.875  1.00  0.00    -0.353 N 
ATOM     23  H   UNL A   1      45.077  35.301  28.503  1.00  0.00     0.163 HD
BRANCH  22  24
ATOM     24  C   UNL A   1      43.527  36.603  28.349  1.00  0.00     0.082 C 
ATOM     25  C   UNL A   1      44.404  37.667  27.716  1.00  0.00     0.027 C 
ATOM     26  C   UNL A   1      43.389  36.945  26.896  1.00  0.00     0.027 C 
ENDBRANCH  22  24
ENDBRANCH  19  20
ENDBRANCH  18  19
ENDBRANCH  17  18
ENDBRANCH  15  17
ENDBRANCH  12  15
ENDBRANCH   6   8
ENDBRANCH   5   6
ENDBRANCH   4   5
ENDBRANCH   3   4
ENDBRANCH   2   3
ENDBRANCH   1   2
BRANCH   1  27
ATOM     27  C   UNL A   1      33.751  35.705  32.686  1.00  0.00     0.188 C 
BRANCH  27  28
ATOM     28  O   UNL A   1      35.005  35.036  32.669  1.00  0.00    -0.377 OA
BRANCH  28  29
ATOM     29  C   UNL A   1      35.081  33.700  33.183  1.00  0.00     0.188 C 
BRANCH  29  30
ATOM     30  C   UNL A   1      36.459  33.062  33.319  1.00  0.00     0.188 C 
BRANCH  30  31
ATOM     31  O   UNL A   1      36.514  31.939  32.427  1.00  0.00    -0.376 OA
BRANCH  31  32
ATOM     32  C   UNL A   1      36.715  30.678  33.051  1.00  0.00     0.202 C 
BRANCH  32  33
ATOM     33  C   UNL A   1      36.979  29.531  32.072  1.00  0.00     0.261 C 
BRANCH  33  34
ATOM     34  O   UNL A   1      38.249  29.687  31.405  1.00  0.00    -0.460 OA
BRANCH  34  35
ATOM     35  C   UNL A   1      38.771  28.552  30.857  1.00  0.00     0.338 C 
ATOM     36  O   UNL A   1      38.261  27.451  30.974  1.00  0.00    -0.246 OA
BRANCH  35  37
ATOM     37  C   UNL A   1      39.920  28.868  29.968  1.00  0.00     0.060 A 
ATOM     38  C   UNL A   1      39.842  28.727  28.577  1.00  0.00     0.016 A 
ATOM     39  C   UNL A   1      41.122  29.246  30.545  1.00  0.00     0.016 A 
ATOM     40  C   UNL A   1      41.004  28.817  27.784  1.00  0.00     0.010 A 
ATOM     41  C   UNL A   1      42.260  29.300  29.763  1.00  0.00     0.010 A 
ATOM     42  C   UNL A   1      42.245  29.039  28.385  1.00  0.00    -0.014 A 
BRANCH  42  43
ATOM     43  C   UNL A   1      43.578  28.843  27.758  1.00  0.00     0.031 A 
ATOM     44  C   UNL A   1      44.380  30.019  27.248  1.00  0.00     0.074 A 
ATOM     45  C   UNL A   1      44.236  27.685  28.039  1.00  0.00     0.049 A 
ATOM     46  N   UNL A   1      45.570  29.943  26.742  1.00  0.00    -0.248 NA
ATOM     47  C   UNL A   1      43.920  31.412  27.282  1.00  0.00     0.031 C 
ATOM     48  C   UNL A   1      45.686  27.512  28.128  1.00  0.00     0.029 A 
ATOM     49  N   UNL A   1      43.772  26.407  28.343  1.00  0.00    -0.354 N 
ATOM     50  C   UNL A   1      46.154  31.196  26.821  1.00  0.00     0.074 A 
ATOM     51  C   UNL A   1      45.045  32.092  27.025  1.00  0.00     0.031 C 
ATOM     52  C   UNL A   1      45.998  26.226  28.337  1.00  0.00     0.029 A 
ATOM     53  C   UNL A   1      44.788  25.480  28.097  1.00  0.00     0.049 A 
ATOM     54  H   UNL A   1      42.871  26.191  28.677  1.00  0.00     0.167 HD
ATOM     55  C   UNL A   1      47.517  31.314  26.893  1.00  0.00     0.031 A 
ATOM     56  C   UNL A   1      44.713  24.488  27.161  1.00  0.00     0.031 A 
ATOM     57  C   UNL A   1      48.207  30.026  26.683  1.00  0.00     0.049 A 
ATOM     58  C   UNL A   1      45.735  24.743  26.064  1.00  0.00     0.074 A 
ATOM     59  C   UNL A   1      49.212  29.348  27.349  1.00  0.00     0.029 A 
ATOM     60  N   UNL A   1      47.767  29.155  25.685  1.00  0.00    -0.354 N 
ATOM     61  N   UNL A   1      46.195  25.945  25.809  1.00  0.00    -0.248 NA
ATOM     62  C   UNL A   1      46.429  23.723  25.280  1.00  0.00     0.031 C 
ATOM     63  C   UNL A   1      49.245  28.010  26.861  1.00  0.00     0.029 A 
ATOM     64  C   UNL A   1      48.341  27.909  25.814  1.00  0.00     0.049 A 
ATOM     65  H   UNL A   1      47.127  29.399  24.978  1.00  0.00     0.167 HD
ATOM     66  C   UNL A   1      47.296  25.860  25.014  1.00  0.00     0.074 A 
ATOM     67  C   UNL A   1      47.351  24.461  24.627  1.00  0.00     0.031 C 
ATOM     68  C   UNL A   1      48.152  26.897  24.783  1.00  0.00     0.031 A 
BRANCH  55  69
ATOM     69  C   UNL A   1      48.270  32.568  27.369  1.00  0.00    -0.014 A 
ATOM     70  C   UNL A   1      47.783  33.304  28.475  1.00  0.00     0.010 A 
ATOM     71  C   UNL A   1      49.397  33.129  26.728  1.00  0.00     0.010 A 
ATOM     72  C   UNL A   1      48.371  34.510  28.911  1.00  0.00     0.020 A 
ATOM     73  C   UNL A   1      50.024  34.312  27.181  1.00  0.00     0.020 A 
ATOM     74  C   UNL A   1      49.500  35.004  28.267  1.00  0.00     0.054 A 
BRANCH  74  75
ATOM     75  S   UNL A   1      50.283  36.528  28.874  1.00  0.00     0.124 S 
ATOM     76  O   UNL A   1      50.783  36.130  30.187  1.00  0.00    -0.237 OA
ATOM     77  O   UNL A   1      51.308  36.789  27.866  1.00  0.00    -0.237 OA
ATOM     78  O   UNL A   1      49.187  37.496  28.898  1.00  0.00    -0.744 OA
ENDBRANCH  74  75
ENDBRANCH  55  69
BRANCH  56  79
ATOM     79  C   UNL A   1      43.397  23.784  27.153  1.00  0.00    -0.014 A 
ATOM     80  C   UNL A   1      42.914  23.485  25.857  1.00  0.00     0.010 A 
ATOM     81  C   UNL A   1      43.066  22.908  28.206  1.00  0.00     0.010 A 
ATOM     82  C   UNL A   1      42.384  22.224  25.566  1.00  0.00     0.020 A 
ATOM     83  C   UNL A   1      42.535  21.635  27.914  1.00  0.00     0.020 A 
ATOM     84  C   UNL A   1      42.278  21.279  26.585  1.00  0.00     0.054 A 
BRANCH  84  85
ATOM     85  S   UNL A   1      42.109  19.527  26.103  1.00  0.00     0.124 S 
ATOM     86  O   UNL A   1      40.737  19.468  25.613  1.00  0.00    -0.237 OA
ATOM     87  O   UNL A   1      43.153  19.378  25.089  1.00  0.00    -0.237 OA
ATOM     88  O   UNL A   1      42.367  18.814  27.350  1.00  0.00    -0.744 OA
ENDBRANCH  84  85
ENDBRANCH  56  79
BRANCH  68  89
ATOM     89  C   UNL A   1      48.946  27.054  23.517  1.00  0.00    -0.014 A 
ATOM     90  C   UNL A   1      50.347  27.077  23.518  1.00  0.00     0.010 A 
ATOM     91  C   UNL A   1      48.294  26.904  22.267  1.00  0.00     0.010 A 
ATOM     92  C   UNL A   1      51.067  26.987  22.324  1.00  0.00     0.020 A 
ATOM     93  C   UNL A   1      49.005  26.772  21.075  1.00  0.00     0.020 A 
ATOM     94  C   UNL A   1      50.392  26.832  21.112  1.00  0.00     0.054 A 
BRANCH  94  95
ATOM     95  S   UNL A   1      51.350  26.636  19.594  1.00  0.00     0.124 S 
ATOM     96  O   UNL A   1      50.406  27.113  18.586  1.00  0.00    -0.237 OA
ATOM     97  O   UNL A   1      52.506  27.501  19.827  1.00  0.00    -0.237 OA
ATOM     98  O   UNL A   1      51.648  25.207  19.552  1.00  0.00    -0.744 OA
ENDBRANCH  94  95
ENDBRANCH  68  89
ENDBRANCH  42  43
ENDBRANCH  35  37
ENDBRANCH  34  35
ENDBRANCH  33  34
ENDBRANCH  32  33
ENDBRANCH  31  32
ENDBRANCH  30  31
ENDBRANCH  29  30
ENDBRANCH  28  29
ENDBRANCH  27  28
ENDBRANCH   1  27
TORSDOF 29
ENDMDL
