MODEL 1
REMARK VINA RESULT:     -10.3      0.000      0.000
REMARK SMILES Cc1ccc(NC(=O)c2ccccc2NC(=O)[C@H]2CCCC[C@H]2C(=O)OCCOCCOCCOCCOC(=O)c2ccc(-c3c4nc(c(-c5ccc(S(=O)(=O)[O-])cc5)c5ccc([nH]5)c(-c5ccc(S(=O)(=O)[O-])cc5)c5nc(c(-c6ccc(S(=O)(=O)[O-])cc6)c6ccc3[nH]6)C=C5)C=C4)cc2)cc1
REMARK SMILES IDX 31 1 30 2 29 3 28 4 27 5 26 6 24 7 25 8 23 9 18 10 19 11
REMARK SMILES IDX 20 12 22 13 21 14 16 15 15 16 17 18 14 19 9 20 10 21 11 22
REMARK SMILES IDX 13 23 12 24 7 25 6 26 8 28 5 29 1 30 2 31 3 32 102 33 4 34
REMARK SMILES IDX 101 35 32 36 33 37 34 38 35 39 36 40 37 41 38 42 39 43 40 44
REMARK SMILES IDX 41 45 42 46 100 47 43 48 99 49 44 50 45 51 46 52 93 53 47 54
REMARK SMILES IDX 98 55 92 56 94 57 48 58 97 59 91 60 90 61 49 63 79 64 60 65
REMARK SMILES IDX 78 66 61 67 64 68 77 69 95 70 62 71 63 72 76 74 96 75 65 76
REMARK SMILES IDX 50 77 51 78 59 79 52 80 58 81 53 82 54 83 55 84 56 85 57 86
REMARK SMILES IDX 80 87 81 88 89 89 82 90 88 91 83 92 84 93 85 94 86 95 87 96
REMARK SMILES IDX 66 97 67 98 75 99 68 100 74 101 69 102 70 103 71 104 72 105
REMARK SMILES IDX 73 106
REMARK H PARENT 15 17 6 27 94 62 64 73
REMARK Flexibility Score: inf
ROOT
ATOM      1  C   UNL A   1      39.711  27.373  27.907  1.00  0.00     0.188 C 
ENDROOT
BRANCH   1   2
ATOM      2  C   UNL A   1      38.624  28.146  28.661  1.00  0.00     0.188 C 
BRANCH   2   3
ATOM      3  O   UNL A   1      38.565  29.548  28.596  1.00  0.00    -0.376 OA
BRANCH   3   4
ATOM      4  C   UNL A   1      37.365  30.134  28.114  1.00  0.00     0.202 C 
BRANCH   4   5
ATOM      5  C   UNL A   1      36.002  29.654  28.587  1.00  0.00     0.261 C 
BRANCH   5   6
ATOM      6  O   UNL A   1      35.234  29.100  27.497  1.00  0.00    -0.463 OA
BRANCH   6   7
ATOM      7  C   UNL A   1      34.211  29.857  27.077  1.00  0.00     0.309 C 
ATOM      8  O   UNL A   1      33.920  30.961  27.536  1.00  0.00    -0.252 OA
BRANCH   7   9
ATOM      9  C   UNL A   1      33.360  29.226  26.008  1.00  0.00     0.111 C 
ATOM     10  C   UNL A   1      33.694  27.822  25.446  1.00  0.00     0.093 C 
ATOM     11  C   UNL A   1      33.118  27.800  24.010  1.00  0.00     0.014 C 
ATOM     12  C   UNL A   1      31.654  28.283  23.934  1.00  0.00     0.001 C 
ATOM     13  C   UNL A   1      31.885  29.592  26.072  1.00  0.00     0.016 C 
ATOM     14  C   UNL A   1      31.370  29.614  24.635  1.00  0.00     0.001 C 
BRANCH  10  15
ATOM     15  C   UNL A   1      33.220  26.530  26.154  1.00  0.00     0.228 C 
ATOM     16  N   UNL A   1      33.710  25.254  25.902  1.00  0.00    -0.325 N 
ATOM     17  H   UNL A   1      33.154  24.573  26.345  1.00  0.00     0.169 HD
ATOM     18  O   UNL A   1      32.246  26.592  26.918  1.00  0.00    -0.274 OA
BRANCH  16  19
ATOM     19  C   UNL A   1      34.790  24.642  25.182  1.00  0.00     0.054 A 
ATOM     20  C   UNL A   1      34.705  24.309  23.788  1.00  0.00     0.063 A 
ATOM     21  C   UNL A   1      35.684  23.440  23.225  1.00  0.00     0.016 A 
ATOM     22  C   UNL A   1      36.744  22.937  23.962  1.00  0.00     0.001 A 
ATOM     23  C   UNL A   1      35.957  24.230  25.842  1.00  0.00     0.027 A 
ATOM     24  C   UNL A   1      36.897  23.363  25.264  1.00  0.00     0.002 A 
BRANCH  20  25
ATOM     25  C   UNL A   1      33.676  24.676  22.746  1.00  0.00     0.257 C 
ATOM     26  N   UNL A   1      32.372  24.258  22.746  1.00  0.00    -0.322 N 
ATOM     27  H   UNL A   1      31.940  24.265  21.863  1.00  0.00     0.170 HD
ATOM     28  O   UNL A   1      34.001  25.445  21.838  1.00  0.00    -0.269 OA
BRANCH  26  29
ATOM     29  C   UNL A   1      31.560  23.826  23.788  1.00  0.00     0.041 A 
ATOM     30  C   UNL A   1      29.764  22.700  27.497  1.00  0.00     0.044 C 
ATOM     31  C   UNL A   1      30.326  23.044  26.155  1.00  0.00    -0.051 A 
ATOM     32  C   UNL A   1      30.005  24.272  25.569  1.00  0.00     0.005 A 
ATOM     33  C   UNL A   1      31.175  22.160  25.480  1.00  0.00     0.005 A 
ATOM     34  C   UNL A   1      30.608  24.654  24.377  1.00  0.00     0.026 A 
ATOM     35  C   UNL A   1      31.773  22.541  24.281  1.00  0.00     0.026 A 
ENDBRANCH  26  29
ENDBRANCH  20  25
ENDBRANCH  16  19
ENDBRANCH  10  15
ENDBRANCH   7   9
ENDBRANCH   6   7
ENDBRANCH   5   6
ENDBRANCH   4   5
ENDBRANCH   3   4
ENDBRANCH   2   3
ENDBRANCH   1   2
BRANCH   1  36
ATOM     36  O   UNL A   1      39.611  25.972  27.747  1.00  0.00    -0.377 OA
BRANCH  36  37
ATOM     37  C   UNL A   1      40.260  25.352  26.630  1.00  0.00     0.188 C 
BRANCH  37  38
ATOM     38  C   UNL A   1      40.855  23.966  26.810  1.00  0.00     0.188 C 
BRANCH  38  39
ATOM     39  O   UNL A   1      42.209  23.966  26.355  1.00  0.00    -0.376 OA
BRANCH  39  40
ATOM     40  C   UNL A   1      42.819  22.683  26.359  1.00  0.00     0.202 C 
BRANCH  40  41
ATOM     41  C   UNL A   1      44.339  22.730  26.196  1.00  0.00     0.261 C 
BRANCH  41  42
ATOM     42  O   UNL A   1      44.811  24.068  26.443  1.00  0.00    -0.460 OA
BRANCH  42  43
ATOM     43  C   UNL A   1      45.940  24.140  27.217  1.00  0.00     0.338 C 
ATOM     44  O   UNL A   1      47.021  23.761  26.849  1.00  0.00    -0.246 OA
BRANCH  43  45
ATOM     45  C   UNL A   1      45.642  24.820  28.515  1.00  0.00     0.060 A 
ATOM     46  C   UNL A   1      46.672  25.269  29.352  1.00  0.00     0.016 A 
ATOM     47  C   UNL A   1      44.329  24.895  28.959  1.00  0.00     0.016 A 
ATOM     48  C   UNL A   1      46.396  25.662  30.678  1.00  0.00     0.010 A 
ATOM     49  C   UNL A   1      44.075  25.213  30.279  1.00  0.00     0.010 A 
ATOM     50  C   UNL A   1      45.098  25.578  31.170  1.00  0.00    -0.014 A 
BRANCH  50  51
ATOM     51  C   UNL A   1      44.676  25.714  32.581  1.00  0.00     0.031 A 
ATOM     52  C   UNL A   1      44.132  27.035  33.046  1.00  0.00     0.074 A 
ATOM     53  C   UNL A   1      44.421  24.598  33.315  1.00  0.00     0.049 A 
ATOM     54  N   UNL A   1      43.578  27.234  34.193  1.00  0.00    -0.248 NA
ATOM     55  C   UNL A   1      44.102  28.249  32.224  1.00  0.00     0.031 C 
ATOM     56  C   UNL A   1      43.453  24.457  34.414  1.00  0.00     0.029 A 
ATOM     57  N   UNL A   1      44.933  23.316  33.228  1.00  0.00    -0.354 N 
ATOM     58  C   UNL A   1      42.824  28.383  34.123  1.00  0.00     0.074 A 
ATOM     59  C   UNL A   1      43.255  29.030  32.909  1.00  0.00     0.031 C 
ATOM     60  C   UNL A   1      43.530  23.236  34.965  1.00  0.00     0.029 A 
ATOM     61  C   UNL A   1      44.736  22.641  34.440  1.00  0.00     0.049 A 
ATOM     62  H   UNL A   1      45.371  22.936  32.432  1.00  0.00     0.167 HD
ATOM     63  C   UNL A   1      41.825  28.569  35.037  1.00  0.00     0.031 A 
ATOM     64  C   UNL A   1      45.811  22.375  35.249  1.00  0.00     0.031 A 
ATOM     65  C   UNL A   1      41.914  27.604  36.147  1.00  0.00     0.049 A 
ATOM     66  C   UNL A   1      45.794  23.243  36.496  1.00  0.00     0.074 A 
ATOM     67  C   UNL A   1      41.049  26.712  36.759  1.00  0.00     0.029 A 
ATOM     68  N   UNL A   1      43.167  27.359  36.706  1.00  0.00    -0.354 N 
ATOM     69  N   UNL A   1      45.222  24.421  36.543  1.00  0.00    -0.248 NA
ATOM     70  C   UNL A   1      46.249  22.805  37.816  1.00  0.00     0.031 C 
ATOM     71  C   UNL A   1      41.831  25.831  37.566  1.00  0.00     0.029 A 
ATOM     72  C   UNL A   1      43.155  26.243  37.509  1.00  0.00     0.049 A 
ATOM     73  H   UNL A   1      43.963  27.915  36.545  1.00  0.00     0.167 HD
ATOM     74  C   UNL A   1      45.099  24.820  37.841  1.00  0.00     0.074 A 
ATOM     75  C   UNL A   1      45.820  23.813  38.600  1.00  0.00     0.031 C 
ATOM     76  C   UNL A   1      44.353  25.884  38.252  1.00  0.00     0.031 A 
BRANCH  63  77
ATOM     77  C   UNL A   1      40.667  29.541  34.882  1.00  0.00    -0.014 A 
ATOM     78  C   UNL A   1      40.021  29.656  33.631  1.00  0.00     0.010 A 
ATOM     79  C   UNL A   1      40.220  30.431  35.883  1.00  0.00     0.010 A 
ATOM     80  C   UNL A   1      38.989  30.582  33.394  1.00  0.00     0.020 A 
ATOM     81  C   UNL A   1      39.161  31.337  35.672  1.00  0.00     0.020 A 
ATOM     82  C   UNL A   1      38.554  31.411  34.423  1.00  0.00     0.054 A 
BRANCH  82  83
ATOM     83  S   UNL A   1      37.185  32.561  34.109  1.00  0.00     0.124 S 
ATOM     84  O   UNL A   1      36.276  31.755  33.299  1.00  0.00    -0.237 OA
ATOM     85  O   UNL A   1      36.715  32.874  35.457  1.00  0.00    -0.237 OA
ATOM     86  O   UNL A   1      37.819  33.674  33.405  1.00  0.00    -0.744 OA
ENDBRANCH  82  83
ENDBRANCH  63  77
BRANCH  64  87
ATOM     87  C   UNL A   1      46.958  21.835  34.454  1.00  0.00    -0.014 A 
ATOM     88  C   UNL A   1      48.079  22.698  34.433  1.00  0.00     0.010 A 
ATOM     89  C   UNL A   1      47.179  20.445  34.366  1.00  0.00     0.010 A 
ATOM     90  C   UNL A   1      49.362  22.190  34.630  1.00  0.00     0.020 A 
ATOM     91  C   UNL A   1      48.482  19.934  34.524  1.00  0.00     0.020 A 
ATOM     92  C   UNL A   1      49.538  20.814  34.760  1.00  0.00     0.054 A 
BRANCH  92  93
ATOM     93  S   UNL A   1      51.094  20.242  35.510  1.00  0.00     0.124 S 
ATOM     94  O   UNL A   1      51.094  18.824  35.165  1.00  0.00    -0.237 OA
ATOM     95  O   UNL A   1      52.062  21.079  34.801  1.00  0.00    -0.237 OA
ATOM     96  O   UNL A   1      50.918  20.546  36.927  1.00  0.00    -0.744 OA
ENDBRANCH  92  93
ENDBRANCH  64  87
BRANCH  76  97
ATOM     97  C   UNL A   1      44.745  26.754  39.420  1.00  0.00    -0.014 A 
ATOM     98  C   UNL A   1      44.342  26.482  40.735  1.00  0.00     0.010 A 
ATOM     99  C   UNL A   1      45.749  27.739  39.239  1.00  0.00     0.010 A 
ATOM    100  C   UNL A   1      44.877  27.189  41.814  1.00  0.00     0.020 A 
ATOM    101  C   UNL A   1      46.327  28.411  40.314  1.00  0.00     0.020 A 
ATOM    102  C   UNL A   1      45.866  28.148  41.597  1.00  0.00     0.054 A 
BRANCH 102 103
ATOM    103  S   UNL A   1      46.573  29.004  43.019  1.00  0.00     0.124 S 
ATOM    104  O   UNL A   1      45.586  30.056  43.249  1.00  0.00    -0.237 OA
ATOM    105  O   UNL A   1      46.621  27.955  44.036  1.00  0.00    -0.237 OA
ATOM    106  O   UNL A   1      47.876  29.459  42.541  1.00  0.00    -0.744 OA
ENDBRANCH 102 103
ENDBRANCH  76  97
ENDBRANCH  50  51
ENDBRANCH  43  45
ENDBRANCH  42  43
ENDBRANCH  41  42
ENDBRANCH  40  41
ENDBRANCH  39  40
ENDBRANCH  38  39
ENDBRANCH  37  38
ENDBRANCH  36  37
ENDBRANCH   1  36
TORSDOF 27
ENDMDL
MODEL 2
REMARK VINA RESULT:      -9.8      6.192      7.980
REMARK SMILES Cc1ccc(NC(=O)c2ccccc2NC(=O)[C@H]2CCCC[C@H]2C(=O)OCCOCCOCCOCCOC(=O)c2ccc(-c3c4nc(c(-c5ccc(S(=O)(=O)[O-])cc5)c5ccc([nH]5)c(-c5ccc(S(=O)(=O)[O-])cc5)c5nc(c(-c6ccc(S(=O)(=O)[O-])cc6)c6ccc3[nH]6)C=C5)C=C4)cc2)cc1
REMARK SMILES IDX 31 1 30 2 29 3 28 4 27 5 26 6 24 7 25 8 23 9 18 10 19 11
REMARK SMILES IDX 20 12 22 13 21 14 16 15 15 16 17 18 14 19 9 20 10 21 11 22
REMARK SMILES IDX 13 23 12 24 7 25 6 26 8 28 5 29 1 30 2 31 3 32 102 33 4 34
REMARK SMILES IDX 101 35 32 36 33 37 34 38 35 39 36 40 37 41 38 42 39 43 40 44
REMARK SMILES IDX 41 45 42 46 100 47 43 48 99 49 44 50 45 51 46 52 93 53 47 54
REMARK SMILES IDX 98 55 92 56 94 57 48 58 97 59 91 60 90 61 49 63 79 64 60 65
REMARK SMILES IDX 78 66 61 67 64 68 77 69 95 70 62 71 63 72 76 74 96 75 65 76
REMARK SMILES IDX 50 77 51 78 59 79 52 80 58 81 53 82 54 83 55 84 56 85 57 86
REMARK SMILES IDX 80 87 81 88 89 89 82 90 88 91 83 92 84 93 85 94 86 95 87 96
REMARK SMILES IDX 66 97 67 98 75 99 68 100 74 101 69 102 70 103 71 104 72 105
REMARK SMILES IDX 73 106
REMARK H PARENT 15 17 6 27 94 62 64 73
REMARK Flexibility Score: inf
ROOT
ATOM      1  C   UNL A   1      39.553  26.757  27.762  1.00  0.00     0.188 C 
ENDROOT
BRANCH   1   2
ATOM      2  C   UNL A   1      38.678  27.806  28.456  1.00  0.00     0.188 C 
BRANCH   2   3
ATOM      3  O   UNL A   1      38.883  29.177  28.226  1.00  0.00    -0.376 OA
BRANCH   3   4
ATOM      4  C   UNL A   1      37.735  29.990  28.034  1.00  0.00     0.202 C 
BRANCH   4   5
ATOM      5  C   UNL A   1      36.378  29.591  28.590  1.00  0.00     0.261 C 
BRANCH   5   6
ATOM      6  O   UNL A   1      35.519  29.066  27.555  1.00  0.00    -0.463 OA
BRANCH   6   7
ATOM      7  C   UNL A   1      34.434  29.804  27.286  1.00  0.00     0.309 C 
ATOM      8  O   UNL A   1      34.098  30.811  27.907  1.00  0.00    -0.252 OA
BRANCH   7   9
ATOM      9  C   UNL A   1      33.574  29.272  26.170  1.00  0.00     0.111 C 
ATOM     10  C   UNL A   1      33.843  27.880  25.547  1.00  0.00     0.093 C 
ATOM     11  C   UNL A   1      33.299  27.959  24.101  1.00  0.00     0.014 C 
ATOM     12  C   UNL A   1      31.865  28.525  24.021  1.00  0.00     0.001 C 
ATOM     13  C   UNL A   1      32.120  29.715  26.223  1.00  0.00     0.016 C 
ATOM     14  C   UNL A   1      31.638  29.834  24.780  1.00  0.00     0.001 C 
BRANCH  10  15
ATOM     15  C   UNL A   1      33.286  26.585  26.182  1.00  0.00     0.228 C 
ATOM     16  N   UNL A   1      33.702  25.297  25.868  1.00  0.00    -0.325 N 
ATOM     17  H   UNL A   1      33.101  24.627  26.269  1.00  0.00     0.169 HD
ATOM     18  O   UNL A   1      32.308  26.665  26.939  1.00  0.00    -0.274 OA
BRANCH  16  19
ATOM     19  C   UNL A   1      34.753  24.659  25.127  1.00  0.00     0.054 A 
ATOM     20  C   UNL A   1      34.640  24.346  23.730  1.00  0.00     0.063 A 
ATOM     21  C   UNL A   1      35.583  23.453  23.144  1.00  0.00     0.016 A 
ATOM     22  C   UNL A   1      36.636  22.907  23.861  1.00  0.00     0.001 A 
ATOM     23  C   UNL A   1      35.914  24.202  25.766  1.00  0.00     0.027 A 
ATOM     24  C   UNL A   1      36.818  23.312  25.166  1.00  0.00     0.002 A 
BRANCH  20  25
ATOM     25  C   UNL A   1      33.611  24.758  22.706  1.00  0.00     0.257 C 
ATOM     26  N   UNL A   1      32.293  24.388  22.721  1.00  0.00    -0.322 N 
ATOM     27  H   UNL A   1      31.848  24.418  21.844  1.00  0.00     0.170 HD
ATOM     28  O   UNL A   1      33.950  25.523  21.800  1.00  0.00    -0.269 OA
BRANCH  26  29
ATOM     29  C   UNL A   1      31.480  23.976  23.770  1.00  0.00     0.041 A 
ATOM     30  C   UNL A   1      29.721  22.798  27.481  1.00  0.00     0.044 C 
ATOM     31  C   UNL A   1      30.263  23.172  26.139  1.00  0.00    -0.051 A 
ATOM     32  C   UNL A   1      30.061  24.466  25.651  1.00  0.00     0.005 A 
ATOM     33  C   UNL A   1      30.977  22.248  25.367  1.00  0.00     0.005 A 
ATOM     34  C   UNL A   1      30.654  24.861  24.458  1.00  0.00     0.026 A 
ATOM     35  C   UNL A   1      31.565  22.644  24.167  1.00  0.00     0.026 A 
ENDBRANCH  26  29
ENDBRANCH  20  25
ENDBRANCH  16  19
ENDBRANCH  10  15
ENDBRANCH   7   9
ENDBRANCH   6   7
ENDBRANCH   5   6
ENDBRANCH   4   5
ENDBRANCH   3   4
ENDBRANCH   2   3
ENDBRANCH   1   2
BRANCH   1  36
ATOM     36  O   UNL A   1      39.386  25.383  28.052  1.00  0.00    -0.377 OA
BRANCH  36  37
ATOM     37  C   UNL A   1      39.758  24.414  27.063  1.00  0.00     0.188 C 
BRANCH  37  38
ATOM     38  C   UNL A   1      40.150  23.020  27.520  1.00  0.00     0.188 C 
BRANCH  38  39
ATOM     39  O   UNL A   1      40.546  22.241  26.390  1.00  0.00    -0.376 OA
BRANCH  39  40
ATOM     40  C   UNL A   1      40.886  20.899  26.705  1.00  0.00     0.202 C 
BRANCH  40  41
ATOM     41  C   UNL A   1      42.218  20.449  26.101  1.00  0.00     0.261 C 
BRANCH  41  42
ATOM     42  O   UNL A   1      42.722  21.473  25.223  1.00  0.00    -0.460 OA
BRANCH  42  43
ATOM     43  C   UNL A   1      44.011  21.860  25.480  1.00  0.00     0.338 C 
ATOM     44  O   UNL A   1      44.956  21.119  25.392  1.00  0.00    -0.246 OA
BRANCH  43  45
ATOM     45  C   UNL A   1      44.066  23.320  25.793  1.00  0.00     0.060 A 
ATOM     46  C   UNL A   1      44.526  24.248  24.849  1.00  0.00     0.016 A 
ATOM     47  C   UNL A   1      43.779  23.753  27.081  1.00  0.00     0.016 A 
ATOM     48  C   UNL A   1      44.825  25.572  25.233  1.00  0.00     0.010 A 
ATOM     49  C   UNL A   1      44.140  25.029  27.466  1.00  0.00     0.010 A 
ATOM     50  C   UNL A   1      44.691  25.955  26.564  1.00  0.00    -0.014 A 
BRANCH  50  51
ATOM     51  C   UNL A   1      45.181  27.208  27.178  1.00  0.00     0.031 A 
ATOM     52  C   UNL A   1      44.244  28.378  27.275  1.00  0.00     0.074 A 
ATOM     53  C   UNL A   1      46.287  27.178  27.969  1.00  0.00     0.049 A 
ATOM     54  N   UNL A   1      44.491  29.459  27.933  1.00  0.00    -0.248 NA
ATOM     55  C   UNL A   1      42.900  28.408  26.689  1.00  0.00     0.031 C 
ATOM     56  C   UNL A   1      46.583  28.046  29.119  1.00  0.00     0.029 A 
ATOM     57  N   UNL A   1      47.387  26.340  27.962  1.00  0.00    -0.354 N 
ATOM     58  C   UNL A   1      43.300  30.105  28.177  1.00  0.00     0.074 A 
ATOM     59  C   UNL A   1      42.350  29.463  27.304  1.00  0.00     0.031 C 
ATOM     60  C   UNL A   1      47.804  27.789  29.611  1.00  0.00     0.029 A 
ATOM     61  C   UNL A   1      48.456  26.951  28.633  1.00  0.00     0.049 A 
ATOM     62  H   UNL A   1      47.415  25.448  27.546  1.00  0.00     0.167 HD
ATOM     63  C   UNL A   1      43.244  31.013  29.197  1.00  0.00     0.031 A 
ATOM     64  C   UNL A   1      49.537  27.398  27.918  1.00  0.00     0.031 A 
ATOM     65  C   UNL A   1      44.587  31.358  29.696  1.00  0.00     0.049 A 
ATOM     66  C   UNL A   1      49.574  28.917  27.861  1.00  0.00     0.074 A 
ATOM     67  C   UNL A   1      45.208  31.391  30.933  1.00  0.00     0.029 A 
ATOM     68  N   UNL A   1      45.593  31.603  28.762  1.00  0.00    -0.354 N 
ATOM     69  N   UNL A   1      48.502  29.665  27.953  1.00  0.00    -0.248 NA
ATOM     70  C   UNL A   1      50.799  29.715  27.874  1.00  0.00     0.031 C 
ATOM     71  C   UNL A   1      46.615  31.499  30.711  1.00  0.00     0.029 A 
ATOM     72  C   UNL A   1      46.836  31.616  29.346  1.00  0.00     0.049 A 
ATOM     73  H   UNL A   1      45.432  31.748  27.801  1.00  0.00     0.167 HD
ATOM     74  C   UNL A   1      48.865  30.960  28.176  1.00  0.00     0.074 A 
ATOM     75  C   UNL A   1      50.312  30.959  28.047  1.00  0.00     0.031 C 
ATOM     76  C   UNL A   1      48.001  31.950  28.541  1.00  0.00     0.031 A 
BRANCH  63  77
ATOM     77  C   UNL A   1      41.968  31.510  29.857  1.00  0.00    -0.014 A 
ATOM     78  C   UNL A   1      41.647  32.884  29.798  1.00  0.00     0.010 A 
ATOM     79  C   UNL A   1      41.091  30.711  30.623  1.00  0.00     0.010 A 
ATOM     80  C   UNL A   1      40.521  33.427  30.442  1.00  0.00     0.020 A 
ATOM     81  C   UNL A   1      39.937  31.234  31.241  1.00  0.00     0.020 A 
ATOM     82  C   UNL A   1      39.662  32.594  31.152  1.00  0.00     0.054 A 
BRANCH  82  83
ATOM     83  S   UNL A   1      38.186  33.309  31.931  1.00  0.00     0.124 S 
ATOM     84  O   UNL A   1      38.336  34.732  31.642  1.00  0.00    -0.237 OA
ATOM     85  O   UNL A   1      37.096  32.636  31.229  1.00  0.00    -0.237 OA
ATOM     86  O   UNL A   1      38.326  32.946  33.340  1.00  0.00    -0.744 OA
ENDBRANCH  82  83
ENDBRANCH  63  77
BRANCH  64  87
ATOM     87  C   UNL A   1      49.978  26.375  26.918  1.00  0.00    -0.014 A 
ATOM     88  C   UNL A   1      49.942  26.846  25.584  1.00  0.00     0.010 A 
ATOM     89  C   UNL A   1      50.939  25.403  27.263  1.00  0.00     0.010 A 
ATOM     90  C   UNL A   1      51.007  26.593  24.721  1.00  0.00     0.020 A 
ATOM     91  C   UNL A   1      51.993  25.118  26.373  1.00  0.00     0.020 A 
ATOM     92  C   UNL A   1      52.066  25.801  25.157  1.00  0.00     0.054 A 
BRANCH  92  93
ATOM     93  S   UNL A   1      53.628  25.914  24.231  1.00  0.00     0.124 S 
ATOM     94  O   UNL A   1      53.163  25.889  22.848  1.00  0.00    -0.237 OA
ATOM     95  O   UNL A   1      54.140  27.195  24.717  1.00  0.00    -0.237 OA
ATOM     96  O   UNL A   1      54.367  24.734  24.670  1.00  0.00    -0.744 OA
ENDBRANCH  92  93
ENDBRANCH  64  87
BRANCH  76  97
ATOM     97  C   UNL A   1      48.165  33.381  28.097  1.00  0.00    -0.014 A 
ATOM     98  C   UNL A   1      48.949  34.307  28.799  1.00  0.00     0.010 A 
ATOM     99  C   UNL A   1      47.720  33.756  26.804  1.00  0.00     0.010 A 
ATOM    100  C   UNL A   1      49.237  35.563  28.262  1.00  0.00     0.020 A 
ATOM    101  C   UNL A   1      48.047  34.987  26.237  1.00  0.00     0.020 A 
ATOM    102  C   UNL A   1      48.785  35.894  26.984  1.00  0.00     0.054 A 
BRANCH 102 103
ATOM    103  S   UNL A   1      49.220  37.506  26.299  1.00  0.00     0.124 S 
ATOM    104  O   UNL A   1      50.519  37.226  25.691  1.00  0.00    -0.237 OA
ATOM    105  O   UNL A   1      48.130  37.761  25.359  1.00  0.00    -0.237 OA
ATOM    106  O   UNL A   1      49.249  38.385  27.464  1.00  0.00    -0.744 OA
ENDBRANCH 102 103
ENDBRANCH  76  97
ENDBRANCH  50  51
ENDBRANCH  43  45
ENDBRANCH  42  43
ENDBRANCH  41  42
ENDBRANCH  40  41
ENDBRANCH  39  40
ENDBRANCH  38  39
ENDBRANCH  37  38
ENDBRANCH  36  37
ENDBRANCH   1  36
TORSDOF 27
ENDMDL
MODEL 3
REMARK VINA RESULT:      -8.3      4.549      9.660
REMARK SMILES Cc1ccc(NC(=O)c2ccccc2NC(=O)[C@H]2CCCC[C@H]2C(=O)OCCOCCOCCOCCOC(=O)c2ccc(-c3c4nc(c(-c5ccc(S(=O)(=O)[O-])cc5)c5ccc([nH]5)c(-c5ccc(S(=O)(=O)[O-])cc5)c5nc(c(-c6ccc(S(=O)(=O)[O-])cc6)c6ccc3[nH]6)C=C5)C=C4)cc2)cc1
REMARK SMILES IDX 31 1 30 2 29 3 28 4 27 5 26 6 24 7 25 8 23 9 18 10 19 11
REMARK SMILES IDX 20 12 22 13 21 14 16 15 15 16 17 18 14 19 9 20 10 21 11 22
REMARK SMILES IDX 13 23 12 24 7 25 6 26 8 28 5 29 1 30 2 31 3 32 102 33 4 34
REMARK SMILES IDX 101 35 32 36 33 37 34 38 35 39 36 40 37 41 38 42 39 43 40 44
REMARK SMILES IDX 41 45 42 46 100 47 43 48 99 49 44 50 45 51 46 52 93 53 47 54
REMARK SMILES IDX 98 55 92 56 94 57 48 58 97 59 91 60 90 61 49 63 79 64 60 65
REMARK SMILES IDX 78 66 61 67 64 68 77 69 95 70 62 71 63 72 76 74 96 75 65 76
REMARK SMILES IDX 50 77 51 78 59 79 52 80 58 81 53 82 54 83 55 84 56 85 57 86
REMARK SMILES IDX 80 87 81 88 89 89 82 90 88 91 83 92 84 93 85 94 86 95 87 96
REMARK SMILES IDX 66 97 67 98 75 99 68 100 74 101 69 102 70 103 71 104 72 105
REMARK SMILES IDX 73 106
REMARK H PARENT 15 17 6 27 94 62 64 73
REMARK Flexibility Score: inf
ROOT
ATOM      1  C   UNL A   1      44.869  19.196  25.261  1.00  0.00     0.188 C 
ENDROOT
BRANCH   1   2
ATOM      2  C   UNL A   1      43.346  19.116  25.119  1.00  0.00     0.188 C 
BRANCH   2   3
ATOM      3  O   UNL A   1      42.537  18.805  26.225  1.00  0.00    -0.376 OA
BRANCH   3   4
ATOM      4  C   UNL A   1      41.130  18.894  26.056  1.00  0.00     0.202 C 
BRANCH   4   5
ATOM      5  C   UNL A   1      40.357  20.133  26.480  1.00  0.00     0.261 C 
BRANCH   5   6
ATOM      6  O   UNL A   1      39.746  20.783  25.346  1.00  0.00    -0.463 OA
BRANCH   6   7
ATOM      7  C   UNL A   1      38.417  20.641  25.254  1.00  0.00     0.309 C 
ATOM      8  O   UNL A   1      37.837  19.575  25.050  1.00  0.00    -0.252 OA
BRANCH   7   9
ATOM      9  C   UNL A   1      37.639  21.926  25.355  1.00  0.00     0.111 C 
ATOM     10  C   UNL A   1      36.138  21.984  24.975  1.00  0.00     0.093 C 
ATOM     11  C   UNL A   1      35.874  23.445  24.541  1.00  0.00     0.014 C 
ATOM     12  C   UNL A   1      36.408  24.485  25.548  1.00  0.00     0.001 C 
ATOM     13  C   UNL A   1      38.085  22.853  26.474  1.00  0.00     0.016 C 
ATOM     14  C   UNL A   1      37.860  24.282  25.986  1.00  0.00     0.001 C 
BRANCH  10  15
ATOM     15  C   UNL A   1      35.031  21.592  25.982  1.00  0.00     0.228 C 
ATOM     16  N   UNL A   1      33.689  21.934  25.867  1.00  0.00    -0.325 N 
ATOM     17  H   UNL A   1      33.202  21.722  26.698  1.00  0.00     0.169 HD
ATOM     18  O   UNL A   1      35.358  21.040  27.043  1.00  0.00    -0.274 OA
BRANCH  16  19
ATOM     19  C   UNL A   1      32.806  22.507  24.891  1.00  0.00     0.054 A 
ATOM     20  C   UNL A   1      31.725  23.385  25.241  1.00  0.00     0.063 A 
ATOM     21  C   UNL A   1      30.722  23.665  24.269  1.00  0.00     0.016 A 
ATOM     22  C   UNL A   1      30.771  23.157  22.981  1.00  0.00     0.001 A 
ATOM     23  C   UNL A   1      32.889  22.142  23.540  1.00  0.00     0.027 A 
ATOM     24  C   UNL A   1      31.877  22.422  22.609  1.00  0.00     0.002 A 
BRANCH  20  25
ATOM     25  C   UNL A   1      31.390  24.067  26.545  1.00  0.00     0.257 C 
ATOM     26  N   UNL A   1      31.784  25.330  26.896  1.00  0.00    -0.322 N 
ATOM     27  H   UNL A   1      31.810  25.496  27.866  1.00  0.00     0.170 HD
ATOM     28  O   UNL A   1      30.670  23.476  27.354  1.00  0.00    -0.269 OA
BRANCH  26  29
ATOM     29  C   UNL A   1      32.152  26.415  26.110  1.00  0.00     0.041 A 
ATOM     30  C   UNL A   1      33.212  29.172  23.024  1.00  0.00     0.044 C 
ATOM     31  C   UNL A   1      32.878  28.267  24.166  1.00  0.00    -0.051 A 
ATOM     32  C   UNL A   1      31.587  28.281  24.701  1.00  0.00     0.005 A 
ATOM     33  C   UNL A   1      33.836  27.399  24.703  1.00  0.00     0.005 A 
ATOM     34  C   UNL A   1      31.230  27.368  25.685  1.00  0.00     0.026 A 
ATOM     35  C   UNL A   1      33.479  26.489  25.695  1.00  0.00     0.026 A 
ENDBRANCH  26  29
ENDBRANCH  20  25
ENDBRANCH  16  19
ENDBRANCH  10  15
ENDBRANCH   7   9
ENDBRANCH   6   7
ENDBRANCH   5   6
ENDBRANCH   4   5
ENDBRANCH   3   4
ENDBRANCH   2   3
ENDBRANCH   1   2
BRANCH   1  36
ATOM     36  O   UNL A   1      45.485  20.401  25.671  1.00  0.00    -0.377 OA
BRANCH  36  37
ATOM     37  C   UNL A   1      45.856  21.365  24.677  1.00  0.00     0.188 C 
BRANCH  37  38
ATOM     38  C   UNL A   1      45.077  22.668  24.600  1.00  0.00     0.188 C 
BRANCH  38  39
ATOM     39  O   UNL A   1      43.736  22.397  24.189  1.00  0.00    -0.376 OA
BRANCH  39  40
ATOM     40  C   UNL A   1      42.764  22.639  25.196  1.00  0.00     0.202 C 
BRANCH  40  41
ATOM     41  C   UNL A   1      42.810  24.060  25.760  1.00  0.00     0.261 C 
BRANCH  41  42
ATOM     42  O   UNL A   1      41.586  24.341  26.464  1.00  0.00    -0.460 OA
BRANCH  42  43
ATOM     43  C   UNL A   1      41.592  23.975  27.785  1.00  0.00     0.338 C 
ATOM     44  O   UNL A   1      40.824  23.177  28.255  1.00  0.00    -0.246 OA
BRANCH  43  45
ATOM     45  C   UNL A   1      42.721  24.638  28.506  1.00  0.00     0.060 A 
ATOM     46  C   UNL A   1      43.006  25.996  28.316  1.00  0.00     0.016 A 
ATOM     47  C   UNL A   1      43.581  23.870  29.280  1.00  0.00     0.016 A 
ATOM     48  C   UNL A   1      44.217  26.547  28.784  1.00  0.00     0.010 A 
ATOM     49  C   UNL A   1      44.795  24.397  29.673  1.00  0.00     0.010 A 
ATOM     50  C   UNL A   1      45.150  25.731  29.416  1.00  0.00    -0.014 A 
BRANCH  50  51
ATOM     51  C   UNL A   1      46.549  26.079  29.748  1.00  0.00     0.031 A 
ATOM     52  C   UNL A   1      47.641  25.650  28.809  1.00  0.00     0.074 A 
ATOM     53  C   UNL A   1      46.798  27.072  30.643  1.00  0.00     0.049 A 
ATOM     54  N   UNL A   1      48.869  26.032  28.894  1.00  0.00    -0.248 NA
ATOM     55  C   UNL A   1      47.430  24.797  27.635  1.00  0.00     0.031 C 
ATOM     56  C   UNL A   1      47.953  27.983  30.664  1.00  0.00     0.029 A 
ATOM     57  N   UNL A   1      46.060  27.532  31.719  1.00  0.00    -0.354 N 
ATOM     58  C   UNL A   1      49.478  25.826  27.677  1.00  0.00     0.074 A 
ATOM     59  C   UNL A   1      48.571  24.970  26.954  1.00  0.00     0.031 C 
ATOM     60  C   UNL A   1      47.913  28.782  31.741  1.00  0.00     0.029 A 
ATOM     61  C   UNL A   1      46.893  28.233  32.602  1.00  0.00     0.049 A 
ATOM     62  H   UNL A   1      45.095  27.388  31.844  1.00  0.00     0.167 HD
ATOM     63  C   UNL A   1      50.614  26.527  27.386  1.00  0.00     0.031 A 
ATOM     64  C   UNL A   1      47.208  27.680  33.817  1.00  0.00     0.031 A 
ATOM     65  C   UNL A   1      51.163  27.197  28.577  1.00  0.00     0.049 A 
ATOM     66  C   UNL A   1      48.658  27.227  33.860  1.00  0.00     0.074 A 
ATOM     67  C   UNL A   1      51.558  28.486  28.898  1.00  0.00     0.029 A 
ATOM     68  N   UNL A   1      51.222  26.477  29.769  1.00  0.00    -0.354 N 
ATOM     69  N   UNL A   1      49.333  26.877  32.794  1.00  0.00    -0.248 NA
ATOM     70  C   UNL A   1      49.511  27.294  35.047  1.00  0.00     0.031 C 
ATOM     71  C   UNL A   1      51.695  28.558  30.318  1.00  0.00     0.029 A 
ATOM     72  C   UNL A   1      51.467  27.295  30.845  1.00  0.00     0.049 A 
ATOM     73  H   UNL A   1      51.101  25.501  29.832  1.00  0.00     0.167 HD
ATOM     74  C   UNL A   1      50.663  26.819  33.091  1.00  0.00     0.074 A 
ATOM     75  C   UNL A   1      50.722  27.016  34.529  1.00  0.00     0.031 C 
ATOM     76  C   UNL A   1      51.655  26.706  32.162  1.00  0.00     0.031 A 
BRANCH  63  77
ATOM     77  C   UNL A   1      51.182  26.732  25.990  1.00  0.00    -0.014 A 
ATOM     78  C   UNL A   1      52.254  25.923  25.552  1.00  0.00     0.010 A 
ATOM     79  C   UNL A   1      50.780  27.748  25.096  1.00  0.00     0.010 A 
ATOM     80  C   UNL A   1      52.875  26.101  24.303  1.00  0.00     0.020 A 
ATOM     81  C   UNL A   1      51.366  27.913  23.825  1.00  0.00     0.020 A 
ATOM     82  C   UNL A   1      52.417  27.089  23.437  1.00  0.00     0.054 A 
BRANCH  82  83
ATOM     83  S   UNL A   1      53.200  27.265  21.808  1.00  0.00     0.124 S 
ATOM     84  O   UNL A   1      52.163  26.770  20.906  1.00  0.00    -0.237 OA
ATOM     85  O   UNL A   1      53.464  28.700  21.735  1.00  0.00    -0.237 OA
ATOM     86  O   UNL A   1      54.391  26.424  21.902  1.00  0.00    -0.744 OA
ENDBRANCH  82  83
ENDBRANCH  63  77
BRANCH  64  87
ATOM     87  C   UNL A   1      45.991  27.114  34.479  1.00  0.00    -0.014 A 
ATOM     88  C   UNL A   1      46.141  25.759  34.861  1.00  0.00     0.010 A 
ATOM     89  C   UNL A   1      45.142  27.938  35.246  1.00  0.00     0.010 A 
ATOM     90  C   UNL A   1      45.717  25.332  36.118  1.00  0.00     0.020 A 
ATOM     91  C   UNL A   1      44.680  27.490  36.499  1.00  0.00     0.020 A 
ATOM     92  C   UNL A   1      45.066  26.230  36.960  1.00  0.00     0.054 A 
BRANCH  92  93
ATOM     93  S   UNL A   1      44.992  25.810  38.729  1.00  0.00     0.124 S 
ATOM     94  O   UNL A   1      46.247  26.365  39.226  1.00  0.00    -0.237 OA
ATOM     95  O   UNL A   1      43.773  26.513  39.125  1.00  0.00    -0.237 OA
ATOM     96  O   UNL A   1      44.905  24.353  38.726  1.00  0.00    -0.744 OA
ENDBRANCH  92  93
ENDBRANCH  64  87
BRANCH  76  97
ATOM     97  C   UNL A   1      52.929  25.941  32.419  1.00  0.00    -0.014 A 
ATOM     98  C   UNL A   1      54.170  26.572  32.585  1.00  0.00     0.010 A 
ATOM     99  C   UNL A   1      52.852  24.564  32.746  1.00  0.00     0.010 A 
ATOM    100  C   UNL A   1      55.291  25.856  33.011  1.00  0.00     0.020 A 
ATOM    101  C   UNL A   1      53.952  23.854  33.223  1.00  0.00     0.020 A 
ATOM    102  C   UNL A   1      55.174  24.503  33.328  1.00  0.00     0.054 A 
BRANCH 102 103
ATOM    103  S   UNL A   1      56.631  23.622  33.926  1.00  0.00     0.124 S 
ATOM    104  O   UNL A   1      57.285  24.649  34.734  1.00  0.00    -0.237 OA
ATOM    105  O   UNL A   1      56.049  22.510  34.678  1.00  0.00    -0.237 OA
ATOM    106  O   UNL A   1      57.335  23.240  32.705  1.00  0.00    -0.744 OA
ENDBRANCH 102 103
ENDBRANCH  76  97
ENDBRANCH  50  51
ENDBRANCH  43  45
ENDBRANCH  42  43
ENDBRANCH  41  42
ENDBRANCH  40  41
ENDBRANCH  39  40
ENDBRANCH  38  39
ENDBRANCH  37  38
ENDBRANCH  36  37
ENDBRANCH   1  36
TORSDOF 27
ENDMDL
