MODEL 1
REMARK VINA RESULT:      -9.5      0.000      0.000
REMARK SMILES C[C@H](C(=O)OCCOCCOCCOCCOC(=O)c1ccc(-c2c3nc(c(-c4ccc(S(=O)(=O)[O-])cc4)c4ccc([nH]4)c(-c4ccc(S(=O)(=O)[O-])cc4)c4nc(c(-c5ccc(S(=O)(=O)[O-])cc5)c5ccc2[nH]5)C=C4)C=C3)cc1)c1ccc(-c2ccccc2)c(F)c1
REMARK SMILES IDX 12 1 11 2 10 3 9 4 8 5 7 6 6 7 5 8 3 9 4 10 2 11 1 12 80 13
REMARK SMILES IDX 81 14 92 15 82 16 90 17 83 18 91 19 84 20 85 21 89 22 86 23
REMARK SMILES IDX 88 24 87 25 13 26 14 27 15 28 16 29 17 30 18 31 19 32 20 33
REMARK SMILES IDX 21 34 79 35 22 36 78 37 23 38 24 39 25 40 72 41 26 42 77 43
REMARK SMILES IDX 71 44 73 45 27 46 76 47 70 48 69 49 28 51 58 52 39 53 57 54
REMARK SMILES IDX 40 55 43 56 56 57 74 58 41 59 42 60 55 62 75 63 44 64 29 65
REMARK SMILES IDX 30 66 38 67 31 68 37 69 32 70 33 71 34 72 35 73 36 74 59 75
REMARK SMILES IDX 60 76 68 77 61 78 67 79 62 80 63 81 64 82 65 83 66 84 45 85
REMARK SMILES IDX 46 86 54 87 47 88 53 89 48 90 49 91 50 92 51 93 52 94
REMARK H PARENT 73 50 43 61
REMARK Flexibility Score: inf
ROOT
ATOM      1  C   UNL A   1      31.802  28.100  27.147  1.00  0.00     0.188 C 
ENDROOT
BRANCH   1   2
ATOM      2  O   UNL A   1      31.735  27.489  25.874  1.00  0.00    -0.377 OA
BRANCH   2   3
ATOM      3  C   UNL A   1      30.776  28.037  24.982  1.00  0.00     0.188 C 
BRANCH   3   4
ATOM      4  C   UNL A   1      31.226  28.406  23.547  1.00  0.00     0.188 C 
BRANCH   4   5
ATOM      5  O   UNL A   1      32.618  28.683  23.442  1.00  0.00    -0.376 OA
BRANCH   5   6
ATOM      6  C   UNL A   1      33.398  27.885  22.563  1.00  0.00     0.202 C 
BRANCH   6   7
ATOM      7  C   UNL A   1      33.077  26.390  22.533  1.00  0.00     0.261 C 
BRANCH   7   8
ATOM      8  O   UNL A   1      33.980  25.576  23.303  1.00  0.00    -0.463 OA
BRANCH   8   9
ATOM      9  C   UNL A   1      33.988  24.236  23.139  1.00  0.00     0.313 C 
ATOM     10  O   UNL A   1      33.874  23.686  22.050  1.00  0.00    -0.252 OA
BRANCH   9  11
ATOM     11  C   UNL A   1      34.301  23.476  24.435  1.00  0.00     0.126 C 
ATOM     12  C   UNL A   1      33.403  22.230  24.541  1.00  0.00     0.025 C 
BRANCH  11  13
ATOM     13  C   UNL A   1      35.755  23.163  24.808  1.00  0.00    -0.031 A 
ATOM     14  C   UNL A   1      36.327  21.968  24.329  1.00  0.00     0.005 A 
ATOM     15  C   UNL A   1      36.535  23.926  25.688  1.00  0.00     0.044 A 
ATOM     16  C   UNL A   1      37.588  21.530  24.754  1.00  0.00     0.012 A 
ATOM     17  C   UNL A   1      37.795  23.486  26.104  1.00  0.00     0.131 A 
ATOM     18  C   UNL A   1      38.328  22.265  25.686  1.00  0.00     0.017 A 
ATOM     19  F   UNL A   1      38.471  24.255  26.973  1.00  0.00    -0.206 F 
BRANCH  18  20
ATOM     20  C   UNL A   1      39.544  21.698  26.285  1.00  0.00    -0.015 A 
ATOM     21  C   UNL A   1      39.981  20.399  25.986  1.00  0.00     0.009 A 
ATOM     22  C   UNL A   1      40.261  22.434  27.244  1.00  0.00     0.009 A 
ATOM     23  C   UNL A   1      41.091  19.851  26.638  1.00  0.00     0.001 A 
ATOM     24  C   UNL A   1      41.366  21.888  27.898  1.00  0.00     0.001 A 
ATOM     25  C   UNL A   1      41.778  20.594  27.597  1.00  0.00     0.000 A 
ENDBRANCH  18  20
ENDBRANCH  11  13
ENDBRANCH   9  11
ENDBRANCH   8   9
ENDBRANCH   7   8
ENDBRANCH   6   7
ENDBRANCH   5   6
ENDBRANCH   4   5
ENDBRANCH   3   4
ENDBRANCH   2   3
ENDBRANCH   1   2
BRANCH   1  26
ATOM     26  C   UNL A   1      32.199  29.586  27.075  1.00  0.00     0.188 C 
BRANCH  26  27
ATOM     27  O   UNL A   1      33.426  29.995  26.488  1.00  0.00    -0.376 OA
BRANCH  27  28
ATOM     28  C   UNL A   1      34.675  29.883  27.150  1.00  0.00     0.202 C 
BRANCH  28  29
ATOM     29  C   UNL A   1      35.250  30.888  28.166  1.00  0.00     0.261 C 
BRANCH  29  30
ATOM     30  O   UNL A   1      36.641  30.829  28.460  1.00  0.00    -0.460 OA
BRANCH  30  31
ATOM     31  C   UNL A   1      37.010  29.871  29.340  1.00  0.00     0.338 C 
ATOM     32  O   UNL A   1      36.334  29.367  30.210  1.00  0.00    -0.246 OA
BRANCH  31  33
ATOM     33  C   UNL A   1      38.346  29.397  28.925  1.00  0.00     0.060 A 
ATOM     34  C   UNL A   1      39.205  28.876  29.901  1.00  0.00     0.016 A 
ATOM     35  C   UNL A   1      38.728  29.435  27.583  1.00  0.00     0.016 A 
ATOM     36  C   UNL A   1      40.460  28.401  29.541  1.00  0.00     0.010 A 
ATOM     37  C   UNL A   1      40.005  29.002  27.228  1.00  0.00     0.010 A 
ATOM     38  C   UNL A   1      40.882  28.514  28.213  1.00  0.00    -0.014 A 
BRANCH  38  39
ATOM     39  C   UNL A   1      42.318  28.355  27.906  1.00  0.00     0.031 A 
ATOM     40  C   UNL A   1      43.218  29.531  28.159  1.00  0.00     0.074 A 
ATOM     41  C   UNL A   1      42.812  27.192  27.452  1.00  0.00     0.049 A 
ATOM     42  N   UNL A   1      44.498  29.658  27.933  1.00  0.00    -0.248 NA
ATOM     43  C   UNL A   1      42.585  30.727  28.745  1.00  0.00     0.031 C 
ATOM     44  C   UNL A   1      42.038  25.971  27.228  1.00  0.00     0.029 A 
ATOM     45  N   UNL A   1      44.090  26.854  27.090  1.00  0.00    -0.354 N 
ATOM     46  C   UNL A   1      44.821  30.946  28.342  1.00  0.00     0.074 A 
ATOM     47  C   UNL A   1      43.602  31.572  28.799  1.00  0.00     0.031 C 
ATOM     48  C   UNL A   1      42.860  25.020  26.749  1.00  0.00     0.029 A 
ATOM     49  C   UNL A   1      44.203  25.577  26.599  1.00  0.00     0.049 A 
ATOM     50  H   UNL A   1      44.855  27.469  27.174  1.00  0.00     0.167 HD
ATOM     51  C   UNL A   1      46.031  31.551  28.339  1.00  0.00     0.031 A 
ATOM     52  C   UNL A   1      45.267  24.944  26.064  1.00  0.00     0.031 A 
ATOM     53  C   UNL A   1      47.233  30.928  27.856  1.00  0.00     0.049 A 
ATOM     54  C   UNL A   1      46.586  25.671  25.986  1.00  0.00     0.074 A 
ATOM     55  C   UNL A   1      48.512  31.451  27.806  1.00  0.00     0.029 A 
ATOM     56  N   UNL A   1      47.302  29.646  27.331  1.00  0.00    -0.354 N 
ATOM     57  N   UNL A   1      46.887  26.883  26.390  1.00  0.00    -0.248 NA
ATOM     58  C   UNL A   1      47.711  24.940  25.388  1.00  0.00     0.031 C 
ATOM     59  C   UNL A   1      49.341  30.510  27.190  1.00  0.00     0.029 A 
ATOM     60  C   UNL A   1      48.596  29.370  26.927  1.00  0.00     0.049 A 
ATOM     61  H   UNL A   1      46.542  29.024  27.256  1.00  0.00     0.167 HD
ATOM     62  C   UNL A   1      48.244  27.048  26.124  1.00  0.00     0.074 A 
ATOM     63  C   UNL A   1      48.705  25.806  25.539  1.00  0.00     0.031 C 
ATOM     64  C   UNL A   1      49.038  28.126  26.347  1.00  0.00     0.031 A 
BRANCH  51  65
ATOM     65  C   UNL A   1      46.098  32.971  28.834  1.00  0.00    -0.014 A 
ATOM     66  C   UNL A   1      46.036  34.059  27.946  1.00  0.00     0.010 A 
ATOM     67  C   UNL A   1      46.200  33.220  30.215  1.00  0.00     0.010 A 
ATOM     68  C   UNL A   1      46.109  35.370  28.427  1.00  0.00     0.020 A 
ATOM     69  C   UNL A   1      46.240  34.528  30.703  1.00  0.00     0.020 A 
ATOM     70  C   UNL A   1      46.209  35.595  29.803  1.00  0.00     0.054 A 
BRANCH  70  71
ATOM     71  S   UNL A   1      46.270  37.306  30.400  1.00  0.00     0.124 S 
ATOM     72  O   UNL A   1      47.576  37.352  31.054  1.00  0.00    -0.237 OA
ATOM     73  O   UNL A   1      46.160  38.078  29.165  1.00  0.00    -0.237 OA
ATOM     74  O   UNL A   1      45.122  37.403  31.297  1.00  0.00    -0.744 OA
ENDBRANCH  70  71
ENDBRANCH  51  65
BRANCH  52  75
ATOM     75  C   UNL A   1      45.122  23.561  25.534  1.00  0.00    -0.014 A 
ATOM     76  C   UNL A   1      44.730  23.334  24.204  1.00  0.00     0.010 A 
ATOM     77  C   UNL A   1      45.373  22.455  26.368  1.00  0.00     0.010 A 
ATOM     78  C   UNL A   1      44.574  22.030  23.722  1.00  0.00     0.020 A 
ATOM     79  C   UNL A   1      45.249  21.150  25.882  1.00  0.00     0.020 A 
ATOM     80  C   UNL A   1      44.838  20.946  24.564  1.00  0.00     0.054 A 
BRANCH  80  81
ATOM     81  S   UNL A   1      44.676  19.265  23.901  1.00  0.00     0.124 S 
ATOM     82  O   UNL A   1      44.466  19.517  22.479  1.00  0.00    -0.237 OA
ATOM     83  O   UNL A   1      45.960  18.664  24.256  1.00  0.00    -0.237 OA
ATOM     84  O   UNL A   1      43.524  18.723  24.618  1.00  0.00    -0.744 OA
ENDBRANCH  80  81
ENDBRANCH  52  75
BRANCH  64  85
ATOM     85  C   UNL A   1      50.499  28.001  25.999  1.00  0.00    -0.014 A 
ATOM     86  C   UNL A   1      51.450  27.594  26.951  1.00  0.00     0.010 A 
ATOM     87  C   UNL A   1      50.914  28.234  24.674  1.00  0.00     0.010 A 
ATOM     88  C   UNL A   1      52.793  27.455  26.593  1.00  0.00     0.020 A 
ATOM     89  C   UNL A   1      52.249  28.064  24.304  1.00  0.00     0.020 A 
ATOM     90  C   UNL A   1      53.184  27.690  25.270  1.00  0.00     0.054 A 
BRANCH  90  91
ATOM     91  S   UNL A   1      54.926  27.459  24.822  1.00  0.00     0.124 S 
ATOM     92  O   UNL A   1      55.614  27.950  26.013  1.00  0.00    -0.237 OA
ATOM     93  O   UNL A   1      55.010  26.018  24.596  1.00  0.00    -0.237 OA
ATOM     94  O   UNL A   1      55.090  28.283  23.626  1.00  0.00    -0.744 OA
ENDBRANCH  90  91
ENDBRANCH  64  85
ENDBRANCH  38  39
ENDBRANCH  31  33
ENDBRANCH  30  31
ENDBRANCH  29  30
ENDBRANCH  28  29
ENDBRANCH  27  28
ENDBRANCH  26  27
ENDBRANCH   1  26
TORSDOF 25
ENDMDL
MODEL 2
REMARK VINA RESULT:      -9.5      2.042      3.179
REMARK SMILES C[C@H](C(=O)OCCOCCOCCOCCOC(=O)c1ccc(-c2c3nc(c(-c4ccc(S(=O)(=O)[O-])cc4)c4ccc([nH]4)c(-c4ccc(S(=O)(=O)[O-])cc4)c4nc(c(-c5ccc(S(=O)(=O)[O-])cc5)c5ccc2[nH]5)C=C4)C=C3)cc1)c1ccc(-c2ccccc2)c(F)c1
REMARK SMILES IDX 12 1 11 2 10 3 9 4 8 5 7 6 6 7 5 8 3 9 4 10 2 11 1 12 80 13
REMARK SMILES IDX 81 14 92 15 82 16 90 17 83 18 91 19 84 20 85 21 89 22 86 23
REMARK SMILES IDX 88 24 87 25 13 26 14 27 15 28 16 29 17 30 18 31 19 32 20 33
REMARK SMILES IDX 21 34 79 35 22 36 78 37 23 38 24 39 25 40 72 41 26 42 77 43
REMARK SMILES IDX 71 44 73 45 27 46 76 47 70 48 69 49 28 51 58 52 39 53 57 54
REMARK SMILES IDX 40 55 43 56 56 57 74 58 41 59 42 60 55 62 75 63 44 64 29 65
REMARK SMILES IDX 30 66 38 67 31 68 37 69 32 70 33 71 34 72 35 73 36 74 59 75
REMARK SMILES IDX 60 76 68 77 61 78 67 79 62 80 63 81 64 82 65 83 66 84 45 85
REMARK SMILES IDX 46 86 54 87 47 88 53 89 48 90 49 91 50 92 51 93 52 94
REMARK H PARENT 73 50 43 61
REMARK Flexibility Score: inf
ROOT
ATOM      1  C   UNL A   1      31.206  27.964  26.074  1.00  0.00     0.188 C 
ENDROOT
BRANCH   1   2
ATOM      2  O   UNL A   1      31.050  27.250  24.864  1.00  0.00    -0.377 OA
BRANCH   2   3
ATOM      3  C   UNL A   1      30.289  27.904  23.861  1.00  0.00     0.188 C 
BRANCH   3   4
ATOM      4  C   UNL A   1      31.033  28.529  22.656  1.00  0.00     0.188 C 
BRANCH   4   5
ATOM      5  O   UNL A   1      32.223  29.220  23.020  1.00  0.00    -0.376 OA
BRANCH   5   6
ATOM      6  C   UNL A   1      33.469  28.574  22.803  1.00  0.00     0.202 C 
BRANCH   6   7
ATOM      7  C   UNL A   1      33.437  27.292  21.969  1.00  0.00     0.261 C 
BRANCH   7   8
ATOM      8  O   UNL A   1      33.515  26.081  22.743  1.00  0.00    -0.463 OA
BRANCH   8   9
ATOM      9  C   UNL A   1      33.002  24.933  22.254  1.00  0.00     0.313 C 
ATOM     10  O   UNL A   1      33.150  24.565  21.094  1.00  0.00    -0.252 OA
BRANCH   9  11
ATOM     11  C   UNL A   1      32.342  24.063  23.333  1.00  0.00     0.126 C 
ATOM     12  C   UNL A   1      30.811  24.188  23.241  1.00  0.00     0.025 C 
BRANCH  11  13
ATOM     13  C   UNL A   1      32.785  22.606  23.520  1.00  0.00    -0.031 A 
ATOM     14  C   UNL A   1      32.118  21.605  22.787  1.00  0.00     0.005 A 
ATOM     15  C   UNL A   1      33.736  22.175  24.454  1.00  0.00     0.044 A 
ATOM     16  C   UNL A   1      32.348  20.243  23.018  1.00  0.00     0.012 A 
ATOM     17  C   UNL A   1      33.966  20.814  24.676  1.00  0.00     0.131 A 
ATOM     18  C   UNL A   1      33.249  19.823  24.002  1.00  0.00     0.017 A 
ATOM     19  F   UNL A   1      34.870  20.476  25.609  1.00  0.00    -0.206 F 
BRANCH  18  20
ATOM     20  C   UNL A   1      33.328  18.407  24.384  1.00  0.00    -0.015 A 
ATOM     21  C   UNL A   1      33.986  17.458  23.586  1.00  0.00     0.009 A 
ATOM     22  C   UNL A   1      32.666  17.955  25.540  1.00  0.00     0.009 A 
ATOM     23  C   UNL A   1      33.969  16.102  23.928  1.00  0.00     0.001 A 
ATOM     24  C   UNL A   1      32.645  16.602  25.879  1.00  0.00     0.001 A 
ATOM     25  C   UNL A   1      33.294  15.675  25.069  1.00  0.00     0.000 A 
ENDBRANCH  18  20
ENDBRANCH  11  13
ENDBRANCH   9  11
ENDBRANCH   8   9
ENDBRANCH   7   8
ENDBRANCH   6   7
ENDBRANCH   5   6
ENDBRANCH   4   5
ENDBRANCH   3   4
ENDBRANCH   2   3
ENDBRANCH   1   2
BRANCH   1  26
ATOM     26  C   UNL A   1      32.682  28.242  26.416  1.00  0.00     0.188 C 
BRANCH  26  27
ATOM     27  O   UNL A   1      33.044  29.234  27.366  1.00  0.00    -0.376 OA
BRANCH  27  28
ATOM     28  C   UNL A   1      34.162  30.091  27.201  1.00  0.00     0.202 C 
BRANCH  28  29
ATOM     29  C   UNL A   1      34.623  31.174  28.194  1.00  0.00     0.261 C 
BRANCH  29  30
ATOM     30  O   UNL A   1      36.014  31.461  28.282  1.00  0.00    -0.460 OA
BRANCH  30  31
ATOM     31  C   UNL A   1      36.589  31.195  29.476  1.00  0.00     0.338 C 
ATOM     32  O   UNL A   1      36.123  31.379  30.579  1.00  0.00    -0.246 OA
BRANCH  31  33
ATOM     33  C   UNL A   1      37.832  30.446  29.197  1.00  0.00     0.060 A 
ATOM     34  C   UNL A   1      38.690  30.150  30.264  1.00  0.00     0.016 A 
ATOM     35  C   UNL A   1      38.125  30.013  27.902  1.00  0.00     0.016 A 
ATOM     36  C   UNL A   1      39.855  29.428  30.039  1.00  0.00     0.010 A 
ATOM     37  C   UNL A   1      39.317  29.330  27.669  1.00  0.00     0.010 A 
ATOM     38  C   UNL A   1      40.197  29.065  28.733  1.00  0.00    -0.014 A 
BRANCH  38  39
ATOM     39  C   UNL A   1      41.582  28.633  28.454  1.00  0.00     0.031 A 
ATOM     40  C   UNL A   1      42.657  29.682  28.488  1.00  0.00     0.074 A 
ATOM     41  C   UNL A   1      41.879  27.346  28.214  1.00  0.00     0.049 A 
ATOM     42  N   UNL A   1      43.933  29.567  28.237  1.00  0.00    -0.248 NA
ATOM     43  C   UNL A   1      42.232  31.046  28.852  1.00  0.00     0.031 C 
ATOM     44  C   UNL A   1      40.922  26.240  28.216  1.00  0.00     0.029 A 
ATOM     45  N   UNL A   1      43.079  26.756  27.912  1.00  0.00    -0.354 N 
ATOM     46  C   UNL A   1      44.462  30.841  28.406  1.00  0.00     0.074 A 
ATOM     47  C   UNL A   1      43.367  31.719  28.749  1.00  0.00     0.031 C 
ATOM     48  C   UNL A   1      41.574  25.103  27.912  1.00  0.00     0.029 A 
ATOM     49  C   UNL A   1      42.981  25.410  27.658  1.00  0.00     0.049 A 
ATOM     50  H   UNL A   1      43.930  27.250  27.882  1.00  0.00     0.167 HD
ATOM     51  C   UNL A   1      45.749  31.241  28.290  1.00  0.00     0.031 A 
ATOM     52  C   UNL A   1      43.919  24.536  27.241  1.00  0.00     0.031 A 
ATOM     53  C   UNL A   1      46.826  30.364  27.921  1.00  0.00     0.049 A 
ATOM     54  C   UNL A   1      45.330  25.024  27.028  1.00  0.00     0.074 A 
ATOM     55  C   UNL A   1      48.168  30.665  27.773  1.00  0.00     0.029 A 
ATOM     56  N   UNL A   1      46.683  29.014  27.634  1.00  0.00    -0.354 N 
ATOM     57  N   UNL A   1      45.824  26.227  27.207  1.00  0.00    -0.248 NA
ATOM     58  C   UNL A   1      46.311  24.034  26.566  1.00  0.00     0.031 C 
ATOM     59  C   UNL A   1      48.824  29.513  27.332  1.00  0.00     0.029 A 
ATOM     60  C   UNL A   1      47.907  28.474  27.281  1.00  0.00     0.049 A 
ATOM     61  H   UNL A   1      45.836  28.514  27.676  1.00  0.00     0.167 HD
ATOM     62  C   UNL A   1      47.181  26.130  26.910  1.00  0.00     0.074 A 
ATOM     63  C   UNL A   1      47.429  24.748  26.555  1.00  0.00     0.031 C 
ATOM     64  C   UNL A   1      48.135  27.094  26.932  1.00  0.00     0.031 A 
BRANCH  51  65
ATOM     65  C   UNL A   1      46.046  32.698  28.522  1.00  0.00    -0.014 A 
ATOM     66  C   UNL A   1      46.497  33.163  29.770  1.00  0.00     0.010 A 
ATOM     67  C   UNL A   1      45.895  33.615  27.464  1.00  0.00     0.010 A 
ATOM     68  C   UNL A   1      46.758  34.522  29.967  1.00  0.00     0.020 A 
ATOM     69  C   UNL A   1      46.186  34.968  27.647  1.00  0.00     0.020 A 
ATOM     70  C   UNL A   1      46.603  35.416  28.902  1.00  0.00     0.054 A 
BRANCH  70  71
ATOM     71  S   UNL A   1      46.979  37.167  29.178  1.00  0.00     0.124 S 
ATOM     72  O   UNL A   1      47.091  37.227  30.634  1.00  0.00    -0.237 OA
ATOM     73  O   UNL A   1      48.231  37.343  28.445  1.00  0.00    -0.237 OA
ATOM     74  O   UNL A   1      45.826  37.865  28.615  1.00  0.00    -0.744 OA
ENDBRANCH  70  71
ENDBRANCH  51  65
BRANCH  52  75
ATOM     75  C   UNL A   1      43.549  23.120  26.969  1.00  0.00    -0.014 A 
ATOM     76  C   UNL A   1      42.976  22.318  27.971  1.00  0.00     0.010 A 
ATOM     77  C   UNL A   1      43.774  22.562  25.696  1.00  0.00     0.010 A 
ATOM     78  C   UNL A   1      42.654  20.981  27.712  1.00  0.00     0.020 A 
ATOM     79  C   UNL A   1      43.424  21.236  25.424  1.00  0.00     0.020 A 
ATOM     80  C   UNL A   1      42.877  20.450  26.439  1.00  0.00     0.054 A 
BRANCH  80  81
ATOM     81  S   UNL A   1      42.404  18.729  26.114  1.00  0.00     0.124 S 
ATOM     82  O   UNL A   1      41.037  18.876  25.625  1.00  0.00    -0.237 OA
ATOM     83  O   UNL A   1      43.391  18.315  25.121  1.00  0.00    -0.237 OA
ATOM     84  O   UNL A   1      42.536  18.085  27.419  1.00  0.00    -0.744 OA
ENDBRANCH  80  81
ENDBRANCH  52  75
BRANCH  64  85
ATOM     85  C   UNL A   1      49.549  26.685  26.606  1.00  0.00    -0.014 A 
ATOM     86  C   UNL A   1      50.376  26.069  27.561  1.00  0.00     0.010 A 
ATOM     87  C   UNL A   1      50.033  26.863  25.296  1.00  0.00     0.010 A 
ATOM     88  C   UNL A   1      51.672  25.670  27.222  1.00  0.00     0.020 A 
ATOM     89  C   UNL A   1      51.315  26.435  24.944  1.00  0.00     0.020 A 
ATOM     90  C   UNL A   1      52.132  25.855  25.914  1.00  0.00     0.054 A 
BRANCH  90  91
ATOM     91  S   UNL A   1      53.802  25.287  25.489  1.00  0.00     0.124 S 
ATOM     92  O   UNL A   1      54.406  26.500  24.947  1.00  0.00    -0.237 OA
ATOM     93  O   UNL A   1      54.327  24.845  26.778  1.00  0.00    -0.237 OA
ATOM     94  O   UNL A   1      53.570  24.221  24.518  1.00  0.00    -0.744 OA
ENDBRANCH  90  91
ENDBRANCH  64  85
ENDBRANCH  38  39
ENDBRANCH  31  33
ENDBRANCH  30  31
ENDBRANCH  29  30
ENDBRANCH  28  29
ENDBRANCH  27  28
ENDBRANCH  26  27
ENDBRANCH   1  26
TORSDOF 25
ENDMDL
MODEL 3
REMARK VINA RESULT:      -9.1      1.992      4.461
REMARK SMILES C[C@H](C(=O)OCCOCCOCCOCCOC(=O)c1ccc(-c2c3nc(c(-c4ccc(S(=O)(=O)[O-])cc4)c4ccc([nH]4)c(-c4ccc(S(=O)(=O)[O-])cc4)c4nc(c(-c5ccc(S(=O)(=O)[O-])cc5)c5ccc2[nH]5)C=C4)C=C3)cc1)c1ccc(-c2ccccc2)c(F)c1
REMARK SMILES IDX 12 1 11 2 10 3 9 4 8 5 7 6 6 7 5 8 3 9 4 10 2 11 1 12 80 13
REMARK SMILES IDX 81 14 92 15 82 16 90 17 83 18 91 19 84 20 85 21 89 22 86 23
REMARK SMILES IDX 88 24 87 25 13 26 14 27 15 28 16 29 17 30 18 31 19 32 20 33
REMARK SMILES IDX 21 34 79 35 22 36 78 37 23 38 24 39 25 40 72 41 26 42 77 43
REMARK SMILES IDX 71 44 73 45 27 46 76 47 70 48 69 49 28 51 58 52 39 53 57 54
REMARK SMILES IDX 40 55 43 56 56 57 74 58 41 59 42 60 55 62 75 63 44 64 29 65
REMARK SMILES IDX 30 66 38 67 31 68 37 69 32 70 33 71 34 72 35 73 36 74 59 75
REMARK SMILES IDX 60 76 68 77 61 78 67 79 62 80 63 81 64 82 65 83 66 84 45 85
REMARK SMILES IDX 46 86 54 87 47 88 53 89 48 90 49 91 50 92 51 93 52 94
REMARK H PARENT 73 50 43 61
REMARK Flexibility Score: inf
ROOT
ATOM      1  C   UNL A   1      31.563  27.237  26.486  1.00  0.00     0.188 C 
ENDROOT
BRANCH   1   2
ATOM      2  O   UNL A   1      32.415  26.111  26.441  1.00  0.00    -0.377 OA
BRANCH   2   3
ATOM      3  C   UNL A   1      33.695  26.334  25.870  1.00  0.00     0.188 C 
BRANCH   3   4
ATOM      4  C   UNL A   1      34.364  25.183  25.078  1.00  0.00     0.188 C 
BRANCH   4   5
ATOM      5  O   UNL A   1      35.519  24.652  25.715  1.00  0.00    -0.376 OA
BRANCH   5   6
ATOM      6  C   UNL A   1      35.503  23.287  26.109  1.00  0.00     0.202 C 
BRANCH   6   7
ATOM      7  C   UNL A   1      35.980  22.272  25.069  1.00  0.00     0.261 C 
BRANCH   7   8
ATOM      8  O   UNL A   1      35.502  20.932  25.288  1.00  0.00    -0.463 OA
BRANCH   8   9
ATOM      9  C   UNL A   1      34.193  20.715  25.539  1.00  0.00     0.313 C 
ATOM     10  O   UNL A   1      33.730  20.604  26.668  1.00  0.00    -0.252 OA
BRANCH   9  11
ATOM     11  C   UNL A   1      33.324  20.769  24.275  1.00  0.00     0.126 C 
ATOM     12  C   UNL A   1      32.526  19.460  24.133  1.00  0.00     0.025 C 
BRANCH  11  13
ATOM     13  C   UNL A   1      32.453  22.000  23.996  1.00  0.00    -0.031 A 
ATOM     14  C   UNL A   1      32.620  22.674  22.770  1.00  0.00     0.005 A 
ATOM     15  C   UNL A   1      31.571  22.579  24.918  1.00  0.00     0.044 A 
ATOM     16  C   UNL A   1      31.986  23.894  22.505  1.00  0.00     0.012 A 
ATOM     17  C   UNL A   1      30.935  23.794  24.645  1.00  0.00     0.131 A 
ATOM     18  C   UNL A   1      31.161  24.498  23.460  1.00  0.00     0.017 A 
ATOM     19  F   UNL A   1      30.128  24.303  25.589  1.00  0.00    -0.206 F 
BRANCH  18  20
ATOM     20  C   UNL A   1      30.672  25.869  23.262  1.00  0.00    -0.015 A 
ATOM     21  C   UNL A   1      31.515  26.901  22.822  1.00  0.00     0.009 A 
ATOM     22  C   UNL A   1      29.344  26.194  23.590  1.00  0.00     0.009 A 
ATOM     23  C   UNL A   1      31.046  28.216  22.728  1.00  0.00     0.001 A 
ATOM     24  C   UNL A   1      28.876  27.505  23.501  1.00  0.00     0.001 A 
ATOM     25  C   UNL A   1      29.730  28.517  23.074  1.00  0.00     0.000 A 
ENDBRANCH  18  20
ENDBRANCH  11  13
ENDBRANCH   9  11
ENDBRANCH   8   9
ENDBRANCH   7   8
ENDBRANCH   6   7
ENDBRANCH   5   6
ENDBRANCH   4   5
ENDBRANCH   3   4
ENDBRANCH   2   3
ENDBRANCH   1   2
BRANCH   1  26
ATOM     26  C   UNL A   1      31.939  28.225  27.606  1.00  0.00     0.188 C 
BRANCH  26  27
ATOM     27  O   UNL A   1      32.101  29.611  27.343  1.00  0.00    -0.376 OA
BRANCH  27  28
ATOM     28  C   UNL A   1      33.353  30.272  27.423  1.00  0.00     0.202 C 
BRANCH  28  29
ATOM     29  C   UNL A   1      34.736  29.597  27.358  1.00  0.00     0.261 C 
BRANCH  29  30
ATOM     30  O   UNL A   1      35.857  30.304  27.875  1.00  0.00    -0.460 OA
BRANCH  30  31
ATOM     31  C   UNL A   1      36.350  29.839  29.045  1.00  0.00     0.338 C 
ATOM     32  O   UNL A   1      35.727  29.478  30.019  1.00  0.00    -0.246 OA
BRANCH  31  33
ATOM     33  C   UNL A   1      37.805  29.661  28.858  1.00  0.00     0.060 A 
ATOM     34  C   UNL A   1      38.325  29.716  27.559  1.00  0.00     0.016 A 
ATOM     35  C   UNL A   1      38.645  29.477  29.958  1.00  0.00     0.016 A 
ATOM     36  C   UNL A   1      39.691  29.576  27.350  1.00  0.00     0.010 A 
ATOM     37  C   UNL A   1      40.010  29.288  29.744  1.00  0.00     0.010 A 
ATOM     38  C   UNL A   1      40.527  29.306  28.437  1.00  0.00    -0.014 A 
BRANCH  38  39
ATOM     39  C   UNL A   1      41.891  28.801  28.177  1.00  0.00     0.031 A 
ATOM     40  C   UNL A   1      43.015  29.798  28.179  1.00  0.00     0.074 A 
ATOM     41  C   UNL A   1      42.127  27.493  27.981  1.00  0.00     0.049 A 
ATOM     42  N   UNL A   1      44.284  29.615  27.937  1.00  0.00    -0.248 NA
ATOM     43  C   UNL A   1      42.654  31.192  28.495  1.00  0.00     0.031 C 
ATOM     44  C   UNL A   1      41.120  26.434  28.018  1.00  0.00     0.029 A 
ATOM     45  N   UNL A   1      43.299  26.838  27.704  1.00  0.00    -0.354 N 
ATOM     46  C   UNL A   1      44.872  30.868  28.064  1.00  0.00     0.074 A 
ATOM     47  C   UNL A   1      43.819  31.808  28.374  1.00  0.00     0.031 C 
ATOM     48  C   UNL A   1      41.718  25.258  27.754  1.00  0.00     0.029 A 
ATOM     49  C   UNL A   1      43.139  25.491  27.495  1.00  0.00     0.049 A 
ATOM     50  H   UNL A   1      44.172  27.290  27.659  1.00  0.00     0.167 HD
ATOM     51  C   UNL A   1      46.176  31.203  27.939  1.00  0.00     0.031 A 
ATOM     52  C   UNL A   1      44.035  24.559  27.110  1.00  0.00     0.031 A 
ATOM     53  C   UNL A   1      47.212  30.264  27.604  1.00  0.00     0.049 A 
ATOM     54  C   UNL A   1      45.467  24.973  26.886  1.00  0.00     0.074 A 
ATOM     55  C   UNL A   1      48.566  30.497  27.450  1.00  0.00     0.029 A 
ATOM     56  N   UNL A   1      47.006  28.914  27.362  1.00  0.00    -0.354 N 
ATOM     57  N   UNL A   1      46.017  26.157  27.026  1.00  0.00    -0.248 NA
ATOM     58  C   UNL A   1      46.402  23.923  26.460  1.00  0.00     0.031 C 
ATOM     59  C   UNL A   1      49.169  29.302  27.050  1.00  0.00     0.029 A 
ATOM     60  C   UNL A   1      48.204  28.306  27.031  1.00  0.00     0.049 A 
ATOM     61  H   UNL A   1      46.136  28.456  27.418  1.00  0.00     0.167 HD
ATOM     62  C   UNL A   1      47.369  25.986  26.737  1.00  0.00     0.074 A 
ATOM     63  C   UNL A   1      47.552  24.583  26.429  1.00  0.00     0.031 C 
ATOM     64  C   UNL A   1      48.368  26.905  26.729  1.00  0.00     0.031 A 
BRANCH  51  65
ATOM     65  C   UNL A   1      46.541  32.652  28.123  1.00  0.00    -0.014 A 
ATOM     66  C   UNL A   1      46.423  33.575  27.069  1.00  0.00     0.010 A 
ATOM     67  C   UNL A   1      46.986  33.101  29.379  1.00  0.00     0.010 A 
ATOM     68  C   UNL A   1      46.777  34.914  27.259  1.00  0.00     0.020 A 
ATOM     69  C   UNL A   1      47.309  34.445  29.583  1.00  0.00     0.020 A 
ATOM     70  C   UNL A   1      47.216  35.340  28.516  1.00  0.00     0.054 A 
BRANCH  70  71
ATOM     71  S   UNL A   1      47.637  37.089  28.741  1.00  0.00     0.124 S 
ATOM     72  O   UNL A   1      47.087  37.364  30.067  1.00  0.00    -0.237 OA
ATOM     73  O   UNL A   1      49.095  37.079  28.657  1.00  0.00    -0.237 OA
ATOM     74  O   UNL A   1      46.956  37.757  27.635  1.00  0.00    -0.744 OA
ENDBRANCH  70  71
ENDBRANCH  51  65
BRANCH  52  75
ATOM     75  C   UNL A   1      43.599  23.154  26.885  1.00  0.00    -0.014 A 
ATOM     76  C   UNL A   1      43.087  22.379  27.939  1.00  0.00     0.010 A 
ATOM     77  C   UNL A   1      43.700  22.579  25.604  1.00  0.00     0.010 A 
ATOM     78  C   UNL A   1      42.702  21.052  27.723  1.00  0.00     0.020 A 
ATOM     79  C   UNL A   1      43.287  21.263  25.376  1.00  0.00     0.020 A 
ATOM     80  C   UNL A   1      42.801  20.504  26.441  1.00  0.00     0.054 A 
BRANCH  80  81
ATOM     81  S   UNL A   1      42.249  18.796  26.175  1.00  0.00     0.124 S 
ATOM     82  O   UNL A   1      40.866  18.986  25.751  1.00  0.00    -0.237 OA
ATOM     83  O   UNL A   1      43.170  18.326  25.142  1.00  0.00    -0.237 OA
ATOM     84  O   UNL A   1      42.423  18.171  27.484  1.00  0.00    -0.744 OA
ENDBRANCH  80  81
ENDBRANCH  52  75
BRANCH  64  85
ATOM     85  C   UNL A   1      49.761  26.419  26.422  1.00  0.00    -0.014 A 
ATOM     86  C   UNL A   1      50.283  26.459  25.117  1.00  0.00     0.010 A 
ATOM     87  C   UNL A   1      50.583  25.974  27.474  1.00  0.00     0.010 A 
ATOM     88  C   UNL A   1      51.590  26.033  24.866  1.00  0.00     0.020 A 
ATOM     89  C   UNL A   1      51.901  25.579  27.233  1.00  0.00     0.020 A 
ATOM     90  C   UNL A   1      52.391  25.597  25.926  1.00  0.00     0.054 A 
BRANCH  90  91
ATOM     91  S   UNL A   1      54.098  25.091  25.579  1.00  0.00     0.124 S 
ATOM     92  O   UNL A   1      54.004  23.636  25.646  1.00  0.00    -0.237 OA
ATOM     93  O   UNL A   1      54.331  25.646  24.248  1.00  0.00    -0.237 OA
ATOM     94  O   UNL A   1      54.871  25.714  26.652  1.00  0.00    -0.744 OA
ENDBRANCH  90  91
ENDBRANCH  64  85
ENDBRANCH  38  39
ENDBRANCH  31  33
ENDBRANCH  30  31
ENDBRANCH  29  30
ENDBRANCH  28  29
ENDBRANCH  27  28
ENDBRANCH  26  27
ENDBRANCH   1  26
TORSDOF 25
ENDMDL
