MODEL 1
REMARK VINA RESULT:      -9.0      0.000      0.000
REMARK SMILES O=C(Cc1cccn(C(F)F)c1=O)OCCOCCOCCOCCOC(=O)c1ccc(-c2c3nc(c(-c4ccc(S(=O)(=O)[O-])cc4)c4ccc([nH]4)c(-c4ccc(S(=O)(=O)[O-])cc4)c4nc(c(-c5ccc(S(=O)(=O)[O-])cc5)c5ccc2[nH]5)C=C4)C=C3)cc1
REMARK SMILES IDX 21 1 20 2 19 3 18 4 17 5 16 6 15 7 14 8 2 9 1 10 3 11 4 12
REMARK SMILES IDX 5 13 12 14 6 15 8 16 13 17 7 18 9 19 10 20 11 21 22 22 23 23
REMARK SMILES IDX 24 24 25 25 26 26 27 27 28 28 29 29 30 30 88 31 31 32 87 33
REMARK SMILES IDX 32 34 33 35 34 36 81 37 35 38 86 39 80 40 82 41 36 42 85 43
REMARK SMILES IDX 79 44 78 45 37 47 67 48 48 49 66 50 49 51 52 52 65 53 83 54
REMARK SMILES IDX 50 55 51 56 64 58 84 59 53 60 38 61 39 62 47 63 40 64 46 65
REMARK SMILES IDX 41 66 42 67 43 68 44 69 45 70 68 71 69 72 77 73 70 74 76 75
REMARK SMILES IDX 71 76 72 77 73 78 74 79 75 80 54 81 55 82 63 83 56 84 62 85
REMARK SMILES IDX 57 86 58 87 59 88 60 89 61 90
REMARK H PARENT 82 46 52 57
REMARK Flexibility Score: inf
ROOT
ATOM      1  C   UNL A   1      44.118  20.679  25.829  1.00  0.00     0.188 C 
ENDROOT
BRANCH   1   2
ATOM      2  O   UNL A   1      43.339  19.759  25.081  1.00  0.00    -0.377 OA
BRANCH   2   3
ATOM      3  C   UNL A   1      42.132  19.354  25.718  1.00  0.00     0.188 C 
BRANCH   3   4
ATOM      4  C   UNL A   1      41.803  20.149  26.984  1.00  0.00     0.188 C 
BRANCH   4   5
ATOM      5  O   UNL A   1      40.433  20.496  27.110  1.00  0.00    -0.376 OA
BRANCH   5   6
ATOM      6  C   UNL A   1      39.869  21.611  26.448  1.00  0.00     0.202 C 
BRANCH   6   7
ATOM      7  C   UNL A   1      38.597  21.423  25.630  1.00  0.00     0.261 C 
BRANCH   7   8
ATOM      8  O   UNL A   1      37.875  22.603  25.218  1.00  0.00    -0.463 OA
BRANCH   8   9
ATOM      9  C   UNL A   1      37.174  23.503  25.928  1.00  0.00     0.310 C 
ATOM     10  O   UNL A   1      37.774  24.408  26.507  1.00  0.00    -0.252 OA
BRANCH   9  11
ATOM     11  C   UNL A   1      35.690  23.325  26.149  1.00  0.00     0.164 C 
BRANCH  11  12
ATOM     12  C   UNL A   1      34.700  23.986  25.245  1.00  0.00     0.029 A 
ATOM     13  C   UNL A   1      34.492  25.297  25.042  1.00  0.00     0.011 A 
ATOM     14  C   UNL A   1      33.837  23.001  24.504  1.00  0.00     0.258 A 
ATOM     15  C   UNL A   1      33.520  25.761  24.084  1.00  0.00     0.019 A 
ATOM     16  N   UNL A   1      32.802  23.536  23.767  1.00  0.00    -0.258 N 
ATOM     17  O   UNL A   1      34.051  21.795  24.601  1.00  0.00    -0.269 OA
ATOM     18  C   UNL A   1      32.681  24.887  23.519  1.00  0.00     0.095 A 
BRANCH  16  19
ATOM     19  C   UNL A   1      31.770  22.627  23.350  1.00  0.00     0.451 C 
ATOM     20  F   UNL A   1      30.621  23.331  23.159  1.00  0.00    -0.185 F 
ATOM     21  F   UNL A   1      32.078  22.073  22.148  1.00  0.00    -0.185 F 
ENDBRANCH  16  19
ENDBRANCH  11  12
ENDBRANCH   9  11
ENDBRANCH   8   9
ENDBRANCH   7   8
ENDBRANCH   6   7
ENDBRANCH   5   6
ENDBRANCH   4   5
ENDBRANCH   3   4
ENDBRANCH   2   3
ENDBRANCH   1   2
BRANCH   1  22
ATOM     22  C   UNL A   1      45.107  21.559  25.030  1.00  0.00     0.188 C 
BRANCH  22  23
ATOM     23  O   UNL A   1      46.174  22.260  25.654  1.00  0.00    -0.376 OA
BRANCH  23  24
ATOM     24  C   UNL A   1      46.010  23.619  26.023  1.00  0.00     0.202 C 
BRANCH  24  25
ATOM     25  C   UNL A   1      45.105  23.975  27.212  1.00  0.00     0.261 C 
BRANCH  25  26
ATOM     26  O   UNL A   1      43.751  24.309  26.872  1.00  0.00    -0.460 OA
BRANCH  26  27
ATOM     27  C   UNL A   1      43.538  25.571  26.408  1.00  0.00     0.338 C 
ATOM     28  O   UNL A   1      43.575  25.944  25.257  1.00  0.00    -0.246 OA
BRANCH  27  29
ATOM     29  C   UNL A   1      43.014  26.391  27.531  1.00  0.00     0.060 A 
ATOM     30  C   UNL A   1      41.985  25.923  28.352  1.00  0.00     0.016 A 
ATOM     31  C   UNL A   1      43.509  27.694  27.695  1.00  0.00     0.016 A 
ATOM     32  C   UNL A   1      41.470  26.753  29.353  1.00  0.00     0.010 A 
ATOM     33  C   UNL A   1      42.970  28.534  28.674  1.00  0.00     0.010 A 
ATOM     34  C   UNL A   1      41.965  28.059  29.527  1.00  0.00    -0.014 A 
BRANCH  34  35
ATOM     35  C   UNL A   1      41.609  28.823  30.749  1.00  0.00     0.031 A 
ATOM     36  C   UNL A   1      42.362  28.696  32.038  1.00  0.00     0.074 A 
ATOM     37  C   UNL A   1      40.556  29.658  30.655  1.00  0.00     0.049 A 
ATOM     38  N   UNL A   1      42.190  29.369  33.146  1.00  0.00    -0.248 NA
ATOM     39  C   UNL A   1      43.437  27.695  32.104  1.00  0.00     0.031 C 
ATOM     40  C   UNL A   1      39.744  29.838  29.449  1.00  0.00     0.029 A 
ATOM     41  N   UNL A   1      39.990  30.509  31.569  1.00  0.00    -0.354 N 
ATOM     42  C   UNL A   1      43.148  28.901  34.036  1.00  0.00     0.074 A 
ATOM     43  C   UNL A   1      43.875  27.851  33.352  1.00  0.00     0.031 C 
ATOM     44  C   UNL A   1      38.792  30.748  29.693  1.00  0.00     0.029 A 
ATOM     45  C   UNL A   1      38.907  31.199  31.077  1.00  0.00     0.049 A 
ATOM     46  H   UNL A   1      40.326  30.615  32.489  1.00  0.00     0.167 HD
ATOM     47  C   UNL A   1      43.399  29.330  35.296  1.00  0.00     0.031 A 
ATOM     48  C   UNL A   1      38.091  32.096  31.665  1.00  0.00     0.031 A 
ATOM     49  C   UNL A   1      42.657  30.376  35.960  1.00  0.00     0.049 A 
ATOM     50  C   UNL A   1      38.374  32.525  33.075  1.00  0.00     0.074 A 
ATOM     51  C   UNL A   1      42.883  30.913  37.217  1.00  0.00     0.029 A 
ATOM     52  N   UNL A   1      41.551  31.034  35.442  1.00  0.00    -0.354 N 
ATOM     53  N   UNL A   1      39.348  32.141  33.866  1.00  0.00    -0.248 NA
ATOM     54  C   UNL A   1      37.467  33.515  33.672  1.00  0.00     0.031 C 
ATOM     55  C   UNL A   1      41.871  31.833  37.490  1.00  0.00     0.029 A 
ATOM     56  C   UNL A   1      41.059  31.936  36.372  1.00  0.00     0.049 A 
ATOM     57  H   UNL A   1      41.172  30.882  34.546  1.00  0.00     0.167 HD
ATOM     58  C   UNL A   1      39.177  32.850  35.048  1.00  0.00     0.074 A 
ATOM     59  C   UNL A   1      38.024  33.707  34.861  1.00  0.00     0.031 C 
ATOM     60  C   UNL A   1      39.909  32.786  36.186  1.00  0.00     0.031 A 
BRANCH  47  61
ATOM     61  C   UNL A   1      44.543  28.723  36.070  1.00  0.00    -0.014 A 
ATOM     62  C   UNL A   1      44.290  27.702  37.007  1.00  0.00     0.010 A 
ATOM     63  C   UNL A   1      45.814  29.325  36.044  1.00  0.00     0.010 A 
ATOM     64  C   UNL A   1      45.263  27.338  37.942  1.00  0.00     0.020 A 
ATOM     65  C   UNL A   1      46.798  28.946  36.963  1.00  0.00     0.020 A 
ATOM     66  C   UNL A   1      46.505  27.979  37.927  1.00  0.00     0.054 A 
BRANCH  66  67
ATOM     67  S   UNL A   1      47.715  27.566  39.215  1.00  0.00     0.124 S 
ATOM     68  O   UNL A   1      47.292  26.231  39.623  1.00  0.00    -0.237 OA
ATOM     69  O   UNL A   1      48.982  27.634  38.490  1.00  0.00    -0.237 OA
ATOM     70  O   UNL A   1      47.524  28.615  40.214  1.00  0.00    -0.744 OA
ENDBRANCH  66  67
ENDBRANCH  47  61
BRANCH  48  71
ATOM     71  C   UNL A   1      36.948  32.647  30.887  1.00  0.00    -0.014 A 
ATOM     72  C   UNL A   1      37.181  33.597  29.874  1.00  0.00     0.010 A 
ATOM     73  C   UNL A   1      35.625  32.298  31.204  1.00  0.00     0.010 A 
ATOM     74  C   UNL A   1      36.115  34.226  29.230  1.00  0.00     0.020 A 
ATOM     75  C   UNL A   1      34.554  32.900  30.534  1.00  0.00     0.020 A 
ATOM     76  C   UNL A   1      34.806  33.880  29.572  1.00  0.00     0.054 A 
BRANCH  76  77
ATOM     77  S   UNL A   1      33.438  34.733  28.744  1.00  0.00     0.124 S 
ATOM     78  O   UNL A   1      32.530  34.994  29.858  1.00  0.00    -0.237 OA
ATOM     79  O   UNL A   1      34.092  35.909  28.177  1.00  0.00    -0.237 OA
ATOM     80  O   UNL A   1      32.966  33.755  27.767  1.00  0.00    -0.744 OA
ENDBRANCH  76  77
ENDBRANCH  48  71
BRANCH  60  81
ATOM     81  C   UNL A   1      39.493  33.640  37.357  1.00  0.00    -0.014 A 
ATOM     82  C   UNL A   1      40.067  34.914  37.537  1.00  0.00     0.010 A 
ATOM     83  C   UNL A   1      38.664  33.115  38.364  1.00  0.00     0.010 A 
ATOM     84  C   UNL A   1      39.868  35.619  38.726  1.00  0.00     0.020 A 
ATOM     85  C   UNL A   1      38.437  33.833  39.541  1.00  0.00     0.020 A 
ATOM     86  C   UNL A   1      39.067  35.065  39.728  1.00  0.00     0.054 A 
BRANCH  86  87
ATOM     87  S   UNL A   1      38.885  35.960  41.296  1.00  0.00     0.124 S 
ATOM     88  O   UNL A   1      40.098  35.575  42.012  1.00  0.00    -0.237 OA
ATOM     89  O   UNL A   1      38.826  37.355  40.863  1.00  0.00    -0.237 OA
ATOM     90  O   UNL A   1      37.640  35.434  41.850  1.00  0.00    -0.744 OA
ENDBRANCH  86  87
ENDBRANCH  60  81
ENDBRANCH  34  35
ENDBRANCH  27  29
ENDBRANCH  26  27
ENDBRANCH  25  26
ENDBRANCH  24  25
ENDBRANCH  23  24
ENDBRANCH  22  23
ENDBRANCH   1  22
TORSDOF 25
ENDMDL
MODEL 2
REMARK VINA RESULT:      -8.9      6.069     12.199
REMARK SMILES O=C(Cc1cccn(C(F)F)c1=O)OCCOCCOCCOCCOC(=O)c1ccc(-c2c3nc(c(-c4ccc(S(=O)(=O)[O-])cc4)c4ccc([nH]4)c(-c4ccc(S(=O)(=O)[O-])cc4)c4nc(c(-c5ccc(S(=O)(=O)[O-])cc5)c5ccc2[nH]5)C=C4)C=C3)cc1
REMARK SMILES IDX 21 1 20 2 19 3 18 4 17 5 16 6 15 7 14 8 2 9 1 10 3 11 4 12
REMARK SMILES IDX 5 13 12 14 6 15 8 16 13 17 7 18 9 19 10 20 11 21 22 22 23 23
REMARK SMILES IDX 24 24 25 25 26 26 27 27 28 28 29 29 30 30 88 31 31 32 87 33
REMARK SMILES IDX 32 34 33 35 34 36 81 37 35 38 86 39 80 40 82 41 36 42 85 43
REMARK SMILES IDX 79 44 78 45 37 47 67 48 48 49 66 50 49 51 52 52 65 53 83 54
REMARK SMILES IDX 50 55 51 56 64 58 84 59 53 60 38 61 39 62 47 63 40 64 46 65
REMARK SMILES IDX 41 66 42 67 43 68 44 69 45 70 68 71 69 72 77 73 70 74 76 75
REMARK SMILES IDX 71 76 72 77 73 78 74 79 75 80 54 81 55 82 63 83 56 84 62 85
REMARK SMILES IDX 57 86 58 87 59 88 60 89 61 90
REMARK H PARENT 82 46 52 57
REMARK Flexibility Score: inf
ROOT
ATOM      1  C   UNL A   1      33.482  28.870  26.232  1.00  0.00     0.188 C 
ENDROOT
BRANCH   1   2
ATOM      2  O   UNL A   1      33.045  27.544  26.486  1.00  0.00    -0.377 OA
BRANCH   2   3
ATOM      3  C   UNL A   1      31.667  27.315  26.213  1.00  0.00     0.188 C 
BRANCH   3   4
ATOM      4  C   UNL A   1      31.400  26.725  24.826  1.00  0.00     0.188 C 
BRANCH   4   5
ATOM      5  O   UNL A   1      31.317  25.309  24.805  1.00  0.00    -0.376 OA
BRANCH   5   6
ATOM      6  C   UNL A   1      30.686  24.570  25.833  1.00  0.00     0.202 C 
BRANCH   6   7
ATOM      7  C   UNL A   1      30.966  23.077  25.954  1.00  0.00     0.261 C 
BRANCH   7   8
ATOM      8  O   UNL A   1      32.060  22.529  25.188  1.00  0.00    -0.463 OA
BRANCH   8   9
ATOM      9  C   UNL A   1      33.340  22.291  25.521  1.00  0.00     0.310 C 
ATOM     10  O   UNL A   1      33.659  22.290  26.709  1.00  0.00    -0.252 OA
BRANCH   9  11
ATOM     11  C   UNL A   1      34.407  22.184  24.457  1.00  0.00     0.164 C 
BRANCH  11  12
ATOM     12  C   UNL A   1      35.833  21.935  24.830  1.00  0.00     0.029 A 
ATOM     13  C   UNL A   1      36.513  20.778  24.824  1.00  0.00     0.011 A 
ATOM     14  C   UNL A   1      36.544  23.181  25.284  1.00  0.00     0.258 A 
ATOM     15  C   UNL A   1      37.912  20.730  25.168  1.00  0.00     0.019 A 
ATOM     16  N   UNL A   1      37.816  23.005  25.787  1.00  0.00    -0.258 N 
ATOM     17  O   UNL A   1      35.980  24.272  25.227  1.00  0.00    -0.269 OA
ATOM     18  C   UNL A   1      38.503  21.814  25.680  1.00  0.00     0.095 A 
BRANCH  16  19
ATOM     19  C   UNL A   1      38.369  24.096  26.541  1.00  0.00     0.451 C 
ATOM     20  F   UNL A   1      38.979  23.594  27.649  1.00  0.00    -0.185 F 
ATOM     21  F   UNL A   1      39.338  24.728  25.828  1.00  0.00    -0.185 F 
ENDBRANCH  16  19
ENDBRANCH  11  12
ENDBRANCH   9  11
ENDBRANCH   8   9
ENDBRANCH   7   8
ENDBRANCH   6   7
ENDBRANCH   5   6
ENDBRANCH   4   5
ENDBRANCH   3   4
ENDBRANCH   2   3
ENDBRANCH   1   2
BRANCH   1  22
ATOM     22  C   UNL A   1      32.680  30.006  26.909  1.00  0.00     0.188 C 
BRANCH  22  23
ATOM     23  O   UNL A   1      33.279  31.239  27.282  1.00  0.00    -0.376 OA
BRANCH  23  24
ATOM     24  C   UNL A   1      34.587  31.256  27.829  1.00  0.00     0.202 C 
BRANCH  24  25
ATOM     25  C   UNL A   1      34.838  31.974  29.164  1.00  0.00     0.261 C 
BRANCH  25  26
ATOM     26  O   UNL A   1      35.638  31.248  30.109  1.00  0.00    -0.460 OA
BRANCH  26  27
ATOM     27  C   UNL A   1      36.699  31.914  30.639  1.00  0.00     0.338 C 
ATOM     28  O   UNL A   1      36.671  32.800  31.463  1.00  0.00    -0.246 OA
BRANCH  27  29
ATOM     29  C   UNL A   1      37.940  31.214  30.214  1.00  0.00     0.060 A 
ATOM     30  C   UNL A   1      38.106  30.765  28.902  1.00  0.00     0.016 A 
ATOM     31  C   UNL A   1      38.911  30.927  31.186  1.00  0.00     0.016 A 
ATOM     32  C   UNL A   1      39.257  30.047  28.559  1.00  0.00     0.010 A 
ATOM     33  C   UNL A   1      40.045  30.182  30.849  1.00  0.00     0.010 A 
ATOM     34  C   UNL A   1      40.238  29.760  29.527  1.00  0.00    -0.014 A 
BRANCH  34  35
ATOM     35  C   UNL A   1      41.563  29.246  29.100  1.00  0.00     0.031 A 
ATOM     36  C   UNL A   1      41.788  27.827  28.673  1.00  0.00     0.074 A 
ATOM     37  C   UNL A   1      42.584  30.124  29.109  1.00  0.00     0.049 A 
ATOM     38  N   UNL A   1      42.884  27.286  28.208  1.00  0.00    -0.248 NA
ATOM     39  C   UNL A   1      40.656  26.894  28.781  1.00  0.00     0.031 C 
ATOM     40  C   UNL A   1      42.471  31.524  29.527  1.00  0.00     0.029 A 
ATOM     41  N   UNL A   1      43.902  29.986  28.759  1.00  0.00    -0.354 N 
ATOM     42  C   UNL A   1      42.575  25.959  27.938  1.00  0.00     0.074 A 
ATOM     43  C   UNL A   1      41.196  25.763  28.333  1.00  0.00     0.031 C 
ATOM     44  C   UNL A   1      43.666  32.117  29.400  1.00  0.00     0.029 A 
ATOM     45  C   UNL A   1      44.635  31.138  28.917  1.00  0.00     0.049 A 
ATOM     46  H   UNL A   1      44.287  29.141  28.427  1.00  0.00     0.167 HD
ATOM     47  C   UNL A   1      43.373  25.010  27.392  1.00  0.00     0.031 A 
ATOM     48  C   UNL A   1      45.942  31.390  28.700  1.00  0.00     0.031 A 
ATOM     49  C   UNL A   1      44.748  25.228  27.010  1.00  0.00     0.049 A 
ATOM     50  C   UNL A   1      46.808  30.306  28.128  1.00  0.00     0.074 A 
ATOM     51  C   UNL A   1      45.612  24.335  26.395  1.00  0.00     0.029 A 
ATOM     52  N   UNL A   1      45.465  26.398  27.208  1.00  0.00    -0.354 N 
ATOM     53  N   UNL A   1      46.471  29.086  27.786  1.00  0.00    -0.248 NA
ATOM     54  C   UNL A   1      48.223  30.629  27.895  1.00  0.00     0.031 C 
ATOM     55  C   UNL A   1      46.867  24.936  26.297  1.00  0.00     0.029 A 
ATOM     56  C   UNL A   1      46.770  26.234  26.771  1.00  0.00     0.049 A 
ATOM     57  H   UNL A   1      45.100  27.224  27.602  1.00  0.00     0.167 HD
ATOM     58  C   UNL A   1      47.627  28.498  27.289  1.00  0.00     0.074 A 
ATOM     59  C   UNL A   1      48.668  29.505  27.347  1.00  0.00     0.031 C 
ATOM     60  C   UNL A   1      47.806  27.236  26.834  1.00  0.00     0.031 A 
BRANCH  47  61
ATOM     61  C   UNL A   1      42.810  23.638  27.118  1.00  0.00    -0.014 A 
ATOM     62  C   UNL A   1      42.797  22.670  28.142  1.00  0.00     0.010 A 
ATOM     63  C   UNL A   1      42.521  23.240  25.800  1.00  0.00     0.010 A 
ATOM     64  C   UNL A   1      42.569  21.323  27.844  1.00  0.00     0.020 A 
ATOM     65  C   UNL A   1      42.268  21.897  25.503  1.00  0.00     0.020 A 
ATOM     66  C   UNL A   1      42.327  20.943  26.522  1.00  0.00     0.054 A 
BRANCH  66  67
ATOM     67  S   UNL A   1      42.139  19.178  26.142  1.00  0.00     0.124 S 
ATOM     68  O   UNL A   1      43.037  19.008  25.004  1.00  0.00    -0.237 OA
ATOM     69  O   UNL A   1      42.566  18.541  27.385  1.00  0.00    -0.237 OA
ATOM     70  O   UNL A   1      40.715  19.041  25.840  1.00  0.00    -0.744 OA
ENDBRANCH  66  67
ENDBRANCH  47  61
BRANCH  48  71
ATOM     71  C   UNL A   1      46.476  32.742  29.017  1.00  0.00    -0.014 A 
ATOM     72  C   UNL A   1      46.486  33.743  28.026  1.00  0.00     0.010 A 
ATOM     73  C   UNL A   1      47.051  33.016  30.269  1.00  0.00     0.010 A 
ATOM     74  C   UNL A   1      47.107  34.970  28.261  1.00  0.00     0.020 A 
ATOM     75  C   UNL A   1      47.643  34.259  30.521  1.00  0.00     0.020 A 
ATOM     76  C   UNL A   1      47.691  35.217  29.505  1.00  0.00     0.054 A 
BRANCH  76  77
ATOM     77  S   UNL A   1      48.519  36.807  29.776  1.00  0.00     0.124 S 
ATOM     78  O   UNL A   1      48.856  37.205  28.411  1.00  0.00    -0.237 OA
ATOM     79  O   UNL A   1      47.478  37.601  30.423  1.00  0.00    -0.237 OA
ATOM     80  O   UNL A   1      49.654  36.460  30.627  1.00  0.00    -0.744 OA
ENDBRANCH  76  77
ENDBRANCH  48  71
BRANCH  60  81
ATOM     81  C   UNL A   1      49.183  26.825  26.375  1.00  0.00    -0.014 A 
ATOM     82  C   UNL A   1      50.089  26.256  27.291  1.00  0.00     0.010 A 
ATOM     83  C   UNL A   1      49.632  27.155  25.084  1.00  0.00     0.010 A 
ATOM     84  C   UNL A   1      51.431  26.082  26.945  1.00  0.00     0.020 A 
ATOM     85  C   UNL A   1      50.967  26.951  24.724  1.00  0.00     0.020 A 
ATOM     86  C   UNL A   1      51.865  26.447  25.668  1.00  0.00     0.054 A 
BRANCH  86  87
ATOM     87  S   UNL A   1      53.626  26.286  25.264  1.00  0.00     0.124 S 
ATOM     88  O   UNL A   1      54.168  25.694  26.484  1.00  0.00    -0.237 OA
ATOM     89  O   UNL A   1      53.607  25.410  24.094  1.00  0.00    -0.237 OA
ATOM     90  O   UNL A   1      54.045  27.660  24.998  1.00  0.00    -0.744 OA
ENDBRANCH  86  87
ENDBRANCH  60  81
ENDBRANCH  34  35
ENDBRANCH  27  29
ENDBRANCH  26  27
ENDBRANCH  25  26
ENDBRANCH  24  25
ENDBRANCH  23  24
ENDBRANCH  22  23
ENDBRANCH   1  22
TORSDOF 25
ENDMDL
MODEL 3
REMARK VINA RESULT:      -8.0      5.761     12.077
REMARK SMILES O=C(Cc1cccn(C(F)F)c1=O)OCCOCCOCCOCCOC(=O)c1ccc(-c2c3nc(c(-c4ccc(S(=O)(=O)[O-])cc4)c4ccc([nH]4)c(-c4ccc(S(=O)(=O)[O-])cc4)c4nc(c(-c5ccc(S(=O)(=O)[O-])cc5)c5ccc2[nH]5)C=C4)C=C3)cc1
REMARK SMILES IDX 21 1 20 2 19 3 18 4 17 5 16 6 15 7 14 8 2 9 1 10 3 11 4 12
REMARK SMILES IDX 5 13 12 14 6 15 8 16 13 17 7 18 9 19 10 20 11 21 22 22 23 23
REMARK SMILES IDX 24 24 25 25 26 26 27 27 28 28 29 29 30 30 88 31 31 32 87 33
REMARK SMILES IDX 32 34 33 35 34 36 81 37 35 38 86 39 80 40 82 41 36 42 85 43
REMARK SMILES IDX 79 44 78 45 37 47 67 48 48 49 66 50 49 51 52 52 65 53 83 54
REMARK SMILES IDX 50 55 51 56 64 58 84 59 53 60 38 61 39 62 47 63 40 64 46 65
REMARK SMILES IDX 41 66 42 67 43 68 44 69 45 70 68 71 69 72 77 73 70 74 76 75
REMARK SMILES IDX 71 76 72 77 73 78 74 79 75 80 54 81 55 82 63 83 56 84 62 85
REMARK SMILES IDX 57 86 58 87 59 88 60 89 61 90
REMARK H PARENT 82 46 52 57
REMARK Flexibility Score: inf
ROOT
ATOM      1  C   UNL A   1      33.640  28.713  26.232  1.00  0.00     0.188 C 
ENDROOT
BRANCH   1   2
ATOM      2  O   UNL A   1      32.699  27.656  26.325  1.00  0.00    -0.377 OA
BRANCH   2   3
ATOM      3  C   UNL A   1      31.633  27.732  25.386  1.00  0.00     0.188 C 
BRANCH   3   4
ATOM      4  C   UNL A   1      32.033  27.339  23.961  1.00  0.00     0.188 C 
BRANCH   4   5
ATOM      5  O   UNL A   1      32.510  26.008  23.840  1.00  0.00    -0.376 OA
BRANCH   5   6
ATOM      6  C   UNL A   1      31.746  24.978  23.243  1.00  0.00     0.202 C 
BRANCH   6   7
ATOM      7  C   UNL A   1      30.928  24.050  24.132  1.00  0.00     0.261 C 
BRANCH   7   8
ATOM      8  O   UNL A   1      30.595  24.505  25.461  1.00  0.00    -0.463 OA
BRANCH   8   9
ATOM      9  C   UNL A   1      30.604  23.864  26.642  1.00  0.00     0.310 C 
ATOM     10  O   UNL A   1      29.563  23.797  27.294  1.00  0.00    -0.252 OA
BRANCH   9  11
ATOM     11  C   UNL A   1      31.899  23.371  27.244  1.00  0.00     0.164 C 
BRANCH  11  12
ATOM     12  C   UNL A   1      33.129  23.243  26.405  1.00  0.00     0.029 A 
ATOM     13  C   UNL A   1      34.016  24.192  26.064  1.00  0.00     0.011 A 
ATOM     14  C   UNL A   1      33.339  21.847  25.884  1.00  0.00     0.258 A 
ATOM     15  C   UNL A   1      35.185  23.877  25.282  1.00  0.00     0.019 A 
ATOM     16  N   UNL A   1      34.368  21.684  24.981  1.00  0.00    -0.258 N 
ATOM     17  O   UNL A   1      32.595  20.935  26.240  1.00  0.00    -0.269 OA
ATOM     18  C   UNL A   1      35.303  22.665  24.729  1.00  0.00     0.095 A 
BRANCH  16  19
ATOM     19  C   UNL A   1      34.366  20.469  24.213  1.00  0.00     0.451 C 
ATOM     20  F   UNL A   1      34.239  19.416  25.066  1.00  0.00    -0.185 F 
ATOM     21  F   UNL A   1      33.284  20.424  23.393  1.00  0.00    -0.185 F 
ENDBRANCH  16  19
ENDBRANCH  11  12
ENDBRANCH   9  11
ENDBRANCH   8   9
ENDBRANCH   7   8
ENDBRANCH   6   7
ENDBRANCH   5   6
ENDBRANCH   4   5
ENDBRANCH   3   4
ENDBRANCH   2   3
ENDBRANCH   1   2
BRANCH   1  22
ATOM     22  C   UNL A   1      33.120  30.135  26.549  1.00  0.00     0.188 C 
BRANCH  22  23
ATOM     23  O   UNL A   1      33.953  31.141  27.109  1.00  0.00    -0.376 OA
BRANCH  23  24
ATOM     24  C   UNL A   1      34.873  30.810  28.135  1.00  0.00     0.202 C 
BRANCH  24  25
ATOM     25  C   UNL A   1      34.988  31.720  29.367  1.00  0.00     0.261 C 
BRANCH  25  26
ATOM     26  O   UNL A   1      35.744  31.179  30.461  1.00  0.00    -0.460 OA
BRANCH  26  27
ATOM     27  C   UNL A   1      36.806  31.916  30.885  1.00  0.00     0.338 C 
ATOM     28  O   UNL A   1      36.789  32.847  31.658  1.00  0.00    -0.246 OA
BRANCH  27  29
ATOM     29  C   UNL A   1      38.047  31.242  30.424  1.00  0.00     0.060 A 
ATOM     30  C   UNL A   1      38.351  31.131  29.065  1.00  0.00     0.016 A 
ATOM     31  C   UNL A   1      38.870  30.630  31.382  1.00  0.00     0.016 A 
ATOM     32  C   UNL A   1      39.493  30.426  28.668  1.00  0.00     0.010 A 
ATOM     33  C   UNL A   1      39.992  29.898  30.982  1.00  0.00     0.010 A 
ATOM     34  C   UNL A   1      40.325  29.815  29.623  1.00  0.00    -0.014 A 
BRANCH  34  35
ATOM     35  C   UNL A   1      41.662  29.312  29.219  1.00  0.00     0.031 A 
ATOM     36  C   UNL A   1      41.895  27.912  28.737  1.00  0.00     0.074 A 
ATOM     37  C   UNL A   1      42.687  30.183  29.301  1.00  0.00     0.049 A 
ATOM     38  N   UNL A   1      43.003  27.386  28.286  1.00  0.00    -0.248 NA
ATOM     39  C   UNL A   1      40.756  26.982  28.766  1.00  0.00     0.031 C 
ATOM     40  C   UNL A   1      42.566  31.564  29.777  1.00  0.00     0.029 A 
ATOM     41  N   UNL A   1      44.015  30.052  28.990  1.00  0.00    -0.354 N 
ATOM     42  C   UNL A   1      42.698  26.074  27.946  1.00  0.00     0.074 A 
ATOM     43  C   UNL A   1      41.305  25.868  28.286  1.00  0.00     0.031 C 
ATOM     44  C   UNL A   1      43.767  32.154  29.716  1.00  0.00     0.029 A 
ATOM     45  C   UNL A   1      44.747  31.192  29.223  1.00  0.00     0.049 A 
ATOM     46  H   UNL A   1      44.407  29.221  28.634  1.00  0.00     0.167 HD
ATOM     47  C   UNL A   1      43.510  25.144  27.386  1.00  0.00     0.031 A 
ATOM     48  C   UNL A   1      46.061  31.444  29.062  1.00  0.00     0.031 A 
ATOM     49  C   UNL A   1      44.898  25.371  27.061  1.00  0.00     0.049 A 
ATOM     50  C   UNL A   1      46.942  30.382  28.471  1.00  0.00     0.074 A 
ATOM     51  C   UNL A   1      45.777  24.501  26.436  1.00  0.00     0.029 A 
ATOM     52  N   UNL A   1      45.613  26.527  27.335  1.00  0.00    -0.354 N 
ATOM     53  N   UNL A   1      46.611  29.180  28.065  1.00  0.00    -0.248 NA
ATOM     54  C   UNL A   1      48.365  30.706  28.301  1.00  0.00     0.031 C 
ATOM     55  C   UNL A   1      47.038  25.098  26.407  1.00  0.00     0.029 A 
ATOM     56  C   UNL A   1      46.931  26.374  26.934  1.00  0.00     0.049 A 
ATOM     57  H   UNL A   1      45.239  27.337  27.752  1.00  0.00     0.167 HD
ATOM     58  C   UNL A   1      47.781  28.608  27.580  1.00  0.00     0.074 A 
ATOM     59  C   UNL A   1      48.823  29.605  27.718  1.00  0.00     0.031 C 
ATOM     60  C   UNL A   1      47.969  27.366  27.076  1.00  0.00     0.031 A 
BRANCH  47  61
ATOM     61  C   UNL A   1      42.949  23.789  27.033  1.00  0.00    -0.014 A 
ATOM     62  C   UNL A   1      42.801  22.811  28.036  1.00  0.00     0.010 A 
ATOM     63  C   UNL A   1      42.799  23.413  25.686  1.00  0.00     0.010 A 
ATOM     64  C   UNL A   1      42.578  21.473  27.697  1.00  0.00     0.020 A 
ATOM     65  C   UNL A   1      42.551  22.080  25.344  1.00  0.00     0.020 A 
ATOM     66  C   UNL A   1      42.475  21.113  26.350  1.00  0.00     0.054 A 
BRANCH  66  67
ATOM     67  S   UNL A   1      42.291  19.358  25.928  1.00  0.00     0.124 S 
ATOM     68  O   UNL A   1      40.873  19.265  25.597  1.00  0.00    -0.237 OA
ATOM     69  O   UNL A   1      43.212  19.206  24.804  1.00  0.00    -0.237 OA
ATOM     70  O   UNL A   1      42.695  18.666  27.150  1.00  0.00    -0.744 OA
ENDBRANCH  66  67
ENDBRANCH  47  61
BRANCH  48  71
ATOM     71  C   UNL A   1      46.591  32.779  29.456  1.00  0.00    -0.014 A 
ATOM     72  C   UNL A   1      47.021  33.000  30.779  1.00  0.00     0.010 A 
ATOM     73  C   UNL A   1      46.591  33.851  28.551  1.00  0.00     0.010 A 
ATOM     74  C   UNL A   1      47.389  34.277  31.203  1.00  0.00     0.020 A 
ATOM     75  C   UNL A   1      46.995  35.126  28.962  1.00  0.00     0.020 A 
ATOM     76  C   UNL A   1      47.364  35.335  30.293  1.00  0.00     0.054 A 
BRANCH  76  77
ATOM     77  S   UNL A   1      47.817  36.992  30.875  1.00  0.00     0.124 S 
ATOM     78  O   UNL A   1      48.241  36.721  32.247  1.00  0.00    -0.237 OA
ATOM     79  O   UNL A   1      48.882  37.373  29.952  1.00  0.00    -0.237 OA
ATOM     80  O   UNL A   1      46.578  37.752  30.740  1.00  0.00    -0.744 OA
ENDBRANCH  76  77
ENDBRANCH  48  71
BRANCH  60  81
ATOM     81  C   UNL A   1      49.358  26.967  26.646  1.00  0.00    -0.014 A 
ATOM     82  C   UNL A   1      49.819  27.301  25.358  1.00  0.00     0.010 A 
ATOM     83  C   UNL A   1      50.139  26.122  27.455  1.00  0.00     0.010 A 
ATOM     84  C   UNL A   1      51.004  26.750  24.864  1.00  0.00     0.020 A 
ATOM     85  C   UNL A   1      51.342  25.595  26.975  1.00  0.00     0.020 A 
ATOM     86  C   UNL A   1      51.749  25.886  25.671  1.00  0.00     0.054 A 
BRANCH  86  87
ATOM     87  S   UNL A   1      53.242  25.118  24.984  1.00  0.00     0.124 S 
ATOM     88  O   UNL A   1      53.062  23.715  25.347  1.00  0.00    -0.237 OA
ATOM     89  O   UNL A   1      53.129  25.420  23.558  1.00  0.00    -0.237 OA
ATOM     90  O   UNL A   1      54.331  25.805  25.674  1.00  0.00    -0.744 OA
ENDBRANCH  86  87
ENDBRANCH  60  81
ENDBRANCH  34  35
ENDBRANCH  27  29
ENDBRANCH  26  27
ENDBRANCH  25  26
ENDBRANCH  24  25
ENDBRANCH  23  24
ENDBRANCH  22  23
ENDBRANCH   1  22
TORSDOF 25
ENDMDL
