MODEL 1
REMARK VINA RESULT:      -5.3      0.000      0.000
REMARK SMILES CCC(CC)COc1cc2c(cc1Cl)C=C(C(=O)OCCOCCOCCOCCOC(=O)c1ccc(-c3c4nc(c(-c5ccc(S(=O)(=O)[O-])cc5)c5ccc([nH]5)c(-c5ccc(S(=O)(=O)[O-])cc5)c5nc(c(-c6ccc(S(=O)(=O)[O-])cc6)c6ccc3[nH]6)C=C5)C=C4)cc1)[C@@H](C(F)(F)F)O2
REMARK SMILES IDX 24 1 23 2 22 3 21 4 20 5 19 6 17 7 18 8 16 9 8 10 9 11 13 12
REMARK SMILES IDX 10 13 12 14 14 15 11 16 99 17 15 18 94 19 7 20 6 21 3 22
REMARK SMILES IDX 2 23 1 24 4 25 5 26 95 27 96 28 97 29 98 30 25 31 26 32
REMARK SMILES IDX 27 33 28 34 29 35 30 36 31 37 32 38 33 39 34 40 35 41 93 42
REMARK SMILES IDX 36 43 92 44 37 45 38 46 39 47 86 48 40 49 91 50 85 51 87 52
REMARK SMILES IDX 41 53 90 54 84 55 83 56 42 58 72 59 53 60 71 61 54 62 57 63
REMARK SMILES IDX 70 64 88 65 55 66 56 67 69 69 89 70 58 71 43 72 44 73 52 74
REMARK SMILES IDX 45 75 51 76 46 77 47 78 48 79 49 80 50 81 73 82 74 83 82 84
REMARK SMILES IDX 75 85 81 86 76 87 77 88 78 89 79 90 80 91 59 92 60 93 68 94
REMARK SMILES IDX 61 95 67 96 62 97 63 98 64 99 65 100 66 101
REMARK H PARENT 87 57 57 68
REMARK Flexibility Score: inf
ROOT
ATOM      1  C   UNL A   1      43.043  33.990  41.545  1.00  0.00     0.188 C 
ENDROOT
BRANCH   1   2
ATOM      2  C   UNL A   1      42.483  35.182  40.751  1.00  0.00     0.188 C 
BRANCH   2   3
ATOM      3  O   UNL A   1      43.242  35.520  39.595  1.00  0.00    -0.376 OA
BRANCH   3   4
ATOM      4  C   UNL A   1      43.341  34.528  38.580  1.00  0.00     0.202 C 
BRANCH   4   5
ATOM      5  C   UNL A   1      43.370  35.061  37.139  1.00  0.00     0.261 C 
BRANCH   5   6
ATOM      6  O   UNL A   1      43.530  34.046  36.136  1.00  0.00    -0.460 OA
BRANCH   6   7
ATOM      7  C   UNL A   1      42.801  34.206  35.015  1.00  0.00     0.338 C 
ATOM      8  O   UNL A   1      41.835  34.940  34.882  1.00  0.00    -0.246 OA
BRANCH   7   9
ATOM      9  C   UNL A   1      43.449  33.490  33.899  1.00  0.00     0.087 C 
ATOM     10  C   UNL A   1      46.319  30.466  31.134  1.00  0.00     0.141 A 
ATOM     11  C   UNL A   1      45.252  31.317  30.818  1.00  0.00     0.095 A 
ATOM     12  C   UNL A   1      46.798  30.409  32.450  1.00  0.00     0.083 A 
ATOM     13  C   UNL A   1      44.617  32.034  31.837  1.00  0.00     0.131 A 
ATOM     14  C   UNL A   1      46.093  31.035  33.473  1.00  0.00     0.036 A 
ATOM     15  Cl  UNL A   1      48.244  29.569  32.874  1.00  0.00    -0.080 Cl
ATOM     16  C   UNL A   1      44.994  31.836  33.168  1.00  0.00     0.019 A 
ATOM     17  O   UNL A   1      43.613  32.897  31.483  1.00  0.00    -0.475 OA
ATOM     18  C   UNL A   1      44.261  32.484  34.237  1.00  0.00     0.027 C 
ATOM     19  C   UNL A   1      43.223  33.911  32.469  1.00  0.00     0.316 C 
BRANCH  10  20
ATOM     20  O   UNL A   1      46.934  29.738  30.149  1.00  0.00    -0.492 OA
BRANCH  20  21
ATOM     21  C   UNL A   1      46.324  28.447  29.917  1.00  0.00     0.233 C 
BRANCH  21  22
ATOM     22  C   UNL A   1      47.245  27.271  30.336  1.00  0.00     0.026 C 
BRANCH  22  23
ATOM     23  C   UNL A   1      46.715  26.572  31.611  1.00  0.00     0.003 C 
ATOM     24  C   UNL A   1      47.822  25.955  32.457  1.00  0.00     0.004 C 
ENDBRANCH  22  23
BRANCH  22  25
ATOM     25  C   UNL A   1      47.487  26.270  29.184  1.00  0.00     0.003 C 
ATOM     26  C   UNL A   1      46.482  25.134  29.075  1.00  0.00     0.004 C 
ENDBRANCH  22  25
ENDBRANCH  21  22
ENDBRANCH  20  21
ENDBRANCH  10  20
BRANCH  19  27
ATOM     27  C   UNL A   1      43.918  35.252  32.191  1.00  0.00     0.430 C 
ATOM     28  F   UNL A   1      44.357  35.329  30.915  1.00  0.00    -0.167 F 
ATOM     29  F   UNL A   1      43.073  36.289  32.392  1.00  0.00    -0.167 F 
ATOM     30  F   UNL A   1      44.986  35.438  33.004  1.00  0.00    -0.167 F 
ENDBRANCH  19  27
ENDBRANCH   7   9
ENDBRANCH   6   7
ENDBRANCH   5   6
ENDBRANCH   4   5
ENDBRANCH   3   4
ENDBRANCH   2   3
ENDBRANCH   1   2
BRANCH   1  31
ATOM     31  O   UNL A   1      43.093  34.139  42.951  1.00  0.00    -0.377 OA
BRANCH  31  32
ATOM     32  C   UNL A   1      42.520  35.301  43.551  1.00  0.00     0.188 C 
BRANCH  32  33
ATOM     33  C   UNL A   1      41.093  35.795  43.220  1.00  0.00     0.188 C 
BRANCH  33  34
ATOM     34  O   UNL A   1      40.096  35.411  44.159  1.00  0.00    -0.376 OA
BRANCH  34  35
ATOM     35  C   UNL A   1      39.564  34.103  44.008  1.00  0.00     0.202 C 
BRANCH  35  36
ATOM     36  C   UNL A   1      39.375  33.682  42.547  1.00  0.00     0.261 C 
BRANCH  36  37
ATOM     37  O   UNL A   1      38.170  34.153  41.926  1.00  0.00    -0.460 OA
BRANCH  37  38
ATOM     38  C   UNL A   1      38.277  35.107  40.973  1.00  0.00     0.338 C 
ATOM     39  O   UNL A   1      38.256  36.314  41.132  1.00  0.00    -0.246 OA
BRANCH  38  40
ATOM     40  C   UNL A   1      38.636  34.414  39.719  1.00  0.00     0.060 A 
ATOM     41  C   UNL A   1      39.505  35.022  38.810  1.00  0.00     0.016 A 
ATOM     42  C   UNL A   1      38.036  33.184  39.416  1.00  0.00     0.016 A 
ATOM     43  C   UNL A   1      39.784  34.393  37.597  1.00  0.00     0.010 A 
ATOM     44  C   UNL A   1      38.307  32.563  38.195  1.00  0.00     0.010 A 
ATOM     45  C   UNL A   1      39.194  33.156  37.284  1.00  0.00    -0.014 A 
BRANCH  45  46
ATOM     46  C   UNL A   1      39.652  32.409  36.089  1.00  0.00     0.031 A 
ATOM     47  C   UNL A   1      40.844  31.503  36.123  1.00  0.00     0.074 A 
ATOM     48  C   UNL A   1      38.945  32.561  34.953  1.00  0.00     0.049 A 
ATOM     49  N   UNL A   1      41.302  30.728  35.174  1.00  0.00    -0.248 NA
ATOM     50  C   UNL A   1      41.620  31.454  37.371  1.00  0.00     0.031 C 
ATOM     51  C   UNL A   1      37.764  33.417  34.817  1.00  0.00     0.029 A 
ATOM     52  N   UNL A   1      39.101  32.003  33.711  1.00  0.00    -0.354 N 
ATOM     53  C   UNL A   1      42.406  30.077  35.711  1.00  0.00     0.074 A 
ATOM     54  C   UNL A   1      42.575  30.582  37.058  1.00  0.00     0.031 C 
ATOM     55  C   UNL A   1      37.290  33.311  33.568  1.00  0.00     0.029 A 
ATOM     56  C   UNL A   1      38.146  32.405  32.807  1.00  0.00     0.049 A 
ATOM     57  H   UNL A   1      39.825  31.376  33.487  1.00  0.00     0.167 HD
ATOM     58  C   UNL A   1      43.188  29.136  35.130  1.00  0.00     0.031 A 
ATOM     59  C   UNL A   1      37.969  32.081  31.510  1.00  0.00     0.031 A 
ATOM     60  C   UNL A   1      43.016  28.662  33.777  1.00  0.00     0.049 A 
ATOM     61  C   UNL A   1      38.888  31.082  30.872  1.00  0.00     0.074 A 
ATOM     62  C   UNL A   1      43.741  27.682  33.119  1.00  0.00     0.029 A 
ATOM     63  N   UNL A   1      42.072  29.132  32.876  1.00  0.00    -0.354 N 
ATOM     64  N   UNL A   1      39.884  30.424  31.416  1.00  0.00    -0.248 NA
ATOM     65  C   UNL A   1      38.658  30.764  29.456  1.00  0.00     0.031 C 
ATOM     66  C   UNL A   1      43.288  27.615  31.800  1.00  0.00     0.029 A 
ATOM     67  C   UNL A   1      42.224  28.491  31.656  1.00  0.00     0.049 A 
ATOM     68  H   UNL A   1      41.395  29.818  33.072  1.00  0.00     0.167 HD
ATOM     69  C   UNL A   1      40.384  29.597  30.417  1.00  0.00     0.074 A 
ATOM     70  C   UNL A   1      39.576  29.830  29.237  1.00  0.00     0.031 C 
ATOM     71  C   UNL A   1      41.418  28.724  30.481  1.00  0.00     0.031 A 
BRANCH  58  72
ATOM     72  C   UNL A   1      44.303  28.521  35.939  1.00  0.00    -0.014 A 
ATOM     73  C   UNL A   1      45.601  29.064  35.870  1.00  0.00     0.010 A 
ATOM     74  C   UNL A   1      44.106  27.314  36.632  1.00  0.00     0.010 A 
ATOM     75  C   UNL A   1      46.685  28.392  36.444  1.00  0.00     0.020 A 
ATOM     76  C   UNL A   1      45.183  26.653  37.232  1.00  0.00     0.020 A 
ATOM     77  C   UNL A   1      46.469  27.184  37.113  1.00  0.00     0.054 A 
BRANCH  77  78
ATOM     78  S   UNL A   1      47.895  26.306  37.813  1.00  0.00     0.124 S 
ATOM     79  O   UNL A   1      48.096  27.002  39.079  1.00  0.00    -0.237 OA
ATOM     80  O   UNL A   1      47.404  24.934  37.916  1.00  0.00    -0.237 OA
ATOM     81  O   UNL A   1      48.944  26.509  36.815  1.00  0.00    -0.744 OA
ENDBRANCH  77  78
ENDBRANCH  58  72
BRANCH  59  82
ATOM     82  C   UNL A   1      36.828  32.688  30.773  1.00  0.00    -0.014 A 
ATOM     83  C   UNL A   1      37.045  33.767  29.894  1.00  0.00     0.010 A 
ATOM     84  C   UNL A   1      35.512  32.271  31.035  1.00  0.00     0.010 A 
ATOM     85  C   UNL A   1      35.965  34.460  29.343  1.00  0.00     0.020 A 
ATOM     86  C   UNL A   1      34.429  32.944  30.460  1.00  0.00     0.020 A 
ATOM     87  C   UNL A   1      34.663  34.053  29.645  1.00  0.00     0.054 A 
BRANCH  87  88
ATOM     88  S   UNL A   1      33.276  35.013  28.978  1.00  0.00     0.124 S 
ATOM     89  O   UNL A   1      32.501  35.296  30.183  1.00  0.00    -0.237 OA
ATOM     90  O   UNL A   1      33.945  36.164  28.376  1.00  0.00    -0.237 OA
ATOM     91  O   UNL A   1      32.648  34.096  28.031  1.00  0.00    -0.744 OA
ENDBRANCH  87  88
ENDBRANCH  59  82
BRANCH  71  92
ATOM     92  C   UNL A   1      41.767  27.930  29.248  1.00  0.00    -0.014 A 
ATOM     93  C   UNL A   1      41.136  26.693  29.015  1.00  0.00     0.010 A 
ATOM     94  C   UNL A   1      42.831  28.323  28.416  1.00  0.00     0.010 A 
ATOM     95  C   UNL A   1      41.598  25.838  28.012  1.00  0.00     0.020 A 
ATOM     96  C   UNL A   1      43.277  27.481  27.392  1.00  0.00     0.020 A 
ATOM     97  C   UNL A   1      42.679  26.230  27.218  1.00  0.00     0.054 A 
BRANCH  97  98
ATOM     98  S   UNL A   1      43.314  25.073  25.974  1.00  0.00     0.124 S 
ATOM     99  O   UNL A   1      42.951  23.779  26.543  1.00  0.00    -0.237 OA
ATOM    100  O   UNL A   1      42.581  25.460  24.770  1.00  0.00    -0.237 OA
ATOM    101  O   UNL A   1      44.748  25.359  25.939  1.00  0.00    -0.744 OA
ENDBRANCH  97  98
ENDBRANCH  71  92
ENDBRANCH  45  46
ENDBRANCH  38  40
ENDBRANCH  37  38
ENDBRANCH  36  37
ENDBRANCH  35  36
ENDBRANCH  34  35
ENDBRANCH  33  34
ENDBRANCH  32  33
ENDBRANCH  31  32
ENDBRANCH   1  31
TORSDOF 29
ENDMDL
MODEL 2
REMARK VINA RESULT:      -4.9      5.449     10.938
REMARK SMILES CCC(CC)COc1cc2c(cc1Cl)C=C(C(=O)OCCOCCOCCOCCOC(=O)c1ccc(-c3c4nc(c(-c5ccc(S(=O)(=O)[O-])cc5)c5ccc([nH]5)c(-c5ccc(S(=O)(=O)[O-])cc5)c5nc(c(-c6ccc(S(=O)(=O)[O-])cc6)c6ccc3[nH]6)C=C5)C=C4)cc1)[C@@H](C(F)(F)F)O2
REMARK SMILES IDX 24 1 23 2 22 3 21 4 20 5 19 6 17 7 18 8 16 9 8 10 9 11 13 12
REMARK SMILES IDX 10 13 12 14 14 15 11 16 99 17 15 18 94 19 7 20 6 21 3 22
REMARK SMILES IDX 2 23 1 24 4 25 5 26 95 27 96 28 97 29 98 30 25 31 26 32
REMARK SMILES IDX 27 33 28 34 29 35 30 36 31 37 32 38 33 39 34 40 35 41 93 42
REMARK SMILES IDX 36 43 92 44 37 45 38 46 39 47 86 48 40 49 91 50 85 51 87 52
REMARK SMILES IDX 41 53 90 54 84 55 83 56 42 58 72 59 53 60 71 61 54 62 57 63
REMARK SMILES IDX 70 64 88 65 55 66 56 67 69 69 89 70 58 71 43 72 44 73 52 74
REMARK SMILES IDX 45 75 51 76 46 77 47 78 48 79 49 80 50 81 73 82 74 83 82 84
REMARK SMILES IDX 75 85 81 86 76 87 77 88 78 89 79 90 80 91 59 92 60 93 68 94
REMARK SMILES IDX 61 95 67 96 62 97 63 98 64 99 65 100 66 101
REMARK H PARENT 87 57 57 68
REMARK Flexibility Score: inf
ROOT
ATOM      1  C   UNL A   1      35.940  34.754  33.225  1.00  0.00     0.188 C 
ENDROOT
BRANCH   1   2
ATOM      2  C   UNL A   1      36.361  34.114  34.558  1.00  0.00     0.188 C 
BRANCH   2   3
ATOM      3  O   UNL A   1      36.610  32.714  34.479  1.00  0.00    -0.376 OA
BRANCH   3   4
ATOM      4  C   UNL A   1      37.844  32.252  35.018  1.00  0.00     0.202 C 
BRANCH   4   5
ATOM      5  C   UNL A   1      38.187  30.785  34.713  1.00  0.00     0.261 C 
BRANCH   5   6
ATOM      6  O   UNL A   1      38.323  30.488  33.315  1.00  0.00    -0.460 OA
BRANCH   6   7
ATOM      7  C   UNL A   1      38.069  29.216  32.956  1.00  0.00     0.338 C 
ATOM      8  O   UNL A   1      37.079  28.567  33.254  1.00  0.00    -0.246 OA
BRANCH   7   9
ATOM      9  C   UNL A   1      39.089  28.763  31.990  1.00  0.00     0.087 C 
ATOM     10  C   UNL A   1      41.500  26.512  28.228  1.00  0.00     0.141 A 
ATOM     11  C   UNL A   1      41.872  27.516  29.132  1.00  0.00     0.095 A 
ATOM     12  C   UNL A   1      40.240  25.909  28.338  1.00  0.00     0.083 A 
ATOM     13  C   UNL A   1      40.948  27.967  30.081  1.00  0.00     0.131 A 
ATOM     14  C   UNL A   1      39.290  26.437  29.206  1.00  0.00     0.036 A 
ATOM     15  Cl  UNL A   1      39.795  24.518  27.418  1.00  0.00    -0.080 Cl
ATOM     16  C   UNL A   1      39.640  27.476  30.068  1.00  0.00     0.019 A 
ATOM     17  O   UNL A   1      41.365  28.910  30.983  1.00  0.00    -0.475 OA
ATOM     18  C   UNL A   1      38.646  28.025  30.968  1.00  0.00     0.027 C 
ATOM     19  C   UNL A   1      40.548  29.092  32.187  1.00  0.00     0.316 C 
BRANCH  10  20
ATOM     20  O   UNL A   1      42.386  26.079  27.278  1.00  0.00    -0.492 OA
BRANCH  20  21
ATOM     21  C   UNL A   1      43.646  25.623  27.825  1.00  0.00     0.233 C 
BRANCH  21  22
ATOM     22  C   UNL A   1      43.478  24.399  28.763  1.00  0.00     0.026 C 
BRANCH  22  23
ATOM     23  C   UNL A   1      43.337  23.088  27.952  1.00  0.00     0.003 C 
ATOM     24  C   UNL A   1      44.316  22.998  26.789  1.00  0.00     0.004 C 
ENDBRANCH  22  23
BRANCH  22  25
ATOM     25  C   UNL A   1      44.597  24.308  29.823  1.00  0.00     0.003 C 
ATOM     26  C   UNL A   1      44.407  25.174  31.059  1.00  0.00     0.004 C 
ENDBRANCH  22  25
ENDBRANCH  21  22
ENDBRANCH  20  21
ENDBRANCH  10  20
BRANCH  19  27
ATOM     27  C   UNL A   1      41.119  28.298  33.371  1.00  0.00     0.430 C 
ATOM     28  F   UNL A   1      42.420  27.987  33.179  1.00  0.00    -0.167 F 
ATOM     29  F   UNL A   1      41.038  29.010  34.518  1.00  0.00    -0.167 F 
ATOM     30  F   UNL A   1      40.445  27.140  33.566  1.00  0.00    -0.167 F 
ENDBRANCH  19  27
ENDBRANCH   7   9
ENDBRANCH   6   7
ENDBRANCH   5   6
ENDBRANCH   4   5
ENDBRANCH   3   4
ENDBRANCH   2   3
ENDBRANCH   1   2
BRANCH   1  31
ATOM     31  O   UNL A   1      34.578  34.618  32.865  1.00  0.00    -0.377 OA
BRANCH  31  32
ATOM     32  C   UNL A   1      34.231  33.836  31.723  1.00  0.00     0.188 C 
BRANCH  32  33
ATOM     33  C   UNL A   1      33.679  34.459  30.420  1.00  0.00     0.188 C 
BRANCH  33  34
ATOM     34  O   UNL A   1      34.652  35.109  29.610  1.00  0.00    -0.376 OA
BRANCH  34  35
ATOM     35  C   UNL A   1      34.922  34.508  28.352  1.00  0.00     0.202 C 
BRANCH  35  36
ATOM     36  C   UNL A   1      35.962  33.386  28.418  1.00  0.00     0.261 C 
BRANCH  36  37
ATOM     37  O   UNL A   1      37.213  33.746  29.023  1.00  0.00    -0.460 OA
BRANCH  37  38
ATOM     38  C   UNL A   1      37.596  33.080  30.136  1.00  0.00     0.338 C 
ATOM     39  O   UNL A   1      36.907  32.363  30.839  1.00  0.00    -0.246 OA
BRANCH  38  40
ATOM     40  C   UNL A   1      39.064  33.215  30.227  1.00  0.00     0.060 A 
ATOM     41  C   UNL A   1      39.779  32.445  31.147  1.00  0.00     0.016 A 
ATOM     42  C   UNL A   1      39.716  34.174  29.441  1.00  0.00     0.016 A 
ATOM     43  C   UNL A   1      41.156  32.627  31.275  1.00  0.00     0.010 A 
ATOM     44  C   UNL A   1      41.093  34.365  29.582  1.00  0.00     0.010 A 
ATOM     45  C   UNL A   1      41.824  33.582  30.489  1.00  0.00    -0.014 A 
BRANCH  45  46
ATOM     46  C   UNL A   1      43.305  33.626  30.492  1.00  0.00     0.031 A 
ATOM     47  C   UNL A   1      44.070  34.709  31.189  1.00  0.00     0.074 A 
ATOM     48  C   UNL A   1      43.957  32.638  29.849  1.00  0.00     0.049 A 
ATOM     49  N   UNL A   1      45.364  34.820  31.341  1.00  0.00    -0.248 NA
ATOM     50  C   UNL A   1      43.294  35.802  31.794  1.00  0.00     0.031 C 
ATOM     51  C   UNL A   1      43.304  31.533  29.143  1.00  0.00     0.029 A 
ATOM     52  N   UNL A   1      45.296  32.393  29.691  1.00  0.00    -0.354 N 
ATOM     53  C   UNL A   1      45.565  35.980  32.078  1.00  0.00     0.074 A 
ATOM     54  C   UNL A   1      44.258  36.561  32.307  1.00  0.00     0.031 C 
ATOM     55  C   UNL A   1      44.244  30.718  28.646  1.00  0.00     0.029 A 
ATOM     56  C   UNL A   1      45.563  31.254  28.971  1.00  0.00     0.049 A 
ATOM     57  H   UNL A   1      45.999  32.977  30.058  1.00  0.00     0.167 HD
ATOM     58  C   UNL A   1      46.734  36.493  32.531  1.00  0.00     0.031 A 
ATOM     59  C   UNL A   1      46.735  30.692  28.612  1.00  0.00     0.031 A 
ATOM     60  C   UNL A   1      48.029  35.911  32.272  1.00  0.00     0.049 A 
ATOM     61  C   UNL A   1      48.019  31.317  29.074  1.00  0.00     0.074 A 
ATOM     62  C   UNL A   1      49.265  36.345  32.723  1.00  0.00     0.029 A 
ATOM     63  N   UNL A   1      48.262  34.787  31.494  1.00  0.00    -0.354 N 
ATOM     64  N   UNL A   1      48.187  32.375  29.830  1.00  0.00    -0.248 NA
ATOM     65  C   UNL A   1      49.270  30.670  28.654  1.00  0.00     0.031 C 
ATOM     66  C   UNL A   1      50.248  35.532  32.156  1.00  0.00     0.029 A 
ATOM     67  C   UNL A   1      49.624  34.538  31.419  1.00  0.00     0.049 A 
ATOM     68  H   UNL A   1      47.565  34.245  31.059  1.00  0.00     0.167 HD
ATOM     69  C   UNL A   1      49.560  32.509  29.997  1.00  0.00     0.074 A 
ATOM     70  C   UNL A   1      50.179  31.417  29.271  1.00  0.00     0.031 C 
ATOM     71  C   UNL A   1      50.239  33.451  30.694  1.00  0.00     0.031 A 
BRANCH  58  72
ATOM     72  C   UNL A   1      46.698  37.745  33.373  1.00  0.00    -0.014 A 
ATOM     73  C   UNL A   1      46.815  39.007  32.759  1.00  0.00     0.010 A 
ATOM     74  C   UNL A   1      46.715  37.666  34.777  1.00  0.00     0.010 A 
ATOM     75  C   UNL A   1      46.989  40.160  33.531  1.00  0.00     0.020 A 
ATOM     76  C   UNL A   1      46.862  38.820  35.553  1.00  0.00     0.020 A 
ATOM     77  C   UNL A   1      47.023  40.057  34.925  1.00  0.00     0.054 A 
BRANCH  77  78
ATOM     78  S   UNL A   1      47.295  41.558  35.906  1.00  0.00     0.124 S 
ATOM     79  O   UNL A   1      48.689  41.871  35.615  1.00  0.00    -0.237 OA
ATOM     80  O   UNL A   1      46.310  42.483  35.351  1.00  0.00    -0.237 OA
ATOM     81  O   UNL A   1      47.025  41.124  37.276  1.00  0.00    -0.744 OA
ENDBRANCH  77  78
ENDBRANCH  58  72
BRANCH  59  82
ATOM     82  C   UNL A   1      46.710  29.436  27.814  1.00  0.00    -0.014 A 
ATOM     83  C   UNL A   1      46.730  28.185  28.460  1.00  0.00     0.010 A 
ATOM     84  C   UNL A   1      46.788  29.486  26.412  1.00  0.00     0.010 A 
ATOM     85  C   UNL A   1      46.894  27.010  27.723  1.00  0.00     0.020 A 
ATOM     86  C   UNL A   1      46.920  28.308  25.669  1.00  0.00     0.020 A 
ATOM     87  C   UNL A   1      47.005  27.082  26.332  1.00  0.00     0.054 A 
BRANCH  87  88
ATOM     88  S   UNL A   1      47.292  25.552  25.402  1.00  0.00     0.124 S 
ATOM     89  O   UNL A   1      46.001  25.351  24.751  1.00  0.00    -0.237 OA
ATOM     90  O   UNL A   1      48.394  25.919  24.516  1.00  0.00    -0.237 OA
ATOM     91  O   UNL A   1      47.628  24.579  26.439  1.00  0.00    -0.744 OA
ENDBRANCH  87  88
ENDBRANCH  59  82
BRANCH  71  92
ATOM     92  C   UNL A   1      51.744  33.376  30.728  1.00  0.00    -0.014 A 
ATOM     93  C   UNL A   1      52.384  32.706  31.787  1.00  0.00     0.010 A 
ATOM     94  C   UNL A   1      52.522  34.107  29.812  1.00  0.00     0.010 A 
ATOM     95  C   UNL A   1      53.765  32.813  31.965  1.00  0.00     0.020 A 
ATOM     96  C   UNL A   1      53.909  34.193  29.970  1.00  0.00     0.020 A 
ATOM     97  C   UNL A   1      54.517  33.573  31.065  1.00  0.00     0.054 A 
BRANCH  97  98
ATOM     98  S   UNL A   1      56.297  33.765  31.358  1.00  0.00     0.124 S 
ATOM     99  O   UNL A   1      56.555  32.744  32.369  1.00  0.00    -0.237 OA
ATOM    100  O   UNL A   1      56.870  33.505  30.039  1.00  0.00    -0.237 OA
ATOM    101  O   UNL A   1      56.422  35.147  31.820  1.00  0.00    -0.744 OA
ENDBRANCH  97  98
ENDBRANCH  71  92
ENDBRANCH  45  46
ENDBRANCH  38  40
ENDBRANCH  37  38
ENDBRANCH  36  37
ENDBRANCH  35  36
ENDBRANCH  34  35
ENDBRANCH  33  34
ENDBRANCH  32  33
ENDBRANCH  31  32
ENDBRANCH   1  31
TORSDOF 29
ENDMDL
MODEL 3
REMARK VINA RESULT:      -4.3      6.147     12.388
REMARK SMILES CCC(CC)COc1cc2c(cc1Cl)C=C(C(=O)OCCOCCOCCOCCOC(=O)c1ccc(-c3c4nc(c(-c5ccc(S(=O)(=O)[O-])cc5)c5ccc([nH]5)c(-c5ccc(S(=O)(=O)[O-])cc5)c5nc(c(-c6ccc(S(=O)(=O)[O-])cc6)c6ccc3[nH]6)C=C5)C=C4)cc1)[C@@H](C(F)(F)F)O2
REMARK SMILES IDX 24 1 23 2 22 3 21 4 20 5 19 6 17 7 18 8 16 9 8 10 9 11 13 12
REMARK SMILES IDX 10 13 12 14 14 15 11 16 99 17 15 18 94 19 7 20 6 21 3 22
REMARK SMILES IDX 2 23 1 24 4 25 5 26 95 27 96 28 97 29 98 30 25 31 26 32
REMARK SMILES IDX 27 33 28 34 29 35 30 36 31 37 32 38 33 39 34 40 35 41 93 42
REMARK SMILES IDX 36 43 92 44 37 45 38 46 39 47 86 48 40 49 91 50 85 51 87 52
REMARK SMILES IDX 41 53 90 54 84 55 83 56 42 58 72 59 53 60 71 61 54 62 57 63
REMARK SMILES IDX 70 64 88 65 55 66 56 67 69 69 89 70 58 71 43 72 44 73 52 74
REMARK SMILES IDX 45 75 51 76 46 77 47 78 48 79 49 80 50 81 73 82 74 83 82 84
REMARK SMILES IDX 75 85 81 86 76 87 77 88 78 89 79 90 80 91 59 92 60 93 68 94
REMARK SMILES IDX 61 95 67 96 62 97 63 98 64 99 65 100 66 101
REMARK H PARENT 87 57 57 68
REMARK Flexibility Score: inf
ROOT
ATOM      1  C   UNL A   1      55.804  28.289  23.480  1.00  0.00     0.188 C 
ENDROOT
BRANCH   1   2
ATOM      2  C   UNL A   1      54.611  27.354  23.739  1.00  0.00     0.188 C 
BRANCH   2   3
ATOM      3  O   UNL A   1      53.359  28.024  23.847  1.00  0.00    -0.376 OA
BRANCH   3   4
ATOM      4  C   UNL A   1      52.191  27.224  23.708  1.00  0.00     0.202 C 
BRANCH   4   5
ATOM      5  C   UNL A   1      50.879  27.894  24.146  1.00  0.00     0.261 C 
BRANCH   5   6
ATOM      6  O   UNL A   1      49.951  27.010  24.794  1.00  0.00    -0.460 OA
BRANCH   6   7
ATOM      7  C   UNL A   1      49.560  27.371  26.031  1.00  0.00     0.338 C 
ATOM      8  O   UNL A   1      50.279  27.805  26.916  1.00  0.00    -0.246 OA
BRANCH   7   9
ATOM      9  C   UNL A   1      48.087  27.331  26.114  1.00  0.00     0.087 C 
ATOM     10  C   UNL A   1      43.344  27.490  27.697  1.00  0.00     0.141 A 
ATOM     11  C   UNL A   1      43.920  27.365  26.426  1.00  0.00     0.095 A 
ATOM     12  C   UNL A   1      44.166  27.535  28.832  1.00  0.00     0.083 A 
ATOM     13  C   UNL A   1      45.312  27.377  26.295  1.00  0.00     0.131 A 
ATOM     14  C   UNL A   1      45.544  27.660  28.687  1.00  0.00     0.036 A 
ATOM     15  Cl  UNL A   1      43.535  27.455  30.436  1.00  0.00    -0.080 Cl
ATOM     16  C   UNL A   1      46.116  27.595  27.417  1.00  0.00     0.019 A 
ATOM     17  O   UNL A   1      45.839  27.199  25.044  1.00  0.00    -0.475 OA
ATOM     18  C   UNL A   1      47.551  27.729  27.272  1.00  0.00     0.027 C 
ATOM     19  C   UNL A   1      47.256  26.828  24.960  1.00  0.00     0.316 C 
BRANCH  10  20
ATOM     20  O   UNL A   1      41.981  27.505  27.837  1.00  0.00    -0.492 OA
BRANCH  20  21
ATOM     21  C   UNL A   1      41.423  26.223  28.210  1.00  0.00     0.233 C 
BRANCH  21  22
ATOM     22  C   UNL A   1      41.359  25.233  27.017  1.00  0.00     0.026 C 
BRANCH  22  23
ATOM     23  C   UNL A   1      42.339  24.053  27.216  1.00  0.00     0.003 C 
ATOM     24  C   UNL A   1      43.113  23.701  25.952  1.00  0.00     0.004 C 
ENDBRANCH  22  23
BRANCH  22  25
ATOM     25  C   UNL A   1      39.920  24.751  26.726  1.00  0.00     0.003 C 
ATOM     26  C   UNL A   1      38.922  24.929  27.860  1.00  0.00     0.004 C 
ENDBRANCH  22  25
ENDBRANCH  21  22
ENDBRANCH  20  21
ENDBRANCH  10  20
BRANCH  19  27
ATOM     27  C   UNL A   1      47.425  25.310  24.802  1.00  0.00     0.430 C 
ATOM     28  F   UNL A   1      48.045  24.765  25.872  1.00  0.00    -0.167 F 
ATOM     29  F   UNL A   1      46.225  24.698  24.674  1.00  0.00    -0.167 F 
ATOM     30  F   UNL A   1      48.154  25.001  23.703  1.00  0.00    -0.167 F 
ENDBRANCH  19  27
ENDBRANCH   7   9
ENDBRANCH   6   7
ENDBRANCH   5   6
ENDBRANCH   4   5
ENDBRANCH   3   4
ENDBRANCH   2   3
ENDBRANCH   1   2
BRANCH   1  31
ATOM     31  O   UNL A   1      56.893  28.181  24.377  1.00  0.00    -0.377 OA
BRANCH  31  32
ATOM     32  C   UNL A   1      57.304  29.329  25.120  1.00  0.00     0.188 C 
BRANCH  32  33
ATOM     33  C   UNL A   1      56.307  30.396  25.628  1.00  0.00     0.188 C 
BRANCH  33  34
ATOM     34  O   UNL A   1      56.772  31.737  25.538  1.00  0.00    -0.376 OA
BRANCH  34  35
ATOM     35  C   UNL A   1      55.896  32.738  26.037  1.00  0.00     0.202 C 
BRANCH  35  36
ATOM     36  C   UNL A   1      55.637  33.877  25.046  1.00  0.00     0.261 C 
BRANCH  36  37
ATOM     37  O   UNL A   1      54.309  33.926  24.505  1.00  0.00    -0.460 OA
BRANCH  37  38
ATOM     38  C   UNL A   1      53.548  35.009  24.787  1.00  0.00     0.338 C 
ATOM     39  O   UNL A   1      53.664  36.131  24.330  1.00  0.00    -0.246 OA
BRANCH  38  40
ATOM     40  C   UNL A   1      52.412  34.527  25.599  1.00  0.00     0.060 A 
ATOM     41  C   UNL A   1      52.343  34.844  26.958  1.00  0.00     0.016 A 
ATOM     42  C   UNL A   1      51.453  33.690  25.014  1.00  0.00     0.016 A 
ATOM     43  C   UNL A   1      51.305  34.328  27.734  1.00  0.00     0.010 A 
ATOM     44  C   UNL A   1      50.422  33.164  25.796  1.00  0.00     0.010 A 
ATOM     45  C   UNL A   1      50.333  33.492  27.158  1.00  0.00    -0.014 A 
BRANCH  45  46
ATOM     46  C   UNL A   1      49.133  33.117  27.942  1.00  0.00     0.031 A 
ATOM     47  C   UNL A   1      49.080  31.871  28.772  1.00  0.00     0.074 A 
ATOM     48  C   UNL A   1      48.076  33.949  27.896  1.00  0.00     0.049 A 
ATOM     49  N   UNL A   1      48.125  31.468  29.570  1.00  0.00    -0.248 NA
ATOM     50  C   UNL A   1      50.235  30.964  28.704  1.00  0.00     0.031 C 
ATOM     51  C   UNL A   1      48.029  35.192  27.121  1.00  0.00     0.029 A 
ATOM     52  N   UNL A   1      46.853  33.891  28.513  1.00  0.00    -0.354 N 
ATOM     53  C   UNL A   1      48.568  30.272  30.123  1.00  0.00     0.074 A 
ATOM     54  C   UNL A   1      49.862  29.994  29.535  1.00  0.00     0.031 C 
ATOM     55  C   UNL A   1      46.847  35.788  27.326  1.00  0.00     0.029 A 
ATOM     56  C   UNL A   1      46.041  34.961  28.220  1.00  0.00     0.049 A 
ATOM     57  H   UNL A   1      46.582  33.155  29.107  1.00  0.00     0.167 HD
ATOM     58  C   UNL A   1      47.952  29.497  31.047  1.00  0.00     0.031 A 
ATOM     59  C   UNL A   1      44.790  35.255  28.626  1.00  0.00     0.031 A 
ATOM     60  C   UNL A   1      46.651  29.781  31.605  1.00  0.00     0.049 A 
ATOM     61  C   UNL A   1      44.104  34.345  29.603  1.00  0.00     0.074 A 
ATOM     62  C   UNL A   1      45.966  29.069  32.575  1.00  0.00     0.029 A 
ATOM     63  N   UNL A   1      45.838  30.845  31.244  1.00  0.00    -0.354 N 
ATOM     64  N   UNL A   1      44.566  33.256  30.168  1.00  0.00    -0.248 NA
ATOM     65  C   UNL A   1      42.739  34.705  30.012  1.00  0.00     0.031 C 
ATOM     66  C   UNL A   1      44.710  29.655  32.744  1.00  0.00     0.029 A 
ATOM     67  C   UNL A   1      44.641  30.783  31.942  1.00  0.00     0.049 A 
ATOM     68  H   UNL A   1      46.074  31.541  30.589  1.00  0.00     0.167 HD
ATOM     69  C   UNL A   1      43.560  32.813  31.018  1.00  0.00     0.074 A 
ATOM     70  C   UNL A   1      42.466  33.757  30.901  1.00  0.00     0.031 C 
ATOM     71  C   UNL A   1      43.552  31.723  31.823  1.00  0.00     0.031 A 
BRANCH  58  72
ATOM     72  C   UNL A   1      48.662  28.264  31.548  1.00  0.00    -0.014 A 
ATOM     73  C   UNL A   1      48.518  27.043  30.859  1.00  0.00     0.010 A 
ATOM     74  C   UNL A   1      49.332  28.273  32.785  1.00  0.00     0.010 A 
ATOM     75  C   UNL A   1      48.995  25.852  31.415  1.00  0.00     0.020 A 
ATOM     76  C   UNL A   1      49.835  27.088  33.331  1.00  0.00     0.020 A 
ATOM     77  C   UNL A   1      49.641  25.881  32.655  1.00  0.00     0.054 A 
BRANCH  77  78
ATOM     78  S   UNL A   1      50.213  24.320  33.379  1.00  0.00     0.124 S 
ATOM     79  O   UNL A   1      51.306  24.759  34.240  1.00  0.00    -0.237 OA
ATOM     80  O   UNL A   1      49.021  23.833  34.069  1.00  0.00    -0.237 OA
ATOM     81  O   UNL A   1      50.614  23.530  32.215  1.00  0.00    -0.744 OA
ENDBRANCH  77  78
ENDBRANCH  58  72
BRANCH  59  82
ATOM     82  C   UNL A   1      44.153  36.505  28.130  1.00  0.00    -0.014 A 
ATOM     83  C   UNL A   1      44.317  37.712  28.836  1.00  0.00     0.010 A 
ATOM     84  C   UNL A   1      43.288  36.470  27.024  1.00  0.00     0.010 A 
ATOM     85  C   UNL A   1      43.577  38.844  28.486  1.00  0.00     0.020 A 
ATOM     86  C   UNL A   1      42.569  37.610  26.651  1.00  0.00     0.020 A 
ATOM     87  C   UNL A   1      42.695  38.779  27.405  1.00  0.00     0.054 A 
BRANCH  87  88
ATOM     88  S   UNL A   1      41.690  40.238  27.014  1.00  0.00     0.124 S 
ATOM     89  O   UNL A   1      42.704  41.190  26.572  1.00  0.00    -0.237 OA
ATOM     90  O   UNL A   1      40.798  39.739  25.970  1.00  0.00    -0.237 OA
ATOM     91  O   UNL A   1      41.041  40.557  28.283  1.00  0.00    -0.744 OA
ENDBRANCH  87  88
ENDBRANCH  59  82
BRANCH  71  92
ATOM     92  C   UNL A   1      42.329  31.457  32.663  1.00  0.00    -0.014 A 
ATOM     93  C   UNL A   1      41.231  30.781  32.098  1.00  0.00     0.010 A 
ATOM     94  C   UNL A   1      42.199  32.019  33.945  1.00  0.00     0.010 A 
ATOM     95  C   UNL A   1      40.010  30.720  32.772  1.00  0.00     0.020 A 
ATOM     96  C   UNL A   1      40.986  31.936  34.636  1.00  0.00     0.020 A 
ATOM     97  C   UNL A   1      39.890  31.316  34.031  1.00  0.00     0.054 A 
BRANCH  97  98
ATOM     98  S   UNL A   1      38.274  31.296  34.856  1.00  0.00     0.124 S 
ATOM     99  O   UNL A   1      38.209  32.633  35.437  1.00  0.00    -0.237 OA
ATOM    100  O   UNL A   1      37.352  31.043  33.751  1.00  0.00    -0.237 OA
ATOM    101  O   UNL A   1      38.394  30.202  35.819  1.00  0.00    -0.744 OA
ENDBRANCH  97  98
ENDBRANCH  71  92
ENDBRANCH  45  46
ENDBRANCH  38  40
ENDBRANCH  37  38
ENDBRANCH  36  37
ENDBRANCH  35  36
ENDBRANCH  34  35
ENDBRANCH  33  34
ENDBRANCH  32  33
ENDBRANCH  31  32
ENDBRANCH   1  31
TORSDOF 29
ENDMDL
