MODEL 1
REMARK VINA RESULT:      -9.2      0.000      0.000
REMARK SMILES O=C(OCCOCCOCCOCCOC(=O)[C@H]1CC(=O)N(CCC2=c3ccccc3=NC2)C1)c1ccc(-c2c3nc(c(-c4ccc(S(=O)(=O)[O-])cc4)c4ccc([nH]4)c(-c4ccc(S(=O)(=O)[O-])cc4)c4nc(c(-c5ccc(S(=O)(=O)[O-])cc5)c5ccc2[nH]5)C=C4)C=C3)cc1
REMARK SMILES IDX 9 1 8 2 7 3 6 4 5 5 4 6 3 7 2 8 1 9 35 10 36 11 94 12 37 13
REMARK SMILES IDX 93 14 38 15 39 16 40 17 87 18 41 19 92 20 86 21 88 22 42 23
REMARK SMILES IDX 91 24 85 25 84 26 43 28 73 29 54 30 72 31 55 32 58 33 71 34
REMARK SMILES IDX 89 35 56 36 57 37 70 39 90 40 59 41 44 42 45 43 53 44 46 45
REMARK SMILES IDX 52 46 47 47 48 48 49 49 50 50 51 51 74 52 75 53 83 54 76 55
REMARK SMILES IDX 82 56 77 57 78 58 79 59 80 60 81 61 60 62 61 63 69 64 62 65
REMARK SMILES IDX 68 66 63 67 64 68 65 69 66 70 67 71 10 72 11 73 12 74 13 75
REMARK SMILES IDX 14 76 15 77 16 78 17 79 18 80 19 81 34 82 20 83 22 84 21 85
REMARK SMILES IDX 23 86 24 87 25 88 26 89 33 90 27 91 31 92 32 93 28 94 30 95
REMARK SMILES IDX 29 96
REMARK H PARENT 88 27 58 38
REMARK Flexibility Score: inf
ROOT
ATOM      1  O   UNL A   1      43.822  20.199  24.704  1.00  0.00    -0.377 OA
ENDROOT
BRANCH   1   2
ATOM      2  C   UNL A   1      45.221  20.460  24.663  1.00  0.00     0.188 C 
BRANCH   2   3
ATOM      3  C   UNL A   1      45.696  21.661  25.484  1.00  0.00     0.188 C 
BRANCH   3   4
ATOM      4  O   UNL A   1      45.342  22.906  24.890  1.00  0.00    -0.376 OA
BRANCH   4   5
ATOM      5  C   UNL A   1      46.091  24.057  25.287  1.00  0.00     0.202 C 
BRANCH   5   6
ATOM      6  C   UNL A   1      45.438  24.942  26.348  1.00  0.00     0.261 C 
BRANCH   6   7
ATOM      7  O   UNL A   1      44.121  24.492  26.677  1.00  0.00    -0.460 OA
BRANCH   7   8
ATOM      8  C   UNL A   1      43.095  25.157  26.087  1.00  0.00     0.338 C 
ATOM      9  O   UNL A   1      42.816  25.165  24.905  1.00  0.00    -0.246 OA
BRANCH   8  10
ATOM     10  C   UNL A   1      42.428  25.957  27.146  1.00  0.00     0.060 A 
ATOM     11  C   UNL A   1      41.370  25.441  27.890  1.00  0.00     0.016 A 
ATOM     12  C   UNL A   1      42.859  27.273  27.362  1.00  0.00     0.016 A 
ATOM     13  C   UNL A   1      40.797  26.235  28.891  1.00  0.00     0.010 A 
ATOM     14  C   UNL A   1      42.243  28.090  28.275  1.00  0.00     0.010 A 
ATOM     15  C   UNL A   1      41.245  27.553  29.082  1.00  0.00    -0.014 A 
BRANCH  15  16
ATOM     16  C   UNL A   1      40.952  28.345  30.283  1.00  0.00     0.031 A 
ATOM     17  C   UNL A   1      39.911  29.412  30.261  1.00  0.00     0.074 A 
ATOM     18  C   UNL A   1      41.873  28.258  31.262  1.00  0.00     0.049 A 
ATOM     19  N   UNL A   1      39.574  30.229  31.219  1.00  0.00    -0.248 NA
ATOM     20  C   UNL A   1      39.177  29.616  29.001  1.00  0.00     0.031 C 
ATOM     21  C   UNL A   1      43.032  27.355  31.231  1.00  0.00     0.029 A 
ATOM     22  N   UNL A   1      42.030  28.959  32.422  1.00  0.00    -0.354 N 
ATOM     23  C   UNL A   1      38.571  31.031  30.693  1.00  0.00     0.074 A 
ATOM     24  C   UNL A   1      38.392  30.642  29.313  1.00  0.00     0.031 C 
ATOM     25  C   UNL A   1      43.780  27.562  32.320  1.00  0.00     0.029 A 
ATOM     26  C   UNL A   1      43.157  28.605  33.123  1.00  0.00     0.049 A 
ATOM     27  H   UNL A   1      41.398  29.651  32.726  1.00  0.00     0.167 HD
ATOM     28  C   UNL A   1      37.868  31.990  31.339  1.00  0.00     0.031 A 
ATOM     29  C   UNL A   1      43.628  29.056  34.300  1.00  0.00     0.031 A 
ATOM     30  C   UNL A   1      38.138  32.350  32.710  1.00  0.00     0.049 A 
ATOM     31  C   UNL A   1      42.800  30.066  35.029  1.00  0.00     0.074 A 
ATOM     32  C   UNL A   1      37.416  33.193  33.533  1.00  0.00     0.029 A 
ATOM     33  N   UNL A   1      39.234  31.912  33.445  1.00  0.00    -0.354 N 
ATOM     34  N   UNL A   1      41.702  30.659  34.620  1.00  0.00    -0.248 NA
ATOM     35  C   UNL A   1      43.233  30.446  36.376  1.00  0.00     0.031 C 
ATOM     36  C   UNL A   1      38.126  33.338  34.727  1.00  0.00     0.029 A 
ATOM     37  C   UNL A   1      39.243  32.513  34.691  1.00  0.00     0.049 A 
ATOM     38  H   UNL A   1      39.908  31.268  33.125  1.00  0.00     0.167 HD
ATOM     39  C   UNL A   1      41.302  31.480  35.661  1.00  0.00     0.074 A 
ATOM     40  C   UNL A   1      42.267  31.288  36.729  1.00  0.00     0.031 C 
ATOM     41  C   UNL A   1      40.237  32.317  35.724  1.00  0.00     0.031 A 
BRANCH  28  42
ATOM     42  C   UNL A   1      36.739  32.687  30.619  1.00  0.00    -0.014 A 
ATOM     43  C   UNL A   1      37.005  33.793  29.789  1.00  0.00     0.010 A 
ATOM     44  C   UNL A   1      35.397  32.345  30.873  1.00  0.00     0.010 A 
ATOM     45  C   UNL A   1      35.960  34.561  29.261  1.00  0.00     0.020 A 
ATOM     46  C   UNL A   1      34.348  33.089  30.321  1.00  0.00     0.020 A 
ATOM     47  C   UNL A   1      34.638  34.211  29.540  1.00  0.00     0.054 A 
BRANCH  47  48
ATOM     48  S   UNL A   1      33.297  35.245  28.888  1.00  0.00     0.124 S 
ATOM     49  O   UNL A   1      32.513  34.288  28.116  1.00  0.00    -0.237 OA
ATOM     50  O   UNL A   1      32.662  35.749  30.104  1.00  0.00    -0.237 OA
ATOM     51  O   UNL A   1      33.998  36.257  28.100  1.00  0.00    -0.744 OA
ENDBRANCH  47  48
ENDBRANCH  28  42
BRANCH  29  52
ATOM     52  C   UNL A   1      44.844  28.405  34.856  1.00  0.00    -0.014 A 
ATOM     53  C   UNL A   1      46.116  28.694  34.320  1.00  0.00     0.010 A 
ATOM     54  C   UNL A   1      44.701  27.311  35.725  1.00  0.00     0.010 A 
ATOM     55  C   UNL A   1      47.198  27.842  34.570  1.00  0.00     0.020 A 
ATOM     56  C   UNL A   1      45.787  26.472  35.997  1.00  0.00     0.020 A 
ATOM     57  C   UNL A   1      47.016  26.719  35.382  1.00  0.00     0.054 A 
BRANCH  57  58
ATOM     58  S   UNL A   1      48.382  25.537  35.552  1.00  0.00     0.124 S 
ATOM     59  O   UNL A   1      48.856  25.425  34.176  1.00  0.00    -0.237 OA
ATOM     60  O   UNL A   1      49.283  26.224  36.474  1.00  0.00    -0.237 OA
ATOM     61  O   UNL A   1      47.738  24.341  36.089  1.00  0.00    -0.744 OA
ENDBRANCH  57  58
ENDBRANCH  29  52
BRANCH  41  62
ATOM     62  C   UNL A   1      40.076  33.145  36.970  1.00  0.00    -0.014 A 
ATOM     63  C   UNL A   1      40.875  34.287  37.160  1.00  0.00     0.010 A 
ATOM     64  C   UNL A   1      39.268  32.682  38.023  1.00  0.00     0.010 A 
ATOM     65  C   UNL A   1      40.929  34.908  38.407  1.00  0.00     0.020 A 
ATOM     66  C   UNL A   1      39.291  33.324  39.261  1.00  0.00     0.020 A 
ATOM     67  C   UNL A   1      40.148  34.409  39.456  1.00  0.00     0.054 A 
BRANCH  67  68
ATOM     68  S   UNL A   1      40.310  35.166  41.094  1.00  0.00     0.124 S 
ATOM     69  O   UNL A   1      39.898  36.543  40.838  1.00  0.00    -0.237 OA
ATOM     70  O   UNL A   1      39.389  34.372  41.903  1.00  0.00    -0.237 OA
ATOM     71  O   UNL A   1      41.725  34.988  41.417  1.00  0.00    -0.744 OA
ENDBRANCH  67  68
ENDBRANCH  41  62
ENDBRANCH  15  16
ENDBRANCH   8  10
ENDBRANCH   7   8
ENDBRANCH   6   7
ENDBRANCH   5   6
ENDBRANCH   4   5
ENDBRANCH   3   4
ENDBRANCH   2   3
ENDBRANCH   1   2
BRANCH   1  72
ATOM     72  C   UNL A   1      43.416  18.962  25.277  1.00  0.00     0.188 C 
BRANCH  72  73
ATOM     73  C   UNL A   1      42.669  18.939  26.619  1.00  0.00     0.188 C 
BRANCH  73  74
ATOM     74  O   UNL A   1      42.255  20.220  27.033  1.00  0.00    -0.376 OA
BRANCH  74  75
ATOM     75  C   UNL A   1      40.865  20.406  27.246  1.00  0.00     0.202 C 
BRANCH  75  76
ATOM     76  C   UNL A   1      40.179  21.777  27.024  1.00  0.00     0.261 C 
BRANCH  76  77
ATOM     77  O   UNL A   1      39.197  21.904  25.973  1.00  0.00    -0.463 OA
BRANCH  77  78
ATOM     78  C   UNL A   1      38.284  22.901  26.026  1.00  0.00     0.311 C 
ATOM     79  O   UNL A   1      38.483  23.980  26.568  1.00  0.00    -0.252 OA
BRANCH  78  80
ATOM     80  C   UNL A   1      36.983  22.598  25.281  1.00  0.00     0.128 C 
ATOM     81  C   UNL A   1      36.924  21.123  24.873  1.00  0.00     0.117 C 
ATOM     82  C   UNL A   1      35.668  22.863  26.012  1.00  0.00     0.135 C 
ATOM     83  C   UNL A   1      35.490  20.707  25.085  1.00  0.00     0.223 C 
ATOM     84  N   UNL A   1      34.813  21.725  25.730  1.00  0.00    -0.341 N 
ATOM     85  O   UNL A   1      35.020  19.625  24.753  1.00  0.00    -0.275 OA
BRANCH  84  86
ATOM     86  C   UNL A   1      33.384  21.670  26.056  1.00  0.00     0.124 C 
BRANCH  86  87
ATOM     87  C   UNL A   1      32.383  22.005  24.923  1.00  0.00     0.055 C 
BRANCH  87  88
ATOM     88  C   UNL A   1      32.734  23.087  23.936  1.00  0.00    -0.038 C 
ATOM     89  C   UNL A   1      32.914  24.385  24.195  1.00  0.00     0.001 A 
ATOM     90  C   UNL A   1      32.879  22.849  22.463  1.00  0.00     0.174 C 
ATOM     91  C   UNL A   1      32.798  25.228  25.345  1.00  0.00     0.010 A 
ATOM     92  C   UNL A   1      33.295  24.939  22.884  1.00  0.00     0.065 A 
ATOM     93  N   UNL A   1      33.252  24.148  21.859  1.00  0.00    -0.280 NA
ATOM     94  C   UNL A   1      33.119  26.530  25.228  1.00  0.00     0.001 A 
ATOM     95  C   UNL A   1      33.713  26.356  22.853  1.00  0.00     0.028 A 
ATOM     96  C   UNL A   1      33.630  27.078  23.982  1.00  0.00     0.002 A 
ENDBRANCH  87  88
ENDBRANCH  86  87
ENDBRANCH  84  86
ENDBRANCH  78  80
ENDBRANCH  77  78
ENDBRANCH  76  77
ENDBRANCH  75  76
ENDBRANCH  74  75
ENDBRANCH  73  74
ENDBRANCH  72  73
ENDBRANCH   1  72
TORSDOF 26
ENDMDL
MODEL 2
REMARK VINA RESULT:      -9.0      2.159      8.661
REMARK SMILES O=C(OCCOCCOCCOCCOC(=O)[C@H]1CC(=O)N(CCC2=c3ccccc3=NC2)C1)c1ccc(-c2c3nc(c(-c4ccc(S(=O)(=O)[O-])cc4)c4ccc([nH]4)c(-c4ccc(S(=O)(=O)[O-])cc4)c4nc(c(-c5ccc(S(=O)(=O)[O-])cc5)c5ccc2[nH]5)C=C4)C=C3)cc1
REMARK SMILES IDX 9 1 8 2 7 3 6 4 5 5 4 6 3 7 2 8 1 9 35 10 36 11 94 12 37 13
REMARK SMILES IDX 93 14 38 15 39 16 40 17 87 18 41 19 92 20 86 21 88 22 42 23
REMARK SMILES IDX 91 24 85 25 84 26 43 28 73 29 54 30 72 31 55 32 58 33 71 34
REMARK SMILES IDX 89 35 56 36 57 37 70 39 90 40 59 41 44 42 45 43 53 44 46 45
REMARK SMILES IDX 52 46 47 47 48 48 49 49 50 50 51 51 74 52 75 53 83 54 76 55
REMARK SMILES IDX 82 56 77 57 78 58 79 59 80 60 81 61 60 62 61 63 69 64 62 65
REMARK SMILES IDX 68 66 63 67 64 68 65 69 66 70 67 71 10 72 11 73 12 74 13 75
REMARK SMILES IDX 14 76 15 77 16 78 17 79 18 80 19 81 34 82 20 83 22 84 21 85
REMARK SMILES IDX 23 86 24 87 25 88 26 89 33 90 27 91 31 92 32 93 28 94 30 95
REMARK SMILES IDX 29 96
REMARK H PARENT 88 27 58 38
REMARK Flexibility Score: inf
ROOT
ATOM      1  O   UNL A   1      37.527  21.322  24.317  1.00  0.00    -0.377 OA
ENDROOT
BRANCH   1   2
ATOM      2  C   UNL A   1      37.848  21.347  25.705  1.00  0.00     0.188 C 
BRANCH   2   3
ATOM      3  C   UNL A   1      39.023  22.246  26.097  1.00  0.00     0.188 C 
BRANCH   3   4
ATOM      4  O   UNL A   1      38.618  23.369  26.873  1.00  0.00    -0.376 OA
BRANCH   4   5
ATOM      5  C   UNL A   1      39.597  24.382  27.119  1.00  0.00     0.202 C 
BRANCH   5   6
ATOM      6  C   UNL A   1      40.859  24.311  26.259  1.00  0.00     0.261 C 
BRANCH   6   7
ATOM      7  O   UNL A   1      41.423  25.606  26.039  1.00  0.00    -0.460 OA
BRANCH   7   8
ATOM      8  C   UNL A   1      42.724  25.761  26.394  1.00  0.00     0.338 C 
ATOM      9  O   UNL A   1      43.684  25.197  25.908  1.00  0.00    -0.246 OA
BRANCH   8  10
ATOM     10  C   UNL A   1      42.751  26.683  27.558  1.00  0.00     0.060 A 
ATOM     11  C   UNL A   1      43.348  27.939  27.477  1.00  0.00     0.016 A 
ATOM     12  C   UNL A   1      42.196  26.248  28.769  1.00  0.00     0.016 A 
ATOM     13  C   UNL A   1      43.321  28.773  28.601  1.00  0.00     0.010 A 
ATOM     14  C   UNL A   1      42.248  27.021  29.901  1.00  0.00     0.010 A 
ATOM     15  C   UNL A   1      42.762  28.310  29.804  1.00  0.00    -0.014 A 
BRANCH  15  16
ATOM     16  C   UNL A   1      42.395  29.189  30.922  1.00  0.00     0.031 A 
ATOM     17  C   UNL A   1      43.034  29.035  32.259  1.00  0.00     0.074 A 
ATOM     18  C   UNL A   1      41.261  29.895  30.743  1.00  0.00     0.049 A 
ATOM     19  N   UNL A   1      42.781  29.695  33.355  1.00  0.00    -0.248 NA
ATOM     20  C   UNL A   1      44.062  27.990  32.403  1.00  0.00     0.031 C 
ATOM     21  C   UNL A   1      40.487  29.916  29.494  1.00  0.00     0.029 A 
ATOM     22  N   UNL A   1      40.529  30.664  31.599  1.00  0.00    -0.354 N 
ATOM     23  C   UNL A   1      43.632  29.168  34.315  1.00  0.00     0.074 A 
ATOM     24  C   UNL A   1      44.370  28.094  33.691  1.00  0.00     0.031 C 
ATOM     25  C   UNL A   1      39.389  30.658  29.669  1.00  0.00     0.029 A 
ATOM     26  C   UNL A   1      39.380  31.164  31.034  1.00  0.00     0.049 A 
ATOM     27  H   UNL A   1      40.797  30.843  32.530  1.00  0.00     0.167 HD
ATOM     28  C   UNL A   1      43.773  29.579  35.597  1.00  0.00     0.031 A 
ATOM     29  C   UNL A   1      38.432  31.965  31.555  1.00  0.00     0.031 A 
ATOM     30  C   UNL A   1      42.965  30.635  36.159  1.00  0.00     0.049 A 
ATOM     31  C   UNL A   1      38.642  32.462  32.949  1.00  0.00     0.074 A 
ATOM     32  C   UNL A   1      43.096  31.252  37.388  1.00  0.00     0.029 A 
ATOM     33  N   UNL A   1      41.856  31.201  35.540  1.00  0.00    -0.354 N 
ATOM     34  N   UNL A   1      39.598  32.137  33.789  1.00  0.00    -0.248 NA
ATOM     35  C   UNL A   1      37.691  33.450  33.462  1.00  0.00     0.031 C 
ATOM     36  C   UNL A   1      42.013  32.120  37.549  1.00  0.00     0.029 A 
ATOM     37  C   UNL A   1      41.257  32.119  36.385  1.00  0.00     0.049 A 
ATOM     38  H   UNL A   1      41.542  30.982  34.633  1.00  0.00     0.167 HD
ATOM     39  C   UNL A   1      39.373  32.885  34.932  1.00  0.00     0.074 A 
ATOM     40  C   UNL A   1      38.199  33.698  34.665  1.00  0.00     0.031 C 
ATOM     41  C   UNL A   1      40.070  32.895  36.094  1.00  0.00     0.031 A 
BRANCH  28  42
ATOM     42  C   UNL A   1      44.833  28.943  36.463  1.00  0.00    -0.014 A 
ATOM     43  C   UNL A   1      46.169  29.381  36.383  1.00  0.00     0.010 A 
ATOM     44  C   UNL A   1      44.542  27.814  37.253  1.00  0.00     0.010 A 
ATOM     45  C   UNL A   1      47.192  28.686  37.038  1.00  0.00     0.020 A 
ATOM     46  C   UNL A   1      45.556  27.134  37.936  1.00  0.00     0.020 A 
ATOM     47  C   UNL A   1      46.880  27.559  37.803  1.00  0.00     0.054 A 
BRANCH  47  48
ATOM     48  S   UNL A   1      48.224  26.641  38.606  1.00  0.00     0.124 S 
ATOM     49  O   UNL A   1      49.061  26.261  37.473  1.00  0.00    -0.237 OA
ATOM     50  O   UNL A   1      48.796  27.638  39.509  1.00  0.00    -0.237 OA
ATOM     51  O   UNL A   1      47.535  25.537  39.270  1.00  0.00    -0.744 OA
ENDBRANCH  47  48
ENDBRANCH  28  42
BRANCH  29  52
ATOM     52  C   UNL A   1      37.337  32.416  30.656  1.00  0.00    -0.014 A 
ATOM     53  C   UNL A   1      37.485  33.583  29.878  1.00  0.00     0.010 A 
ATOM     54  C   UNL A   1      36.063  31.835  30.782  1.00  0.00     0.010 A 
ATOM     55  C   UNL A   1      36.364  34.210  29.325  1.00  0.00     0.020 A 
ATOM     56  C   UNL A   1      34.944  32.447  30.208  1.00  0.00     0.020 A 
ATOM     57  C   UNL A   1      35.097  33.654  29.522  1.00  0.00     0.054 A 
BRANCH  57  58
ATOM     58  S   UNL A   1      33.642  34.574  28.946  1.00  0.00     0.124 S 
ATOM     59  O   UNL A   1      32.916  34.799  30.193  1.00  0.00    -0.237 OA
ATOM     60  O   UNL A   1      34.238  35.762  28.341  1.00  0.00    -0.237 OA
ATOM     61  O   UNL A   1      33.002  33.655  28.010  1.00  0.00    -0.744 OA
ENDBRANCH  57  58
ENDBRANCH  29  52
BRANCH  41  62
ATOM     62  C   UNL A   1      39.559  33.771  37.205  1.00  0.00    -0.014 A 
ATOM     63  C   UNL A   1      39.739  35.165  37.137  1.00  0.00     0.010 A 
ATOM     64  C   UNL A   1      39.073  33.193  38.391  1.00  0.00     0.010 A 
ATOM     65  C   UNL A   1      39.514  35.959  38.261  1.00  0.00     0.020 A 
ATOM     66  C   UNL A   1      38.811  33.990  39.505  1.00  0.00     0.020 A 
ATOM     67  C   UNL A   1      39.069  35.362  39.445  1.00  0.00     0.054 A 
BRANCH  67  68
ATOM     68  S   UNL A   1      38.882  36.395  40.921  1.00  0.00     0.124 S 
ATOM     69  O   UNL A   1      40.185  36.249  41.565  1.00  0.00    -0.237 OA
ATOM     70  O   UNL A   1      38.603  37.712  40.354  1.00  0.00    -0.237 OA
ATOM     71  O   UNL A   1      37.762  35.779  41.632  1.00  0.00    -0.744 OA
ENDBRANCH  67  68
ENDBRANCH  41  62
ENDBRANCH  15  16
ENDBRANCH   8  10
ENDBRANCH   7   8
ENDBRANCH   6   7
ENDBRANCH   5   6
ENDBRANCH   4   5
ENDBRANCH   3   4
ENDBRANCH   2   3
ENDBRANCH   1   2
BRANCH   1  72
ATOM     72  C   UNL A   1      36.471  22.171  23.887  1.00  0.00     0.188 C 
BRANCH  72  73
ATOM     73  C   UNL A   1      36.598  23.696  24.025  1.00  0.00     0.188 C 
BRANCH  73  74
ATOM     74  O   UNL A   1      35.525  24.269  24.736  1.00  0.00    -0.376 OA
BRANCH  74  75
ATOM     75  C   UNL A   1      34.462  23.402  25.099  1.00  0.00     0.202 C 
BRANCH  75  76
ATOM     76  C   UNL A   1      34.167  23.044  26.577  1.00  0.00     0.261 C 
BRANCH  76  77
ATOM     77  O   UNL A   1      33.007  22.241  26.883  1.00  0.00    -0.463 OA
BRANCH  77  78
ATOM     78  C   UNL A   1      32.226  21.784  25.878  1.00  0.00     0.311 C 
ATOM     79  O   UNL A   1      32.422  20.731  25.285  1.00  0.00    -0.252 OA
BRANCH  78  80
ATOM     80  C   UNL A   1      31.012  22.667  25.578  1.00  0.00     0.128 C 
ATOM     81  C   UNL A   1      30.817  23.711  26.681  1.00  0.00     0.117 C 
ATOM     82  C   UNL A   1      31.018  23.461  24.273  1.00  0.00     0.135 C 
ATOM     83  C   UNL A   1      30.400  24.972  25.968  1.00  0.00     0.223 C 
ATOM     84  N   UNL A   1      30.524  24.785  24.604  1.00  0.00    -0.341 N 
ATOM     85  O   UNL A   1      30.031  26.000  26.525  1.00  0.00    -0.275 OA
BRANCH  84  86
ATOM     86  C   UNL A   1      30.162  25.799  23.610  1.00  0.00     0.124 C 
BRANCH  86  87
ATOM     87  C   UNL A   1      31.245  26.836  23.224  1.00  0.00     0.055 C 
BRANCH  87  88
ATOM     88  C   UNL A   1      31.414  28.065  24.077  1.00  0.00    -0.038 C 
ATOM     89  C   UNL A   1      32.316  28.257  25.043  1.00  0.00     0.001 A 
ATOM     90  C   UNL A   1      30.517  29.264  23.989  1.00  0.00     0.174 C 
ATOM     91  C   UNL A   1      33.336  27.471  25.667  1.00  0.00     0.010 A 
ATOM     92  C   UNL A   1      32.054  29.641  25.478  1.00  0.00     0.065 A 
ATOM     93  N   UNL A   1      31.032  30.251  24.965  1.00  0.00    -0.280 NA
ATOM     94  C   UNL A   1      34.107  28.042  26.610  1.00  0.00     0.001 A 
ATOM     95  C   UNL A   1      32.996  30.224  26.456  1.00  0.00     0.028 A 
ATOM     96  C   UNL A   1      33.964  29.445  26.963  1.00  0.00     0.002 A 
ENDBRANCH  87  88
ENDBRANCH  86  87
ENDBRANCH  84  86
ENDBRANCH  78  80
ENDBRANCH  77  78
ENDBRANCH  76  77
ENDBRANCH  75  76
ENDBRANCH  74  75
ENDBRANCH  73  74
ENDBRANCH  72  73
ENDBRANCH   1  72
TORSDOF 26
ENDMDL
MODEL 3
REMARK VINA RESULT:      -8.6      5.736      7.885
REMARK SMILES O=C(OCCOCCOCCOCCOC(=O)[C@H]1CC(=O)N(CCC2=c3ccccc3=NC2)C1)c1ccc(-c2c3nc(c(-c4ccc(S(=O)(=O)[O-])cc4)c4ccc([nH]4)c(-c4ccc(S(=O)(=O)[O-])cc4)c4nc(c(-c5ccc(S(=O)(=O)[O-])cc5)c5ccc2[nH]5)C=C4)C=C3)cc1
REMARK SMILES IDX 9 1 8 2 7 3 6 4 5 5 4 6 3 7 2 8 1 9 35 10 36 11 94 12 37 13
REMARK SMILES IDX 93 14 38 15 39 16 40 17 87 18 41 19 92 20 86 21 88 22 42 23
REMARK SMILES IDX 91 24 85 25 84 26 43 28 73 29 54 30 72 31 55 32 58 33 71 34
REMARK SMILES IDX 89 35 56 36 57 37 70 39 90 40 59 41 44 42 45 43 53 44 46 45
REMARK SMILES IDX 52 46 47 47 48 48 49 49 50 50 51 51 74 52 75 53 83 54 76 55
REMARK SMILES IDX 82 56 77 57 78 58 79 59 80 60 81 61 60 62 61 63 69 64 62 65
REMARK SMILES IDX 68 66 63 67 64 68 65 69 66 70 67 71 10 72 11 73 12 74 13 75
REMARK SMILES IDX 14 76 15 77 16 78 17 79 18 80 19 81 34 82 20 83 22 84 21 85
REMARK SMILES IDX 23 86 24 87 25 88 26 89 33 90 27 91 31 92 32 93 28 94 30 95
REMARK SMILES IDX 29 96
REMARK H PARENT 88 27 58 38
REMARK Flexibility Score: inf
ROOT
ATOM      1  O   UNL A   1      44.018  19.866  24.472  1.00  0.00    -0.377 OA
ENDROOT
BRANCH   1   2
ATOM      2  C   UNL A   1      45.066  20.816  24.636  1.00  0.00     0.188 C 
BRANCH   2   3
ATOM      3  C   UNL A   1      44.735  22.026  25.512  1.00  0.00     0.188 C 
BRANCH   3   4
ATOM      4  O   UNL A   1      43.337  22.290  25.576  1.00  0.00    -0.376 OA
BRANCH   4   5
ATOM      5  C   UNL A   1      42.921  23.651  25.439  1.00  0.00     0.202 C 
BRANCH   5   6
ATOM      6  C   UNL A   1      43.981  24.706  25.752  1.00  0.00     0.261 C 
BRANCH   6   7
ATOM      7  O   UNL A   1      43.464  25.744  26.588  1.00  0.00    -0.460 OA
BRANCH   7   8
ATOM      8  C   UNL A   1      42.907  26.806  25.951  1.00  0.00     0.338 C 
ATOM      9  O   UNL A   1      42.516  26.842  24.801  1.00  0.00    -0.246 OA
BRANCH   8  10
ATOM     10  C   UNL A   1      42.949  27.952  26.894  1.00  0.00     0.060 A 
ATOM     11  C   UNL A   1      43.783  27.945  28.010  1.00  0.00     0.016 A 
ATOM     12  C   UNL A   1      42.095  29.039  26.664  1.00  0.00     0.016 A 
ATOM     13  C   UNL A   1      43.796  29.066  28.850  1.00  0.00     0.010 A 
ATOM     14  C   UNL A   1      42.034  30.099  27.532  1.00  0.00     0.010 A 
ATOM     15  C   UNL A   1      42.926  30.140  28.599  1.00  0.00    -0.014 A 
BRANCH  15  16
ATOM     16  C   UNL A   1      43.079  31.469  29.204  1.00  0.00     0.031 A 
ATOM     17  C   UNL A   1      44.203  32.365  28.809  1.00  0.00     0.074 A 
ATOM     18  C   UNL A   1      42.353  31.675  30.320  1.00  0.00     0.049 A 
ATOM     19  N   UNL A   1      44.504  33.540  29.287  1.00  0.00    -0.248 NA
ATOM     20  C   UNL A   1      45.128  31.875  27.774  1.00  0.00     0.031 C 
ATOM     21  C   UNL A   1      41.372  30.722  30.856  1.00  0.00     0.029 A 
ATOM     22  N   UNL A   1      42.362  32.690  31.231  1.00  0.00    -0.354 N 
ATOM     23  C   UNL A   1      45.638  33.946  28.598  1.00  0.00     0.074 A 
ATOM     24  C   UNL A   1      46.007  32.869  27.708  1.00  0.00     0.031 C 
ATOM     25  C   UNL A   1      40.877  31.198  32.004  1.00  0.00     0.029 A 
ATOM     26  C   UNL A   1      41.501  32.484  32.283  1.00  0.00     0.049 A 
ATOM     27  H   UNL A   1      42.928  33.491  31.144  1.00  0.00     0.167 HD
ATOM     28  C   UNL A   1      46.282  35.131  28.711  1.00  0.00     0.031 A 
ATOM     29  C   UNL A   1      41.227  33.260  33.347  1.00  0.00     0.031 A 
ATOM     30  C   UNL A   1      45.875  36.141  29.658  1.00  0.00     0.049 A 
ATOM     31  C   UNL A   1      41.899  34.594  33.416  1.00  0.00     0.074 A 
ATOM     32  C   UNL A   1      46.338  37.437  29.781  1.00  0.00     0.029 A 
ATOM     33  N   UNL A   1      44.933  35.953  30.663  1.00  0.00    -0.354 N 
ATOM     34  N   UNL A   1      42.816  35.081  32.612  1.00  0.00    -0.248 NA
ATOM     35  C   UNL A   1      41.489  35.500  34.492  1.00  0.00     0.031 C 
ATOM     36  C   UNL A   1      45.747  37.997  30.916  1.00  0.00     0.029 A 
ATOM     37  C   UNL A   1      44.843  37.088  31.449  1.00  0.00     0.049 A 
ATOM     38  H   UNL A   1      44.406  35.131  30.797  1.00  0.00     0.167 HD
ATOM     39  C   UNL A   1      43.093  36.356  33.076  1.00  0.00     0.074 A 
ATOM     40  C   UNL A   1      42.225  36.572  34.221  1.00  0.00     0.031 C 
ATOM     41  C   UNL A   1      43.983  37.260  32.601  1.00  0.00     0.031 A 
BRANCH  28  42
ATOM     42  C   UNL A   1      47.444  35.428  27.794  1.00  0.00    -0.014 A 
ATOM     43  C   UNL A   1      47.211  35.828  26.464  1.00  0.00     0.010 A 
ATOM     44  C   UNL A   1      48.769  35.174  28.197  1.00  0.00     0.010 A 
ATOM     45  C   UNL A   1      48.267  35.931  25.551  1.00  0.00     0.020 A 
ATOM     46  C   UNL A   1      49.832  35.306  27.297  1.00  0.00     0.020 A 
ATOM     47  C   UNL A   1      49.571  35.658  25.971  1.00  0.00     0.054 A 
BRANCH  47  48
ATOM     48  S   UNL A   1      50.922  35.748  24.762  1.00  0.00     0.124 S 
ATOM     49  O   UNL A   1      50.964  34.385  24.242  1.00  0.00    -0.237 OA
ATOM     50  O   UNL A   1      50.448  36.768  23.830  1.00  0.00    -0.237 OA
ATOM     51  O   UNL A   1      52.076  36.143  25.568  1.00  0.00    -0.744 OA
ENDBRANCH  47  48
ENDBRANCH  28  42
BRANCH  29  52
ATOM     52  C   UNL A   1      40.166  32.801  34.284  1.00  0.00    -0.014 A 
ATOM     53  C   UNL A   1      38.950  33.507  34.387  1.00  0.00     0.010 A 
ATOM     54  C   UNL A   1      40.479  31.833  35.252  1.00  0.00     0.010 A 
ATOM     55  C   UNL A   1      38.114  33.317  35.492  1.00  0.00     0.020 A 
ATOM     56  C   UNL A   1      39.633  31.623  36.346  1.00  0.00     0.020 A 
ATOM     57  C   UNL A   1      38.479  32.399  36.481  1.00  0.00     0.054 A 
BRANCH  57  58
ATOM     58  S   UNL A   1      37.472  32.295  37.988  1.00  0.00     0.124 S 
ATOM     59  O   UNL A   1      38.357  32.896  38.982  1.00  0.00    -0.237 OA
ATOM     60  O   UNL A   1      36.293  33.081  37.636  1.00  0.00    -0.237 OA
ATOM     61  O   UNL A   1      37.238  30.862  38.146  1.00  0.00    -0.744 OA
ENDBRANCH  57  58
ENDBRANCH  29  52
BRANCH  41  62
ATOM     62  C   UNL A   1      44.121  38.560  33.346  1.00  0.00    -0.014 A 
ATOM     63  C   UNL A   1      43.362  39.677  32.951  1.00  0.00     0.010 A 
ATOM     64  C   UNL A   1      45.133  38.716  34.309  1.00  0.00     0.010 A 
ATOM     65  C   UNL A   1      43.664  40.943  33.450  1.00  0.00     0.020 A 
ATOM     66  C   UNL A   1      45.412  39.975  34.838  1.00  0.00     0.020 A 
ATOM     67  C   UNL A   1      44.701  41.086  34.377  1.00  0.00     0.054 A 
BRANCH  67  68
ATOM     68  S   UNL A   1      45.145  42.753  34.934  1.00  0.00     0.124 S 
ATOM     69  O   UNL A   1      45.939  42.476  36.128  1.00  0.00    -0.237 OA
ATOM     70  O   UNL A   1      45.885  43.282  33.791  1.00  0.00    -0.237 OA
ATOM     71  O   UNL A   1      43.851  43.389  35.179  1.00  0.00    -0.744 OA
ENDBRANCH  67  68
ENDBRANCH  41  62
ENDBRANCH  15  16
ENDBRANCH   8  10
ENDBRANCH   7   8
ENDBRANCH   6   7
ENDBRANCH   5   6
ENDBRANCH   4   5
ENDBRANCH   3   4
ENDBRANCH   2   3
ENDBRANCH   1   2
BRANCH   1  72
ATOM     72  C   UNL A   1      43.916  18.845  25.457  1.00  0.00     0.188 C 
BRANCH  72  73
ATOM     73  C   UNL A   1      42.559  18.527  26.104  1.00  0.00     0.188 C 
BRANCH  73  74
ATOM     74  O   UNL A   1      41.895  19.679  26.569  1.00  0.00    -0.376 OA
BRANCH  74  75
ATOM     75  C   UNL A   1      40.552  19.857  26.148  1.00  0.00     0.202 C 
BRANCH  75  76
ATOM     76  C   UNL A   1      39.879  21.252  26.126  1.00  0.00     0.261 C 
BRANCH  76  77
ATOM     77  O   UNL A   1      38.615  21.407  25.447  1.00  0.00    -0.463 OA
BRANCH  77  78
ATOM     78  C   UNL A   1      37.834  22.477  25.722  1.00  0.00     0.311 C 
ATOM     79  O   UNL A   1      38.235  23.490  26.281  1.00  0.00    -0.252 OA
BRANCH  78  80
ATOM     80  C   UNL A   1      36.397  22.351  25.210  1.00  0.00     0.128 C 
ATOM     81  C   UNL A   1      36.151  20.956  24.628  1.00  0.00     0.117 C 
ATOM     82  C   UNL A   1      35.264  22.572  26.211  1.00  0.00     0.135 C 
ATOM     83  C   UNL A   1      34.753  20.586  25.056  1.00  0.00     0.223 C 
ATOM     84  N   UNL A   1      34.287  21.532  25.950  1.00  0.00    -0.341 N 
ATOM     85  O   UNL A   1      34.148  19.589  24.680  1.00  0.00    -0.275 OA
BRANCH  84  86
ATOM     86  C   UNL A   1      32.944  21.502  26.536  1.00  0.00     0.124 C 
BRANCH  86  87
ATOM     87  C   UNL A   1      31.753  21.840  25.604  1.00  0.00     0.055 C 
BRANCH  87  88
ATOM     88  C   UNL A   1      31.639  23.232  25.044  1.00  0.00    -0.038 C 
ATOM     89  C   UNL A   1      32.161  23.685  23.900  1.00  0.00     0.001 A 
ATOM     90  C   UNL A   1      30.945  24.356  25.753  1.00  0.00     0.174 C 
ATOM     91  C   UNL A   1      33.003  23.154  22.874  1.00  0.00     0.010 A 
ATOM     92  C   UNL A   1      31.679  25.077  23.840  1.00  0.00     0.065 A 
ATOM     93  N   UNL A   1      31.032  25.537  24.864  1.00  0.00    -0.280 NA
ATOM     94  C   UNL A   1      33.289  23.923  21.808  1.00  0.00     0.001 A 
ATOM     95  C   UNL A   1      31.963  25.829  22.601  1.00  0.00     0.028 A 
ATOM     96  C   UNL A   1      32.717  25.250  21.653  1.00  0.00     0.002 A 
ENDBRANCH  87  88
ENDBRANCH  86  87
ENDBRANCH  84  86
ENDBRANCH  78  80
ENDBRANCH  77  78
ENDBRANCH  76  77
ENDBRANCH  75  76
ENDBRANCH  74  75
ENDBRANCH  73  74
ENDBRANCH  72  73
ENDBRANCH   1  72
TORSDOF 26
ENDMDL
