MODEL 1
REMARK VINA RESULT:      -7.6      0.000      0.000
REMARK SMILES COc1ccc2c(c1)c(CC(=O)OCCOCCOCCOCCOC(=O)c1ccc(-c3c4nc(c(-c5ccc(S(=O)(=O)[O-])cc5)c5ccc([nH]5)c(-c5ccc(S(=O)(=O)[O-])cc5)c5nc(c(-c6ccc(S(=O)(=O)[O-])cc6)c6ccc3[nH]6)C=C5)C=C4)cc1)c(C(F)(F)F)n2C(=O)c1ccc(Cl)cc1
REMARK SMILES IDX 19 1 18 2 17 3 16 4 15 5 14 6 13 7 11 8 12 9 10 10 9 11 3 12
REMARK SMILES IDX 4 13 8 14 5 15 7 16 6 17 93 18 88 19 2 20 1 21 94 22 95 23
REMARK SMILES IDX 96 24 97 25 102 26 98 27 101 28 99 29 100 30 89 31 90 32
REMARK SMILES IDX 91 33 92 34 20 35 21 36 22 37 23 38 24 39 25 40 26 41 27 42
REMARK SMILES IDX 28 43 29 44 87 45 30 46 86 47 31 48 32 49 33 50 80 51 34 52
REMARK SMILES IDX 85 53 79 54 81 55 35 56 84 57 78 58 77 59 36 61 66 62 47 63
REMARK SMILES IDX 65 64 48 65 51 66 64 67 82 68 49 69 50 70 63 72 83 73 52 74
REMARK SMILES IDX 37 75 38 76 46 77 39 78 45 79 40 80 41 81 42 82 43 83 44 84
REMARK SMILES IDX 67 85 68 86 76 87 69 88 75 89 70 90 71 91 72 92 73 93 74 94
REMARK SMILES IDX 53 95 54 96 62 97 55 98 61 99 56 100 57 101 58 102 59 103
REMARK SMILES IDX 60 104
REMARK H PARENT 81 60 51 71
REMARK Flexibility Score: inf
ROOT
ATOM      1  O   UNL A   1      35.031  32.796  28.255  1.00  0.00    -0.377 OA
ENDROOT
BRANCH   1   2
ATOM      2  C   UNL A   1      35.499  32.537  29.554  1.00  0.00     0.188 C 
BRANCH   2   3
ATOM      3  C   UNL A   1      36.961  32.213  29.833  1.00  0.00     0.188 C 
BRANCH   3   4
ATOM      4  O   UNL A   1      37.583  31.566  28.743  1.00  0.00    -0.376 OA
BRANCH   4   5
ATOM      5  C   UNL A   1      37.639  30.150  28.712  1.00  0.00     0.202 C 
BRANCH   5   6
ATOM      6  C   UNL A   1      38.913  29.375  28.295  1.00  0.00     0.261 C 
BRANCH   6   7
ATOM      7  O   UNL A   1      38.900  27.933  28.200  1.00  0.00    -0.463 OA
BRANCH   7   8
ATOM      8  C   UNL A   1      40.079  27.274  28.212  1.00  0.00     0.310 C 
ATOM      9  O   UNL A   1      40.699  27.015  29.240  1.00  0.00    -0.252 OA
BRANCH   8  10
ATOM     10  C   UNL A   1      40.602  26.854  26.837  1.00  0.00     0.161 C 
BRANCH  10  11
ATOM     11  C   UNL A   1      41.984  26.210  26.675  1.00  0.00     0.002 A 
ATOM     12  C   UNL A   1      41.951  22.400  26.167  1.00  0.00     0.119 A 
ATOM     13  C   UNL A   1      43.309  22.260  25.969  1.00  0.00     0.048 A 
ATOM     14  C   UNL A   1      41.436  23.648  26.548  1.00  0.00     0.057 A 
ATOM     15  C   UNL A   1      44.157  23.362  26.093  1.00  0.00     0.031 A 
ATOM     16  C   UNL A   1      42.260  24.807  26.565  1.00  0.00     0.008 A 
ATOM     17  C   UNL A   1      43.635  24.648  26.368  1.00  0.00     0.057 A 
ATOM     18  N   UNL A   1      44.250  25.912  26.496  1.00  0.00    -0.271 N 
ATOM     19  C   UNL A   1      43.229  26.853  26.731  1.00  0.00     0.135 A 
BRANCH  12  20
ATOM     20  O   UNL A   1      41.023  21.411  25.970  1.00  0.00    -0.497 OA
ATOM     21  C   UNL A   1      39.684  21.696  26.372  1.00  0.00     0.278 C 
ENDBRANCH  12  20
BRANCH  18  22
ATOM     22  C   UNL A   1      45.659  26.141  26.406  1.00  0.00     0.262 C 
ATOM     23  O   UNL A   1      46.190  26.240  25.306  1.00  0.00    -0.268 OA
BRANCH  22  24
ATOM     24  C   UNL A   1      46.593  26.273  27.541  1.00  0.00     0.040 A 
ATOM     25  C   UNL A   1      46.326  25.591  28.734  1.00  0.00     0.015 A 
ATOM     26  C   UNL A   1      47.742  27.067  27.413  1.00  0.00     0.015 A 
ATOM     27  C   UNL A   1      47.180  25.758  29.828  1.00  0.00     0.021 A 
ATOM     28  C   UNL A   1      48.595  27.223  28.511  1.00  0.00     0.021 A 
ATOM     29  C   UNL A   1      48.303  26.579  29.715  1.00  0.00     0.041 A 
ATOM     30  Cl  UNL A   1      49.331  26.812  31.076  1.00  0.00    -0.084 Cl
ENDBRANCH  22  24
ENDBRANCH  18  22
BRANCH  19  31
ATOM     31  C   UNL A   1      43.436  28.321  26.982  1.00  0.00     0.432 C 
ATOM     32  F   UNL A   1      43.623  28.562  28.299  1.00  0.00    -0.165 F 
ATOM     33  F   UNL A   1      44.570  28.729  26.343  1.00  0.00    -0.165 F 
ATOM     34  F   UNL A   1      42.486  29.162  26.527  1.00  0.00    -0.165 F 
ENDBRANCH  19  31
ENDBRANCH  10  11
ENDBRANCH   8  10
ENDBRANCH   7   8
ENDBRANCH   6   7
ENDBRANCH   5   6
ENDBRANCH   4   5
ENDBRANCH   3   4
ENDBRANCH   2   3
ENDBRANCH   1   2
BRANCH   1  35
ATOM     35  C   UNL A   1      33.808  33.471  28.138  1.00  0.00     0.188 C 
BRANCH  35  36
ATOM     36  C   UNL A   1      33.738  34.741  28.995  1.00  0.00     0.188 C 
BRANCH  36  37
ATOM     37  O   UNL A   1      32.593  35.067  29.792  1.00  0.00    -0.376 OA
BRANCH  37  38
ATOM     38  C   UNL A   1      32.628  36.141  30.717  1.00  0.00     0.202 C 
BRANCH  38  39
ATOM     39  C   UNL A   1      32.815  35.780  32.203  1.00  0.00     0.261 C 
BRANCH  39  40
ATOM     40  O   UNL A   1      34.131  35.323  32.528  1.00  0.00    -0.460 OA
BRANCH  40  41
ATOM     41  C   UNL A   1      34.276  34.024  32.911  1.00  0.00     0.338 C 
ATOM     42  O   UNL A   1      33.509  33.110  32.735  1.00  0.00    -0.246 OA
BRANCH  41  43
ATOM     43  C   UNL A   1      35.701  33.893  33.303  1.00  0.00     0.060 A 
ATOM     44  C   UNL A   1      36.666  34.775  32.809  1.00  0.00     0.016 A 
ATOM     45  C   UNL A   1      36.070  32.669  33.876  1.00  0.00     0.016 A 
ATOM     46  C   UNL A   1      37.988  34.343  32.732  1.00  0.00     0.010 A 
ATOM     47  C   UNL A   1      37.393  32.238  33.790  1.00  0.00     0.010 A 
ATOM     48  C   UNL A   1      38.342  33.048  33.160  1.00  0.00    -0.014 A 
BRANCH  48  49
ATOM     49  C   UNL A   1      39.771  32.702  33.161  1.00  0.00     0.031 A 
ATOM     50  C   UNL A   1      40.531  33.499  34.164  1.00  0.00     0.074 A 
ATOM     51  C   UNL A   1      40.379  31.672  32.534  1.00  0.00     0.049 A 
ATOM     52  N   UNL A   1      41.565  34.258  33.994  1.00  0.00    -0.248 NA
ATOM     53  C   UNL A   1      39.954  33.539  35.520  1.00  0.00     0.031 C 
ATOM     54  C   UNL A   1      39.757  30.570  31.800  1.00  0.00     0.029 A 
ATOM     55  N   UNL A   1      41.707  31.331  32.540  1.00  0.00    -0.354 N 
ATOM     56  C   UNL A   1      41.860  34.753  35.261  1.00  0.00     0.074 A 
ATOM     57  C   UNL A   1      40.749  34.421  36.114  1.00  0.00     0.031 C 
ATOM     58  C   UNL A   1      40.664  29.578  31.640  1.00  0.00     0.029 A 
ATOM     59  C   UNL A   1      41.953  30.019  32.154  1.00  0.00     0.049 A 
ATOM     60  H   UNL A   1      42.423  31.960  32.794  1.00  0.00     0.167 HD
ATOM     61  C   UNL A   1      43.085  35.223  35.614  1.00  0.00     0.031 A 
ATOM     62  C   UNL A   1      43.098  29.311  32.340  1.00  0.00     0.031 A 
ATOM     63  C   UNL A   1      43.890  35.586  34.488  1.00  0.00     0.049 A 
ATOM     64  C   UNL A   1      44.200  30.266  32.610  1.00  0.00     0.074 A 
ATOM     65  C   UNL A   1      43.768  36.511  33.471  1.00  0.00     0.029 A 
ATOM     66  N   UNL A   1      44.874  34.711  34.099  1.00  0.00    -0.354 N 
ATOM     67  N   UNL A   1      44.685  31.102  31.737  1.00  0.00    -0.248 NA
ATOM     68  C   UNL A   1      44.581  30.517  33.991  1.00  0.00     0.031 C 
ATOM     69  C   UNL A   1      44.383  35.909  32.339  1.00  0.00     0.029 A 
ATOM     70  C   UNL A   1      44.866  34.657  32.728  1.00  0.00     0.049 A 
ATOM     71  H   UNL A   1      45.476  34.213  34.697  1.00  0.00     0.167 HD
ATOM     72  C   UNL A   1      45.094  32.198  32.482  1.00  0.00     0.074 A 
ATOM     73  C   UNL A   1      45.123  31.728  33.860  1.00  0.00     0.031 C 
ATOM     74  C   UNL A   1      45.109  33.454  31.949  1.00  0.00     0.031 A 
BRANCH  61  75
ATOM     75  C   UNL A   1      43.627  35.040  37.007  1.00  0.00    -0.014 A 
ATOM     76  C   UNL A   1      43.427  36.004  38.021  1.00  0.00     0.010 A 
ATOM     77  C   UNL A   1      44.162  33.801  37.402  1.00  0.00     0.010 A 
ATOM     78  C   UNL A   1      43.802  35.787  39.342  1.00  0.00     0.020 A 
ATOM     79  C   UNL A   1      44.489  33.549  38.743  1.00  0.00     0.020 A 
ATOM     80  C   UNL A   1      44.322  34.551  39.700  1.00  0.00     0.054 A 
BRANCH  80  81
ATOM     81  S   UNL A   1      44.671  34.265  41.451  1.00  0.00     0.124 S 
ATOM     82  O   UNL A   1      44.284  32.865  41.608  1.00  0.00    -0.237 OA
ATOM     83  O   UNL A   1      46.104  34.536  41.535  1.00  0.00    -0.237 OA
ATOM     84  O   UNL A   1      43.815  35.233  42.132  1.00  0.00    -0.744 OA
ENDBRANCH  80  81
ENDBRANCH  61  75
BRANCH  62  85
ATOM     85  C   UNL A   1      43.227  27.864  32.670  1.00  0.00    -0.014 A 
ATOM     86  C   UNL A   1      42.618  27.356  33.835  1.00  0.00     0.010 A 
ATOM     87  C   UNL A   1      44.180  27.051  32.024  1.00  0.00     0.010 A 
ATOM     88  C   UNL A   1      42.991  26.121  34.376  1.00  0.00     0.020 A 
ATOM     89  C   UNL A   1      44.566  25.812  32.566  1.00  0.00     0.020 A 
ATOM     90  C   UNL A   1      43.992  25.374  33.760  1.00  0.00     0.054 A 
BRANCH  90  91
ATOM     91  S   UNL A   1      44.580  23.879  34.608  1.00  0.00     0.124 S 
ATOM     92  O   UNL A   1      45.370  24.442  35.700  1.00  0.00    -0.237 OA
ATOM     93  O   UNL A   1      43.334  23.232  35.007  1.00  0.00    -0.237 OA
ATOM     94  O   UNL A   1      45.344  23.175  33.581  1.00  0.00    -0.744 OA
ENDBRANCH  90  91
ENDBRANCH  62  85
BRANCH  74  95
ATOM     95  C   UNL A   1      45.054  33.617  30.446  1.00  0.00    -0.014 A 
ATOM     96  C   UNL A   1      43.787  33.781  29.853  1.00  0.00     0.010 A 
ATOM     97  C   UNL A   1      46.165  33.416  29.603  1.00  0.00     0.010 A 
ATOM     98  C   UNL A   1      43.620  33.692  28.469  1.00  0.00     0.020 A 
ATOM     99  C   UNL A   1      46.009  33.358  28.211  1.00  0.00     0.020 A 
ATOM    100  C   UNL A   1      44.731  33.461  27.657  1.00  0.00     0.054 A 
BRANCH 100 101
ATOM    101  S   UNL A   1      44.467  33.250  25.876  1.00  0.00     0.124 S 
ATOM    102  O   UNL A   1      43.387  34.197  25.610  1.00  0.00    -0.237 OA
ATOM    103  O   UNL A   1      45.766  33.610  25.312  1.00  0.00    -0.237 OA
ATOM    104  O   UNL A   1      44.101  31.841  25.742  1.00  0.00    -0.744 OA
ENDBRANCH 100 101
ENDBRANCH  74  95
ENDBRANCH  48  49
ENDBRANCH  41  43
ENDBRANCH  40  41
ENDBRANCH  39  40
ENDBRANCH  38  39
ENDBRANCH  37  38
ENDBRANCH  36  37
ENDBRANCH  35  36
ENDBRANCH   1  35
TORSDOF 28
ENDMDL
MODEL 2
REMARK VINA RESULT:      -7.5      5.750     10.938
REMARK SMILES COc1ccc2c(c1)c(CC(=O)OCCOCCOCCOCCOC(=O)c1ccc(-c3c4nc(c(-c5ccc(S(=O)(=O)[O-])cc5)c5ccc([nH]5)c(-c5ccc(S(=O)(=O)[O-])cc5)c5nc(c(-c6ccc(S(=O)(=O)[O-])cc6)c6ccc3[nH]6)C=C5)C=C4)cc1)c(C(F)(F)F)n2C(=O)c1ccc(Cl)cc1
REMARK SMILES IDX 19 1 18 2 17 3 16 4 15 5 14 6 13 7 11 8 12 9 10 10 9 11 3 12
REMARK SMILES IDX 4 13 8 14 5 15 7 16 6 17 93 18 88 19 2 20 1 21 94 22 95 23
REMARK SMILES IDX 96 24 97 25 102 26 98 27 101 28 99 29 100 30 89 31 90 32
REMARK SMILES IDX 91 33 92 34 20 35 21 36 22 37 23 38 24 39 25 40 26 41 27 42
REMARK SMILES IDX 28 43 29 44 87 45 30 46 86 47 31 48 32 49 33 50 80 51 34 52
REMARK SMILES IDX 85 53 79 54 81 55 35 56 84 57 78 58 77 59 36 61 66 62 47 63
REMARK SMILES IDX 65 64 48 65 51 66 64 67 82 68 49 69 50 70 63 72 83 73 52 74
REMARK SMILES IDX 37 75 38 76 46 77 39 78 45 79 40 80 41 81 42 82 43 83 44 84
REMARK SMILES IDX 67 85 68 86 76 87 69 88 75 89 70 90 71 91 72 92 73 93 74 94
REMARK SMILES IDX 53 95 54 96 62 97 55 98 61 99 56 100 57 101 58 102 59 103
REMARK SMILES IDX 60 104
REMARK H PARENT 81 60 51 71
REMARK Flexibility Score: inf
ROOT
ATOM      1  O   UNL A   1      37.932  23.392  26.070  1.00  0.00    -0.377 OA
ENDROOT
BRANCH   1   2
ATOM      2  C   UNL A   1      36.537  23.533  26.167  1.00  0.00     0.188 C 
BRANCH   2   3
ATOM      3  C   UNL A   1      35.690  23.977  24.982  1.00  0.00     0.188 C 
BRANCH   3   4
ATOM      4  O   UNL A   1      36.235  23.560  23.748  1.00  0.00    -0.376 OA
BRANCH   4   5
ATOM      5  C   UNL A   1      35.405  22.900  22.807  1.00  0.00     0.202 C 
BRANCH   5   6
ATOM      6  C   UNL A   1      34.057  23.489  22.325  1.00  0.00     0.261 C 
BRANCH   6   7
ATOM      7  O   UNL A   1      33.945  24.888  21.981  1.00  0.00    -0.463 OA
BRANCH   7   8
ATOM      8  C   UNL A   1      32.855  25.300  21.297  1.00  0.00     0.310 C 
ATOM      9  O   UNL A   1      32.840  25.461  20.080  1.00  0.00    -0.252 OA
BRANCH   8  10
ATOM     10  C   UNL A   1      31.610  25.553  22.151  1.00  0.00     0.161 C 
BRANCH  10  11
ATOM     11  C   UNL A   1      31.717  25.782  23.663  1.00  0.00     0.002 A 
ATOM     12  C   UNL A   1      32.386  22.619  25.743  1.00  0.00     0.119 A 
ATOM     13  C   UNL A   1      32.510  23.259  26.959  1.00  0.00     0.048 A 
ATOM     14  C   UNL A   1      31.984  23.354  24.617  1.00  0.00     0.057 A 
ATOM     15  C   UNL A   1      32.290  24.634  27.058  1.00  0.00     0.031 A 
ATOM     16  C   UNL A   1      31.870  24.770  24.667  1.00  0.00     0.008 A 
ATOM     17  C   UNL A   1      31.993  25.403  25.908  1.00  0.00     0.057 A 
ATOM     18  N   UNL A   1      31.776  26.785  25.724  1.00  0.00    -0.271 N 
ATOM     19  C   UNL A   1      31.561  26.997  24.348  1.00  0.00     0.135 A 
BRANCH  12  20
ATOM     20  O   UNL A   1      32.678  21.300  25.516  1.00  0.00    -0.497 OA
ATOM     21  C   UNL A   1      32.177  20.728  24.309  1.00  0.00     0.278 C 
ENDBRANCH  12  20
BRANCH  18  22
ATOM     22  C   UNL A   1      31.774  27.753  26.777  1.00  0.00     0.262 C 
ATOM     23  O   UNL A   1      30.851  27.773  27.582  1.00  0.00    -0.268 OA
BRANCH  22  24
ATOM     24  C   UNL A   1      32.804  28.783  27.015  1.00  0.00     0.040 A 
ATOM     25  C   UNL A   1      34.154  28.411  27.041  1.00  0.00     0.015 A 
ATOM     26  C   UNL A   1      32.428  30.120  27.197  1.00  0.00     0.015 A 
ATOM     27  C   UNL A   1      35.128  29.374  27.319  1.00  0.00     0.021 A 
ATOM     28  C   UNL A   1      33.410  31.080  27.469  1.00  0.00     0.021 A 
ATOM     29  C   UNL A   1      34.751  30.700  27.541  1.00  0.00     0.041 A 
ATOM     30  Cl  UNL A   1      35.950  31.876  27.921  1.00  0.00    -0.084 Cl
ENDBRANCH  22  24
ENDBRANCH  18  22
BRANCH  19  31
ATOM     31  C   UNL A   1      31.238  28.318  23.707  1.00  0.00     0.432 C 
ATOM     32  F   UNL A   1      32.360  28.917  23.249  1.00  0.00    -0.165 F 
ATOM     33  F   UNL A   1      30.436  28.105  22.625  1.00  0.00    -0.165 F 
ATOM     34  F   UNL A   1      30.552  29.209  24.450  1.00  0.00    -0.165 F 
ENDBRANCH  19  31
ENDBRANCH  10  11
ENDBRANCH   8  10
ENDBRANCH   7   8
ENDBRANCH   6   7
ENDBRANCH   5   6
ENDBRANCH   4   5
ENDBRANCH   3   4
ENDBRANCH   2   3
ENDBRANCH   1   2
BRANCH   1  35
ATOM     35  C   UNL A   1      38.431  22.097  25.868  1.00  0.00     0.188 C 
BRANCH  35  36
ATOM     36  C   UNL A   1      39.706  21.813  26.672  1.00  0.00     0.188 C 
BRANCH  36  37
ATOM     37  O   UNL A   1      41.016  21.959  26.111  1.00  0.00    -0.376 OA
BRANCH  37  38
ATOM     38  C   UNL A   1      41.901  20.855  26.023  1.00  0.00     0.202 C 
BRANCH  38  39
ATOM     39  C   UNL A   1      43.409  21.157  26.111  1.00  0.00     0.261 C 
BRANCH  39  40
ATOM     40  O   UNL A   1      44.180  20.579  25.054  1.00  0.00    -0.460 OA
BRANCH  40  41
ATOM     41  C   UNL A   1      44.722  21.419  24.129  1.00  0.00     0.338 C 
ATOM     42  O   UNL A   1      44.520  21.441  22.940  1.00  0.00    -0.246 OA
BRANCH  41  43
ATOM     43  C   UNL A   1      45.365  22.500  24.916  1.00  0.00     0.060 A 
ATOM     44  C   UNL A   1      45.710  22.304  26.256  1.00  0.00     0.016 A 
ATOM     45  C   UNL A   1      45.275  23.789  24.376  1.00  0.00     0.016 A 
ATOM     46  C   UNL A   1      45.790  23.414  27.094  1.00  0.00     0.010 A 
ATOM     47  C   UNL A   1      45.348  24.896  25.221  1.00  0.00     0.010 A 
ATOM     48  C   UNL A   1      45.541  24.707  26.591  1.00  0.00    -0.014 A 
BRANCH  48  49
ATOM     49  C   UNL A   1      45.759  25.841  27.501  1.00  0.00     0.031 A 
ATOM     50  C   UNL A   1      44.493  26.575  27.782  1.00  0.00     0.074 A 
ATOM     51  C   UNL A   1      46.868  26.138  28.211  1.00  0.00     0.049 A 
ATOM     52  N   UNL A   1      44.219  27.828  27.620  1.00  0.00    -0.248 NA
ATOM     53  C   UNL A   1      43.344  25.740  28.176  1.00  0.00     0.031 C 
ATOM     54  C   UNL A   1      48.088  25.342  28.353  1.00  0.00     0.029 A 
ATOM     55  N   UNL A   1      47.077  27.183  29.074  1.00  0.00    -0.354 N 
ATOM     56  C   UNL A   1      42.900  27.966  28.040  1.00  0.00     0.074 A 
ATOM     57  C   UNL A   1      42.368  26.639  28.204  1.00  0.00     0.031 C 
ATOM     58  C   UNL A   1      48.795  25.802  29.411  1.00  0.00     0.029 A 
ATOM     59  C   UNL A   1      48.143  26.989  29.946  1.00  0.00     0.049 A 
ATOM     60  H   UNL A   1      46.523  27.998  29.076  1.00  0.00     0.167 HD
ATOM     61  C   UNL A   1      42.362  29.147  28.443  1.00  0.00     0.031 A 
ATOM     62  C   UNL A   1      48.408  27.683  31.082  1.00  0.00     0.031 A 
ATOM     63  C   UNL A   1      43.097  30.284  27.977  1.00  0.00     0.049 A 
ATOM     64  C   UNL A   1      47.663  28.964  31.033  1.00  0.00     0.074 A 
ATOM     65  C   UNL A   1      43.408  30.787  26.730  1.00  0.00     0.029 A 
ATOM     66  N   UNL A   1      43.928  30.914  28.869  1.00  0.00    -0.354 N 
ATOM     67  N   UNL A   1      47.915  29.937  30.204  1.00  0.00    -0.248 NA
ATOM     68  C   UNL A   1      46.388  29.055  31.728  1.00  0.00     0.031 C 
ATOM     69  C   UNL A   1      44.692  31.382  26.875  1.00  0.00     0.029 A 
ATOM     70  C   UNL A   1      45.089  31.228  28.206  1.00  0.00     0.049 A 
ATOM     71  H   UNL A   1      43.728  31.106  29.812  1.00  0.00     0.167 HD
ATOM     72  C   UNL A   1      46.688  30.539  29.975  1.00  0.00     0.074 A 
ATOM     73  C   UNL A   1      45.818  30.039  31.031  1.00  0.00     0.031 C 
ATOM     74  C   UNL A   1      46.415  31.172  28.797  1.00  0.00     0.031 A 
BRANCH  61  75
ATOM     75  C   UNL A   1      41.327  29.210  29.534  1.00  0.00    -0.014 A 
ATOM     76  C   UNL A   1      39.953  29.390  29.253  1.00  0.00     0.010 A 
ATOM     77  C   UNL A   1      41.668  28.870  30.855  1.00  0.00     0.010 A 
ATOM     78  C   UNL A   1      38.973  29.313  30.238  1.00  0.00     0.020 A 
ATOM     79  C   UNL A   1      40.682  28.731  31.844  1.00  0.00     0.020 A 
ATOM     80  C   UNL A   1      39.343  28.970  31.530  1.00  0.00     0.054 A 
BRANCH  80  81
ATOM     81  S   UNL A   1      38.024  28.750  32.748  1.00  0.00     0.124 S 
ATOM     82  O   UNL A   1      36.848  29.180  31.996  1.00  0.00    -0.237 OA
ATOM     83  O   UNL A   1      38.099  27.319  33.036  1.00  0.00    -0.237 OA
ATOM     84  O   UNL A   1      38.424  29.626  33.845  1.00  0.00    -0.744 OA
ENDBRANCH  80  81
ENDBRANCH  61  75
BRANCH  62  85
ATOM     85  C   UNL A   1      48.958  27.155  32.362  1.00  0.00    -0.014 A 
ATOM     86  C   UNL A   1      50.266  27.501  32.756  1.00  0.00     0.010 A 
ATOM     87  C   UNL A   1      48.333  26.089  33.040  1.00  0.00     0.010 A 
ATOM     88  C   UNL A   1      50.952  26.773  33.734  1.00  0.00     0.020 A 
ATOM     89  C   UNL A   1      49.019  25.347  34.019  1.00  0.00     0.020 A 
ATOM     90  C   UNL A   1      50.338  25.675  34.332  1.00  0.00     0.054 A 
BRANCH  90  91
ATOM     91  S   UNL A   1      51.338  24.645  35.445  1.00  0.00     0.124 S 
ATOM     92  O   UNL A   1      52.338  25.596  35.922  1.00  0.00    -0.237 OA
ATOM     93  O   UNL A   1      50.359  24.215  36.440  1.00  0.00    -0.237 OA
ATOM     94  O   UNL A   1      51.845  23.586  34.576  1.00  0.00    -0.744 OA
ENDBRANCH  90  91
ENDBRANCH  62  85
BRANCH  74  95
ATOM     95  C   UNL A   1      47.561  31.562  27.888  1.00  0.00    -0.014 A 
ATOM     96  C   UNL A   1      48.545  30.589  27.625  1.00  0.00     0.010 A 
ATOM     97  C   UNL A   1      47.797  32.883  27.462  1.00  0.00     0.010 A 
ATOM     98  C   UNL A   1      49.750  30.930  27.007  1.00  0.00     0.020 A 
ATOM     99  C   UNL A   1      48.991  33.226  26.813  1.00  0.00     0.020 A 
ATOM    100  C   UNL A   1      49.974  32.252  26.621  1.00  0.00     0.054 A 
BRANCH 100 101
ATOM    101  S   UNL A   1      51.587  32.682  25.915  1.00  0.00     0.124 S 
ATOM    102  O   UNL A   1      52.225  33.398  27.017  1.00  0.00    -0.237 OA
ATOM    103  O   UNL A   1      52.162  31.375  25.604  1.00  0.00    -0.237 OA
ATOM    104  O   UNL A   1      51.253  33.506  24.754  1.00  0.00    -0.744 OA
ENDBRANCH 100 101
ENDBRANCH  74  95
ENDBRANCH  48  49
ENDBRANCH  41  43
ENDBRANCH  40  41
ENDBRANCH  39  40
ENDBRANCH  38  39
ENDBRANCH  37  38
ENDBRANCH  36  37
ENDBRANCH  35  36
ENDBRANCH   1  35
TORSDOF 28
ENDMDL
MODEL 3
REMARK VINA RESULT:      -7.3      6.470     13.458
REMARK SMILES COc1ccc2c(c1)c(CC(=O)OCCOCCOCCOCCOC(=O)c1ccc(-c3c4nc(c(-c5ccc(S(=O)(=O)[O-])cc5)c5ccc([nH]5)c(-c5ccc(S(=O)(=O)[O-])cc5)c5nc(c(-c6ccc(S(=O)(=O)[O-])cc6)c6ccc3[nH]6)C=C5)C=C4)cc1)c(C(F)(F)F)n2C(=O)c1ccc(Cl)cc1
REMARK SMILES IDX 19 1 18 2 17 3 16 4 15 5 14 6 13 7 11 8 12 9 10 10 9 11 3 12
REMARK SMILES IDX 4 13 8 14 5 15 7 16 6 17 93 18 88 19 2 20 1 21 94 22 95 23
REMARK SMILES IDX 96 24 97 25 102 26 98 27 101 28 99 29 100 30 89 31 90 32
REMARK SMILES IDX 91 33 92 34 20 35 21 36 22 37 23 38 24 39 25 40 26 41 27 42
REMARK SMILES IDX 28 43 29 44 87 45 30 46 86 47 31 48 32 49 33 50 80 51 34 52
REMARK SMILES IDX 85 53 79 54 81 55 35 56 84 57 78 58 77 59 36 61 66 62 47 63
REMARK SMILES IDX 65 64 48 65 51 66 64 67 82 68 49 69 50 70 63 72 83 73 52 74
REMARK SMILES IDX 37 75 38 76 46 77 39 78 45 79 40 80 41 81 42 82 43 83 44 84
REMARK SMILES IDX 67 85 68 86 76 87 69 88 75 89 70 90 71 91 72 92 73 93 74 94
REMARK SMILES IDX 53 95 54 96 62 97 55 98 61 99 56 100 57 101 58 102 59 103
REMARK SMILES IDX 60 104
REMARK H PARENT 81 60 51 71
REMARK Flexibility Score: inf
ROOT
ATOM      1  O   UNL A   1      37.685  23.178  26.140  1.00  0.00    -0.377 OA
ENDROOT
BRANCH   1   2
ATOM      2  C   UNL A   1      36.286  23.307  26.181  1.00  0.00     0.188 C 
BRANCH   2   3
ATOM      3  C   UNL A   1      35.516  24.062  25.106  1.00  0.00     0.188 C 
BRANCH   3   4
ATOM      4  O   UNL A   1      35.871  23.649  23.804  1.00  0.00    -0.376 OA
BRANCH   4   5
ATOM      5  C   UNL A   1      34.965  22.861  23.051  1.00  0.00     0.202 C 
BRANCH   5   6
ATOM      6  C   UNL A   1      33.897  23.481  22.116  1.00  0.00     0.261 C 
BRANCH   6   7
ATOM      7  O   UNL A   1      33.788  24.914  21.970  1.00  0.00    -0.463 OA
BRANCH   7   8
ATOM      8  C   UNL A   1      32.777  25.413  21.226  1.00  0.00     0.310 C 
ATOM      9  O   UNL A   1      32.848  25.578  20.011  1.00  0.00    -0.252 OA
BRANCH   8  10
ATOM     10  C   UNL A   1      31.506  25.759  22.006  1.00  0.00     0.161 C 
BRANCH  10  11
ATOM     11  C   UNL A   1      31.525  25.900  23.532  1.00  0.00     0.002 A 
ATOM     12  C   UNL A   1      31.419  22.582  25.470  1.00  0.00     0.119 A 
ATOM     13  C   UNL A   1      31.556  23.135  26.727  1.00  0.00     0.048 A 
ATOM     14  C   UNL A   1      31.257  23.426  24.362  1.00  0.00     0.057 A 
ATOM     15  C   UNL A   1      31.586  24.521  26.889  1.00  0.00     0.031 A 
ATOM     16  C   UNL A   1      31.403  24.835  24.485  1.00  0.00     0.008 A 
ATOM     17  C   UNL A   1      31.534  25.381  25.766  1.00  0.00     0.057 A 
ATOM     18  N   UNL A   1      31.593  26.785  25.646  1.00  0.00    -0.271 N 
ATOM     19  C   UNL A   1      31.539  27.092  24.272  1.00  0.00     0.135 A 
BRANCH  12  20
ATOM     20  O   UNL A   1      31.481  21.242  25.192  1.00  0.00    -0.497 OA
ATOM     21  C   UNL A   1      32.781  20.684  25.004  1.00  0.00     0.278 C 
ENDBRANCH  12  20
BRANCH  18  22
ATOM     22  C   UNL A   1      31.680  27.690  26.750  1.00  0.00     0.262 C 
ATOM     23  O   UNL A   1      30.817  27.673  27.619  1.00  0.00    -0.268 OA
BRANCH  22  24
ATOM     24  C   UNL A   1      32.739  28.695  26.970  1.00  0.00     0.040 A 
ATOM     25  C   UNL A   1      34.081  28.307  26.886  1.00  0.00     0.015 A 
ATOM     26  C   UNL A   1      32.395  30.025  27.246  1.00  0.00     0.015 A 
ATOM     27  C   UNL A   1      35.085  29.243  27.148  1.00  0.00     0.021 A 
ATOM     28  C   UNL A   1      33.406  30.958  27.500  1.00  0.00     0.021 A 
ATOM     29  C   UNL A   1      34.744  30.560  27.463  1.00  0.00     0.041 A 
ATOM     30  Cl  UNL A   1      35.983  31.701  27.821  1.00  0.00    -0.084 Cl
ENDBRANCH  22  24
ENDBRANCH  18  22
BRANCH  19  31
ATOM     31  C   UNL A   1      31.520  28.476  23.686  1.00  0.00     0.432 C 
ATOM     32  F   UNL A   1      32.760  28.849  23.297  1.00  0.00    -0.165 F 
ATOM     33  F   UNL A   1      30.741  28.477  22.567  1.00  0.00    -0.165 F 
ATOM     34  F   UNL A   1      30.998  29.458  24.446  1.00  0.00    -0.165 F 
ENDBRANCH  19  31
ENDBRANCH  10  11
ENDBRANCH   8  10
ENDBRANCH   7   8
ENDBRANCH   6   7
ENDBRANCH   5   6
ENDBRANCH   4   5
ENDBRANCH   3   4
ENDBRANCH   2   3
ENDBRANCH   1   2
BRANCH   1  35
ATOM     35  C   UNL A   1      38.201  21.938  25.735  1.00  0.00     0.188 C 
BRANCH  35  36
ATOM     36  C   UNL A   1      39.502  21.564  26.455  1.00  0.00     0.188 C 
BRANCH  36  37
ATOM     37  O   UNL A   1      40.738  22.243  26.208  1.00  0.00    -0.376 OA
BRANCH  37  38
ATOM     38  C   UNL A   1      41.900  21.528  25.821  1.00  0.00     0.202 C 
BRANCH  38  39
ATOM     39  C   UNL A   1      43.227  21.930  26.494  1.00  0.00     0.261 C 
BRANCH  39  40
ATOM     40  O   UNL A   1      44.381  21.720  25.676  1.00  0.00    -0.460 OA
BRANCH  40  41
ATOM     41  C   UNL A   1      44.647  22.636  24.704  1.00  0.00     0.338 C 
ATOM     42  O   UNL A   1      44.331  22.595  23.540  1.00  0.00    -0.246 OA
BRANCH  41  43
ATOM     43  C   UNL A   1      45.125  23.840  25.426  1.00  0.00     0.060 A 
ATOM     44  C   UNL A   1      44.592  25.103  25.149  1.00  0.00     0.016 A 
ATOM     45  C   UNL A   1      46.344  23.706  26.104  1.00  0.00     0.016 A 
ATOM     46  C   UNL A   1      45.375  26.227  25.400  1.00  0.00     0.010 A 
ATOM     47  C   UNL A   1      47.127  24.834  26.345  1.00  0.00     0.010 A 
ATOM     48  C   UNL A   1      46.671  26.089  25.936  1.00  0.00    -0.014 A 
BRANCH  48  49
ATOM     49  C   UNL A   1      47.394  27.322  26.285  1.00  0.00     0.031 A 
ATOM     50  C   UNL A   1      48.621  27.496  25.458  1.00  0.00     0.074 A 
ATOM     51  C   UNL A   1      46.981  28.332  27.079  1.00  0.00     0.049 A 
ATOM     52  N   UNL A   1      49.848  27.655  25.835  1.00  0.00    -0.248 NA
ATOM     53  C   UNL A   1      48.440  27.334  24.004  1.00  0.00     0.031 C 
ATOM     54  C   UNL A   1      45.664  28.519  27.690  1.00  0.00     0.029 A 
ATOM     55  N   UNL A   1      47.639  29.493  27.399  1.00  0.00    -0.354 N 
ATOM     56  C   UNL A   1      50.576  27.768  24.654  1.00  0.00     0.074 A 
ATOM     57  C   UNL A   1      49.696  27.394  23.578  1.00  0.00     0.031 C 
ATOM     58  C   UNL A   1      45.545  29.803  28.099  1.00  0.00     0.029 A 
ATOM     59  C   UNL A   1      46.808  30.495  27.885  1.00  0.00     0.049 A 
ATOM     60  H   UNL A   1      48.613  29.605  27.295  1.00  0.00     0.167 HD
ATOM     61  C   UNL A   1      51.794  28.363  24.580  1.00  0.00     0.031 A 
ATOM     62  C   UNL A   1      47.101  31.816  28.002  1.00  0.00     0.031 A 
ATOM     63  C   UNL A   1      52.452  28.449  25.849  1.00  0.00     0.049 A 
ATOM     64  C   UNL A   1      48.574  31.975  27.961  1.00  0.00     0.074 A 
ATOM     65  C   UNL A   1      52.900  27.524  26.769  1.00  0.00     0.029 A 
ATOM     66  N   UNL A   1      52.438  29.661  26.493  1.00  0.00    -0.354 N 
ATOM     67  N   UNL A   1      49.390  31.561  28.888  1.00  0.00    -0.248 NA
ATOM     68  C   UNL A   1      49.201  32.337  26.699  1.00  0.00     0.031 C 
ATOM     69  C   UNL A   1      52.731  28.144  28.038  1.00  0.00     0.029 A 
ATOM     70  C   UNL A   1      52.209  29.422  27.825  1.00  0.00     0.049 A 
ATOM     71  H   UNL A   1      52.569  30.542  26.075  1.00  0.00     0.167 HD
ATOM     72  C   UNL A   1      50.558  31.234  28.217  1.00  0.00     0.074 A 
ATOM     73  C   UNL A   1      50.425  31.851  26.904  1.00  0.00     0.031 C 
ATOM     74  C   UNL A   1      51.402  30.270  28.687  1.00  0.00     0.031 A 
BRANCH  61  75
ATOM     75  C   UNL A   1      52.219  29.141  23.363  1.00  0.00    -0.014 A 
ATOM     76  C   UNL A   1      52.096  30.548  23.293  1.00  0.00     0.010 A 
ATOM     77  C   UNL A   1      52.958  28.514  22.344  1.00  0.00     0.010 A 
ATOM     78  C   UNL A   1      52.610  31.290  22.235  1.00  0.00     0.020 A 
ATOM     79  C   UNL A   1      53.531  29.260  21.303  1.00  0.00     0.020 A 
ATOM     80  C   UNL A   1      53.338  30.641  21.248  1.00  0.00     0.054 A 
BRANCH  80  81
ATOM     81  S   UNL A   1      54.100  31.660  19.964  1.00  0.00     0.124 S 
ATOM     82  O   UNL A   1      53.089  32.694  19.762  1.00  0.00    -0.237 OA
ATOM     83  O   UNL A   1      55.335  32.104  20.606  1.00  0.00    -0.237 OA
ATOM     84  O   UNL A   1      54.278  30.730  18.852  1.00  0.00    -0.744 OA
ENDBRANCH  80  81
ENDBRANCH  61  75
BRANCH  62  85
ATOM     85  C   UNL A   1      46.190  32.972  27.771  1.00  0.00    -0.014 A 
ATOM     86  C   UNL A   1      46.553  33.975  26.850  1.00  0.00     0.010 A 
ATOM     87  C   UNL A   1      45.127  33.252  28.654  1.00  0.00     0.010 A 
ATOM     88  C   UNL A   1      45.935  35.230  26.852  1.00  0.00     0.020 A 
ATOM     89  C   UNL A   1      44.505  34.513  28.668  1.00  0.00     0.020 A 
ATOM     90  C   UNL A   1      44.940  35.505  27.788  1.00  0.00     0.054 A 
BRANCH  90  91
ATOM     91  S   UNL A   1      44.311  37.206  27.882  1.00  0.00     0.124 S 
ATOM     92  O   UNL A   1      45.100  37.879  26.854  1.00  0.00    -0.237 OA
ATOM     93  O   UNL A   1      42.894  37.035  27.570  1.00  0.00    -0.237 OA
ATOM     94  O   UNL A   1      44.599  37.608  29.257  1.00  0.00    -0.744 OA
ENDBRANCH  90  91
ENDBRANCH  62  85
BRANCH  74  95
ATOM     95  C   UNL A   1      51.281  29.823  30.128  1.00  0.00    -0.014 A 
ATOM     96  C   UNL A   1      52.160  30.398  31.066  1.00  0.00     0.010 A 
ATOM     97  C   UNL A   1      50.486  28.734  30.537  1.00  0.00     0.010 A 
ATOM     98  C   UNL A   1      52.286  29.872  32.354  1.00  0.00     0.020 A 
ATOM     99  C   UNL A   1      50.584  28.222  31.838  1.00  0.00     0.020 A 
ATOM    100  C   UNL A   1      51.509  28.774  32.727  1.00  0.00     0.054 A 
BRANCH 100 101
ATOM    101  S   UNL A   1      51.769  28.053  34.370  1.00  0.00     0.124 S 
ATOM    102  O   UNL A   1      52.913  27.173  34.142  1.00  0.00    -0.237 OA
ATOM    103  O   UNL A   1      52.039  29.226  35.197  1.00  0.00    -0.237 OA
ATOM    104  O   UNL A   1      50.510  27.368  34.654  1.00  0.00    -0.744 OA
ENDBRANCH 100 101
ENDBRANCH  74  95
ENDBRANCH  48  49
ENDBRANCH  41  43
ENDBRANCH  40  41
ENDBRANCH  39  40
ENDBRANCH  38  39
ENDBRANCH  37  38
ENDBRANCH  36  37
ENDBRANCH  35  36
ENDBRANCH   1  35
TORSDOF 28
ENDMDL
