MODEL 1
REMARK VINA RESULT:      -9.1      0.000      0.000
REMARK SMILES Cc1ccc(NS(=O)(=O)N2CCCC[C@@H]2C(=O)OCCOCCOCCOCCOC(=O)c2ccc(-c3c4nc(c(-c5ccc(S(=O)(=O)[O-])cc5)c5ccc([nH]5)c(-c5ccc(S(=O)(=O)[O-])cc5)c5nc(c(-c6ccc(S(=O)(=O)[O-])cc6)c6ccc3[nH]6)C=C5)C=C4)cc2)c(C)n1
REMARK SMILES IDX 24 1 23 2 22 3 21 4 20 5 19 6 18 7 16 8 17 9 15 10 10 11
REMARK SMILES IDX 11 12 12 13 14 14 13 15 7 16 8 17 9 18 6 19 5 21 1 22 2 23
REMARK SMILES IDX 3 24 95 25 4 26 93 27 94 28 25 29 26 30 27 31 28 32 29 33
REMARK SMILES IDX 30 34 31 35 32 36 33 37 34 38 92 39 35 40 91 41 36 42 37 43
REMARK SMILES IDX 38 44 85 45 39 46 90 47 84 48 86 49 40 50 89 51 83 52 82 53
REMARK SMILES IDX 41 55 71 56 52 57 70 58 53 59 56 60 69 61 87 62 54 63 55 64
REMARK SMILES IDX 68 66 88 67 57 68 42 69 43 70 51 71 44 72 50 73 45 74 46 75
REMARK SMILES IDX 47 76 48 77 49 78 72 79 73 80 81 81 74 82 80 83 75 84 76 85
REMARK SMILES IDX 77 86 78 87 79 88 58 89 59 90 67 91 60 92 66 93 61 94 62 95
REMARK SMILES IDX 63 96 64 97 65 98
REMARK H PARENT 6 20 86 54 56 65
REMARK Flexibility Score: inf
ROOT
ATOM      1  O   UNL A   1      33.057  31.337  27.212  1.00  0.00    -0.377 OA
ENDROOT
BRANCH   1   2
ATOM      2  C   UNL A   1      32.353  30.176  26.811  1.00  0.00     0.188 C 
BRANCH   2   3
ATOM      3  C   UNL A   1      32.800  28.878  27.502  1.00  0.00     0.188 C 
BRANCH   3   4
ATOM      4  O   UNL A   1      33.829  28.092  26.930  1.00  0.00    -0.376 OA
BRANCH   4   5
ATOM      5  C   UNL A   1      34.422  28.458  25.701  1.00  0.00     0.202 C 
BRANCH   5   6
ATOM      6  C   UNL A   1      33.646  28.740  24.403  1.00  0.00     0.261 C 
BRANCH   6   7
ATOM      7  O   UNL A   1      34.143  28.317  23.124  1.00  0.00    -0.462 OA
BRANCH   7   8
ATOM      8  C   UNL A   1      33.368  27.463  22.416  1.00  0.00     0.324 C 
ATOM      9  O   UNL A   1      33.690  27.013  21.321  1.00  0.00    -0.250 OA
BRANCH   8  10
ATOM     10  C   UNL A   1      32.031  27.142  23.101  1.00  0.00     0.184 C 
ATOM     11  N   UNL A   1      31.693  25.698  23.293  1.00  0.00    -0.170 NA
ATOM     12  C   UNL A   1      30.619  25.574  24.314  1.00  0.00     0.105 C 
ATOM     13  C   UNL A   1      29.319  26.096  23.714  1.00  0.00     0.017 C 
ATOM     14  C   UNL A   1      30.787  27.793  22.455  1.00  0.00     0.032 C 
ATOM     15  C   UNL A   1      29.462  27.515  23.178  1.00  0.00     0.004 C 
BRANCH  11  16
ATOM     16  S   UNL A   1      32.927  24.571  23.431  1.00  0.00     0.302 S 
ATOM     17  O   UNL A   1      33.960  25.101  24.283  1.00  0.00    -0.189 OA
ATOM     18  O   UNL A   1      33.259  24.136  22.091  1.00  0.00    -0.189 OA
BRANCH  16  19
ATOM     19  N   UNL A   1      32.246  23.279  24.204  1.00  0.00    -0.269 N 
ATOM     20  H   UNL A   1      31.319  23.408  24.511  1.00  0.00     0.181 HD
BRANCH  19  21
ATOM     21  C   UNL A   1      32.824  21.986  24.495  1.00  0.00     0.071 A 
ATOM     22  C   UNL A   1      32.674  17.910  25.669  1.00  0.00     0.067 C 
ATOM     23  C   UNL A   1      32.883  19.285  25.137  1.00  0.00     0.038 A 
ATOM     24  C   UNL A   1      32.500  19.644  23.863  1.00  0.00     0.026 A 
ATOM     25  N   UNL A   1      33.357  20.183  26.016  1.00  0.00    -0.256 NA
ATOM     26  C   UNL A   1      32.471  21.002  23.549  1.00  0.00     0.030 A 
ATOM     27  C   UNL A   1      33.364  21.506  25.691  1.00  0.00     0.062 A 
ATOM     28  C   UNL A   1      33.977  22.301  26.784  1.00  0.00     0.069 C 
ENDBRANCH  19  21
ENDBRANCH  16  19
ENDBRANCH  11  16
ENDBRANCH   8  10
ENDBRANCH   7   8
ENDBRANCH   6   7
ENDBRANCH   5   6
ENDBRANCH   4   5
ENDBRANCH   3   4
ENDBRANCH   2   3
ENDBRANCH   1   2
BRANCH   1  29
ATOM     29  C   UNL A   1      34.005  31.148  28.247  1.00  0.00     0.188 C 
BRANCH  29  30
ATOM     30  C   UNL A   1      34.708  32.431  28.719  1.00  0.00     0.188 C 
BRANCH  30  31
ATOM     31  O   UNL A   1      34.387  33.578  27.941  1.00  0.00    -0.376 OA
BRANCH  31  32
ATOM     32  C   UNL A   1      33.173  34.276  28.163  1.00  0.00     0.202 C 
BRANCH  32  33
ATOM     33  C   UNL A   1      33.096  35.344  29.271  1.00  0.00     0.261 C 
BRANCH  33  34
ATOM     34  O   UNL A   1      32.420  34.992  30.484  1.00  0.00    -0.460 OA
BRANCH  34  35
ATOM     35  C   UNL A   1      32.981  35.364  31.653  1.00  0.00     0.338 C 
ATOM     36  O   UNL A   1      32.509  36.116  32.484  1.00  0.00    -0.246 OA
BRANCH  35  37
ATOM     37  C   UNL A   1      34.192  34.540  31.854  1.00  0.00     0.060 A 
ATOM     38  C   UNL A   1      34.107  33.389  32.650  1.00  0.00     0.016 A 
ATOM     39  C   UNL A   1      35.409  34.914  31.279  1.00  0.00     0.016 A 
ATOM     40  C   UNL A   1      35.252  32.641  32.920  1.00  0.00     0.010 A 
ATOM     41  C   UNL A   1      36.560  34.178  31.573  1.00  0.00     0.010 A 
ATOM     42  C   UNL A   1      36.493  33.066  32.430  1.00  0.00    -0.014 A 
BRANCH  42  43
ATOM     43  C   UNL A   1      37.737  32.492  32.996  1.00  0.00     0.031 A 
ATOM     44  C   UNL A   1      38.403  31.375  32.246  1.00  0.00     0.074 A 
ATOM     45  C   UNL A   1      38.291  32.970  34.124  1.00  0.00     0.049 A 
ATOM     46  N   UNL A   1      39.458  30.680  32.573  1.00  0.00    -0.248 NA
ATOM     47  C   UNL A   1      37.801  30.997  30.956  1.00  0.00     0.031 C 
ATOM     48  C   UNL A   1      37.769  34.096  34.885  1.00  0.00     0.029 A 
ATOM     49  N   UNL A   1      39.403  32.582  34.826  1.00  0.00    -0.354 N 
ATOM     50  C   UNL A   1      39.648  29.781  31.532  1.00  0.00     0.074 A 
ATOM     51  C   UNL A   1      38.578  29.992  30.581  1.00  0.00     0.031 C 
ATOM     52  C   UNL A   1      38.548  34.308  35.960  1.00  0.00     0.029 A 
ATOM     53  C   UNL A   1      39.606  33.304  35.981  1.00  0.00     0.049 A 
ATOM     54  H   UNL A   1      39.999  31.856  34.533  1.00  0.00     0.167 HD
ATOM     55  C   UNL A   1      40.633  28.868  31.379  1.00  0.00     0.031 A 
ATOM     56  C   UNL A   1      40.525  33.151  36.955  1.00  0.00     0.031 A 
ATOM     57  C   UNL A   1      41.681  28.654  32.340  1.00  0.00     0.049 A 
ATOM     58  C   UNL A   1      41.541  32.046  36.815  1.00  0.00     0.074 A 
ATOM     59  C   UNL A   1      42.716  27.738  32.291  1.00  0.00     0.029 A 
ATOM     60  N   UNL A   1      41.828  29.363  33.523  1.00  0.00    -0.354 N 
ATOM     61  N   UNL A   1      41.707  31.199  35.825  1.00  0.00    -0.248 NA
ATOM     62  C   UNL A   1      42.498  31.876  37.917  1.00  0.00     0.031 C 
ATOM     63  C   UNL A   1      43.456  27.854  33.471  1.00  0.00     0.029 A 
ATOM     64  C   UNL A   1      42.925  28.891  34.222  1.00  0.00     0.049 A 
ATOM     65  H   UNL A   1      41.238  30.092  33.822  1.00  0.00     0.167 HD
ATOM     66  C   UNL A   1      42.812  30.427  36.168  1.00  0.00     0.074 A 
ATOM     67  C   UNL A   1      43.283  30.918  37.448  1.00  0.00     0.031 C 
ATOM     68  C   UNL A   1      43.386  29.405  35.488  1.00  0.00     0.031 A 
BRANCH  55  69
ATOM     69  C   UNL A   1      40.608  28.022  30.138  1.00  0.00    -0.014 A 
ATOM     70  C   UNL A   1      41.500  28.262  29.078  1.00  0.00     0.010 A 
ATOM     71  C   UNL A   1      39.713  26.939  30.050  1.00  0.00     0.010 A 
ATOM     72  C   UNL A   1      41.485  27.447  27.945  1.00  0.00     0.020 A 
ATOM     73  C   UNL A   1      39.716  26.104  28.931  1.00  0.00     0.020 A 
ATOM     74  C   UNL A   1      40.598  26.368  27.881  1.00  0.00     0.054 A 
BRANCH  74  75
ATOM     75  S   UNL A   1      40.645  25.293  26.423  1.00  0.00     0.124 S 
ATOM     76  O   UNL A   1      41.169  26.196  25.400  1.00  0.00    -0.237 OA
ATOM     77  O   UNL A   1      41.550  24.227  26.843  1.00  0.00    -0.237 OA
ATOM     78  O   UNL A   1      39.252  24.891  26.242  1.00  0.00    -0.744 OA
ENDBRANCH  74  75
ENDBRANCH  55  69
BRANCH  56  79
ATOM     79  C   UNL A   1      40.522  34.029  38.161  1.00  0.00    -0.014 A 
ATOM     80  C   UNL A   1      39.847  33.639  39.332  1.00  0.00     0.010 A 
ATOM     81  C   UNL A   1      41.144  35.291  38.126  1.00  0.00     0.010 A 
ATOM     82  C   UNL A   1      39.754  34.510  40.424  1.00  0.00     0.020 A 
ATOM     83  C   UNL A   1      41.085  36.150  39.228  1.00  0.00     0.020 A 
ATOM     84  C   UNL A   1      40.370  35.763  40.362  1.00  0.00     0.054 A 
BRANCH  84  85
ATOM     85  S   UNL A   1      40.229  36.876  41.789  1.00  0.00     0.124 S 
ATOM     86  O   UNL A   1      39.988  38.163  41.146  1.00  0.00    -0.237 OA
ATOM     87  O   UNL A   1      39.096  36.309  42.515  1.00  0.00    -0.237 OA
ATOM     88  O   UNL A   1      41.521  36.741  42.458  1.00  0.00    -0.744 OA
ENDBRANCH  84  85
ENDBRANCH  56  79
BRANCH  68  89
ATOM     89  C   UNL A   1      44.626  28.786  36.079  1.00  0.00    -0.014 A 
ATOM     90  C   UNL A   1      44.552  27.695  36.962  1.00  0.00     0.010 A 
ATOM     91  C   UNL A   1      45.888  29.275  35.696  1.00  0.00     0.010 A 
ATOM     92  C   UNL A   1      45.719  27.127  37.479  1.00  0.00     0.020 A 
ATOM     93  C   UNL A   1      47.058  28.689  36.182  1.00  0.00     0.020 A 
ATOM     94  C   UNL A   1      46.965  27.626  37.083  1.00  0.00     0.054 A 
BRANCH  94  95
ATOM     95  S   UNL A   1      48.464  26.840  37.732  1.00  0.00     0.124 S 
ATOM     96  O   UNL A   1      49.160  27.969  38.343  1.00  0.00    -0.237 OA
ATOM     97  O   UNL A   1      47.928  25.852  38.665  1.00  0.00    -0.237 OA
ATOM     98  O   UNL A   1      49.106  26.283  36.544  1.00  0.00    -0.744 OA
ENDBRANCH  94  95
ENDBRANCH  68  89
ENDBRANCH  42  43
ENDBRANCH  35  37
ENDBRANCH  34  35
ENDBRANCH  33  34
ENDBRANCH  32  33
ENDBRANCH  31  32
ENDBRANCH  30  31
ENDBRANCH  29  30
ENDBRANCH   1  29
TORSDOF 26
ENDMDL
MODEL 2
REMARK VINA RESULT:      -8.7      5.142      7.448
REMARK SMILES Cc1ccc(NS(=O)(=O)N2CCCC[C@@H]2C(=O)OCCOCCOCCOCCOC(=O)c2ccc(-c3c4nc(c(-c5ccc(S(=O)(=O)[O-])cc5)c5ccc([nH]5)c(-c5ccc(S(=O)(=O)[O-])cc5)c5nc(c(-c6ccc(S(=O)(=O)[O-])cc6)c6ccc3[nH]6)C=C5)C=C4)cc2)c(C)n1
REMARK SMILES IDX 24 1 23 2 22 3 21 4 20 5 19 6 18 7 16 8 17 9 15 10 10 11
REMARK SMILES IDX 11 12 12 13 14 14 13 15 7 16 8 17 9 18 6 19 5 21 1 22 2 23
REMARK SMILES IDX 3 24 95 25 4 26 93 27 94 28 25 29 26 30 27 31 28 32 29 33
REMARK SMILES IDX 30 34 31 35 32 36 33 37 34 38 92 39 35 40 91 41 36 42 37 43
REMARK SMILES IDX 38 44 85 45 39 46 90 47 84 48 86 49 40 50 89 51 83 52 82 53
REMARK SMILES IDX 41 55 71 56 52 57 70 58 53 59 56 60 69 61 87 62 54 63 55 64
REMARK SMILES IDX 68 66 88 67 57 68 42 69 43 70 51 71 44 72 50 73 45 74 46 75
REMARK SMILES IDX 47 76 48 77 49 78 72 79 73 80 81 81 74 82 80 83 75 84 76 85
REMARK SMILES IDX 77 86 78 87 79 88 58 89 59 90 67 91 60 92 66 93 61 94 62 95
REMARK SMILES IDX 63 96 64 97 65 98
REMARK H PARENT 6 20 86 54 56 65
REMARK Flexibility Score: inf
ROOT
ATOM      1  O   UNL A   1      33.864  29.545  27.387  1.00  0.00    -0.377 OA
ENDROOT
BRANCH   1   2
ATOM      2  C   UNL A   1      32.453  29.496  27.283  1.00  0.00     0.188 C 
BRANCH   2   3
ATOM      3  C   UNL A   1      31.906  29.619  25.852  1.00  0.00     0.188 C 
BRANCH   3   4
ATOM      4  O   UNL A   1      31.401  28.477  25.188  1.00  0.00    -0.376 OA
BRANCH   4   5
ATOM      5  C   UNL A   1      31.241  27.252  25.873  1.00  0.00     0.202 C 
BRANCH   5   6
ATOM      6  C   UNL A   1      30.931  25.904  25.199  1.00  0.00     0.261 C 
BRANCH   6   7
ATOM      7  O   UNL A   1      30.622  24.733  25.969  1.00  0.00    -0.462 OA
BRANCH   7   8
ATOM      8  C   UNL A   1      31.475  23.687  25.865  1.00  0.00     0.324 C 
ATOM      9  O   UNL A   1      31.191  22.549  26.224  1.00  0.00    -0.250 OA
BRANCH   8  10
ATOM     10  C   UNL A   1      32.846  24.074  25.289  1.00  0.00     0.184 C 
ATOM     11  N   UNL A   1      33.316  23.320  24.087  1.00  0.00    -0.170 NA
ATOM     12  C   UNL A   1      34.413  24.079  23.426  1.00  0.00     0.105 C 
ATOM     13  C   UNL A   1      35.651  24.008  24.312  1.00  0.00     0.017 C 
ATOM     14  C   UNL A   1      34.016  24.047  26.299  1.00  0.00     0.032 C 
ATOM     15  C   UNL A   1      35.371  24.490  25.731  1.00  0.00     0.004 C 
BRANCH  11  16
ATOM     16  S   UNL A   1      32.193  22.653  23.036  1.00  0.00     0.302 S 
ATOM     17  O   UNL A   1      32.790  22.508  21.734  1.00  0.00    -0.189 OA
ATOM     18  O   UNL A   1      30.970  23.414  23.181  1.00  0.00    -0.189 OA
BRANCH  16  19
ATOM     19  N   UNL A   1      31.894  21.140  23.628  1.00  0.00    -0.269 N 
ATOM     20  H   UNL A   1      31.003  21.007  24.026  1.00  0.00     0.181 HD
BRANCH  19  21
ATOM     21  C   UNL A   1      32.762  19.983  23.645  1.00  0.00     0.071 A 
ATOM     22  C   UNL A   1      33.724  15.939  24.505  1.00  0.00     0.067 C 
ATOM     23  C   UNL A   1      33.508  17.337  24.041  1.00  0.00     0.038 A 
ATOM     24  C   UNL A   1      32.708  17.634  22.959  1.00  0.00     0.026 A 
ATOM     25  N   UNL A   1      34.044  18.298  24.813  1.00  0.00    -0.256 NA
ATOM     26  C   UNL A   1      32.336  18.965  22.768  1.00  0.00     0.030 A 
ATOM     27  C   UNL A   1      33.709  19.600  24.599  1.00  0.00     0.062 A 
ATOM     28  C   UNL A   1      34.458  20.483  25.527  1.00  0.00     0.069 C 
ENDBRANCH  19  21
ENDBRANCH  16  19
ENDBRANCH  11  16
ENDBRANCH   8  10
ENDBRANCH   7   8
ENDBRANCH   6   7
ENDBRANCH   5   6
ENDBRANCH   4   5
ENDBRANCH   3   4
ENDBRANCH   2   3
ENDBRANCH   1   2
BRANCH   1  29
ATOM     29  C   UNL A   1      34.437  30.837  27.310  1.00  0.00     0.188 C 
BRANCH  29  30
ATOM     30  C   UNL A   1      33.560  31.967  27.874  1.00  0.00     0.188 C 
BRANCH  30  31
ATOM     31  O   UNL A   1      34.269  33.177  28.111  1.00  0.00    -0.376 OA
BRANCH  31  32
ATOM     32  C   UNL A   1      33.770  34.129  29.034  1.00  0.00     0.202 C 
BRANCH  32  33
ATOM     33  C   UNL A   1      34.483  34.333  30.385  1.00  0.00     0.261 C 
BRANCH  33  34
ATOM     34  O   UNL A   1      34.224  33.376  31.421  1.00  0.00    -0.460 OA
BRANCH  34  35
ATOM     35  C   UNL A   1      35.099  32.361  31.577  1.00  0.00     0.338 C 
ATOM     36  O   UNL A   1      35.394  31.517  30.752  1.00  0.00    -0.246 OA
BRANCH  35  37
ATOM     37  C   UNL A   1      35.800  32.564  32.863  1.00  0.00     0.060 A 
ATOM     38  C   UNL A   1      35.449  33.659  33.664  1.00  0.00     0.016 A 
ATOM     39  C   UNL A   1      36.814  31.691  33.263  1.00  0.00     0.016 A 
ATOM     40  C   UNL A   1      36.150  33.917  34.841  1.00  0.00     0.010 A 
ATOM     41  C   UNL A   1      37.534  31.966  34.429  1.00  0.00     0.010 A 
ATOM     42  C   UNL A   1      37.234  33.105  35.197  1.00  0.00    -0.014 A 
BRANCH  42  43
ATOM     43  C   UNL A   1      38.188  33.572  36.232  1.00  0.00     0.031 A 
ATOM     44  C   UNL A   1      39.386  34.358  35.784  1.00  0.00     0.074 A 
ATOM     45  C   UNL A   1      37.982  33.345  37.541  1.00  0.00     0.049 A 
ATOM     46  N   UNL A   1      40.381  34.816  36.493  1.00  0.00    -0.248 NA
ATOM     47  C   UNL A   1      39.469  34.670  34.347  1.00  0.00     0.031 C 
ATOM     48  C   UNL A   1      36.818  32.662  38.086  1.00  0.00     0.029 A 
ATOM     49  N   UNL A   1      38.730  33.658  38.646  1.00  0.00    -0.354 N 
ATOM     50  C   UNL A   1      41.210  35.469  35.592  1.00  0.00     0.074 A 
ATOM     51  C   UNL A   1      40.622  35.317  34.279  1.00  0.00     0.031 C 
ATOM     52  C   UNL A   1      36.926  32.591  39.424  1.00  0.00     0.029 A 
ATOM     53  C   UNL A   1      38.192  33.194  39.826  1.00  0.00     0.049 A 
ATOM     54  H   UNL A   1      39.571  34.166  38.601  1.00  0.00     0.167 HD
ATOM     55  C   UNL A   1      42.353  36.146  35.840  1.00  0.00     0.031 A 
ATOM     56  C   UNL A   1      38.683  33.229  41.082  1.00  0.00     0.031 A 
ATOM     57  C   UNL A   1      42.938  36.275  37.148  1.00  0.00     0.049 A 
ATOM     58  C   UNL A   1      40.020  33.887  41.311  1.00  0.00     0.074 A 
ATOM     59  C   UNL A   1      44.107  36.922  37.504  1.00  0.00     0.029 A 
ATOM     60  N   UNL A   1      42.399  35.748  38.312  1.00  0.00    -0.354 N 
ATOM     61  N   UNL A   1      40.797  34.499  40.447  1.00  0.00    -0.248 NA
ATOM     62  C   UNL A   1      40.547  33.865  42.682  1.00  0.00     0.031 C 
ATOM     63  C   UNL A   1      44.305  36.737  38.875  1.00  0.00     0.029 A 
ATOM     64  C   UNL A   1      43.223  36.038  39.386  1.00  0.00     0.049 A 
ATOM     65  H   UNL A   1      41.556  35.242  38.366  1.00  0.00     0.167 HD
ATOM     66  C   UNL A   1      41.880  34.971  41.180  1.00  0.00     0.074 A 
ATOM     67  C   UNL A   1      41.651  34.587  42.558  1.00  0.00     0.031 C 
ATOM     68  C   UNL A   1      42.967  35.659  40.753  1.00  0.00     0.031 A 
BRANCH  55  69
ATOM     69  C   UNL A   1      43.054  36.777  34.670  1.00  0.00    -0.014 A 
ATOM     70  C   UNL A   1      42.883  38.140  34.372  1.00  0.00     0.010 A 
ATOM     71  C   UNL A   1      43.936  36.008  33.888  1.00  0.00     0.010 A 
ATOM     72  C   UNL A   1      43.566  38.719  33.300  1.00  0.00     0.020 A 
ATOM     73  C   UNL A   1      44.643  36.591  32.835  1.00  0.00     0.020 A 
ATOM     74  C   UNL A   1      44.447  37.942  32.542  1.00  0.00     0.054 A 
BRANCH  74  75
ATOM     75  S   UNL A   1      45.363  38.737  31.196  1.00  0.00     0.124 S 
ATOM     76  O   UNL A   1      46.677  38.939  31.803  1.00  0.00    -0.237 OA
ATOM     77  O   UNL A   1      45.308  37.732  30.137  1.00  0.00    -0.237 OA
ATOM     78  O   UNL A   1      44.606  39.958  30.933  1.00  0.00    -0.744 OA
ENDBRANCH  74  75
ENDBRANCH  55  69
BRANCH  56  79
ATOM     79  C   UNL A   1      37.941  32.606  42.215  1.00  0.00    -0.014 A 
ATOM     80  C   UNL A   1      38.108  31.242  42.520  1.00  0.00     0.010 A 
ATOM     81  C   UNL A   1      37.014  33.357  42.961  1.00  0.00     0.010 A 
ATOM     82  C   UNL A   1      37.332  30.634  43.513  1.00  0.00     0.020 A 
ATOM     83  C   UNL A   1      36.262  32.762  43.979  1.00  0.00     0.020 A 
ATOM     84  C   UNL A   1      36.410  31.398  44.233  1.00  0.00     0.054 A 
BRANCH  84  85
ATOM     85  S   UNL A   1      35.410  30.584  45.511  1.00  0.00     0.124 S 
ATOM     86  O   UNL A   1      34.162  30.326  44.801  1.00  0.00    -0.237 OA
ATOM     87  O   UNL A   1      36.213  29.406  45.830  1.00  0.00    -0.237 OA
ATOM     88  O   UNL A   1      35.333  31.584  46.574  1.00  0.00    -0.744 OA
ENDBRANCH  84  85
ENDBRANCH  56  79
BRANCH  68  89
ATOM     89  C   UNL A   1      43.963  36.099  41.794  1.00  0.00    -0.014 A 
ATOM     90  C   UNL A   1      45.049  35.286  42.161  1.00  0.00     0.010 A 
ATOM     91  C   UNL A   1      43.837  37.376  42.371  1.00  0.00     0.010 A 
ATOM     92  C   UNL A   1      45.971  35.728  43.114  1.00  0.00     0.020 A 
ATOM     93  C   UNL A   1      44.774  37.836  43.297  1.00  0.00     0.020 A 
ATOM     94  C   UNL A   1      45.828  37.002  43.673  1.00  0.00     0.054 A 
BRANCH  94  95
ATOM     95  S   UNL A   1      47.064  37.569  44.872  1.00  0.00     0.124 S 
ATOM     96  O   UNL A   1      46.696  38.972  45.048  1.00  0.00    -0.237 OA
ATOM     97  O   UNL A   1      46.814  36.704  46.022  1.00  0.00    -0.237 OA
ATOM     98  O   UNL A   1      48.337  37.340  44.193  1.00  0.00    -0.744 OA
ENDBRANCH  94  95
ENDBRANCH  68  89
ENDBRANCH  42  43
ENDBRANCH  35  37
ENDBRANCH  34  35
ENDBRANCH  33  34
ENDBRANCH  32  33
ENDBRANCH  31  32
ENDBRANCH  30  31
ENDBRANCH  29  30
ENDBRANCH   1  29
TORSDOF 26
ENDMDL
MODEL 3
REMARK VINA RESULT:      -8.1      3.283      9.228
REMARK SMILES Cc1ccc(NS(=O)(=O)N2CCCC[C@@H]2C(=O)OCCOCCOCCOCCOC(=O)c2ccc(-c3c4nc(c(-c5ccc(S(=O)(=O)[O-])cc5)c5ccc([nH]5)c(-c5ccc(S(=O)(=O)[O-])cc5)c5nc(c(-c6ccc(S(=O)(=O)[O-])cc6)c6ccc3[nH]6)C=C5)C=C4)cc2)c(C)n1
REMARK SMILES IDX 24 1 23 2 22 3 21 4 20 5 19 6 18 7 16 8 17 9 15 10 10 11
REMARK SMILES IDX 11 12 12 13 14 14 13 15 7 16 8 17 9 18 6 19 5 21 1 22 2 23
REMARK SMILES IDX 3 24 95 25 4 26 93 27 94 28 25 29 26 30 27 31 28 32 29 33
REMARK SMILES IDX 30 34 31 35 32 36 33 37 34 38 92 39 35 40 91 41 36 42 37 43
REMARK SMILES IDX 38 44 85 45 39 46 90 47 84 48 86 49 40 50 89 51 83 52 82 53
REMARK SMILES IDX 41 55 71 56 52 57 70 58 53 59 56 60 69 61 87 62 54 63 55 64
REMARK SMILES IDX 68 66 88 67 57 68 42 69 43 70 51 71 44 72 50 73 45 74 46 75
REMARK SMILES IDX 47 76 48 77 49 78 72 79 73 80 81 81 74 82 80 83 75 84 76 85
REMARK SMILES IDX 77 86 78 87 79 88 58 89 59 90 67 91 60 92 66 93 61 94 62 95
REMARK SMILES IDX 63 96 64 97 65 98
REMARK H PARENT 6 20 86 54 56 65
REMARK Flexibility Score: inf
ROOT
ATOM      1  O   UNL A   1      35.485  30.074  28.805  1.00  0.00    -0.377 OA
ENDROOT
BRANCH   1   2
ATOM      2  C   UNL A   1      35.292  29.333  27.615  1.00  0.00     0.188 C 
BRANCH   2   3
ATOM      3  C   UNL A   1      34.428  30.033  26.552  1.00  0.00     0.188 C 
BRANCH   3   4
ATOM      4  O   UNL A   1      33.077  29.652  26.377  1.00  0.00    -0.376 OA
BRANCH   4   5
ATOM      5  C   UNL A   1      32.390  28.937  27.383  1.00  0.00     0.202 C 
BRANCH   5   6
ATOM      6  C   UNL A   1      31.575  27.654  27.147  1.00  0.00     0.261 C 
BRANCH   6   7
ATOM      7  O   UNL A   1      32.162  26.493  26.540  1.00  0.00    -0.462 OA
BRANCH   7   8
ATOM      8  C   UNL A   1      31.317  25.510  26.152  1.00  0.00     0.324 C 
ATOM      9  O   UNL A   1      30.110  25.536  26.367  1.00  0.00    -0.250 OA
BRANCH   8  10
ATOM     10  C   UNL A   1      32.024  24.342  25.448  1.00  0.00     0.184 C 
ATOM     11  N   UNL A   1      32.081  24.380  23.954  1.00  0.00    -0.170 NA
ATOM     12  C   UNL A   1      33.131  23.441  23.475  1.00  0.00     0.105 C 
ATOM     13  C   UNL A   1      32.647  22.015  23.708  1.00  0.00     0.017 C 
ATOM     14  C   UNL A   1      31.506  22.936  25.823  1.00  0.00     0.032 C 
ATOM     15  C   UNL A   1      32.255  21.771  25.160  1.00  0.00     0.004 C 
BRANCH  11  16
ATOM     16  S   UNL A   1      32.046  25.858  23.162  1.00  0.00     0.302 S 
ATOM     17  O   UNL A   1      31.805  25.638  21.759  1.00  0.00    -0.189 OA
ATOM     18  O   UNL A   1      33.221  26.592  23.579  1.00  0.00    -0.189 OA
BRANCH  16  19
ATOM     19  N   UNL A   1      30.735  26.649  23.783  1.00  0.00    -0.269 N 
ATOM     20  H   UNL A   1      30.548  26.480  24.735  1.00  0.00     0.181 HD
BRANCH  19  21
ATOM     21  C   UNL A   1      29.823  27.555  23.120  1.00  0.00     0.071 A 
ATOM     22  C   UNL A   1      27.864  31.281  22.570  1.00  0.00     0.067 C 
ATOM     23  C   UNL A   1      28.540  29.954  22.560  1.00  0.00     0.038 A 
ATOM     24  C   UNL A   1      29.846  29.801  22.146  1.00  0.00     0.026 A 
ATOM     25  N   UNL A   1      27.839  28.938  23.091  1.00  0.00    -0.256 NA
ATOM     26  C   UNL A   1      30.483  28.593  22.433  1.00  0.00     0.030 A 
ATOM     27  C   UNL A   1      28.456  27.748  23.335  1.00  0.00     0.062 A 
ATOM     28  C   UNL A   1      27.481  26.765  23.868  1.00  0.00     0.069 C 
ENDBRANCH  19  21
ENDBRANCH  16  19
ENDBRANCH  11  16
ENDBRANCH   8  10
ENDBRANCH   7   8
ENDBRANCH   6   7
ENDBRANCH   5   6
ENDBRANCH   4   5
ENDBRANCH   3   4
ENDBRANCH   2   3
ENDBRANCH   1   2
BRANCH   1  29
ATOM     29  C   UNL A   1      36.311  31.218  28.685  1.00  0.00     0.188 C 
BRANCH  29  30
ATOM     30  C   UNL A   1      35.557  32.536  28.445  1.00  0.00     0.188 C 
BRANCH  30  31
ATOM     31  O   UNL A   1      35.585  33.420  29.559  1.00  0.00    -0.376 OA
BRANCH  31  32
ATOM     32  C   UNL A   1      34.481  33.486  30.446  1.00  0.00     0.202 C 
BRANCH  32  33
ATOM     33  C   UNL A   1      34.616  32.933  31.878  1.00  0.00     0.261 C 
BRANCH  33  34
ATOM     34  O   UNL A   1      34.482  33.862  32.962  1.00  0.00    -0.460 OA
BRANCH  34  35
ATOM     35  C   UNL A   1      35.441  34.798  33.116  1.00  0.00     0.338 C 
ATOM     36  O   UNL A   1      35.333  35.994  32.921  1.00  0.00    -0.246 OA
BRANCH  35  37
ATOM     37  C   UNL A   1      36.602  34.151  33.764  1.00  0.00     0.060 A 
ATOM     38  C   UNL A   1      36.405  33.428  34.948  1.00  0.00     0.016 A 
ATOM     39  C   UNL A   1      37.881  34.278  33.217  1.00  0.00     0.016 A 
ATOM     40  C   UNL A   1      37.495  32.877  35.620  1.00  0.00     0.010 A 
ATOM     41  C   UNL A   1      38.975  33.748  33.905  1.00  0.00     0.010 A 
ATOM     42  C   UNL A   1      38.791  33.086  35.132  1.00  0.00    -0.014 A 
BRANCH  42  43
ATOM     43  C   UNL A   1      39.955  32.818  36.011  1.00  0.00     0.031 A 
ATOM     44  C   UNL A   1      40.357  33.879  36.992  1.00  0.00     0.074 A 
ATOM     45  C   UNL A   1      40.617  31.648  35.974  1.00  0.00     0.049 A 
ATOM     46  N   UNL A   1      41.369  33.897  37.815  1.00  0.00    -0.248 NA
ATOM     47  C   UNL A   1      39.501  35.077  37.055  1.00  0.00     0.031 C 
ATOM     48  C   UNL A   1      40.263  30.527  35.115  1.00  0.00     0.029 A 
ATOM     49  N   UNL A   1      41.714  31.203  36.664  1.00  0.00    -0.354 N 
ATOM     50  C   UNL A   1      41.276  35.104  38.494  1.00  0.00     0.074 A 
ATOM     51  C   UNL A   1      40.131  35.809  37.962  1.00  0.00     0.031 C 
ATOM     52  C   UNL A   1      41.130  29.520  35.314  1.00  0.00     0.029 A 
ATOM     53  C   UNL A   1      42.127  29.943  36.292  1.00  0.00     0.049 A 
ATOM     54  H   UNL A   1      42.164  31.734  37.360  1.00  0.00     0.167 HD
ATOM     55  C   UNL A   1      42.069  35.576  39.482  1.00  0.00     0.031 A 
ATOM     56  C   UNL A   1      43.203  29.228  36.678  1.00  0.00     0.031 A 
ATOM     57  C   UNL A   1      43.216  34.874  39.991  1.00  0.00     0.049 A 
ATOM     58  C   UNL A   1      44.138  29.832  37.695  1.00  0.00     0.074 A 
ATOM     59  C   UNL A   1      44.099  35.276  40.976  1.00  0.00     0.029 A 
ATOM     60  N   UNL A   1      43.639  33.627  39.556  1.00  0.00    -0.354 N 
ATOM     61  N   UNL A   1      44.039  30.978  38.328  1.00  0.00    -0.248 NA
ATOM     62  C   UNL A   1      45.326  29.046  38.058  1.00  0.00     0.031 C 
ATOM     63  C   UNL A   1      45.090  34.297  41.097  1.00  0.00     0.029 A 
ATOM     64  C   UNL A   1      44.783  33.252  40.239  1.00  0.00     0.049 A 
ATOM     65  H   UNL A   1      43.192  33.089  38.863  1.00  0.00     0.167 HD
ATOM     66  C   UNL A   1      45.127  31.030  39.192  1.00  0.00     0.074 A 
ATOM     67  C   UNL A   1      45.862  29.793  39.012  1.00  0.00     0.031 C 
ATOM     68  C   UNL A   1      45.489  32.010  40.056  1.00  0.00     0.031 A 
BRANCH  55  69
ATOM     69  C   UNL A   1      41.732  36.923  40.057  1.00  0.00    -0.014 A 
ATOM     70  C   UNL A   1      42.318  38.096  39.548  1.00  0.00     0.010 A 
ATOM     71  C   UNL A   1      40.780  37.023  41.088  1.00  0.00     0.010 A 
ATOM     72  C   UNL A   1      41.971  39.343  40.073  1.00  0.00     0.020 A 
ATOM     73  C   UNL A   1      40.409  38.270  41.595  1.00  0.00     0.020 A 
ATOM     74  C   UNL A   1      41.013  39.422  41.089  1.00  0.00     0.054 A 
BRANCH  74  75
ATOM     75  S   UNL A   1      40.542  41.059  41.707  1.00  0.00     0.124 S 
ATOM     76  O   UNL A   1      39.476  41.436  40.781  1.00  0.00    -0.237 OA
ATOM     77  O   UNL A   1      40.114  40.772  43.073  1.00  0.00    -0.237 OA
ATOM     78  O   UNL A   1      41.770  41.842  41.592  1.00  0.00    -0.744 OA
ENDBRANCH  74  75
ENDBRANCH  55  69
BRANCH  56  79
ATOM     79  C   UNL A   1      43.485  27.886  36.092  1.00  0.00    -0.014 A 
ATOM     80  C   UNL A   1      42.915  26.725  36.648  1.00  0.00     0.010 A 
ATOM     81  C   UNL A   1      44.375  27.752  35.010  1.00  0.00     0.010 A 
ATOM     82  C   UNL A   1      43.264  25.459  36.165  1.00  0.00     0.020 A 
ATOM     83  C   UNL A   1      44.699  26.490  34.501  1.00  0.00     0.020 A 
ATOM     84  C   UNL A   1      44.159  25.350  35.096  1.00  0.00     0.054 A 
BRANCH  84  85
ATOM     85  S   UNL A   1      44.601  23.697  34.493  1.00  0.00     0.124 S 
ATOM     86  O   UNL A   1      43.646  23.504  33.408  1.00  0.00    -0.237 OA
ATOM     87  O   UNL A   1      45.993  23.875  34.088  1.00  0.00    -0.237 OA
ATOM     88  O   UNL A   1      44.404  22.842  35.662  1.00  0.00    -0.744 OA
ENDBRANCH  84  85
ENDBRANCH  56  79
BRANCH  68  89
ATOM     89  C   UNL A   1      46.697  31.762  40.921  1.00  0.00    -0.014 A 
ATOM     90  C   UNL A   1      47.983  32.162  40.518  1.00  0.00     0.010 A 
ATOM     91  C   UNL A   1      46.527  31.168  42.185  1.00  0.00     0.010 A 
ATOM     92  C   UNL A   1      49.083  31.939  41.350  1.00  0.00     0.020 A 
ATOM     93  C   UNL A   1      47.618  30.975  43.034  1.00  0.00     0.020 A 
ATOM     94  C   UNL A   1      48.893  31.350  42.604  1.00  0.00     0.054 A 
BRANCH  94  95
ATOM     95  S   UNL A   1      50.330  31.116  43.683  1.00  0.00     0.124 S 
ATOM     96  O   UNL A   1      50.838  29.821  43.237  1.00  0.00    -0.237 OA
ATOM     97  O   UNL A   1      51.167  32.268  43.354  1.00  0.00    -0.237 OA
ATOM     98  O   UNL A   1      49.762  31.131  45.028  1.00  0.00    -0.744 OA
ENDBRANCH  94  95
ENDBRANCH  68  89
ENDBRANCH  42  43
ENDBRANCH  35  37
ENDBRANCH  34  35
ENDBRANCH  33  34
ENDBRANCH  32  33
ENDBRANCH  31  32
ENDBRANCH  30  31
ENDBRANCH  29  30
ENDBRANCH   1  29
TORSDOF 26
ENDMDL
