MODEL 1
REMARK VINA RESULT:      -9.0      0.000      0.000
REMARK SMILES COc1cc(Nc2cn[nH]c(=O)n2)c(C(=O)OCCOCCOCCOCCOC(=O)c2ccc(-c3c4nc(c(-c5ccc(S(=O)(=O)[O-])cc5)c5ccc([nH]5)c(-c5ccc(S(=O)(=O)[O-])cc5)c5nc(c(-c6ccc(S(=O)(=O)[O-])cc6)c6ccc3[nH]6)C=C5)C=C4)cc2)cc1OC
REMARK SMILES IDX 24 1 23 2 22 3 21 4 20 5 19 6 18 7 17 8 15 9 16 10 14 11
REMARK SMILES IDX 3 12 4 13 93 14 5 15 92 16 2 17 1 18 94 19 95 20 6 21 7 23
REMARK SMILES IDX 8 24 13 25 9 26 11 27 10 28 12 29 25 31 26 32 27 33 28 34
REMARK SMILES IDX 29 35 30 36 31 37 32 38 33 39 91 40 34 41 90 42 35 43 36 44
REMARK SMILES IDX 37 45 84 46 38 47 89 48 83 49 85 50 39 51 88 52 82 53 81 54
REMARK SMILES IDX 40 56 70 57 51 58 69 59 52 60 55 61 68 62 86 63 53 64 54 65
REMARK SMILES IDX 67 67 87 68 56 69 41 70 42 71 50 72 43 73 49 74 44 75 45 76
REMARK SMILES IDX 46 77 47 78 48 79 71 80 72 81 80 82 73 83 79 84 74 85 75 86
REMARK SMILES IDX 76 87 77 88 78 89 57 90 58 91 66 92 59 93 65 94 60 95 61 96
REMARK SMILES IDX 62 97 63 98 64 99
REMARK H PARENT 6 22 10 30 85 55 55 66
REMARK Flexibility Score: inf
ROOT
ATOM      1  C   UNL A   1      33.448  31.858  27.662  1.00  0.00     0.188 C 
ENDROOT
BRANCH   1   2
ATOM      2  O   UNL A   1      34.488  30.987  27.229  1.00  0.00    -0.377 OA
BRANCH   2   3
ATOM      3  C   UNL A   1      34.365  29.592  27.428  1.00  0.00     0.188 C 
BRANCH   3   4
ATOM      4  C   UNL A   1      33.454  28.815  26.462  1.00  0.00     0.188 C 
BRANCH   4   5
ATOM      5  O   UNL A   1      33.511  29.271  25.116  1.00  0.00    -0.376 OA
BRANCH   5   6
ATOM      6  C   UNL A   1      32.548  28.739  24.218  1.00  0.00     0.202 C 
BRANCH   6   7
ATOM      7  C   UNL A   1      33.123  28.035  22.985  1.00  0.00     0.261 C 
BRANCH   7   8
ATOM      8  O   UNL A   1      33.979  26.915  23.252  1.00  0.00    -0.460 OA
BRANCH   8   9
ATOM      9  C   UNL A   1      33.521  25.672  22.985  1.00  0.00     0.340 C 
ATOM     10  O   UNL A   1      33.449  25.127  21.904  1.00  0.00    -0.246 OA
BRANCH   9  11
ATOM     11  C   UNL A   1      33.284  24.971  24.272  1.00  0.00     0.087 A 
ATOM     12  C   UNL A   1      32.740  23.623  26.642  1.00  0.00     0.162 A 
ATOM     13  C   UNL A   1      33.986  23.465  26.007  1.00  0.00     0.077 A 
ATOM     14  C   UNL A   1      31.802  24.536  26.156  1.00  0.00     0.161 A 
ATOM     15  C   UNL A   1      34.279  24.122  24.803  1.00  0.00     0.058 A 
ATOM     16  C   UNL A   1      32.084  25.197  24.960  1.00  0.00     0.068 A 
BRANCH  12  17
ATOM     17  O   UNL A   1      32.512  22.875  27.766  1.00  0.00    -0.493 OA
ATOM     18  C   UNL A   1      33.187  21.616  27.663  1.00  0.00     0.278 C 
ENDBRANCH  12  17
BRANCH  14  19
ATOM     19  O   UNL A   1      30.602  24.911  26.686  1.00  0.00    -0.493 OA
ATOM     20  C   UNL A   1      29.725  25.721  25.925  1.00  0.00     0.278 C 
ENDBRANCH  14  19
BRANCH  15  21
ATOM     21  N   UNL A   1      35.565  24.053  24.209  1.00  0.00    -0.338 N 
ATOM     22  H   UNL A   1      35.677  24.480  23.329  1.00  0.00     0.168 HD
BRANCH  21  23
ATOM     23  C   UNL A   1      36.666  23.442  24.756  1.00  0.00     0.156 A 
ATOM     24  C   UNL A   1      36.972  22.033  24.300  1.00  0.00     0.180 A 
ATOM     25  N   UNL A   1      37.406  24.010  25.655  1.00  0.00    -0.173 NA
ATOM     26  N   UNL A   1      37.962  21.359  24.785  1.00  0.00    -0.176 NA
ATOM     27  C   UNL A   1      38.474  23.316  26.160  1.00  0.00     0.363 A 
ATOM     28  N   UNL A   1      38.697  22.027  25.717  1.00  0.00    -0.227 N 
ATOM     29  O   UNL A   1      39.237  23.800  26.990  1.00  0.00    -0.244 OA
ATOM     30  H   UNL A   1      39.460  21.546  26.112  1.00  0.00     0.195 HD
ENDBRANCH  21  23
ENDBRANCH  15  21
ENDBRANCH   9  11
ENDBRANCH   8   9
ENDBRANCH   7   8
ENDBRANCH   6   7
ENDBRANCH   5   6
ENDBRANCH   4   5
ENDBRANCH   3   4
ENDBRANCH   2   3
ENDBRANCH   1   2
BRANCH   1  31
ATOM     31  C   UNL A   1      33.719  33.330  28.047  1.00  0.00     0.188 C 
BRANCH  31  32
ATOM     32  O   UNL A   1      33.835  33.575  29.444  1.00  0.00    -0.376 OA
BRANCH  32  33
ATOM     33  C   UNL A   1      35.150  33.765  29.945  1.00  0.00     0.202 C 
BRANCH  33  34
ATOM     34  C   UNL A   1      35.625  32.630  30.857  1.00  0.00     0.261 C 
BRANCH  34  35
ATOM     35  O   UNL A   1      36.024  31.433  30.171  1.00  0.00    -0.460 OA
BRANCH  35  36
ATOM     36  C   UNL A   1      36.599  30.462  30.916  1.00  0.00     0.338 C 
ATOM     37  O   UNL A   1      36.055  29.731  31.723  1.00  0.00    -0.246 OA
BRANCH  36  38
ATOM     38  C   UNL A   1      37.988  30.310  30.448  1.00  0.00     0.060 A 
ATOM     39  C   UNL A   1      38.241  30.257  29.072  1.00  0.00     0.016 A 
ATOM     40  C   UNL A   1      39.034  30.230  31.371  1.00  0.00     0.016 A 
ATOM     41  C   UNL A   1      39.547  30.089  28.614  1.00  0.00     0.010 A 
ATOM     42  C   UNL A   1      40.337  30.041  30.912  1.00  0.00     0.010 A 
ATOM     43  C   UNL A   1      40.593  29.936  29.535  1.00  0.00    -0.014 A 
BRANCH  43  44
ATOM     44  C   UNL A   1      41.916  29.451  29.076  1.00  0.00     0.031 A 
ATOM     45  C   UNL A   1      43.035  30.451  28.972  1.00  0.00     0.074 A 
ATOM     46  C   UNL A   1      42.122  28.159  28.762  1.00  0.00     0.049 A 
ATOM     47  N   UNL A   1      44.255  30.286  28.538  1.00  0.00    -0.248 NA
ATOM     48  C   UNL A   1      42.733  31.823  29.422  1.00  0.00     0.031 C 
ATOM     49  C   UNL A   1      41.128  27.090  28.861  1.00  0.00     0.029 A 
ATOM     50  N   UNL A   1      43.246  27.532  28.286  1.00  0.00    -0.354 N 
ATOM     51  C   UNL A   1      44.871  31.525  28.671  1.00  0.00     0.074 A 
ATOM     52  C   UNL A   1      43.881  32.442  29.189  1.00  0.00     0.031 C 
ATOM     53  C   UNL A   1      41.686  25.940  28.441  1.00  0.00     0.029 A 
ATOM     54  C   UNL A   1      43.060  26.197  28.016  1.00  0.00     0.049 A 
ATOM     55  H   UNL A   1      44.104  27.995  28.150  1.00  0.00     0.167 HD
ATOM     56  C   UNL A   1      46.151  31.868  28.397  1.00  0.00     0.031 A 
ATOM     57  C   UNL A   1      43.900  25.296  27.467  1.00  0.00     0.031 A 
ATOM     58  C   UNL A   1      47.127  30.965  27.852  1.00  0.00     0.049 A 
ATOM     59  C   UNL A   1      45.293  25.729  27.077  1.00  0.00     0.074 A 
ATOM     60  C   UNL A   1      48.442  31.223  27.512  1.00  0.00     0.029 A 
ATOM     61  N   UNL A   1      46.892  29.629  27.568  1.00  0.00    -0.354 N 
ATOM     62  N   UNL A   1      45.863  26.903  27.216  1.00  0.00    -0.248 NA
ATOM     63  C   UNL A   1      46.158  24.711  26.463  1.00  0.00     0.031 C 
ATOM     64  C   UNL A   1      48.992  30.053  26.981  1.00  0.00     0.029 A 
ATOM     65  C   UNL A   1      48.036  29.052  27.044  1.00  0.00     0.049 A 
ATOM     66  H   UNL A   1      46.039  29.161  27.715  1.00  0.00     0.167 HD
ATOM     67  C   UNL A   1      47.162  26.752  26.739  1.00  0.00     0.074 A 
ATOM     68  C   UNL A   1      47.298  25.373  26.321  1.00  0.00     0.031 C 
ATOM     69  C   UNL A   1      48.156  27.672  26.651  1.00  0.00     0.031 A 
BRANCH  56  70
ATOM     70  C   UNL A   1      46.562  33.287  28.675  1.00  0.00    -0.014 A 
ATOM     71  C   UNL A   1      47.113  33.643  29.919  1.00  0.00     0.010 A 
ATOM     72  C   UNL A   1      46.443  34.264  27.671  1.00  0.00     0.010 A 
ATOM     73  C   UNL A   1      47.520  34.957  30.162  1.00  0.00     0.020 A 
ATOM     74  C   UNL A   1      46.870  35.575  27.902  1.00  0.00     0.020 A 
ATOM     75  C   UNL A   1      47.396  35.914  29.150  1.00  0.00     0.054 A 
BRANCH  75  76
ATOM     76  S   UNL A   1      47.974  37.602  29.479  1.00  0.00     0.124 S 
ATOM     77  O   UNL A   1      47.421  37.856  30.807  1.00  0.00    -0.237 OA
ATOM     78  O   UNL A   1      49.426  37.460  29.421  1.00  0.00    -0.237 OA
ATOM     79  O   UNL A   1      47.384  38.388  28.398  1.00  0.00    -0.744 OA
ENDBRANCH  75  76
ENDBRANCH  56  70
BRANCH  57  80
ATOM     80  C   UNL A   1      43.449  23.900  27.207  1.00  0.00    -0.014 A 
ATOM     81  C   UNL A   1      43.026  23.505  25.926  1.00  0.00     0.010 A 
ATOM     82  C   UNL A   1      43.386  22.970  28.262  1.00  0.00     0.010 A 
ATOM     83  C   UNL A   1      42.509  22.222  25.714  1.00  0.00     0.020 A 
ATOM     84  C   UNL A   1      42.898  21.679  28.048  1.00  0.00     0.020 A 
ATOM     85  C   UNL A   1      42.443  21.320  26.778  1.00  0.00     0.054 A 
BRANCH  85  86
ATOM     86  S   UNL A   1      41.773  19.659  26.483  1.00  0.00     0.124 S 
ATOM     87  O   UNL A   1      42.332  18.904  27.600  1.00  0.00    -0.237 OA
ATOM     88  O   UNL A   1      40.331  19.885  26.530  1.00  0.00    -0.237 OA
ATOM     89  O   UNL A   1      42.297  19.309  25.164  1.00  0.00    -0.744 OA
ENDBRANCH  85  86
ENDBRANCH  57  80
BRANCH  69  90
ATOM     90  C   UNL A   1      49.492  27.210  26.135  1.00  0.00    -0.014 A 
ATOM     91  C   UNL A   1      49.791  27.223  24.761  1.00  0.00     0.010 A 
ATOM     92  C   UNL A   1      50.486  26.816  27.049  1.00  0.00     0.010 A 
ATOM     93  C   UNL A   1      51.050  26.820  24.309  1.00  0.00     0.020 A 
ATOM     94  C   UNL A   1      51.755  26.439  26.604  1.00  0.00     0.020 A 
ATOM     95  C   UNL A   1      52.024  26.430  25.234  1.00  0.00     0.054 A 
BRANCH  95  96
ATOM     96  S   UNL A   1      53.666  25.954  24.625  1.00  0.00     0.124 S 
ATOM     97  O   UNL A   1      54.423  27.192  24.794  1.00  0.00    -0.237 OA
ATOM     98  O   UNL A   1      54.038  24.862  25.523  1.00  0.00    -0.237 OA
ATOM     99  O   UNL A   1      53.421  25.558  23.241  1.00  0.00    -0.744 OA
ENDBRANCH  95  96
ENDBRANCH  69  90
ENDBRANCH  43  44
ENDBRANCH  36  38
ENDBRANCH  35  36
ENDBRANCH  34  35
ENDBRANCH  33  34
ENDBRANCH  32  33
ENDBRANCH  31  32
ENDBRANCH   1  31
TORSDOF 27
ENDMDL
MODEL 2
REMARK VINA RESULT:      -8.3      2.147      3.609
REMARK SMILES COc1cc(Nc2cn[nH]c(=O)n2)c(C(=O)OCCOCCOCCOCCOC(=O)c2ccc(-c3c4nc(c(-c5ccc(S(=O)(=O)[O-])cc5)c5ccc([nH]5)c(-c5ccc(S(=O)(=O)[O-])cc5)c5nc(c(-c6ccc(S(=O)(=O)[O-])cc6)c6ccc3[nH]6)C=C5)C=C4)cc2)cc1OC
REMARK SMILES IDX 24 1 23 2 22 3 21 4 20 5 19 6 18 7 17 8 15 9 16 10 14 11
REMARK SMILES IDX 3 12 4 13 93 14 5 15 92 16 2 17 1 18 94 19 95 20 6 21 7 23
REMARK SMILES IDX 8 24 13 25 9 26 11 27 10 28 12 29 25 31 26 32 27 33 28 34
REMARK SMILES IDX 29 35 30 36 31 37 32 38 33 39 91 40 34 41 90 42 35 43 36 44
REMARK SMILES IDX 37 45 84 46 38 47 89 48 83 49 85 50 39 51 88 52 82 53 81 54
REMARK SMILES IDX 40 56 70 57 51 58 69 59 52 60 55 61 68 62 86 63 53 64 54 65
REMARK SMILES IDX 67 67 87 68 56 69 41 70 42 71 50 72 43 73 49 74 44 75 45 76
REMARK SMILES IDX 46 77 47 78 48 79 71 80 72 81 80 82 73 83 79 84 74 85 75 86
REMARK SMILES IDX 76 87 77 88 78 89 57 90 58 91 66 92 59 93 65 94 60 95 61 96
REMARK SMILES IDX 62 97 63 98 64 99
REMARK H PARENT 6 22 10 30 85 55 55 66
REMARK Flexibility Score: inf
ROOT
ATOM      1  C   UNL A   1      34.677  33.535  27.719  1.00  0.00     0.188 C 
ENDROOT
BRANCH   1   2
ATOM      2  O   UNL A   1      34.965  32.173  27.424  1.00  0.00    -0.377 OA
BRANCH   2   3
ATOM      3  C   UNL A   1      33.963  31.189  27.598  1.00  0.00     0.188 C 
BRANCH   3   4
ATOM      4  C   UNL A   1      34.420  29.769  27.974  1.00  0.00     0.188 C 
BRANCH   4   5
ATOM      5  O   UNL A   1      34.796  28.967  26.862  1.00  0.00    -0.376 OA
BRANCH   5   6
ATOM      6  C   UNL A   1      34.016  29.100  25.682  1.00  0.00     0.202 C 
BRANCH   6   7
ATOM      7  C   UNL A   1      34.520  28.308  24.472  1.00  0.00     0.261 C 
BRANCH   7   8
ATOM      8  O   UNL A   1      33.573  28.131  23.408  1.00  0.00    -0.460 OA
BRANCH   8   9
ATOM      9  C   UNL A   1      33.335  26.880  22.955  1.00  0.00     0.340 C 
ATOM     10  O   UNL A   1      33.706  26.389  21.910  1.00  0.00    -0.246 OA
BRANCH   9  11
ATOM     11  C   UNL A   1      32.690  26.100  24.041  1.00  0.00     0.087 A 
ATOM     12  C   UNL A   1      31.555  24.688  26.150  1.00  0.00     0.162 A 
ATOM     13  C   UNL A   1      30.735  25.366  25.228  1.00  0.00     0.077 A 
ATOM     14  C   UNL A   1      32.937  24.622  25.963  1.00  0.00     0.161 A 
ATOM     15  C   UNL A   1      31.284  26.097  24.166  1.00  0.00     0.058 A 
ATOM     16  C   UNL A   1      33.493  25.345  24.907  1.00  0.00     0.068 A 
BRANCH  12  17
ATOM     17  O   UNL A   1      30.933  24.074  27.204  1.00  0.00    -0.493 OA
ATOM     18  C   UNL A   1      30.252  22.897  26.754  1.00  0.00     0.278 C 
ENDBRANCH  12  17
BRANCH  14  19
ATOM     19  O   UNL A   1      33.875  23.931  26.671  1.00  0.00    -0.493 OA
ATOM     20  C   UNL A   1      34.108  22.566  26.375  1.00  0.00     0.278 C 
ENDBRANCH  14  19
BRANCH  15  21
ATOM     21  N   UNL A   1      30.469  26.697  23.172  1.00  0.00    -0.338 N 
ATOM     22  H   UNL A   1      30.053  26.099  22.510  1.00  0.00     0.168 HD
BRANCH  21  23
ATOM     23  C   UNL A   1      30.210  28.041  23.056  1.00  0.00     0.156 A 
ATOM     24  C   UNL A   1      30.518  28.909  24.255  1.00  0.00     0.180 A 
ATOM     25  N   UNL A   1      29.689  28.563  21.991  1.00  0.00    -0.173 NA
ATOM     26  N   UNL A   1      30.273  30.177  24.260  1.00  0.00    -0.176 NA
ATOM     27  C   UNL A   1      29.447  29.912  21.973  1.00  0.00     0.363 A 
ATOM     28  N   UNL A   1      29.735  30.652  23.102  1.00  0.00    -0.227 N 
ATOM     29  O   UNL A   1      28.984  30.482  20.989  1.00  0.00    -0.244 OA
ATOM     30  H   UNL A   1      29.532  31.616  23.067  1.00  0.00     0.195 HD
ENDBRANCH  21  23
ENDBRANCH  15  21
ENDBRANCH   9  11
ENDBRANCH   8   9
ENDBRANCH   7   8
ENDBRANCH   6   7
ENDBRANCH   5   6
ENDBRANCH   4   5
ENDBRANCH   3   4
ENDBRANCH   2   3
ENDBRANCH   1   2
BRANCH   1  31
ATOM     31  C   UNL A   1      34.998  34.162  29.094  1.00  0.00     0.188 C 
BRANCH  31  32
ATOM     32  O   UNL A   1      34.060  33.869  30.124  1.00  0.00    -0.376 OA
BRANCH  32  33
ATOM     33  C   UNL A   1      34.548  33.925  31.457  1.00  0.00     0.202 C 
BRANCH  33  34
ATOM     34  C   UNL A   1      34.620  32.556  32.138  1.00  0.00     0.261 C 
BRANCH  34  35
ATOM     35  O   UNL A   1      35.703  31.721  31.701  1.00  0.00    -0.460 OA
BRANCH  35  36
ATOM     36  C   UNL A   1      36.785  31.648  32.508  1.00  0.00     0.338 C 
ATOM     37  O   UNL A   1      36.845  31.925  33.691  1.00  0.00    -0.246 OA
BRANCH  36  38
ATOM     38  C   UNL A   1      37.862  30.990  31.746  1.00  0.00     0.060 A 
ATOM     39  C   UNL A   1      38.777  30.176  32.425  1.00  0.00     0.016 A 
ATOM     40  C   UNL A   1      37.955  31.172  30.364  1.00  0.00     0.016 A 
ATOM     41  C   UNL A   1      39.816  29.567  31.721  1.00  0.00     0.010 A 
ATOM     42  C   UNL A   1      39.006  30.579  29.666  1.00  0.00     0.010 A 
ATOM     43  C   UNL A   1      39.958  29.802  30.347  1.00  0.00    -0.014 A 
BRANCH  43  44
ATOM     44  C   UNL A   1      41.214  29.423  29.659  1.00  0.00     0.031 A 
ATOM     45  C   UNL A   1      42.243  30.498  29.431  1.00  0.00     0.074 A 
ATOM     46  C   UNL A   1      41.441  28.162  29.251  1.00  0.00     0.049 A 
ATOM     47  N   UNL A   1      43.384  30.430  28.800  1.00  0.00    -0.248 NA
ATOM     48  C   UNL A   1      41.940  31.827  29.993  1.00  0.00     0.031 C 
ATOM     49  C   UNL A   1      40.539  27.028  29.451  1.00  0.00     0.029 A 
ATOM     50  N   UNL A   1      42.507  27.630  28.570  1.00  0.00    -0.354 N 
ATOM     51  C   UNL A   1      43.942  31.700  28.896  1.00  0.00     0.074 A 
ATOM     52  C   UNL A   1      42.998  32.528  29.612  1.00  0.00     0.031 C 
ATOM     53  C   UNL A   1      41.086  25.935  28.888  1.00  0.00     0.029 A 
ATOM     54  C   UNL A   1      42.357  26.298  28.264  1.00  0.00     0.049 A 
ATOM     55  H   UNL A   1      43.304  28.153  28.323  1.00  0.00     0.167 HD
ATOM     56  C   UNL A   1      45.138  32.136  28.441  1.00  0.00     0.031 A 
ATOM     57  C   UNL A   1      43.146  25.477  27.543  1.00  0.00     0.031 A 
ATOM     58  C   UNL A   1      46.063  31.322  27.701  1.00  0.00     0.049 A 
ATOM     59  C   UNL A   1      44.431  26.015  26.959  1.00  0.00     0.074 A 
ATOM     60  C   UNL A   1      47.289  31.679  27.169  1.00  0.00     0.029 A 
ATOM     61  N   UNL A   1      45.862  29.986  27.389  1.00  0.00    -0.354 N 
ATOM     62  N   UNL A   1      44.948  27.216  27.065  1.00  0.00    -0.248 NA
ATOM     63  C   UNL A   1      45.242  25.082  26.164  1.00  0.00     0.031 C 
ATOM     64  C   UNL A   1      47.812  30.570  26.498  1.00  0.00     0.029 A 
ATOM     65  C   UNL A   1      46.937  29.507  26.662  1.00  0.00     0.049 A 
ATOM     66  H   UNL A   1      45.072  29.458  27.647  1.00  0.00     0.167 HD
ATOM     67  C   UNL A   1      46.158  27.171  26.380  1.00  0.00     0.074 A 
ATOM     68  C   UNL A   1      46.304  25.822  25.876  1.00  0.00     0.031 C 
ATOM     69  C   UNL A   1      47.071  28.156  26.183  1.00  0.00     0.031 A 
BRANCH  56  70
ATOM     70  C   UNL A   1      45.507  33.566  28.722  1.00  0.00    -0.014 A 
ATOM     71  C   UNL A   1      45.154  34.588  27.823  1.00  0.00     0.010 A 
ATOM     72  C   UNL A   1      46.171  33.900  29.915  1.00  0.00     0.010 A 
ATOM     73  C   UNL A   1      45.475  35.918  28.103  1.00  0.00     0.020 A 
ATOM     74  C   UNL A   1      46.475  35.233  30.210  1.00  0.00     0.020 A 
ATOM     75  C   UNL A   1      46.133  36.231  29.296  1.00  0.00     0.054 A 
BRANCH  75  76
ATOM     76  S   UNL A   1      46.497  37.972  29.654  1.00  0.00     0.124 S 
ATOM     77  O   UNL A   1      45.352  38.356  30.475  1.00  0.00    -0.237 OA
ATOM     78  O   UNL A   1      47.775  37.894  30.357  1.00  0.00    -0.237 OA
ATOM     79  O   UNL A   1      46.553  38.593  28.333  1.00  0.00    -0.744 OA
ENDBRANCH  75  76
ENDBRANCH  56  70
BRANCH  57  80
ATOM     80  C   UNL A   1      42.740  24.066  27.287  1.00  0.00    -0.014 A 
ATOM     81  C   UNL A   1      42.992  23.060  28.235  1.00  0.00     0.010 A 
ATOM     82  C   UNL A   1      42.147  23.713  26.060  1.00  0.00     0.010 A 
ATOM     83  C   UNL A   1      42.700  21.722  27.945  1.00  0.00     0.020 A 
ATOM     84  C   UNL A   1      41.826  22.383  25.779  1.00  0.00     0.020 A 
ATOM     85  C   UNL A   1      42.124  21.393  26.716  1.00  0.00     0.054 A 
BRANCH  85  86
ATOM     86  S   UNL A   1      41.748  19.654  26.359  1.00  0.00     0.124 S 
ATOM     87  O   UNL A   1      42.154  18.996  27.596  1.00  0.00    -0.237 OA
ATOM     88  O   UNL A   1      40.310  19.687  26.100  1.00  0.00    -0.237 OA
ATOM     89  O   UNL A   1      42.575  19.359  25.190  1.00  0.00    -0.744 OA
ENDBRANCH  85  86
ENDBRANCH  57  80
BRANCH  69  90
ATOM     90  C   UNL A   1      48.330  27.803  25.438  1.00  0.00    -0.014 A 
ATOM     91  C   UNL A   1      48.413  27.929  24.040  1.00  0.00     0.010 A 
ATOM     92  C   UNL A   1      49.469  27.400  26.159  1.00  0.00     0.010 A 
ATOM     93  C   UNL A   1      49.604  27.626  23.374  1.00  0.00     0.020 A 
ATOM     94  C   UNL A   1      50.669  27.123  25.500  1.00  0.00     0.020 A 
ATOM     95  C   UNL A   1      50.724  27.225  24.109  1.00  0.00     0.054 A 
BRANCH  95  96
ATOM     96  S   UNL A   1      52.271  26.881  23.225  1.00  0.00     0.124 S 
ATOM     97  O   UNL A   1      52.922  25.922  24.113  1.00  0.00    -0.237 OA
ATOM     98  O   UNL A   1      51.801  26.340  21.952  1.00  0.00    -0.237 OA
ATOM     99  O   UNL A   1      52.917  28.189  23.138  1.00  0.00    -0.744 OA
ENDBRANCH  95  96
ENDBRANCH  69  90
ENDBRANCH  43  44
ENDBRANCH  36  38
ENDBRANCH  35  36
ENDBRANCH  34  35
ENDBRANCH  33  34
ENDBRANCH  32  33
ENDBRANCH  31  32
ENDBRANCH   1  31
TORSDOF 27
ENDMDL
MODEL 3
REMARK VINA RESULT:      -8.0      3.709      5.511
REMARK SMILES COc1cc(Nc2cn[nH]c(=O)n2)c(C(=O)OCCOCCOCCOCCOC(=O)c2ccc(-c3c4nc(c(-c5ccc(S(=O)(=O)[O-])cc5)c5ccc([nH]5)c(-c5ccc(S(=O)(=O)[O-])cc5)c5nc(c(-c6ccc(S(=O)(=O)[O-])cc6)c6ccc3[nH]6)C=C5)C=C4)cc2)cc1OC
REMARK SMILES IDX 24 1 23 2 22 3 21 4 20 5 19 6 18 7 17 8 15 9 16 10 14 11
REMARK SMILES IDX 3 12 4 13 93 14 5 15 92 16 2 17 1 18 94 19 95 20 6 21 7 23
REMARK SMILES IDX 8 24 13 25 9 26 11 27 10 28 12 29 25 31 26 32 27 33 28 34
REMARK SMILES IDX 29 35 30 36 31 37 32 38 33 39 91 40 34 41 90 42 35 43 36 44
REMARK SMILES IDX 37 45 84 46 38 47 89 48 83 49 85 50 39 51 88 52 82 53 81 54
REMARK SMILES IDX 40 56 70 57 51 58 69 59 52 60 55 61 68 62 86 63 53 64 54 65
REMARK SMILES IDX 67 67 87 68 56 69 41 70 42 71 50 72 43 73 49 74 44 75 45 76
REMARK SMILES IDX 46 77 47 78 48 79 71 80 72 81 80 82 73 83 79 84 74 85 75 86
REMARK SMILES IDX 76 87 77 88 78 89 57 90 58 91 66 92 59 93 65 94 60 95 61 96
REMARK SMILES IDX 62 97 63 98 64 99
REMARK H PARENT 6 22 10 30 85 55 55 66
REMARK Flexibility Score: inf
ROOT
ATOM      1  C   UNL A   1      34.905  33.795  28.007  1.00  0.00     0.188 C 
ENDROOT
BRANCH   1   2
ATOM      2  O   UNL A   1      34.990  32.429  27.617  1.00  0.00    -0.377 OA
BRANCH   2   3
ATOM      3  C   UNL A   1      33.826  31.625  27.612  1.00  0.00     0.188 C 
BRANCH   3   4
ATOM      4  C   UNL A   1      34.000  30.124  27.325  1.00  0.00     0.188 C 
BRANCH   4   5
ATOM      5  O   UNL A   1      34.399  29.830  25.992  1.00  0.00    -0.376 OA
BRANCH   5   6
ATOM      6  C   UNL A   1      33.684  28.802  25.321  1.00  0.00     0.202 C 
BRANCH   6   7
ATOM      7  C   UNL A   1      34.271  28.369  23.974  1.00  0.00     0.261 C 
BRANCH   7   8
ATOM      8  O   UNL A   1      33.332  27.834  23.031  1.00  0.00    -0.460 OA
BRANCH   8   9
ATOM      9  C   UNL A   1      33.348  26.506  22.783  1.00  0.00     0.340 C 
ATOM     10  O   UNL A   1      33.926  25.927  21.888  1.00  0.00    -0.246 OA
BRANCH   9  11
ATOM     11  C   UNL A   1      32.686  25.808  23.914  1.00  0.00     0.087 A 
ATOM     12  C   UNL A   1      31.525  24.545  26.102  1.00  0.00     0.162 A 
ATOM     13  C   UNL A   1      30.727  25.270  25.197  1.00  0.00     0.077 A 
ATOM     14  C   UNL A   1      32.888  24.357  25.861  1.00  0.00     0.161 A 
ATOM     15  C   UNL A   1      31.291  25.928  24.095  1.00  0.00     0.058 A 
ATOM     16  C   UNL A   1      33.458  25.006  24.766  1.00  0.00     0.068 A 
BRANCH  12  17
ATOM     17  O   UNL A   1      30.899  24.009  27.195  1.00  0.00    -0.493 OA
ATOM     18  C   UNL A   1      30.176  22.831  26.819  1.00  0.00     0.278 C 
ENDBRANCH  12  17
BRANCH  14  19
ATOM     19  O   UNL A   1      33.793  23.603  26.548  1.00  0.00    -0.493 OA
ATOM     20  C   UNL A   1      33.755  22.192  26.437  1.00  0.00     0.278 C 
ENDBRANCH  14  19
BRANCH  15  21
ATOM     21  N   UNL A   1      30.488  26.574  23.120  1.00  0.00    -0.338 N 
ATOM     22  H   UNL A   1      30.062  26.005  22.439  1.00  0.00     0.168 HD
BRANCH  21  23
ATOM     23  C   UNL A   1      30.254  27.925  23.046  1.00  0.00     0.156 A 
ATOM     24  C   UNL A   1      30.491  28.736  24.300  1.00  0.00     0.180 A 
ATOM     25  N   UNL A   1      29.813  28.501  21.973  1.00  0.00    -0.173 NA
ATOM     26  N   UNL A   1      30.262  30.007  24.344  1.00  0.00    -0.176 NA
ATOM     27  C   UNL A   1      29.590  29.853  21.998  1.00  0.00     0.363 A 
ATOM     28  N   UNL A   1      29.809  30.540  23.175  1.00  0.00    -0.227 N 
ATOM     29  O   UNL A   1      29.202  30.472  21.011  1.00  0.00    -0.244 OA
ATOM     30  H   UNL A   1      29.621  31.506  23.169  1.00  0.00     0.195 HD
ENDBRANCH  21  23
ENDBRANCH  15  21
ENDBRANCH   9  11
ENDBRANCH   8   9
ENDBRANCH   7   8
ENDBRANCH   6   7
ENDBRANCH   5   6
ENDBRANCH   4   5
ENDBRANCH   3   4
ENDBRANCH   2   3
ENDBRANCH   1   2
BRANCH   1  31
ATOM     31  C   UNL A   1      35.071  34.239  29.477  1.00  0.00     0.188 C 
BRANCH  31  32
ATOM     32  O   UNL A   1      34.002  33.871  30.343  1.00  0.00    -0.376 OA
BRANCH  32  33
ATOM     33  C   UNL A   1      34.136  34.247  31.705  1.00  0.00     0.202 C 
BRANCH  33  34
ATOM     34  C   UNL A   1      34.310  33.056  32.652  1.00  0.00     0.261 C 
BRANCH  34  35
ATOM     35  O   UNL A   1      35.443  32.221  32.369  1.00  0.00    -0.460 OA
BRANCH  35  36
ATOM     36  C   UNL A   1      36.452  32.230  33.270  1.00  0.00     0.338 C 
ATOM     37  O   UNL A   1      36.359  32.206  34.483  1.00  0.00    -0.246 OA
BRANCH  36  38
ATOM     38  C   UNL A   1      37.714  32.086  32.522  1.00  0.00     0.060 A 
ATOM     39  C   UNL A   1      38.843  31.587  33.183  1.00  0.00     0.016 A 
ATOM     40  C   UNL A   1      37.772  32.433  31.171  1.00  0.00     0.016 A 
ATOM     41  C   UNL A   1      40.051  31.469  32.496  1.00  0.00     0.010 A 
ATOM     42  C   UNL A   1      38.985  32.334  30.491  1.00  0.00     0.010 A 
ATOM     43  C   UNL A   1      40.136  31.883  31.160  1.00  0.00    -0.014 A 
BRANCH  43  44
ATOM     44  C   UNL A   1      41.462  32.054  30.522  1.00  0.00     0.031 A 
ATOM     45  C   UNL A   1      42.122  33.403  30.625  1.00  0.00     0.074 A 
ATOM     46  C   UNL A   1      42.067  31.044  29.873  1.00  0.00     0.049 A 
ATOM     47  N   UNL A   1      43.244  33.816  30.100  1.00  0.00    -0.248 NA
ATOM     48  C   UNL A   1      41.421  34.418  31.431  1.00  0.00     0.031 C 
ATOM     49  C   UNL A   1      41.545  29.684  29.741  1.00  0.00     0.029 A 
ATOM     50  N   UNL A   1      43.258  31.016  29.192  1.00  0.00    -0.354 N 
ATOM     51  C   UNL A   1      43.390  35.134  30.518  1.00  0.00     0.074 A 
ATOM     52  C   UNL A   1      42.226  35.464  31.308  1.00  0.00     0.031 C 
ATOM     53  C   UNL A   1      42.408  28.957  29.007  1.00  0.00     0.029 A 
ATOM     54  C   UNL A   1      43.523  29.807  28.593  1.00  0.00     0.049 A 
ATOM     55  H   UNL A   1      43.865  31.790  29.136  1.00  0.00     0.167 HD
ATOM     56  C   UNL A   1      44.409  35.991  30.277  1.00  0.00     0.031 A 
ATOM     57  C   UNL A   1      44.539  29.441  27.786  1.00  0.00     0.031 A 
ATOM     58  C   UNL A   1      45.552  35.674  29.465  1.00  0.00     0.049 A 
ATOM     59  C   UNL A   1      45.613  30.448  27.450  1.00  0.00     0.074 A 
ATOM     60  C   UNL A   1      46.624  36.484  29.136  1.00  0.00     0.029 A 
ATOM     61  N   UNL A   1      45.770  34.449  28.855  1.00  0.00    -0.354 N 
ATOM     62  N   UNL A   1      45.741  31.688  27.860  1.00  0.00    -0.248 NA
ATOM     63  C   UNL A   1      46.684  30.001  26.548  1.00  0.00     0.031 C 
ATOM     64  C   UNL A   1      47.471  35.761  28.291  1.00  0.00     0.029 A 
ATOM     65  C   UNL A   1      46.954  34.484  28.141  1.00  0.00     0.049 A 
ATOM     66  H   UNL A   1      45.171  33.670  28.920  1.00  0.00     0.167 HD
ATOM     67  C   UNL A   1      46.923  32.155  27.293  1.00  0.00     0.074 A 
ATOM     68  C   UNL A   1      47.480  31.062  26.524  1.00  0.00     0.031 C 
ATOM     69  C   UNL A   1      47.500  33.379  27.396  1.00  0.00     0.031 A 
BRANCH  56  70
ATOM     70  C   UNL A   1      44.323  37.359  30.893  1.00  0.00    -0.014 A 
ATOM     71  C   UNL A   1      43.818  38.446  30.157  1.00  0.00     0.010 A 
ATOM     72  C   UNL A   1      44.705  37.554  32.232  1.00  0.00     0.010 A 
ATOM     73  C   UNL A   1      43.716  39.710  30.743  1.00  0.00     0.020 A 
ATOM     74  C   UNL A   1      44.583  38.812  32.829  1.00  0.00     0.020 A 
ATOM     75  C   UNL A   1      44.098  39.884  32.077  1.00  0.00     0.054 A 
BRANCH  75  76
ATOM     76  S   UNL A   1      43.911  41.526  32.825  1.00  0.00     0.124 S 
ATOM     77  O   UNL A   1      42.602  41.417  33.464  1.00  0.00    -0.237 OA
ATOM     78  O   UNL A   1      45.050  41.594  33.735  1.00  0.00    -0.237 OA
ATOM     79  O   UNL A   1      43.972  42.436  31.684  1.00  0.00    -0.744 OA
ENDBRANCH  75  76
ENDBRANCH  56  70
BRANCH  57  80
ATOM     80  C   UNL A   1      44.582  28.074  27.195  1.00  0.00    -0.014 A 
ATOM     81  C   UNL A   1      45.274  27.032  27.838  1.00  0.00     0.010 A 
ATOM     82  C   UNL A   1      43.976  27.822  25.950  1.00  0.00     0.010 A 
ATOM     83  C   UNL A   1      45.396  25.779  27.229  1.00  0.00     0.020 A 
ATOM     84  C   UNL A   1      44.070  26.563  25.352  1.00  0.00     0.020 A 
ATOM     85  C   UNL A   1      44.798  25.555  25.986  1.00  0.00     0.054 A 
BRANCH  85  86
ATOM     86  S   UNL A   1      44.963  23.922  25.212  1.00  0.00     0.124 S 
ATOM     87  O   UNL A   1      45.211  23.063  26.365  1.00  0.00    -0.237 OA
ATOM     88  O   UNL A   1      43.669  23.748  24.558  1.00  0.00    -0.237 OA
ATOM     89  O   UNL A   1      46.094  24.090  24.300  1.00  0.00    -0.744 OA
ENDBRANCH  85  86
ENDBRANCH  57  80
BRANCH  69  90
ATOM     90  C   UNL A   1      48.822  33.589  26.709  1.00  0.00    -0.014 A 
ATOM     91  C   UNL A   1      48.948  34.464  25.615  1.00  0.00     0.010 A 
ATOM     92  C   UNL A   1      49.970  32.947  27.209  1.00  0.00     0.010 A 
ATOM     93  C   UNL A   1      50.194  34.667  25.014  1.00  0.00     0.020 A 
ATOM     94  C   UNL A   1      51.221  33.168  26.629  1.00  0.00     0.020 A 
ATOM     95  C   UNL A   1      51.322  34.017  25.525  1.00  0.00     0.054 A 
BRANCH  95  96
ATOM     96  S   UNL A   1      52.935  34.333  24.756  1.00  0.00     0.124 S 
ATOM     97  O   UNL A   1      52.636  34.153  23.338  1.00  0.00    -0.237 OA
ATOM     98  O   UNL A   1      53.224  35.705  25.169  1.00  0.00    -0.237 OA
ATOM     99  O   UNL A   1      53.804  33.316  25.344  1.00  0.00    -0.744 OA
ENDBRANCH  95  96
ENDBRANCH  69  90
ENDBRANCH  43  44
ENDBRANCH  36  38
ENDBRANCH  35  36
ENDBRANCH  34  35
ENDBRANCH  33  34
ENDBRANCH  32  33
ENDBRANCH  31  32
ENDBRANCH   1  31
TORSDOF 27
ENDMDL
