MODEL 1
REMARK VINA RESULT:      -9.2      0.000      0.000
REMARK SMILES Cc1csc(CNC(=O)NC[C@H]2CC[C@@H](C(=O)OCCOCCOCCOCCOC(=O)c3ccc(-c4c5nc(c(-c6ccc(S(=O)(=O)[O-])cc6)c6ccc([nH]6)c(-c6ccc(S(=O)(=O)[O-])cc6)c6nc(c(-c7ccc(S(=O)(=O)[O-])cc7)c7ccc4[nH]7)C=C6)C=C5)cc3)CC2)n1
REMARK SMILES IDX 23 1 22 2 21 3 20 4 19 5 18 6 16 7 17 8 15 9 12 10 13 11
REMARK SMILES IDX 94 12 14 13 93 14 11 15 10 16 7 17 8 18 9 20 6 22 5 23 1 24
REMARK SMILES IDX 2 25 3 26 95 27 4 28 24 29 25 30 26 31 27 32 28 33 29 34
REMARK SMILES IDX 30 35 31 36 32 37 33 38 34 39 92 40 35 41 91 42 36 43 37 44
REMARK SMILES IDX 38 45 85 46 39 47 90 48 84 49 86 50 40 51 89 52 83 53 82 54
REMARK SMILES IDX 41 56 71 57 52 58 70 59 53 60 56 61 69 62 87 63 54 64 55 65
REMARK SMILES IDX 68 67 88 68 57 69 42 70 43 71 51 72 44 73 50 74 45 75 46 76
REMARK SMILES IDX 47 77 48 78 49 79 72 80 73 81 81 82 74 83 80 84 75 85 76 86
REMARK SMILES IDX 77 87 78 88 79 89 58 90 59 91 67 92 60 93 66 94 61 95 62 96
REMARK SMILES IDX 63 97 64 98 65 99
REMARK H PARENT 7 19 10 21 86 55 56 66
REMARK Flexibility Score: inf
ROOT
ATOM      1  C   UNL A   1      39.889  21.813  26.863  1.00  0.00     0.188 C 
ENDROOT
BRANCH   1   2
ATOM      2  C   UNL A   1      39.166  22.637  25.789  1.00  0.00     0.188 C 
BRANCH   2   3
ATOM      3  O   UNL A   1      38.131  23.449  26.290  1.00  0.00    -0.376 OA
BRANCH   3   4
ATOM      4  C   UNL A   1      36.789  23.012  26.220  1.00  0.00     0.202 C 
BRANCH   4   5
ATOM      5  C   UNL A   1      36.321  21.735  25.494  1.00  0.00     0.261 C 
BRANCH   5   6
ATOM      6  O   UNL A   1      35.027  21.705  24.879  1.00  0.00    -0.463 OA
BRANCH   6   7
ATOM      7  C   UNL A   1      33.973  22.098  25.629  1.00  0.00     0.309 C 
ATOM      8  O   UNL A   1      34.058  22.911  26.545  1.00  0.00    -0.252 OA
BRANCH   7   9
ATOM      9  C   UNL A   1      32.666  21.361  25.314  1.00  0.00     0.099 C 
ATOM     10  C   UNL A   1      31.015  23.234  23.658  1.00  0.00     0.008 C 
ATOM     11  C   UNL A   1      32.266  22.509  23.108  1.00  0.00     0.006 C 
ATOM     12  C   UNL A   1      30.920  23.232  25.186  1.00  0.00     0.006 C 
ATOM     13  C   UNL A   1      32.586  21.186  23.800  1.00  0.00     0.015 C 
ATOM     14  C   UNL A   1      31.311  21.894  25.793  1.00  0.00     0.015 C 
BRANCH  10  15
ATOM     15  C   UNL A   1      30.980  24.687  23.151  1.00  0.00     0.121 C 
BRANCH  15  16
ATOM     16  N   UNL A   1      31.935  24.876  22.086  1.00  0.00    -0.338 N 
ATOM     17  N   UNL A   1      32.008  27.193  21.636  1.00  0.00    -0.332 N 
ATOM     18  C   UNL A   1      32.378  25.934  21.407  1.00  0.00     0.315 C 
ATOM     19  H   UNL A   1      32.490  27.834  21.065  1.00  0.00     0.165 HD
ATOM     20  O   UNL A   1      33.164  25.728  20.480  1.00  0.00    -0.249 OA
ATOM     21  H   UNL A   1      32.353  24.033  21.794  1.00  0.00     0.165 HD
BRANCH  17  22
ATOM     22  C   UNL A   1      31.069  27.845  22.524  1.00  0.00     0.185 C 
BRANCH  22  23
ATOM     23  C   UNL A   1      31.698  28.170  23.849  1.00  0.00     0.112 A 
ATOM     24  C   UNL A   1      31.599  28.261  27.450  1.00  0.00     0.067 C 
ATOM     25  C   UNL A   1      32.019  28.394  26.036  1.00  0.00     0.049 A 
ATOM     26  C   UNL A   1      33.246  28.840  25.594  1.00  0.00     0.090 A 
ATOM     27  N   UNL A   1      31.131  28.037  25.031  1.00  0.00    -0.245 NA
ATOM     28  S   UNL A   1      33.304  28.804  23.886  1.00  0.00    -0.125 S 
ENDBRANCH  22  23
ENDBRANCH  17  22
ENDBRANCH  15  16
ENDBRANCH  10  15
ENDBRANCH   7   9
ENDBRANCH   6   7
ENDBRANCH   5   6
ENDBRANCH   4   5
ENDBRANCH   3   4
ENDBRANCH   2   3
ENDBRANCH   1   2
BRANCH   1  29
ATOM     29  O   UNL A   1      40.696  20.711  26.479  1.00  0.00    -0.377 OA
BRANCH  29  30
ATOM     30  C   UNL A   1      42.047  20.624  26.930  1.00  0.00     0.188 C 
BRANCH  30  31
ATOM     31  C   UNL A   1      43.220  20.931  25.974  1.00  0.00     0.188 C 
BRANCH  31  32
ATOM     32  O   UNL A   1      43.006  22.027  25.102  1.00  0.00    -0.376 OA
BRANCH  32  33
ATOM     33  C   UNL A   1      42.932  23.324  25.674  1.00  0.00     0.202 C 
BRANCH  33  34
ATOM     34  C   UNL A   1      43.807  24.435  25.073  1.00  0.00     0.261 C 
BRANCH  34  35
ATOM     35  O   UNL A   1      43.528  25.779  25.496  1.00  0.00    -0.460 OA
BRANCH  35  36
ATOM     36  C   UNL A   1      44.428  26.393  26.291  1.00  0.00     0.338 C 
ATOM     37  O   UNL A   1      45.631  26.493  26.107  1.00  0.00    -0.246 OA
BRANCH  36  38
ATOM     38  C   UNL A   1      43.675  27.092  27.351  1.00  0.00     0.060 A 
ATOM     39  C   UNL A   1      43.872  28.466  27.549  1.00  0.00     0.016 A 
ATOM     40  C   UNL A   1      42.775  26.382  28.146  1.00  0.00     0.016 A 
ATOM     41  C   UNL A   1      43.194  29.129  28.573  1.00  0.00     0.010 A 
ATOM     42  C   UNL A   1      42.114  27.042  29.183  1.00  0.00     0.010 A 
ATOM     43  C   UNL A   1      42.349  28.408  29.427  1.00  0.00    -0.014 A 
BRANCH  43  44
ATOM     44  C   UNL A   1      41.913  28.992  30.720  1.00  0.00     0.031 A 
ATOM     45  C   UNL A   1      40.687  29.866  30.701  1.00  0.00     0.074 A 
ATOM     46  C   UNL A   1      42.572  28.763  31.871  1.00  0.00     0.049 A 
ATOM     47  N   UNL A   1      40.198  30.634  31.637  1.00  0.00    -0.248 NA
ATOM     48  C   UNL A   1      39.906  29.871  29.449  1.00  0.00     0.031 C 
ATOM     49  C   UNL A   1      43.697  27.844  32.040  1.00  0.00     0.029 A 
ATOM     50  N   UNL A   1      42.401  29.314  33.119  1.00  0.00    -0.354 N 
ATOM     51  C   UNL A   1      39.060  31.216  31.088  1.00  0.00     0.074 A 
ATOM     52  C   UNL A   1      38.951  30.744  29.726  1.00  0.00     0.031 C 
ATOM     53  C   UNL A   1      44.136  27.919  33.311  1.00  0.00     0.029 A 
ATOM     54  C   UNL A   1      43.372  28.942  34.023  1.00  0.00     0.049 A 
ATOM     55  H   UNL A   1      41.656  29.917  33.345  1.00  0.00     0.167 HD
ATOM     56  C   UNL A   1      38.181  32.063  31.671  1.00  0.00     0.031 A 
ATOM     57  C   UNL A   1      43.648  29.423  35.255  1.00  0.00     0.031 A 
ATOM     58  C   UNL A   1      38.314  32.533  33.022  1.00  0.00     0.049 A 
ATOM     59  C   UNL A   1      42.763  30.515  35.818  1.00  0.00     0.074 A 
ATOM     60  C   UNL A   1      37.479  33.384  33.723  1.00  0.00     0.029 A 
ATOM     61  N   UNL A   1      39.354  32.195  33.875  1.00  0.00    -0.354 N 
ATOM     62  N   UNL A   1      41.696  31.069  35.288  1.00  0.00    -0.248 NA
ATOM     63  C   UNL A   1      43.111  31.043  37.145  1.00  0.00     0.031 C 
ATOM     64  C   UNL A   1      38.053  33.616  34.974  1.00  0.00     0.029 A 
ATOM     65  C   UNL A   1      39.201  32.845  35.085  1.00  0.00     0.049 A 
ATOM     66  H   UNL A   1      40.091  31.582  33.651  1.00  0.00     0.167 HD
ATOM     67  C   UNL A   1      41.204  31.949  36.249  1.00  0.00     0.074 A 
ATOM     68  C   UNL A   1      42.106  31.878  37.379  1.00  0.00     0.031 C 
ATOM     69  C   UNL A   1      40.093  32.726  36.212  1.00  0.00     0.031 A 
BRANCH  56  70
ATOM     70  C   UNL A   1      37.028  32.563  30.840  1.00  0.00    -0.014 A 
ATOM     71  C   UNL A   1      35.811  31.860  30.773  1.00  0.00     0.010 A 
ATOM     72  C   UNL A   1      37.151  33.780  30.145  1.00  0.00     0.010 A 
ATOM     73  C   UNL A   1      34.756  32.344  29.996  1.00  0.00     0.020 A 
ATOM     74  C   UNL A   1      36.088  34.284  29.392  1.00  0.00     0.020 A 
ATOM     75  C   UNL A   1      34.901  33.554  29.309  1.00  0.00     0.054 A 
BRANCH  75  76
ATOM     76  S   UNL A   1      33.505  34.170  28.329  1.00  0.00     0.124 S 
ATOM     77  O   UNL A   1      34.168  35.078  27.397  1.00  0.00    -0.237 OA
ATOM     78  O   UNL A   1      32.967  32.947  27.738  1.00  0.00    -0.237 OA
ATOM     79  O   UNL A   1      32.643  34.814  29.318  1.00  0.00    -0.744 OA
ENDBRANCH  75  76
ENDBRANCH  56  70
BRANCH  57  80
ATOM     80  C   UNL A   1      44.834  28.929  36.023  1.00  0.00    -0.014 A 
ATOM     81  C   UNL A   1      44.690  27.970  37.039  1.00  0.00     0.010 A 
ATOM     82  C   UNL A   1      46.119  29.444  35.769  1.00  0.00     0.010 A 
ATOM     83  C   UNL A   1      45.797  27.564  37.798  1.00  0.00     0.020 A 
ATOM     84  C   UNL A   1      47.233  29.022  36.501  1.00  0.00     0.020 A 
ATOM     85  C   UNL A   1      47.062  28.091  37.523  1.00  0.00     0.054 A 
BRANCH  85  86
ATOM     86  S   UNL A   1      48.477  27.538  38.515  1.00  0.00     0.124 S 
ATOM     87  O   UNL A   1      48.205  28.158  39.808  1.00  0.00    -0.237 OA
ATOM     88  O   UNL A   1      48.336  26.085  38.467  1.00  0.00    -0.237 OA
ATOM     89  O   UNL A   1      49.633  28.073  37.800  1.00  0.00    -0.744 OA
ENDBRANCH  85  86
ENDBRANCH  57  80
BRANCH  69  90
ATOM     90  C   UNL A   1      39.709  33.484  37.458  1.00  0.00    -0.014 A 
ATOM     91  C   UNL A   1      38.954  32.896  38.485  1.00  0.00     0.010 A 
ATOM     92  C   UNL A   1      40.232  34.779  37.646  1.00  0.00     0.010 A 
ATOM     93  C   UNL A   1      38.722  33.594  39.675  1.00  0.00     0.020 A 
ATOM     94  C   UNL A   1      40.029  35.466  38.844  1.00  0.00     0.020 A 
ATOM     95  C   UNL A   1      39.270  34.870  39.851  1.00  0.00     0.054 A 
BRANCH  95  96
ATOM     96  S   UNL A   1      39.034  35.714  41.439  1.00  0.00     0.124 S 
ATOM     97  O   UNL A   1      40.343  35.554  42.067  1.00  0.00    -0.237 OA
ATOM     98  O   UNL A   1      38.695  37.074  41.029  1.00  0.00    -0.237 OA
ATOM     99  O   UNL A   1      37.945  34.970  42.071  1.00  0.00    -0.744 OA
ENDBRANCH  95  96
ENDBRANCH  69  90
ENDBRANCH  43  44
ENDBRANCH  36  38
ENDBRANCH  35  36
ENDBRANCH  34  35
ENDBRANCH  33  34
ENDBRANCH  32  33
ENDBRANCH  31  32
ENDBRANCH  30  31
ENDBRANCH  29  30
ENDBRANCH   1  29
TORSDOF 27
ENDMDL
MODEL 2
REMARK VINA RESULT:      -8.2      7.968     11.450
REMARK SMILES Cc1csc(CNC(=O)NC[C@H]2CC[C@@H](C(=O)OCCOCCOCCOCCOC(=O)c3ccc(-c4c5nc(c(-c6ccc(S(=O)(=O)[O-])cc6)c6ccc([nH]6)c(-c6ccc(S(=O)(=O)[O-])cc6)c6nc(c(-c7ccc(S(=O)(=O)[O-])cc7)c7ccc4[nH]7)C=C6)C=C5)cc3)CC2)n1
REMARK SMILES IDX 23 1 22 2 21 3 20 4 19 5 18 6 16 7 17 8 15 9 12 10 13 11
REMARK SMILES IDX 94 12 14 13 93 14 11 15 10 16 7 17 8 18 9 20 6 22 5 23 1 24
REMARK SMILES IDX 2 25 3 26 95 27 4 28 24 29 25 30 26 31 27 32 28 33 29 34
REMARK SMILES IDX 30 35 31 36 32 37 33 38 34 39 92 40 35 41 91 42 36 43 37 44
REMARK SMILES IDX 38 45 85 46 39 47 90 48 84 49 86 50 40 51 89 52 83 53 82 54
REMARK SMILES IDX 41 56 71 57 52 58 70 59 53 60 56 61 69 62 87 63 54 64 55 65
REMARK SMILES IDX 68 67 88 68 57 69 42 70 43 71 51 72 44 73 50 74 45 75 46 76
REMARK SMILES IDX 47 77 48 78 49 79 72 80 73 81 81 82 74 83 80 84 75 85 76 86
REMARK SMILES IDX 77 87 78 88 79 89 58 90 59 91 67 92 60 93 66 94 61 95 62 96
REMARK SMILES IDX 63 97 64 98 65 99
REMARK H PARENT 7 19 10 21 86 55 56 66
REMARK Flexibility Score: inf
ROOT
ATOM      1  C   UNL A   1      39.492  23.653  27.374  1.00  0.00     0.188 C 
ENDROOT
BRANCH   1   2
ATOM      2  C   UNL A   1      39.610  22.253  26.757  1.00  0.00     0.188 C 
BRANCH   2   3
ATOM      3  O   UNL A   1      38.826  22.065  25.604  1.00  0.00    -0.376 OA
BRANCH   3   4
ATOM      4  C   UNL A   1      37.453  22.399  25.617  1.00  0.00     0.202 C 
BRANCH   4   5
ATOM      5  C   UNL A   1      36.769  23.333  24.598  1.00  0.00     0.261 C 
BRANCH   5   6
ATOM      6  O   UNL A   1      35.583  22.897  23.923  1.00  0.00    -0.463 OA
BRANCH   6   7
ATOM      7  C   UNL A   1      34.548  23.764  23.865  1.00  0.00     0.309 C 
ATOM      8  O   UNL A   1      34.155  24.418  24.826  1.00  0.00    -0.252 OA
BRANCH   7   9
ATOM      9  C   UNL A   1      33.824  23.789  22.513  1.00  0.00     0.099 C 
ATOM     10  C   UNL A   1      31.108  24.944  23.028  1.00  0.00     0.008 C 
ATOM     11  C   UNL A   1      32.397  25.798  23.039  1.00  0.00     0.006 C 
ATOM     12  C   UNL A   1      31.362  23.437  23.127  1.00  0.00     0.006 C 
ATOM     13  C   UNL A   1      33.528  25.248  22.172  1.00  0.00     0.015 C 
ATOM     14  C   UNL A   1      32.539  22.987  22.278  1.00  0.00     0.015 C 
BRANCH  10  15
ATOM     15  C   UNL A   1      30.176  25.377  24.175  1.00  0.00     0.121 C 
BRANCH  15  16
ATOM     16  N   UNL A   1      30.882  26.217  25.111  1.00  0.00    -0.338 N 
ATOM     17  N   UNL A   1      31.456  24.856  26.954  1.00  0.00    -0.332 N 
ATOM     18  C   UNL A   1      31.422  26.024  26.315  1.00  0.00     0.315 C 
ATOM     19  H   UNL A   1      31.947  24.910  27.805  1.00  0.00     0.165 HD
ATOM     20  O   UNL A   1      31.897  27.005  26.890  1.00  0.00    -0.249 OA
ATOM     21  H   UNL A   1      30.990  27.142  24.789  1.00  0.00     0.165 HD
BRANCH  17  22
ATOM     22  C   UNL A   1      30.944  23.526  26.697  1.00  0.00     0.185 C 
BRANCH  22  23
ATOM     23  C   UNL A   1      32.055  22.521  26.588  1.00  0.00     0.112 A 
ATOM     24  C   UNL A   1      33.722  19.838  24.852  1.00  0.00     0.067 C 
ATOM     25  C   UNL A   1      33.351  20.880  25.838  1.00  0.00     0.049 A 
ATOM     26  C   UNL A   1      34.072  21.223  26.961  1.00  0.00     0.090 A 
ATOM     27  N   UNL A   1      32.187  21.610  25.645  1.00  0.00    -0.245 NA
ATOM     28  S   UNL A   1      33.289  22.493  27.795  1.00  0.00    -0.125 S 
ENDBRANCH  22  23
ENDBRANCH  17  22
ENDBRANCH  15  16
ENDBRANCH  10  15
ENDBRANCH   7   9
ENDBRANCH   6   7
ENDBRANCH   5   6
ENDBRANCH   4   5
ENDBRANCH   3   4
ENDBRANCH   2   3
ENDBRANCH   1   2
BRANCH   1  29
ATOM     29  O   UNL A   1      39.455  24.793  26.530  1.00  0.00    -0.377 OA
BRANCH  29  30
ATOM     30  C   UNL A   1      40.663  25.318  25.984  1.00  0.00     0.188 C 
BRANCH  30  31
ATOM     31  C   UNL A   1      42.032  24.724  26.380  1.00  0.00     0.188 C 
BRANCH  31  32
ATOM     32  O   UNL A   1      42.859  24.355  25.289  1.00  0.00    -0.376 OA
BRANCH  32  33
ATOM     33  C   UNL A   1      43.156  22.978  25.120  1.00  0.00     0.202 C 
BRANCH  33  34
ATOM     34  C   UNL A   1      44.094  22.306  26.134  1.00  0.00     0.261 C 
BRANCH  34  35
ATOM     35  O   UNL A   1      45.260  23.047  26.527  1.00  0.00    -0.460 OA
BRANCH  35  36
ATOM     36  C   UNL A   1      45.249  23.655  27.731  1.00  0.00     0.338 C 
ATOM     37  O   UNL A   1      44.943  23.163  28.806  1.00  0.00    -0.246 OA
BRANCH  36  38
ATOM     38  C   UNL A   1      45.851  24.991  27.556  1.00  0.00     0.060 A 
ATOM     39  C   UNL A   1      46.021  25.511  26.264  1.00  0.00     0.016 A 
ATOM     40  C   UNL A   1      46.247  25.727  28.673  1.00  0.00     0.016 A 
ATOM     41  C   UNL A   1      46.623  26.757  26.085  1.00  0.00     0.010 A 
ATOM     42  C   UNL A   1      46.868  26.963  28.492  1.00  0.00     0.010 A 
ATOM     43  C   UNL A   1      47.095  27.466  27.196  1.00  0.00    -0.014 A 
BRANCH  43  44
ATOM     44  C   UNL A   1      48.048  28.591  27.021  1.00  0.00     0.031 A 
ATOM     45  C   UNL A   1      47.474  29.984  27.015  1.00  0.00     0.074 A 
ATOM     46  C   UNL A   1      49.371  28.395  26.869  1.00  0.00     0.049 A 
ATOM     47  N   UNL A   1      48.044  31.117  26.706  1.00  0.00    -0.248 NA
ATOM     48  C   UNL A   1      46.060  30.110  27.415  1.00  0.00     0.031 C 
ATOM     49  C   UNL A   1      50.059  27.110  26.976  1.00  0.00     0.029 A 
ATOM     50  N   UNL A   1      50.373  29.287  26.564  1.00  0.00    -0.354 N 
ATOM     51  C   UNL A   1      47.060  32.087  26.868  1.00  0.00     0.074 A 
ATOM     52  C   UNL A   1      45.849  31.408  27.265  1.00  0.00     0.031 C 
ATOM     53  C   UNL A   1      51.367  27.291  26.708  1.00  0.00     0.029 A 
ATOM     54  C   UNL A   1      51.593  28.688  26.341  1.00  0.00     0.049 A 
ATOM     55  H   UNL A   1      50.231  30.260  26.511  1.00  0.00     0.167 HD
ATOM     56  C   UNL A   1      47.163  33.426  26.706  1.00  0.00     0.031 A 
ATOM     57  C   UNL A   1      52.737  29.199  25.835  1.00  0.00     0.031 A 
ATOM     58  C   UNL A   1      48.373  34.083  26.297  1.00  0.00     0.049 A 
ATOM     59  C   UNL A   1      52.773  30.670  25.477  1.00  0.00     0.074 A 
ATOM     60  C   UNL A   1      48.598  35.435  26.111  1.00  0.00     0.029 A 
ATOM     61  N   UNL A   1      49.562  33.432  26.004  1.00  0.00    -0.354 N 
ATOM     62  N   UNL A   1      51.836  31.579  25.622  1.00  0.00    -0.248 NA
ATOM     63  C   UNL A   1      54.019  31.188  24.894  1.00  0.00     0.031 C 
ATOM     64  C   UNL A   1      49.902  35.593  25.637  1.00  0.00     0.029 A 
ATOM     65  C   UNL A   1      50.516  34.350  25.606  1.00  0.00     0.049 A 
ATOM     66  H   UNL A   1      49.705  32.460  26.069  1.00  0.00     0.167 HD
ATOM     67  C   UNL A   1      52.407  32.785  25.224  1.00  0.00     0.074 A 
ATOM     68  C   UNL A   1      53.759  32.486  24.802  1.00  0.00     0.031 C 
ATOM     69  C   UNL A   1      51.871  34.031  25.230  1.00  0.00     0.031 A 
BRANCH  56  70
ATOM     70  C   UNL A   1      45.928  34.259  26.934  1.00  0.00    -0.014 A 
ATOM     71  C   UNL A   1      44.963  34.432  25.925  1.00  0.00     0.010 A 
ATOM     72  C   UNL A   1      45.711  34.848  28.193  1.00  0.00     0.010 A 
ATOM     73  C   UNL A   1      43.825  35.210  26.159  1.00  0.00     0.020 A 
ATOM     74  C   UNL A   1      44.560  35.600  28.441  1.00  0.00     0.020 A 
ATOM     75  C   UNL A   1      43.631  35.789  27.418  1.00  0.00     0.054 A 
BRANCH  75  76
ATOM     76  S   UNL A   1      42.134  36.773  27.700  1.00  0.00     0.124 S 
ATOM     77  O   UNL A   1      42.412  37.380  28.998  1.00  0.00    -0.237 OA
ATOM     78  O   UNL A   1      42.136  37.690  26.563  1.00  0.00    -0.237 OA
ATOM     79  O   UNL A   1      41.060  35.780  27.695  1.00  0.00    -0.744 OA
ENDBRANCH  75  76
ENDBRANCH  56  70
BRANCH  57  80
ATOM     80  C   UNL A   1      53.922  28.322  25.582  1.00  0.00    -0.014 A 
ATOM     81  C   UNL A   1      54.114  27.705  24.334  1.00  0.00     0.010 A 
ATOM     82  C   UNL A   1      54.856  28.063  26.603  1.00  0.00     0.010 A 
ATOM     83  C   UNL A   1      55.191  26.831  24.129  1.00  0.00     0.020 A 
ATOM     84  C   UNL A   1      55.949  27.217  26.397  1.00  0.00     0.020 A 
ATOM     85  C   UNL A   1      56.103  26.594  25.161  1.00  0.00     0.054 A 
BRANCH  85  86
ATOM     86  S   UNL A   1      57.493  25.467  24.861  1.00  0.00     0.124 S 
ATOM     87  O   UNL A   1      57.927  25.865  23.525  1.00  0.00    -0.237 OA
ATOM     88  O   UNL A   1      58.404  25.806  25.950  1.00  0.00    -0.237 OA
ATOM     89  O   UNL A   1      56.889  24.140  24.948  1.00  0.00    -0.744 OA
ENDBRANCH  85  86
ENDBRANCH  57  80
BRANCH  69  90
ATOM     90  C   UNL A   1      52.765  35.194  24.880  1.00  0.00    -0.014 A 
ATOM     91  C   UNL A   1      52.788  35.756  23.594  1.00  0.00     0.010 A 
ATOM     92  C   UNL A   1      53.504  35.808  25.911  1.00  0.00     0.010 A 
ATOM     93  C   UNL A   1      53.541  36.908  23.343  1.00  0.00     0.020 A 
ATOM     94  C   UNL A   1      54.233  36.976  25.672  1.00  0.00     0.020 A 
ATOM     95  C   UNL A   1      54.250  37.516  24.385  1.00  0.00     0.054 A 
BRANCH  95  96
ATOM     96  S   UNL A   1      55.142  39.061  24.054  1.00  0.00     0.124 S 
ATOM     97  O   UNL A   1      55.905  38.721  22.856  1.00  0.00    -0.237 OA
ATOM     98  O   UNL A   1      54.057  40.018  23.858  1.00  0.00    -0.237 OA
ATOM     99  O   UNL A   1      55.938  39.269  25.262  1.00  0.00    -0.744 OA
ENDBRANCH  95  96
ENDBRANCH  69  90
ENDBRANCH  43  44
ENDBRANCH  36  38
ENDBRANCH  35  36
ENDBRANCH  34  35
ENDBRANCH  33  34
ENDBRANCH  32  33
ENDBRANCH  31  32
ENDBRANCH  30  31
ENDBRANCH  29  30
ENDBRANCH   1  29
TORSDOF 27
ENDMDL
MODEL 3
REMARK VINA RESULT:      -8.2      1.506      8.064
REMARK SMILES Cc1csc(CNC(=O)NC[C@H]2CC[C@@H](C(=O)OCCOCCOCCOCCOC(=O)c3ccc(-c4c5nc(c(-c6ccc(S(=O)(=O)[O-])cc6)c6ccc([nH]6)c(-c6ccc(S(=O)(=O)[O-])cc6)c6nc(c(-c7ccc(S(=O)(=O)[O-])cc7)c7ccc4[nH]7)C=C6)C=C5)cc3)CC2)n1
REMARK SMILES IDX 23 1 22 2 21 3 20 4 19 5 18 6 16 7 17 8 15 9 12 10 13 11
REMARK SMILES IDX 94 12 14 13 93 14 11 15 10 16 7 17 8 18 9 20 6 22 5 23 1 24
REMARK SMILES IDX 2 25 3 26 95 27 4 28 24 29 25 30 26 31 27 32 28 33 29 34
REMARK SMILES IDX 30 35 31 36 32 37 33 38 34 39 92 40 35 41 91 42 36 43 37 44
REMARK SMILES IDX 38 45 85 46 39 47 90 48 84 49 86 50 40 51 89 52 83 53 82 54
REMARK SMILES IDX 41 56 71 57 52 58 70 59 53 60 56 61 69 62 87 63 54 64 55 65
REMARK SMILES IDX 68 67 88 68 57 69 42 70 43 71 51 72 44 73 50 74 45 75 46 76
REMARK SMILES IDX 47 77 48 78 49 79 72 80 73 81 81 82 74 83 80 84 75 85 76 86
REMARK SMILES IDX 77 87 78 88 79 89 58 90 59 91 67 92 60 93 66 94 61 95 62 96
REMARK SMILES IDX 63 97 64 98 65 99
REMARK H PARENT 7 19 10 21 86 55 56 66
REMARK Flexibility Score: inf
ROOT
ATOM      1  C   UNL A   1      39.596  22.071  26.809  1.00  0.00     0.188 C 
ENDROOT
BRANCH   1   2
ATOM      2  C   UNL A   1      39.342  23.454  26.196  1.00  0.00     0.188 C 
BRANCH   2   3
ATOM      3  O   UNL A   1      38.299  24.172  26.809  1.00  0.00    -0.376 OA
BRANCH   3   4
ATOM      4  C   UNL A   1      36.981  24.080  26.306  1.00  0.00     0.202 C 
BRANCH   4   5
ATOM      5  C   UNL A   1      36.610  23.494  24.929  1.00  0.00     0.261 C 
BRANCH   5   6
ATOM      6  O   UNL A   1      35.455  22.654  24.807  1.00  0.00    -0.463 OA
BRANCH   6   7
ATOM      7  C   UNL A   1      34.856  22.595  23.596  1.00  0.00     0.309 C 
ATOM      8  O   UNL A   1      35.113  23.362  22.673  1.00  0.00    -0.252 OA
BRANCH   7   9
ATOM      9  C   UNL A   1      33.737  21.552  23.498  1.00  0.00     0.099 C 
ATOM     10  C   UNL A   1      31.758  22.227  25.644  1.00  0.00     0.008 C 
ATOM     11  C   UNL A   1      31.916  23.067  24.356  1.00  0.00     0.006 C 
ATOM     12  C   UNL A   1      32.933  21.283  25.916  1.00  0.00     0.006 C 
ATOM     13  C   UNL A   1      32.445  22.288  23.153  1.00  0.00     0.015 C 
ATOM     14  C   UNL A   1      33.431  20.594  24.655  1.00  0.00     0.015 C 
BRANCH  10  15
ATOM     15  C   UNL A   1      31.562  23.152  26.859  1.00  0.00     0.121 C 
BRANCH  15  16
ATOM     16  N   UNL A   1      30.203  23.636  26.913  1.00  0.00    -0.338 N 
ATOM     17  N   UNL A   1      30.284  25.954  26.466  1.00  0.00    -0.332 N 
ATOM     18  C   UNL A   1      29.633  24.832  26.768  1.00  0.00     0.315 C 
ATOM     19  H   UNL A   1      29.677  26.719  26.349  1.00  0.00     0.165 HD
ATOM     20  O   UNL A   1      28.417  24.910  26.958  1.00  0.00    -0.249 OA
ATOM     21  H   UNL A   1      29.551  22.922  27.098  1.00  0.00     0.165 HD
BRANCH  17  22
ATOM     22  C   UNL A   1      31.671  26.317  26.267  1.00  0.00     0.185 C 
BRANCH  22  23
ATOM     23  C   UNL A   1      31.888  26.948  24.920  1.00  0.00     0.112 A 
ATOM     24  C   UNL A   1      30.959  29.303  22.356  1.00  0.00     0.067 C 
ATOM     25  C   UNL A   1      31.642  28.242  23.132  1.00  0.00     0.049 A 
ATOM     26  C   UNL A   1      32.792  27.579  22.758  1.00  0.00     0.090 A 
ATOM     27  N   UNL A   1      31.118  27.858  24.358  1.00  0.00    -0.245 NA
ATOM     28  S   UNL A   1      33.240  26.456  23.967  1.00  0.00    -0.125 S 
ENDBRANCH  22  23
ENDBRANCH  17  22
ENDBRANCH  15  16
ENDBRANCH  10  15
ENDBRANCH   7   9
ENDBRANCH   6   7
ENDBRANCH   5   6
ENDBRANCH   4   5
ENDBRANCH   3   4
ENDBRANCH   2   3
ENDBRANCH   1   2
BRANCH   1  29
ATOM     29  O   UNL A   1      40.137  21.033  26.007  1.00  0.00    -0.377 OA
BRANCH  29  30
ATOM     30  C   UNL A   1      41.108  20.142  26.552  1.00  0.00     0.188 C 
BRANCH  30  31
ATOM     31  C   UNL A   1      42.552  20.117  26.006  1.00  0.00     0.188 C 
BRANCH  31  32
ATOM     32  O   UNL A   1      42.964  21.308  25.358  1.00  0.00    -0.376 OA
BRANCH  32  33
ATOM     33  C   UNL A   1      42.961  22.509  26.114  1.00  0.00     0.202 C 
BRANCH  33  34
ATOM     34  C   UNL A   1      44.313  23.148  26.469  1.00  0.00     0.261 C 
BRANCH  34  35
ATOM     35  O   UNL A   1      44.293  24.530  26.860  1.00  0.00    -0.460 OA
BRANCH  35  36
ATOM     36  C   UNL A   1      45.032  24.898  27.926  1.00  0.00     0.338 C 
ATOM     37  O   UNL A   1      46.151  24.508  28.221  1.00  0.00    -0.246 OA
BRANCH  36  38
ATOM     38  C   UNL A   1      44.321  26.005  28.594  1.00  0.00     0.060 A 
ATOM     39  C   UNL A   1      44.621  27.331  28.248  1.00  0.00     0.016 A 
ATOM     40  C   UNL A   1      43.357  25.727  29.564  1.00  0.00     0.016 A 
ATOM     41  C   UNL A   1      43.982  28.386  28.900  1.00  0.00     0.010 A 
ATOM     42  C   UNL A   1      42.734  26.783  30.230  1.00  0.00     0.010 A 
ATOM     43  C   UNL A   1      43.072  28.117  29.929  1.00  0.00    -0.014 A 
BRANCH  43  44
ATOM     44  C   UNL A   1      42.664  29.189  30.871  1.00  0.00     0.031 A 
ATOM     45  C   UNL A   1      43.480  29.350  32.127  1.00  0.00     0.074 A 
ATOM     46  C   UNL A   1      41.611  29.993  30.632  1.00  0.00     0.049 A 
ATOM     47  N   UNL A   1      43.242  30.074  33.187  1.00  0.00    -0.248 NA
ATOM     48  C   UNL A   1      44.739  28.584  32.190  1.00  0.00     0.031 C 
ATOM     49  C   UNL A   1      40.819  30.017  29.403  1.00  0.00     0.029 A 
ATOM     50  N   UNL A   1      41.010  30.934  31.435  1.00  0.00    -0.354 N 
ATOM     51  C   UNL A   1      44.314  29.847  34.043  1.00  0.00     0.074 A 
ATOM     52  C   UNL A   1      45.185  28.891  33.398  1.00  0.00     0.031 C 
ATOM     53  C   UNL A   1      39.816  30.904  29.546  1.00  0.00     0.029 A 
ATOM     54  C   UNL A   1      39.853  31.456  30.899  1.00  0.00     0.049 A 
ATOM     55  H   UNL A   1      41.373  31.209  32.308  1.00  0.00     0.167 HD
ATOM     56  C   UNL A   1      44.555  30.395  35.256  1.00  0.00     0.031 A 
ATOM     57  C   UNL A   1      38.903  32.233  31.465  1.00  0.00     0.031 A 
ATOM     58  C   UNL A   1      43.670  31.335  35.889  1.00  0.00     0.049 A 
ATOM     59  C   UNL A   1      39.096  32.682  32.898  1.00  0.00     0.074 A 
ATOM     60  C   UNL A   1      43.815  31.964  37.111  1.00  0.00     0.029 A 
ATOM     61  N   UNL A   1      42.471  31.774  35.348  1.00  0.00    -0.354 N 
ATOM     62  N   UNL A   1      40.108  32.455  33.705  1.00  0.00    -0.248 NA
ATOM     63  C   UNL A   1      38.028  33.496  33.496  1.00  0.00     0.031 C 
ATOM     64  C   UNL A   1      42.669  32.728  37.341  1.00  0.00     0.029 A 
ATOM     65  C   UNL A   1      41.849  32.641  36.226  1.00  0.00     0.049 A 
ATOM     66  H   UNL A   1      42.116  31.507  34.469  1.00  0.00     0.167 HD
ATOM     67  C   UNL A   1      39.832  33.163  34.873  1.00  0.00     0.074 A 
ATOM     68  C   UNL A   1      38.546  33.799  34.680  1.00  0.00     0.031 C 
ATOM     69  C   UNL A   1      40.585  33.296  35.993  1.00  0.00     0.031 A 
BRANCH  56  70
ATOM     70  C   UNL A   1      45.797  29.964  35.991  1.00  0.00    -0.014 A 
ATOM     71  C   UNL A   1      47.012  30.659  35.852  1.00  0.00     0.010 A 
ATOM     72  C   UNL A   1      45.738  28.864  36.867  1.00  0.00     0.010 A 
ATOM     73  C   UNL A   1      48.152  30.240  36.544  1.00  0.00     0.020 A 
ATOM     74  C   UNL A   1      46.867  28.460  37.584  1.00  0.00     0.020 A 
ATOM     75  C   UNL A   1      48.071  29.142  37.407  1.00  0.00     0.054 A 
BRANCH  75  76
ATOM     76  S   UNL A   1      49.560  28.636  38.310  1.00  0.00     0.124 S 
ATOM     77  O   UNL A   1      50.620  29.006  37.376  1.00  0.00    -0.237 OA
ATOM     78  O   UNL A   1      49.485  29.441  39.526  1.00  0.00    -0.237 OA
ATOM     79  O   UNL A   1      49.377  27.198  38.504  1.00  0.00    -0.744 OA
ENDBRANCH  75  76
ENDBRANCH  56  70
BRANCH  57  80
ATOM     80  C   UNL A   1      37.662  32.597  30.711  1.00  0.00    -0.014 A 
ATOM     81  C   UNL A   1      36.508  31.799  30.788  1.00  0.00     0.010 A 
ATOM     82  C   UNL A   1      37.635  33.729  29.875  1.00  0.00     0.010 A 
ATOM     83  C   UNL A   1      35.373  32.111  30.026  1.00  0.00     0.020 A 
ATOM     84  C   UNL A   1      36.497  34.064  29.134  1.00  0.00     0.020 A 
ATOM     85  C   UNL A   1      35.375  33.243  29.205  1.00  0.00     0.054 A 
BRANCH  85  86
ATOM     86  S   UNL A   1      33.887  33.627  28.239  1.00  0.00     0.124 S 
ATOM     87  O   UNL A   1      33.007  34.204  29.249  1.00  0.00    -0.237 OA
ATOM     88  O   UNL A   1      34.403  34.559  27.240  1.00  0.00    -0.237 OA
ATOM     89  O   UNL A   1      33.468  32.329  27.717  1.00  0.00    -0.744 OA
ENDBRANCH  85  86
ENDBRANCH  57  80
BRANCH  69  90
ATOM     90  C   UNL A   1      40.111  34.247  37.063  1.00  0.00    -0.014 A 
ATOM     91  C   UNL A   1      39.231  33.846  38.081  1.00  0.00     0.010 A 
ATOM     92  C   UNL A   1      40.668  35.541  37.107  1.00  0.00     0.010 A 
ATOM     93  C   UNL A   1      38.911  34.726  39.120  1.00  0.00     0.020 A 
ATOM     94  C   UNL A   1      40.375  36.411  38.160  1.00  0.00     0.020 A 
ATOM     95  C   UNL A   1      39.493  35.998  39.158  1.00  0.00     0.054 A 
BRANCH  95  96
ATOM     96  S   UNL A   1      39.134  37.084  40.567  1.00  0.00     0.124 S 
ATOM     97  O   UNL A   1      40.448  37.653  40.855  1.00  0.00    -0.237 OA
ATOM     98  O   UNL A   1      38.154  38.013  40.010  1.00  0.00    -0.237 OA
ATOM     99  O   UNL A   1      38.613  36.173  41.585  1.00  0.00    -0.744 OA
ENDBRANCH  95  96
ENDBRANCH  69  90
ENDBRANCH  43  44
ENDBRANCH  36  38
ENDBRANCH  35  36
ENDBRANCH  34  35
ENDBRANCH  33  34
ENDBRANCH  32  33
ENDBRANCH  31  32
ENDBRANCH  30  31
ENDBRANCH  29  30
ENDBRANCH   1  29
TORSDOF 27
ENDMDL
