MODEL 1
REMARK VINA RESULT:      -9.8      0.000      0.000
REMARK SMILES COc1ccc2[nH]c(C(=O)c3cc(C)ccn3)c(CC(=O)OCCOCCOCCOCCOC(=O)c3ccc(-c4c5nc(c(-c6ccc(S(=O)(=O)[O-])cc6)c6ccc([nH]6)c(-c6ccc(S(=O)(=O)[O-])cc6)c6nc(c(-c7ccc(S(=O)(=O)[O-])cc7)c7ccc4[nH]7)C=C6)C=C5)cc3)c2c1
REMARK SMILES IDX 28 1 27 2 26 3 25 4 24 5 23 6 22 7 20 8 21 9 19 10 18 11
REMARK SMILES IDX 3 12 4 13 98 14 5 15 97 16 6 17 7 18 8 19 2 21 1 22 9 23
REMARK SMILES IDX 10 24 11 25 12 26 17 27 13 28 16 29 14 30 15 31 29 32 30 33
REMARK SMILES IDX 31 34 32 35 33 36 34 37 35 38 36 39 37 40 38 41 96 42 39 43
REMARK SMILES IDX 95 44 40 45 41 46 42 47 89 48 43 49 94 50 88 51 90 52 44 53
REMARK SMILES IDX 93 54 87 55 86 56 45 58 75 59 56 60 74 61 57 62 60 63 73 64
REMARK SMILES IDX 91 65 58 66 59 67 72 69 92 70 61 71 46 72 47 73 55 74 48 75
REMARK SMILES IDX 54 76 49 77 50 78 51 79 52 80 53 81 76 82 77 83 85 84 78 85
REMARK SMILES IDX 84 86 79 87 80 88 81 89 82 90 83 91 62 92 63 93 71 94 64 95
REMARK SMILES IDX 70 96 65 97 66 98 67 99 68 100 69 101
REMARK H PARENT 7 20 90 57 60 68
REMARK Flexibility Score: inf
ROOT
ATOM      1  O   UNL A   1      34.992  31.445  27.821  1.00  0.00    -0.377 OA
ENDROOT
BRANCH   1   2
ATOM      2  C   UNL A   1      33.772  31.186  27.160  1.00  0.00     0.188 C 
BRANCH   2   3
ATOM      3  C   UNL A   1      32.940  29.893  27.294  1.00  0.00     0.188 C 
BRANCH   3   4
ATOM      4  O   UNL A   1      32.181  29.484  26.178  1.00  0.00    -0.376 OA
BRANCH   4   5
ATOM      5  C   UNL A   1      31.530  28.232  26.116  1.00  0.00     0.202 C 
BRANCH   5   6
ATOM      6  C   UNL A   1      31.984  26.936  26.824  1.00  0.00     0.261 C 
BRANCH   6   7
ATOM      7  O   UNL A   1      32.538  25.875  26.025  1.00  0.00    -0.463 OA
BRANCH   7   8
ATOM      8  C   UNL A   1      33.824  25.981  25.624  1.00  0.00     0.310 C 
ATOM      9  O   UNL A   1      34.501  26.987  25.830  1.00  0.00    -0.252 OA
BRANCH   8  10
ATOM     10  C   UNL A   1      34.423  24.766  24.913  1.00  0.00     0.161 C 
BRANCH  10  11
ATOM     11  C   UNL A   1      33.713  24.044  23.774  1.00  0.00     0.000 A 
ATOM     12  C   UNL A   1      32.898  20.358  24.494  1.00  0.00     0.119 A 
ATOM     13  C   UNL A   1      32.231  20.113  23.297  1.00  0.00     0.048 A 
ATOM     14  C   UNL A   1      33.472  21.612  24.746  1.00  0.00     0.057 A 
ATOM     15  C   UNL A   1      32.132  21.106  22.318  1.00  0.00     0.030 A 
ATOM     16  C   UNL A   1      33.347  22.649  23.796  1.00  0.00     0.008 A 
ATOM     17  C   UNL A   1      32.678  22.362  22.611  1.00  0.00     0.046 A 
ATOM     18  N   UNL A   1      32.679  23.512  21.868  1.00  0.00    -0.352 N 
ATOM     19  C   UNL A   1      33.095  24.592  22.624  1.00  0.00     0.093 A 
ATOM     20  H   UNL A   1      32.418  23.564  20.921  1.00  0.00     0.167 HD
BRANCH  12  21
ATOM     21  O   UNL A   1      32.959  19.467  25.534  1.00  0.00    -0.497 OA
ATOM     22  C   UNL A   1      32.508  18.152  25.223  1.00  0.00     0.278 C 
ENDBRANCH  12  21
BRANCH  19  23
ATOM     23  C   UNL A   1      32.969  25.999  22.209  1.00  0.00     0.227 C 
ATOM     24  O   UNL A   1      33.824  26.546  21.514  1.00  0.00    -0.285 OA
BRANCH  23  25
ATOM     25  C   UNL A   1      31.740  26.815  22.549  1.00  0.00     0.113 A 
ATOM     26  C   UNL A   1      30.581  26.274  23.106  1.00  0.00     0.036 A 
ATOM     27  N   UNL A   1      31.865  28.145  22.291  1.00  0.00    -0.253 NA
ATOM     28  C   UNL A   1      29.495  27.128  23.374  1.00  0.00    -0.047 A 
ATOM     29  C   UNL A   1      30.813  28.945  22.570  1.00  0.00     0.112 A 
ATOM     30  C   UNL A   1      28.207  26.633  23.965  1.00  0.00     0.044 C 
ATOM     31  C   UNL A   1      29.613  28.486  23.073  1.00  0.00     0.023 A 
ENDBRANCH  23  25
ENDBRANCH  19  23
ENDBRANCH  10  11
ENDBRANCH   8  10
ENDBRANCH   7   8
ENDBRANCH   6   7
ENDBRANCH   5   6
ENDBRANCH   4   5
ENDBRANCH   3   4
ENDBRANCH   2   3
ENDBRANCH   1   2
BRANCH   1  32
ATOM     32  C   UNL A   1      34.929  32.202  29.005  1.00  0.00     0.188 C 
BRANCH  32  33
ATOM     33  C   UNL A   1      35.660  33.532  28.833  1.00  0.00     0.188 C 
BRANCH  33  34
ATOM     34  O   UNL A   1      34.790  34.611  28.538  1.00  0.00    -0.376 OA
BRANCH  34  35
ATOM     35  C   UNL A   1      33.414  34.525  28.893  1.00  0.00     0.202 C 
BRANCH  35  36
ATOM     36  C   UNL A   1      32.656  35.577  29.738  1.00  0.00     0.261 C 
BRANCH  36  37
ATOM     37  O   UNL A   1      33.274  36.047  30.937  1.00  0.00    -0.460 OA
BRANCH  37  38
ATOM     38  C   UNL A   1      33.097  35.335  32.068  1.00  0.00     0.338 C 
ATOM     39  O   UNL A   1      32.073  35.134  32.665  1.00  0.00    -0.246 OA
BRANCH  38  40
ATOM     40  C   UNL A   1      34.399  34.663  32.283  1.00  0.00     0.060 A 
ATOM     41  C   UNL A   1      34.393  33.294  32.572  1.00  0.00     0.016 A 
ATOM     42  C   UNL A   1      35.600  35.351  32.074  1.00  0.00     0.016 A 
ATOM     43  C   UNL A   1      35.594  32.598  32.631  1.00  0.00     0.010 A 
ATOM     44  C   UNL A   1      36.806  34.663  32.185  1.00  0.00     0.010 A 
ATOM     45  C   UNL A   1      36.801  33.289  32.478  1.00  0.00    -0.014 A 
BRANCH  45  46
ATOM     46  C   UNL A   1      38.048  32.621  32.890  1.00  0.00     0.031 A 
ATOM     47  C   UNL A   1      38.519  32.866  34.294  1.00  0.00     0.074 A 
ATOM     48  C   UNL A   1      38.707  31.800  32.055  1.00  0.00     0.049 A 
ATOM     49  N   UNL A   1      39.587  32.425  34.898  1.00  0.00    -0.248 NA
ATOM     50  C   UNL A   1      37.662  33.726  35.131  1.00  0.00     0.031 C 
ATOM     51  C   UNL A   1      38.284  31.454  30.698  1.00  0.00     0.029 A 
ATOM     52  N   UNL A   1      39.874  31.106  32.233  1.00  0.00    -0.354 N 
ATOM     53  C   UNL A   1      39.532  32.954  36.182  1.00  0.00     0.074 A 
ATOM     54  C   UNL A   1      38.344  33.771  36.263  1.00  0.00     0.031 C 
ATOM     55  C   UNL A   1      39.189  30.615  30.162  1.00  0.00     0.029 A 
ATOM     56  C   UNL A   1      40.268  30.399  31.123  1.00  0.00     0.049 A 
ATOM     57  H   UNL A   1      40.382  31.113  33.077  1.00  0.00     0.167 HD
ATOM     58  C   UNL A   1      40.399  32.771  37.202  1.00  0.00     0.031 A 
ATOM     59  C   UNL A   1      41.390  29.684  30.910  1.00  0.00     0.031 A 
ATOM     60  C   UNL A   1      41.593  31.982  37.085  1.00  0.00     0.049 A 
ATOM     61  C   UNL A   1      42.397  29.580  32.030  1.00  0.00     0.074 A 
ATOM     62  C   UNL A   1      42.558  31.732  38.040  1.00  0.00     0.029 A 
ATOM     63  N   UNL A   1      41.990  31.326  35.927  1.00  0.00    -0.354 N 
ATOM     64  N   UNL A   1      42.330  30.072  33.245  1.00  0.00    -0.248 NA
ATOM     65  C   UNL A   1      43.626  28.827  31.750  1.00  0.00     0.031 C 
ATOM     66  C   UNL A   1      43.572  30.977  37.442  1.00  0.00     0.029 A 
ATOM     67  C   UNL A   1      43.203  30.697  36.134  1.00  0.00     0.049 A 
ATOM     68  H   UNL A   1      41.481  31.312  35.083  1.00  0.00     0.167 HD
ATOM     69  C   UNL A   1      43.496  29.666  33.886  1.00  0.00     0.074 A 
ATOM     70  C   UNL A   1      44.241  28.876  32.925  1.00  0.00     0.031 C 
ATOM     71  C   UNL A   1      43.916  29.918  35.151  1.00  0.00     0.031 A 
BRANCH  58  72
ATOM     72  C   UNL A   1      40.105  33.480  38.496  1.00  0.00    -0.014 A 
ATOM     73  C   UNL A   1      39.035  33.084  39.322  1.00  0.00     0.010 A 
ATOM     74  C   UNL A   1      40.912  34.559  38.895  1.00  0.00     0.010 A 
ATOM     75  C   UNL A   1      38.756  33.780  40.501  1.00  0.00     0.020 A 
ATOM     76  C   UNL A   1      40.655  35.240  40.088  1.00  0.00     0.020 A 
ATOM     77  C   UNL A   1      39.568  34.855  40.875  1.00  0.00     0.054 A 
BRANCH  77  78
ATOM     78  S   UNL A   1      39.195  35.729  42.420  1.00  0.00     0.124 S 
ATOM     79  O   UNL A   1      37.799  35.363  42.645  1.00  0.00    -0.237 OA
ATOM     80  O   UNL A   1      40.155  35.145  43.355  1.00  0.00    -0.237 OA
ATOM     81  O   UNL A   1      39.426  37.133  42.091  1.00  0.00    -0.744 OA
ENDBRANCH  77  78
ENDBRANCH  58  72
BRANCH  59  82
ATOM     82  C   UNL A   1      41.631  29.040  29.589  1.00  0.00    -0.014 A 
ATOM     83  C   UNL A   1      42.304  29.725  28.563  1.00  0.00     0.010 A 
ATOM     84  C   UNL A   1      41.187  27.725  29.351  1.00  0.00     0.010 A 
ATOM     85  C   UNL A   1      42.516  29.116  27.322  1.00  0.00     0.020 A 
ATOM     86  C   UNL A   1      41.424  27.101  28.122  1.00  0.00     0.020 A 
ATOM     87  C   UNL A   1      42.079  27.805  27.112  1.00  0.00     0.054 A 
BRANCH  87  88
ATOM     88  S   UNL A   1      42.412  27.019  25.511  1.00  0.00     0.124 S 
ATOM     89  O   UNL A   1      41.281  26.105  25.379  1.00  0.00    -0.237 OA
ATOM     90  O   UNL A   1      42.416  28.158  24.597  1.00  0.00    -0.237 OA
ATOM     91  O   UNL A   1      43.712  26.380  25.707  1.00  0.00    -0.744 OA
ENDBRANCH  87  88
ENDBRANCH  59  82
BRANCH  71  92
ATOM     92  C   UNL A   1      45.224  29.311  35.580  1.00  0.00    -0.014 A 
ATOM     93  C   UNL A   1      45.277  28.035  36.165  1.00  0.00     0.010 A 
ATOM     94  C   UNL A   1      46.423  29.995  35.306  1.00  0.00     0.010 A 
ATOM     95  C   UNL A   1      46.507  27.461  36.491  1.00  0.00     0.020 A 
ATOM     96  C   UNL A   1      47.656  29.411  35.600  1.00  0.00     0.020 A 
ATOM     97  C   UNL A   1      47.690  28.150  36.199  1.00  0.00     0.054 A 
BRANCH  97  98
ATOM     98  S   UNL A   1      49.275  27.351  36.567  1.00  0.00     0.124 S 
ATOM     99  O   UNL A   1      49.846  28.253  37.564  1.00  0.00    -0.237 OA
ATOM    100  O   UNL A   1      48.862  26.042  37.067  1.00  0.00    -0.237 OA
ATOM    101  O   UNL A   1      49.962  27.332  35.278  1.00  0.00    -0.744 OA
ENDBRANCH  97  98
ENDBRANCH  71  92
ENDBRANCH  45  46
ENDBRANCH  38  40
ENDBRANCH  37  38
ENDBRANCH  36  37
ENDBRANCH  35  36
ENDBRANCH  34  35
ENDBRANCH  33  34
ENDBRANCH  32  33
ENDBRANCH   1  32
TORSDOF 27
ENDMDL
MODEL 2
REMARK VINA RESULT:      -9.7      2.582      9.130
REMARK SMILES COc1ccc2[nH]c(C(=O)c3cc(C)ccn3)c(CC(=O)OCCOCCOCCOCCOC(=O)c3ccc(-c4c5nc(c(-c6ccc(S(=O)(=O)[O-])cc6)c6ccc([nH]6)c(-c6ccc(S(=O)(=O)[O-])cc6)c6nc(c(-c7ccc(S(=O)(=O)[O-])cc7)c7ccc4[nH]7)C=C6)C=C5)cc3)c2c1
REMARK SMILES IDX 28 1 27 2 26 3 25 4 24 5 23 6 22 7 20 8 21 9 19 10 18 11
REMARK SMILES IDX 3 12 4 13 98 14 5 15 97 16 6 17 7 18 8 19 2 21 1 22 9 23
REMARK SMILES IDX 10 24 11 25 12 26 17 27 13 28 16 29 14 30 15 31 29 32 30 33
REMARK SMILES IDX 31 34 32 35 33 36 34 37 35 38 36 39 37 40 38 41 96 42 39 43
REMARK SMILES IDX 95 44 40 45 41 46 42 47 89 48 43 49 94 50 88 51 90 52 44 53
REMARK SMILES IDX 93 54 87 55 86 56 45 58 75 59 56 60 74 61 57 62 60 63 73 64
REMARK SMILES IDX 91 65 58 66 59 67 72 69 92 70 61 71 46 72 47 73 55 74 48 75
REMARK SMILES IDX 54 76 49 77 50 78 51 79 52 80 53 81 76 82 77 83 85 84 78 85
REMARK SMILES IDX 84 86 79 87 80 88 81 89 82 90 83 91 62 92 63 93 71 94 64 95
REMARK SMILES IDX 70 96 65 97 66 98 67 99 68 100 69 101
REMARK H PARENT 7 20 90 57 60 68
REMARK Flexibility Score: inf
ROOT
ATOM      1  O   UNL A   1      42.194  20.953  27.440  1.00  0.00    -0.377 OA
ENDROOT
BRANCH   1   2
ATOM      2  C   UNL A   1      40.952  21.519  27.802  1.00  0.00     0.188 C 
BRANCH   2   3
ATOM      3  C   UNL A   1      40.136  22.507  26.941  1.00  0.00     0.188 C 
BRANCH   3   4
ATOM      4  O   UNL A   1      38.940  22.037  26.362  1.00  0.00    -0.376 OA
BRANCH   4   5
ATOM      5  C   UNL A   1      38.079  22.867  25.608  1.00  0.00     0.202 C 
BRANCH   5   6
ATOM      6  C   UNL A   1      36.819  23.587  26.137  1.00  0.00     0.261 C 
BRANCH   6   7
ATOM      7  O   UNL A   1      35.573  23.389  25.444  1.00  0.00    -0.463 OA
BRANCH   7   8
ATOM      8  C   UNL A   1      34.685  22.512  25.962  1.00  0.00     0.310 C 
ATOM      9  O   UNL A   1      35.002  21.663  26.794  1.00  0.00    -0.252 OA
BRANCH   8  10
ATOM     10  C   UNL A   1      33.238  22.638  25.482  1.00  0.00     0.161 C 
BRANCH  10  11
ATOM     11  C   UNL A   1      32.724  21.946  24.225  1.00  0.00     0.000 A 
ATOM     12  C   UNL A   1      33.386  18.162  24.112  1.00  0.00     0.119 A 
ATOM     13  C   UNL A   1      32.733  17.929  22.905  1.00  0.00     0.048 A 
ATOM     14  C   UNL A   1      33.488  19.462  24.628  1.00  0.00     0.057 A 
ATOM     15  C   UNL A   1      32.177  18.986  22.178  1.00  0.00     0.030 A 
ATOM     16  C   UNL A   1      32.896  20.542  23.939  1.00  0.00     0.008 A 
ATOM     17  C   UNL A   1      32.257  20.268  22.735  1.00  0.00     0.046 A 
ATOM     18  N   UNL A   1      31.761  21.457  22.271  1.00  0.00    -0.352 N 
ATOM     19  C   UNL A   1      31.832  22.438  23.242  1.00  0.00     0.093 A 
ATOM     20  H   UNL A   1      31.402  21.596  21.366  1.00  0.00     0.167 HD
BRANCH  12  21
ATOM     21  O   UNL A   1      33.875  17.171  24.922  1.00  0.00    -0.497 OA
ATOM     22  C   UNL A   1      33.194  15.924  24.821  1.00  0.00     0.278 C 
ENDBRANCH  12  21
BRANCH  19  23
ATOM     23  C   UNL A   1      31.161  23.746  23.158  1.00  0.00     0.227 C 
ATOM     24  O   UNL A   1      29.935  23.840  23.101  1.00  0.00    -0.285 OA
BRANCH  23  25
ATOM     25  C   UNL A   1      31.943  25.041  23.221  1.00  0.00     0.113 A 
ATOM     26  C   UNL A   1      31.641  26.085  24.095  1.00  0.00     0.036 A 
ATOM     27  N   UNL A   1      32.999  25.097  22.365  1.00  0.00    -0.253 NA
ATOM     28  C   UNL A   1      32.434  27.248  24.060  1.00  0.00    -0.047 A 
ATOM     29  C   UNL A   1      33.752  26.217  22.361  1.00  0.00     0.112 A 
ATOM     30  C   UNL A   1      32.179  28.424  24.958  1.00  0.00     0.044 C 
ATOM     31  C   UNL A   1      33.494  27.316  23.154  1.00  0.00     0.023 A 
ENDBRANCH  23  25
ENDBRANCH  19  23
ENDBRANCH  10  11
ENDBRANCH   8  10
ENDBRANCH   7   8
ENDBRANCH   6   7
ENDBRANCH   5   6
ENDBRANCH   4   5
ENDBRANCH   3   4
ENDBRANCH   2   3
ENDBRANCH   1   2
BRANCH   1  32
ATOM     32  C   UNL A   1      42.427  20.749  26.068  1.00  0.00     0.188 C 
BRANCH  32  33
ATOM     33  C   UNL A   1      43.681  21.498  25.619  1.00  0.00     0.188 C 
BRANCH  33  34
ATOM     34  O   UNL A   1      43.420  22.474  24.626  1.00  0.00    -0.376 OA
BRANCH  34  35
ATOM     35  C   UNL A   1      43.960  23.784  24.765  1.00  0.00     0.202 C 
BRANCH  35  36
ATOM     36  C   UNL A   1      43.882  24.635  26.055  1.00  0.00     0.261 C 
BRANCH  36  37
ATOM     37  O   UNL A   1      42.599  24.846  26.644  1.00  0.00    -0.460 OA
BRANCH  37  38
ATOM     38  C   UNL A   1      41.837  25.853  26.172  1.00  0.00     0.338 C 
ATOM     39  O   UNL A   1      41.349  25.964  25.078  1.00  0.00    -0.246 OA
BRANCH  38  40
ATOM     40  C   UNL A   1      41.539  26.675  27.367  1.00  0.00     0.060 A 
ATOM     41  C   UNL A   1      42.145  27.932  27.469  1.00  0.00     0.016 A 
ATOM     42  C   UNL A   1      40.582  26.258  28.299  1.00  0.00     0.016 A 
ATOM     43  C   UNL A   1      41.777  28.793  28.495  1.00  0.00     0.010 A 
ATOM     44  C   UNL A   1      40.251  27.101  29.358  1.00  0.00     0.010 A 
ATOM     45  C   UNL A   1      40.861  28.362  29.462  1.00  0.00    -0.014 A 
BRANCH  45  46
ATOM     46  C   UNL A   1      40.751  29.129  30.715  1.00  0.00     0.031 A 
ATOM     47  C   UNL A   1      39.684  30.183  30.775  1.00  0.00     0.074 A 
ATOM     48  C   UNL A   1      41.545  28.864  31.766  1.00  0.00     0.049 A 
ATOM     49  N   UNL A   1      39.390  31.010  31.740  1.00  0.00    -0.248 NA
ATOM     50  C   UNL A   1      38.830  30.319  29.580  1.00  0.00     0.031 C 
ATOM     51  C   UNL A   1      42.562  27.814  31.817  1.00  0.00     0.029 A 
ATOM     52  N   UNL A   1      41.615  29.463  32.996  1.00  0.00    -0.354 N 
ATOM     53  C   UNL A   1      38.321  31.764  31.269  1.00  0.00     0.074 A 
ATOM     54  C   UNL A   1      38.037  31.318  29.924  1.00  0.00     0.031 C 
ATOM     55  C   UNL A   1      43.163  27.849  33.020  1.00  0.00     0.029 A 
ATOM     56  C   UNL A   1      42.598  28.945  33.804  1.00  0.00     0.049 A 
ATOM     57  H   UNL A   1      41.017  30.194  33.274  1.00  0.00     0.167 HD
ATOM     58  C   UNL A   1      37.639  32.740  31.906  1.00  0.00     0.031 A 
ATOM     59  C   UNL A   1      43.004  29.339  35.027  1.00  0.00     0.031 A 
ATOM     60  C   UNL A   1      37.966  33.189  33.230  1.00  0.00     0.049 A 
ATOM     61  C   UNL A   1      42.297  30.502  35.678  1.00  0.00     0.074 A 
ATOM     62  C   UNL A   1      37.360  34.180  33.978  1.00  0.00     0.029 A 
ATOM     63  N   UNL A   1      39.005  32.681  33.998  1.00  0.00    -0.354 N 
ATOM     64  N   UNL A   1      41.278  31.200  35.230  1.00  0.00    -0.248 NA
ATOM     65  C   UNL A   1      42.792  30.930  36.992  1.00  0.00     0.031 C 
ATOM     66  C   UNL A   1      38.073  34.314  35.173  1.00  0.00     0.029 A 
ATOM     67  C   UNL A   1      39.079  33.358  35.200  1.00  0.00     0.049 A 
ATOM     68  H   UNL A   1      39.601  31.945  33.725  1.00  0.00     0.167 HD
ATOM     69  C   UNL A   1      40.992  32.133  36.221  1.00  0.00     0.074 A 
ATOM     70  C   UNL A   1      41.938  31.899  37.295  1.00  0.00     0.031 C 
ATOM     71  C   UNL A   1      40.036  33.096  36.247  1.00  0.00     0.031 A 
BRANCH  58  72
ATOM     72  C   UNL A   1      36.523  33.410  31.152  1.00  0.00    -0.014 A 
ATOM     73  C   UNL A   1      36.727  33.954  29.870  1.00  0.00     0.010 A 
ATOM     74  C   UNL A   1      35.246  33.497  31.735  1.00  0.00     0.010 A 
ATOM     75  C   UNL A   1      35.686  34.605  29.203  1.00  0.00     0.020 A 
ATOM     76  C   UNL A   1      34.195  34.121  31.059  1.00  0.00     0.020 A 
ATOM     77  C   UNL A   1      34.426  34.685  29.804  1.00  0.00     0.054 A 
BRANCH  77  78
ATOM     78  S   UNL A   1      33.088  35.519  28.907  1.00  0.00     0.124 S 
ATOM     79  O   UNL A   1      32.288  36.067  29.999  1.00  0.00    -0.237 OA
ATOM     80  O   UNL A   1      33.808  36.502  28.103  1.00  0.00    -0.237 OA
ATOM     81  O   UNL A   1      32.453  34.443  28.151  1.00  0.00    -0.744 OA
ENDBRANCH  77  78
ENDBRANCH  58  72
BRANCH  59  82
ATOM     82  C   UNL A   1      44.143  28.651  35.698  1.00  0.00    -0.014 A 
ATOM     83  C   UNL A   1      43.917  27.656  36.664  1.00  0.00     0.010 A 
ATOM     84  C   UNL A   1      45.469  28.989  35.366  1.00  0.00     0.010 A 
ATOM     85  C   UNL A   1      44.992  27.023  37.296  1.00  0.00     0.020 A 
ATOM     86  C   UNL A   1      46.547  28.338  35.973  1.00  0.00     0.020 A 
ATOM     87  C   UNL A   1      46.302  27.365  36.942  1.00  0.00     0.054 A 
BRANCH  87  88
ATOM     88  S   UNL A   1      47.679  26.493  37.739  1.00  0.00     0.124 S 
ATOM     89  O   UNL A   1      48.723  27.514  37.745  1.00  0.00    -0.237 OA
ATOM     90  O   UNL A   1      47.120  26.151  39.044  1.00  0.00    -0.237 OA
ATOM     91  O   UNL A   1      47.921  25.355  36.854  1.00  0.00    -0.744 OA
ENDBRANCH  87  88
ENDBRANCH  59  82
BRANCH  71  92
ATOM     92  C   UNL A   1      39.944  33.948  37.483  1.00  0.00    -0.014 A 
ATOM     93  C   UNL A   1      40.619  35.177  37.572  1.00  0.00     0.010 A 
ATOM     94  C   UNL A   1      39.095  33.549  38.533  1.00  0.00     0.010 A 
ATOM     95  C   UNL A   1      40.462  35.985  38.701  1.00  0.00     0.020 A 
ATOM     96  C   UNL A   1      38.910  34.369  39.647  1.00  0.00     0.020 A 
ATOM     97  C   UNL A   1      39.604  35.579  39.728  1.00  0.00     0.054 A 
BRANCH  97  98
ATOM     98  S   UNL A   1      39.365  36.680  41.148  1.00  0.00     0.124 S 
ATOM     99  O   UNL A   1      38.608  35.832  42.066  1.00  0.00    -0.237 OA
ATOM    100  O   UNL A   1      40.736  36.978  41.553  1.00  0.00    -0.237 OA
ATOM    101  O   UNL A   1      38.625  37.810  40.591  1.00  0.00    -0.744 OA
ENDBRANCH  97  98
ENDBRANCH  71  92
ENDBRANCH  45  46
ENDBRANCH  38  40
ENDBRANCH  37  38
ENDBRANCH  36  37
ENDBRANCH  35  36
ENDBRANCH  34  35
ENDBRANCH  33  34
ENDBRANCH  32  33
ENDBRANCH   1  32
TORSDOF 27
ENDMDL
MODEL 3
REMARK VINA RESULT:      -8.9      1.126      7.818
REMARK SMILES COc1ccc2[nH]c(C(=O)c3cc(C)ccn3)c(CC(=O)OCCOCCOCCOCCOC(=O)c3ccc(-c4c5nc(c(-c6ccc(S(=O)(=O)[O-])cc6)c6ccc([nH]6)c(-c6ccc(S(=O)(=O)[O-])cc6)c6nc(c(-c7ccc(S(=O)(=O)[O-])cc7)c7ccc4[nH]7)C=C6)C=C5)cc3)c2c1
REMARK SMILES IDX 28 1 27 2 26 3 25 4 24 5 23 6 22 7 20 8 21 9 19 10 18 11
REMARK SMILES IDX 3 12 4 13 98 14 5 15 97 16 6 17 7 18 8 19 2 21 1 22 9 23
REMARK SMILES IDX 10 24 11 25 12 26 17 27 13 28 16 29 14 30 15 31 29 32 30 33
REMARK SMILES IDX 31 34 32 35 33 36 34 37 35 38 36 39 37 40 38 41 96 42 39 43
REMARK SMILES IDX 95 44 40 45 41 46 42 47 89 48 43 49 94 50 88 51 90 52 44 53
REMARK SMILES IDX 93 54 87 55 86 56 45 58 75 59 56 60 74 61 57 62 60 63 73 64
REMARK SMILES IDX 91 65 58 66 59 67 72 69 92 70 61 71 46 72 47 73 55 74 48 75
REMARK SMILES IDX 54 76 49 77 50 78 51 79 52 80 53 81 76 82 77 83 85 84 78 85
REMARK SMILES IDX 84 86 79 87 80 88 81 89 82 90 83 91 62 92 63 93 71 94 64 95
REMARK SMILES IDX 70 96 65 97 66 98 67 99 68 100 69 101
REMARK H PARENT 7 20 90 57 60 68
REMARK Flexibility Score: inf
ROOT
ATOM      1  O   UNL A   1      34.768  32.246  28.031  1.00  0.00    -0.377 OA
ENDROOT
BRANCH   1   2
ATOM      2  C   UNL A   1      33.525  31.942  27.435  1.00  0.00     0.188 C 
BRANCH   2   3
ATOM      3  C   UNL A   1      32.963  30.520  27.217  1.00  0.00     0.188 C 
BRANCH   3   4
ATOM      4  O   UNL A   1      32.536  30.178  25.918  1.00  0.00    -0.376 OA
BRANCH   4   5
ATOM      5  C   UNL A   1      31.667  29.093  25.662  1.00  0.00     0.202 C 
BRANCH   5   6
ATOM      6  C   UNL A   1      31.518  27.824  26.530  1.00  0.00     0.261 C 
BRANCH   6   7
ATOM      7  O   UNL A   1      32.262  26.648  26.161  1.00  0.00    -0.463 OA
BRANCH   7   8
ATOM      8  C   UNL A   1      33.591  26.772  25.952  1.00  0.00     0.310 C 
ATOM      9  O   UNL A   1      34.313  27.459  26.673  1.00  0.00    -0.252 OA
BRANCH   8  10
ATOM     10  C   UNL A   1      34.175  25.989  24.775  1.00  0.00     0.161 C 
BRANCH  10  11
ATOM     11  C   UNL A   1      33.312  25.189  23.807  1.00  0.00     0.000 A 
ATOM     12  C   UNL A   1      33.396  21.389  24.378  1.00  0.00     0.119 A 
ATOM     13  C   UNL A   1      32.473  21.066  23.387  1.00  0.00     0.048 A 
ATOM     14  C   UNL A   1      33.787  22.720  24.580  1.00  0.00     0.057 A 
ATOM     15  C   UNL A   1      31.929  22.058  22.566  1.00  0.00     0.030 A 
ATOM     16  C   UNL A   1      33.219  23.749  23.798  1.00  0.00     0.008 A 
ATOM     17  C   UNL A   1      32.306  23.384  22.816  1.00  0.00     0.046 A 
ATOM     18  N   UNL A   1      31.894  24.540  22.209  1.00  0.00    -0.352 N 
ATOM     19  C   UNL A   1      32.309  25.650  22.921  1.00  0.00     0.093 A 
ATOM     20  H   UNL A   1      31.373  24.578  21.376  1.00  0.00     0.167 HD
BRANCH  12  21
ATOM     21  O   UNL A   1      33.902  20.487  25.277  1.00  0.00    -0.497 OA
ATOM     22  C   UNL A   1      33.721  19.120  24.919  1.00  0.00     0.278 C 
ENDBRANCH  12  21
BRANCH  19  23
ATOM     23  C   UNL A   1      31.826  27.020  22.686  1.00  0.00     0.227 C 
ATOM     24  O   UNL A   1      32.558  27.892  22.219  1.00  0.00    -0.285 OA
BRANCH  23  25
ATOM     25  C   UNL A   1      30.380  27.401  22.931  1.00  0.00     0.113 A 
ATOM     26  C   UNL A   1      29.816  28.605  22.511  1.00  0.00     0.036 A 
ATOM     27  N   UNL A   1      29.655  26.449  23.578  1.00  0.00    -0.253 NA
ATOM     28  C   UNL A   1      28.461  28.856  22.802  1.00  0.00    -0.047 A 
ATOM     29  C   UNL A   1      28.355  26.708  23.832  1.00  0.00     0.112 A 
ATOM     30  C   UNL A   1      27.772  30.126  22.396  1.00  0.00     0.044 C 
ATOM     31  C   UNL A   1      27.730  27.892  23.499  1.00  0.00     0.023 A 
ENDBRANCH  23  25
ENDBRANCH  19  23
ENDBRANCH  10  11
ENDBRANCH   8  10
ENDBRANCH   7   8
ENDBRANCH   6   7
ENDBRANCH   5   6
ENDBRANCH   4   5
ENDBRANCH   3   4
ENDBRANCH   2   3
ENDBRANCH   1   2
BRANCH   1  32
ATOM     32  C   UNL A   1      34.738  32.978  29.232  1.00  0.00     0.188 C 
BRANCH  32  33
ATOM     33  C   UNL A   1      35.279  34.390  29.015  1.00  0.00     0.188 C 
BRANCH  33  34
ATOM     34  O   UNL A   1      34.287  35.306  28.584  1.00  0.00    -0.376 OA
BRANCH  34  35
ATOM     35  C   UNL A   1      33.073  35.429  29.318  1.00  0.00     0.202 C 
BRANCH  35  36
ATOM     36  C   UNL A   1      32.892  36.310  30.576  1.00  0.00     0.261 C 
BRANCH  36  37
ATOM     37  O   UNL A   1      33.763  36.085  31.685  1.00  0.00    -0.460 OA
BRANCH  37  38
ATOM     38  C   UNL A   1      33.489  35.058  32.514  1.00  0.00     0.338 C 
ATOM     39  O   UNL A   1      32.417  34.574  32.766  1.00  0.00    -0.246 OA
BRANCH  38  40
ATOM     40  C   UNL A   1      34.818  34.507  32.863  1.00  0.00     0.060 A 
ATOM     41  C   UNL A   1      34.871  33.239  33.453  1.00  0.00     0.016 A 
ATOM     42  C   UNL A   1      35.988  35.179  32.494  1.00  0.00     0.016 A 
ATOM     43  C   UNL A   1      36.100  32.625  33.656  1.00  0.00     0.010 A 
ATOM     44  C   UNL A   1      37.223  34.585  32.746  1.00  0.00     0.010 A 
ATOM     45  C   UNL A   1      37.276  33.314  33.341  1.00  0.00    -0.014 A 
BRANCH  45  46
ATOM     46  C   UNL A   1      38.551  32.809  33.881  1.00  0.00     0.031 A 
ATOM     47  C   UNL A   1      39.381  31.949  32.972  1.00  0.00     0.074 A 
ATOM     48  C   UNL A   1      38.966  33.142  35.115  1.00  0.00     0.049 A 
ATOM     49  N   UNL A   1      40.521  31.361  33.202  1.00  0.00    -0.248 NA
ATOM     50  C   UNL A   1      38.846  31.725  31.615  1.00  0.00     0.031 C 
ATOM     51  C   UNL A   1      38.255  34.026  36.038  1.00  0.00     0.029 A 
ATOM     52  N   UNL A   1      40.093  32.771  35.800  1.00  0.00    -0.354 N 
ATOM     53  C   UNL A   1      40.840  30.697  32.023  1.00  0.00     0.074 A 
ATOM     54  C   UNL A   1      39.762  30.929  31.091  1.00  0.00     0.031 C 
ATOM     55  C   UNL A   1      38.963  34.122  37.178  1.00  0.00     0.029 A 
ATOM     56  C   UNL A   1      40.152  33.278  37.075  1.00  0.00     0.049 A 
ATOM     57  H   UNL A   1      40.793  32.196  35.415  1.00  0.00     0.167 HD
ATOM     58  C   UNL A   1      41.938  29.960  31.747  1.00  0.00     0.031 A 
ATOM     59  C   UNL A   1      41.056  33.057  38.050  1.00  0.00     0.031 A 
ATOM     60  C   UNL A   1      42.980  29.714  32.705  1.00  0.00     0.049 A 
ATOM     61  C   UNL A   1      42.220  32.145  37.753  1.00  0.00     0.074 A 
ATOM     62  C   UNL A   1      44.135  28.973  32.551  1.00  0.00     0.029 A 
ATOM     63  N   UNL A   1      42.979  30.198  34.006  1.00  0.00    -0.354 N 
ATOM     64  N   UNL A   1      42.521  31.532  36.631  1.00  0.00    -0.248 NA
ATOM     65  C   UNL A   1      43.164  31.894  38.850  1.00  0.00     0.031 C 
ATOM     66  C   UNL A   1      44.801  28.955  33.780  1.00  0.00     0.029 A 
ATOM     67  C   UNL A   1      44.098  29.744  34.679  1.00  0.00     0.049 A 
ATOM     68  H   UNL A   1      42.283  30.778  34.393  1.00  0.00     0.167 HD
ATOM     69  C   UNL A   1      43.704  30.844  36.878  1.00  0.00     0.074 A 
ATOM     70  C   UNL A   1      44.069  31.129  38.253  1.00  0.00     0.031 C 
ATOM     71  C   UNL A   1      44.427  30.050  36.049  1.00  0.00     0.031 A 
BRANCH  58  72
ATOM     72  C   UNL A   1      42.026  29.334  30.382  1.00  0.00    -0.014 A 
ATOM     73  C   UNL A   1      42.487  30.063  29.270  1.00  0.00     0.010 A 
ATOM     74  C   UNL A   1      41.643  27.993  30.207  1.00  0.00     0.010 A 
ATOM     75  C   UNL A   1      42.525  29.474  28.003  1.00  0.00     0.020 A 
ATOM     76  C   UNL A   1      41.707  27.391  28.948  1.00  0.00     0.020 A 
ATOM     77  C   UNL A   1      42.133  28.141  27.851  1.00  0.00     0.054 A 
BRANCH  77  78
ATOM     78  S   UNL A   1      42.211  27.395  26.199  1.00  0.00     0.124 S 
ATOM     79  O   UNL A   1      43.239  26.374  26.377  1.00  0.00    -0.237 OA
ATOM     80  O   UNL A   1      40.853  26.893  26.013  1.00  0.00    -0.237 OA
ATOM     81  O   UNL A   1      42.585  28.510  25.332  1.00  0.00    -0.744 OA
ENDBRANCH  77  78
ENDBRANCH  58  72
BRANCH  59  82
ATOM     82  C   UNL A   1      40.883  33.683  39.390  1.00  0.00    -0.014 A 
ATOM     83  C   UNL A   1      41.488  34.914  39.696  1.00  0.00     0.010 A 
ATOM     84  C   UNL A   1      40.103  33.046  40.374  1.00  0.00     0.010 A 
ATOM     85  C   UNL A   1      41.329  35.489  40.961  1.00  0.00     0.020 A 
ATOM     86  C   UNL A   1      39.915  33.631  41.630  1.00  0.00     0.020 A 
ATOM     87  C   UNL A   1      40.538  34.845  41.919  1.00  0.00     0.054 A 
BRANCH  87  88
ATOM     88  S   UNL A   1      40.305  35.636  43.535  1.00  0.00     0.124 S 
ATOM     89  O   UNL A   1      39.810  34.529  44.348  1.00  0.00    -0.237 OA
ATOM     90  O   UNL A   1      41.652  36.102  43.853  1.00  0.00    -0.237 OA
ATOM     91  O   UNL A   1      39.335  36.695  43.261  1.00  0.00    -0.744 OA
ENDBRANCH  87  88
ENDBRANCH  59  82
BRANCH  71  92
ATOM     92  C   UNL A   1      45.699  29.457  36.593  1.00  0.00    -0.014 A 
ATOM     93  C   UNL A   1      46.902  30.182  36.582  1.00  0.00     0.010 A 
ATOM     94  C   UNL A   1      45.661  28.191  37.206  1.00  0.00     0.010 A 
ATOM     95  C   UNL A   1      48.055  29.641  37.156  1.00  0.00     0.020 A 
ATOM     96  C   UNL A   1      46.803  27.661  37.811  1.00  0.00     0.020 A 
ATOM     97  C   UNL A   1      47.995  28.387  37.773  1.00  0.00     0.054 A 
BRANCH  97  98
ATOM     98  S   UNL A   1      49.488  27.740  38.573  1.00  0.00     0.124 S 
ATOM     99  O   UNL A   1      49.510  28.491  39.826  1.00  0.00    -0.237 OA
ATOM    100  O   UNL A   1      49.190  26.316  38.698  1.00  0.00    -0.237 OA
ATOM    101  O   UNL A   1      50.556  28.068  37.632  1.00  0.00    -0.744 OA
ENDBRANCH  97  98
ENDBRANCH  71  92
ENDBRANCH  45  46
ENDBRANCH  38  40
ENDBRANCH  37  38
ENDBRANCH  36  37
ENDBRANCH  35  36
ENDBRANCH  34  35
ENDBRANCH  33  34
ENDBRANCH  32  33
ENDBRANCH   1  32
TORSDOF 27
ENDMDL
