MODEL 1
REMARK VINA RESULT:      -9.8      0.000      0.000
REMARK SMILES Cc1cc(S(F)(F)(F)(F)F)cc2c1O[C@H](C(F)(F)F)C(C(=O)OCCOCCOCCOCCOC(=O)c1ccc(-c3c4nc(c(-c5ccc(S(=O)(=O)[O-])cc5)c5ccc([nH]5)c(-c5ccc(S(=O)(=O)[O-])cc5)c5nc(c(-c6ccc(S(=O)(=O)[O-])cc6)c6ccc3[nH]6)C=C5)C=C4)cc1)=C2
REMARK SMILES IDX 30 1 29 2 28 3 27 4 26 5 25 6 24 7 23 8 21 9 22 10 20 11
REMARK SMILES IDX 1 12 2 13 3 14 13 15 4 16 12 17 14 18 11 19 98 20 15 21 5 22
REMARK SMILES IDX 6 23 7 24 8 25 9 26 10 27 16 28 17 29 18 30 19 31 31 32
REMARK SMILES IDX 32 33 33 34 34 35 35 36 36 37 37 38 38 39 39 40 97 41 40 42
REMARK SMILES IDX 96 43 41 44 42 45 43 46 90 47 44 48 95 49 89 50 91 51 45 52
REMARK SMILES IDX 94 53 88 54 87 55 46 57 76 58 57 59 75 60 58 61 61 62 74 63
REMARK SMILES IDX 92 64 59 65 60 66 73 68 93 69 62 70 47 71 48 72 56 73 49 74
REMARK SMILES IDX 55 75 50 76 51 77 52 78 53 79 54 80 77 81 78 82 86 83 79 84
REMARK SMILES IDX 85 85 80 86 81 87 82 88 83 89 84 90 63 91 64 92 72 93 65 94
REMARK SMILES IDX 71 95 66 96 67 97 68 98 69 99 70 100
REMARK H PARENT 91 56 61 67
REMARK Flexibility Score: inf
ROOT
ATOM      1  C   UNL A   1      50.095  43.297  28.349  1.00  0.00     0.188 C 
ENDROOT
BRANCH   1   2
ATOM      2  O   UNL A   1      49.351  44.472  28.062  1.00  0.00    -0.377 OA
BRANCH   2   3
ATOM      3  C   UNL A   1      49.220  44.616  26.655  1.00  0.00     0.188 C 
BRANCH   3   4
ATOM      4  C   UNL A   1      47.847  45.184  26.330  1.00  0.00     0.188 C 
BRANCH   4   5
ATOM      5  O   UNL A   1      46.908  44.123  26.232  1.00  0.00    -0.376 OA
BRANCH   5   6
ATOM      6  C   UNL A   1      45.892  44.475  25.305  1.00  0.00     0.202 C 
BRANCH   6   7
ATOM      7  C   UNL A   1      45.596  43.289  24.403  1.00  0.00     0.261 C 
BRANCH   7   8
ATOM      8  O   UNL A   1      45.895  43.632  23.057  1.00  0.00    -0.460 OA
BRANCH   8   9
ATOM      9  C   UNL A   1      45.403  42.830  21.994  1.00  0.00     0.338 C 
ATOM     10  O   UNL A   1      45.805  41.631  21.863  1.00  0.00    -0.246 OA
BRANCH   9  11
ATOM     11  C   UNL A   1      44.394  43.404  21.013  1.00  0.00     0.087 C 
ATOM     12  C   UNL A   1      40.266  44.244  18.075  1.00  0.00     0.048 C 
ATOM     13  C   UNL A   1      41.590  44.951  18.319  1.00  0.00    -0.007 A 
ATOM     14  C   UNL A   1      41.879  46.131  17.671  1.00  0.00     0.031 A 
ATOM     15  C   UNL A   1      42.512  44.420  19.220  1.00  0.00     0.130 A 
ATOM     16  C   UNL A   1      43.079  46.793  17.905  1.00  0.00     0.108 A 
ATOM     17  C   UNL A   1      43.728  45.099  19.459  1.00  0.00     0.019 A 
ATOM     18  O   UNL A   1      42.262  43.166  19.941  1.00  0.00    -0.475 OA
ATOM     19  C   UNL A   1      43.994  46.295  18.788  1.00  0.00     0.036 A 
ATOM     20  C   UNL A   1      44.677  44.519  20.409  1.00  0.00     0.027 C 
ATOM     21  C   UNL A   1      43.202  42.713  20.798  1.00  0.00     0.316 C 
BRANCH  16  22
ATOM     22  S   UNL A   1      43.432  48.336  17.026  1.00  0.00     0.310 S 
ATOM     23  F   UNL A   1      42.391  48.192  15.837  1.00  0.00    -0.094 F 
ATOM     24  F   UNL A   1      44.486  47.621  16.097  1.00  0.00    -0.094 F 
ATOM     25  F   UNL A   1      43.818  49.723  16.440  1.00  0.00    -0.094 F 
ATOM     26  F   UNL A   1      42.277  49.017  17.859  1.00  0.00    -0.094 F 
ATOM     27  F   UNL A   1      42.955  46.921  17.546  1.00  0.00    -0.094 F 
ENDBRANCH  16  22
BRANCH  21  28
ATOM     28  C   UNL A   1      42.504  42.845  22.142  1.00  0.00     0.430 C 
ATOM     29  F   UNL A   1      41.190  42.730  21.972  1.00  0.00    -0.167 F 
ATOM     30  F   UNL A   1      42.931  41.888  22.960  1.00  0.00    -0.167 F 
ATOM     31  F   UNL A   1      42.780  44.036  22.668  1.00  0.00    -0.167 F 
ENDBRANCH  21  28
ENDBRANCH   9  11
ENDBRANCH   8   9
ENDBRANCH   7   8
ENDBRANCH   6   7
ENDBRANCH   5   6
ENDBRANCH   4   5
ENDBRANCH   3   4
ENDBRANCH   2   3
ENDBRANCH   1   2
BRANCH   1  32
ATOM     32  C   UNL A   1      49.159  42.099  28.381  1.00  0.00     0.188 C 
BRANCH  32  33
ATOM     33  O   UNL A   1      49.916  40.903  28.275  1.00  0.00    -0.376 OA
BRANCH  33  34
ATOM     34  C   UNL A   1      49.071  39.845  27.848  1.00  0.00     0.202 C 
BRANCH  34  35
ATOM     35  C   UNL A   1      49.888  38.570  27.705  1.00  0.00     0.261 C 
BRANCH  35  36
ATOM     36  O   UNL A   1      49.027  37.445  27.781  1.00  0.00    -0.460 OA
BRANCH  36  37
ATOM     37  C   UNL A   1      49.018  36.634  28.946  1.00  0.00     0.338 C 
ATOM     38  O   UNL A   1      49.684  36.986  29.971  1.00  0.00    -0.246 OA
BRANCH  37  39
ATOM     39  C   UNL A   1      48.212  35.346  28.970  1.00  0.00     0.060 A 
ATOM     40  C   UNL A   1      47.279  35.038  27.985  1.00  0.00     0.016 A 
ATOM     41  C   UNL A   1      48.520  34.418  29.849  1.00  0.00     0.016 A 
ATOM     42  C   UNL A   1      47.114  33.670  27.677  1.00  0.00     0.010 A 
ATOM     43  C   UNL A   1      47.919  33.155  29.800  1.00  0.00     0.010 A 
ATOM     44  C   UNL A   1      47.231  32.778  28.743  1.00  0.00    -0.014 A 
BRANCH  44  45
ATOM     45  C   UNL A   1      46.580  31.406  28.685  1.00  0.00     0.031 A 
ATOM     46  C   UNL A   1      45.235  31.237  29.022  1.00  0.00     0.074 A 
ATOM     47  C   UNL A   1      47.370  30.414  28.132  1.00  0.00     0.049 A 
ATOM     48  N   UNL A   1      44.484  30.148  28.848  1.00  0.00    -0.248 NA
ATOM     49  C   UNL A   1      44.404  32.279  29.642  1.00  0.00     0.031 C 
ATOM     50  C   UNL A   1      48.724  30.580  27.782  1.00  0.00     0.029 A 
ATOM     51  N   UNL A   1      47.010  29.120  27.824  1.00  0.00    -0.354 N 
ATOM     52  C   UNL A   1      43.240  30.374  29.275  1.00  0.00     0.074 A 
ATOM     53  C   UNL A   1      43.172  31.745  29.797  1.00  0.00     0.031 C 
ATOM     54  C   UNL A   1      49.178  29.400  27.281  1.00  0.00     0.029 A 
ATOM     55  C   UNL A   1      48.114  28.478  27.309  1.00  0.00     0.049 A 
ATOM     56  H   UNL A   1      46.118  28.724  27.949  1.00  0.00     0.167 HD
ATOM     57  C   UNL A   1      42.161  29.490  29.249  1.00  0.00     0.031 A 
ATOM     58  C   UNL A   1      48.209  27.162  26.884  1.00  0.00     0.031 A 
ATOM     59  C   UNL A   1      42.244  28.187  28.784  1.00  0.00     0.049 A 
ATOM     60  C   UNL A   1      47.143  26.260  26.911  1.00  0.00     0.074 A 
ATOM     61  C   UNL A   1      41.163  27.287  28.742  1.00  0.00     0.029 A 
ATOM     62  N   UNL A   1      43.354  27.537  28.292  1.00  0.00    -0.354 N 
ATOM     63  N   UNL A   1      45.890  26.497  27.302  1.00  0.00    -0.248 NA
ATOM     64  C   UNL A   1      47.241  24.855  26.493  1.00  0.00     0.031 C 
ATOM     65  C   UNL A   1      41.617  26.107  28.242  1.00  0.00     0.029 A 
ATOM     66  C   UNL A   1      42.989  26.251  27.962  1.00  0.00     0.049 A 
ATOM     67  H   UNL A   1      44.254  27.925  28.193  1.00  0.00     0.167 HD
ATOM     68  C   UNL A   1      45.149  25.396  27.167  1.00  0.00     0.074 A 
ATOM     69  C   UNL A   1      46.010  24.321  26.652  1.00  0.00     0.031 C 
ATOM     70  C   UNL A   1      43.792  25.244  27.448  1.00  0.00     0.031 A 
BRANCH  57  71
ATOM     71  C   UNL A   1      40.816  29.984  29.758  1.00  0.00    -0.014 A 
ATOM     72  C   UNL A   1      40.453  29.821  31.091  1.00  0.00     0.010 A 
ATOM     73  C   UNL A   1      39.967  30.577  28.946  1.00  0.00     0.010 A 
ATOM     74  C   UNL A   1      39.476  30.710  31.592  1.00  0.00     0.020 A 
ATOM     75  C   UNL A   1      38.724  31.022  29.411  1.00  0.00     0.020 A 
ATOM     76  C   UNL A   1      38.475  31.093  30.702  1.00  0.00     0.054 A 
BRANCH  76  77
ATOM     77  S   UNL A   1      36.870  31.674  31.305  1.00  0.00     0.124 S 
ATOM     78  O   UNL A   1      37.086  32.750  32.374  1.00  0.00    -0.237 OA
ATOM     79  O   UNL A   1      36.070  32.264  30.142  1.00  0.00    -0.237 OA
ATOM     80  O   UNL A   1      36.007  30.363  31.984  1.00  0.00    -0.744 OA
ENDBRANCH  76  77
ENDBRANCH  57  71
BRANCH  58  81
ATOM     81  C   UNL A   1      49.549  26.673  26.358  1.00  0.00    -0.014 A 
ATOM     82  C   UNL A   1      49.814  26.642  24.993  1.00  0.00     0.010 A 
ATOM     83  C   UNL A   1      50.488  26.267  27.187  1.00  0.00     0.010 A 
ATOM     84  C   UNL A   1      51.175  26.674  24.614  1.00  0.00     0.020 A 
ATOM     85  C   UNL A   1      51.718  25.807  26.704  1.00  0.00     0.020 A 
ATOM     86  C   UNL A   1      52.065  26.002  25.450  1.00  0.00     0.054 A 
BRANCH  86  87
ATOM     87  S   UNL A   1      53.658  25.413  24.825  1.00  0.00     0.124 S 
ATOM     88  O   UNL A   1      53.589  23.902  24.595  1.00  0.00    -0.237 OA
ATOM     89  O   UNL A   1      53.980  26.117  23.505  1.00  0.00    -0.237 OA
ATOM     90  O   UNL A   1      54.882  25.760  25.968  1.00  0.00    -0.744 OA
ENDBRANCH  86  87
ENDBRANCH  58  81
BRANCH  70  91
ATOM     91  C   UNL A   1      43.152  23.892  27.174  1.00  0.00    -0.014 A 
ATOM     92  C   UNL A   1      42.806  23.446  25.904  1.00  0.00     0.010 A 
ATOM     93  C   UNL A   1      43.051  23.052  28.182  1.00  0.00     0.010 A 
ATOM     94  C   UNL A   1      42.861  22.050  25.688  1.00  0.00     0.020 A 
ATOM     95  C   UNL A   1      42.596  21.744  27.980  1.00  0.00     0.020 A 
ATOM     96  C   UNL A   1      42.501  21.244  26.766  1.00  0.00     0.054 A 
BRANCH  96  97
ATOM     97  S   UNL A   1      41.917  19.551  26.504  1.00  0.00     0.124 S 
ATOM     98  O   UNL A   1      42.286  18.691  27.716  1.00  0.00    -0.237 OA
ATOM     99  O   UNL A   1      40.396  19.557  26.328  1.00  0.00    -0.237 OA
ATOM    100  O   UNL A   1      42.651  18.904  25.103  1.00  0.00    -0.744 OA
ENDBRANCH  96  97
ENDBRANCH  70  91
ENDBRANCH  44  45
ENDBRANCH  37  39
ENDBRANCH  36  37
ENDBRANCH  35  36
ENDBRANCH  34  35
ENDBRANCH  33  34
ENDBRANCH  32  33
ENDBRANCH   1  32
TORSDOF 25
ENDMDL
MODEL 2
REMARK VINA RESULT:      -9.6     10.777     17.305
REMARK SMILES Cc1cc(S(F)(F)(F)(F)F)cc2c1O[C@H](C(F)(F)F)C(C(=O)OCCOCCOCCOCCOC(=O)c1ccc(-c3c4nc(c(-c5ccc(S(=O)(=O)[O-])cc5)c5ccc([nH]5)c(-c5ccc(S(=O)(=O)[O-])cc5)c5nc(c(-c6ccc(S(=O)(=O)[O-])cc6)c6ccc3[nH]6)C=C5)C=C4)cc1)=C2
REMARK SMILES IDX 30 1 29 2 28 3 27 4 26 5 25 6 24 7 23 8 21 9 22 10 20 11
REMARK SMILES IDX 1 12 2 13 3 14 13 15 4 16 12 17 14 18 11 19 98 20 15 21 5 22
REMARK SMILES IDX 6 23 7 24 8 25 9 26 10 27 16 28 17 29 18 30 19 31 31 32
REMARK SMILES IDX 32 33 33 34 34 35 35 36 36 37 37 38 38 39 39 40 97 41 40 42
REMARK SMILES IDX 96 43 41 44 42 45 43 46 90 47 44 48 95 49 89 50 91 51 45 52
REMARK SMILES IDX 94 53 88 54 87 55 46 57 76 58 57 59 75 60 58 61 61 62 74 63
REMARK SMILES IDX 92 64 59 65 60 66 73 68 93 69 62 70 47 71 48 72 56 73 49 74
REMARK SMILES IDX 55 75 50 76 51 77 52 78 53 79 54 80 77 81 78 82 86 83 79 84
REMARK SMILES IDX 85 85 80 86 81 87 82 88 83 89 84 90 63 91 64 92 72 93 65 94
REMARK SMILES IDX 71 95 66 96 67 97 68 98 69 99 70 100
REMARK H PARENT 91 56 61 67
REMARK Flexibility Score: inf
ROOT
ATOM      1  C   UNL A   1      42.176  19.205  25.953  1.00  0.00     0.188 C 
ENDROOT
BRANCH   1   2
ATOM      2  O   UNL A   1      43.072  18.857  24.908  1.00  0.00    -0.377 OA
BRANCH   2   3
ATOM      3  C   UNL A   1      44.396  19.206  25.283  1.00  0.00     0.188 C 
BRANCH   3   4
ATOM      4  C   UNL A   1      45.067  19.950  24.140  1.00  0.00     0.188 C 
BRANCH   4   5
ATOM      5  O   UNL A   1      46.166  20.696  24.643  1.00  0.00    -0.376 OA
BRANCH   5   6
ATOM      6  C   UNL A   1      45.802  22.065  24.742  1.00  0.00     0.202 C 
BRANCH   6   7
ATOM      7  C   UNL A   1      45.662  22.447  26.207  1.00  0.00     0.261 C 
BRANCH   7   8
ATOM      8  O   UNL A   1      45.160  23.772  26.303  1.00  0.00    -0.460 OA
BRANCH   8   9
ATOM      9  C   UNL A   1      45.982  24.807  26.824  1.00  0.00     0.338 C 
ATOM     10  O   UNL A   1      45.766  25.264  27.990  1.00  0.00    -0.246 OA
BRANCH   9  11
ATOM     11  C   UNL A   1      47.120  25.367  25.987  1.00  0.00     0.087 C 
ATOM     12  C   UNL A   1      49.953  27.496  22.270  1.00  0.00     0.048 C 
ATOM     13  C   UNL A   1      50.225  26.918  23.648  1.00  0.00    -0.007 A 
ATOM     14  C   UNL A   1      51.502  26.917  24.164  1.00  0.00     0.031 A 
ATOM     15  C   UNL A   1      49.178  26.406  24.413  1.00  0.00     0.130 A 
ATOM     16  C   UNL A   1      51.755  26.408  25.432  1.00  0.00     0.108 A 
ATOM     17  C   UNL A   1      49.439  25.894  25.704  1.00  0.00     0.019 A 
ATOM     18  O   UNL A   1      47.795  26.378  23.919  1.00  0.00    -0.475 OA
ATOM     19  C   UNL A   1      50.744  25.907  26.201  1.00  0.00     0.036 A 
ATOM     20  C   UNL A   1      48.321  25.362  26.484  1.00  0.00     0.027 C 
ATOM     21  C   UNL A   1      46.833  25.866  24.716  1.00  0.00     0.316 C 
BRANCH  16  22
ATOM     22  S   UNL A   1      53.448  26.409  26.072  1.00  0.00     0.310 S 
ATOM     23  F   UNL A   1      53.527  27.913  26.572  1.00  0.00    -0.094 F 
ATOM     24  F   UNL A   1      54.021  26.910  24.692  1.00  0.00    -0.094 F 
ATOM     25  F   UNL A   1      54.887  26.213  26.628  1.00  0.00    -0.094 F 
ATOM     26  F   UNL A   1      52.859  26.046  27.491  1.00  0.00    -0.094 F 
ATOM     27  F   UNL A   1      51.985  26.712  25.557  1.00  0.00    -0.094 F 
ENDBRANCH  16  22
BRANCH  21  28
ATOM     28  C   UNL A   1      45.990  27.091  25.032  1.00  0.00     0.430 C 
ATOM     29  F   UNL A   1      46.384  27.613  26.190  1.00  0.00    -0.167 F 
ATOM     30  F   UNL A   1      46.137  27.992  24.065  1.00  0.00    -0.167 F 
ATOM     31  F   UNL A   1      44.710  26.737  25.118  1.00  0.00    -0.167 F 
ENDBRANCH  21  28
ENDBRANCH   9  11
ENDBRANCH   8   9
ENDBRANCH   7   8
ENDBRANCH   6   7
ENDBRANCH   5   6
ENDBRANCH   4   5
ENDBRANCH   3   4
ENDBRANCH   2   3
ENDBRANCH   1   2
BRANCH   1  32
ATOM     32  C   UNL A   1      42.116  20.719  26.087  1.00  0.00     0.188 C 
BRANCH  32  33
ATOM     33  O   UNL A   1      42.292  21.081  27.448  1.00  0.00    -0.376 OA
BRANCH  33  34
ATOM     34  C   UNL A   1      42.055  22.473  27.601  1.00  0.00     0.202 C 
BRANCH  34  35
ATOM     35  C   UNL A   1      41.524  23.044  26.296  1.00  0.00     0.261 C 
BRANCH  35  36
ATOM     36  O   UNL A   1      42.312  24.159  25.911  1.00  0.00    -0.460 OA
BRANCH  36  37
ATOM     37  C   UNL A   1      41.789  25.474  26.031  1.00  0.00     0.338 C 
ATOM     38  O   UNL A   1      41.388  26.095  24.996  1.00  0.00    -0.246 OA
BRANCH  37  39
ATOM     39  C   UNL A   1      41.706  26.138  27.395  1.00  0.00     0.060 A 
ATOM     40  C   UNL A   1      42.658  27.053  27.832  1.00  0.00     0.016 A 
ATOM     41  C   UNL A   1      40.618  25.977  28.117  1.00  0.00     0.016 A 
ATOM     42  C   UNL A   1      42.202  28.079  28.689  1.00  0.00     0.010 A 
ATOM     43  C   UNL A   1      40.428  26.700  29.299  1.00  0.00     0.010 A 
ATOM     44  C   UNL A   1      41.195  27.731  29.588  1.00  0.00    -0.014 A 
BRANCH  44  45
ATOM     45  C   UNL A   1      40.989  28.521  30.870  1.00  0.00     0.031 A 
ATOM     46  C   UNL A   1      41.856  28.367  31.953  1.00  0.00     0.074 A 
ATOM     47  C   UNL A   1      39.999  29.486  30.802  1.00  0.00     0.049 A 
ATOM     48  N   UNL A   1      41.916  29.111  33.060  1.00  0.00    -0.248 NA
ATOM     49  C   UNL A   1      42.885  27.321  32.043  1.00  0.00     0.031 C 
ATOM     50  C   UNL A   1      39.126  29.652  29.709  1.00  0.00     0.029 A 
ATOM     51  N   UNL A   1      39.681  30.438  31.745  1.00  0.00    -0.354 N 
ATOM     52  C   UNL A   1      42.889  28.670  33.859  1.00  0.00     0.074 A 
ATOM     53  C   UNL A   1      43.523  27.509  33.220  1.00  0.00     0.031 C 
ATOM     54  C   UNL A   1      38.285  30.682  29.994  1.00  0.00     0.029 A 
ATOM     55  C   UNL A   1      38.620  31.177  31.269  1.00  0.00     0.049 A 
ATOM     56  H   UNL A   1      40.134  30.569  32.609  1.00  0.00     0.167 HD
ATOM     57  C   UNL A   1      43.274  29.192  35.094  1.00  0.00     0.031 A 
ATOM     58  C   UNL A   1      37.966  32.225  31.897  1.00  0.00     0.031 A 
ATOM     59  C   UNL A   1      42.648  30.268  35.704  1.00  0.00     0.049 A 
ATOM     60  C   UNL A   1      38.314  32.710  33.160  1.00  0.00     0.074 A 
ATOM     61  C   UNL A   1      43.029  30.811  36.945  1.00  0.00     0.029 A 
ATOM     62  N   UNL A   1      41.572  30.990  35.239  1.00  0.00    -0.354 N 
ATOM     63  N   UNL A   1      39.312  32.294  33.941  1.00  0.00    -0.248 NA
ATOM     64  C   UNL A   1      37.608  33.799  33.848  1.00  0.00     0.031 C 
ATOM     65  C   UNL A   1      42.188  31.841  37.230  1.00  0.00     0.029 A 
ATOM     66  C   UNL A   1      41.267  31.958  36.171  1.00  0.00     0.049 A 
ATOM     67  H   UNL A   1      41.101  30.841  34.387  1.00  0.00     0.167 HD
ATOM     68  C   UNL A   1      39.344  33.011  35.066  1.00  0.00     0.074 A 
ATOM     69  C   UNL A   1      38.244  33.985  35.026  1.00  0.00     0.031 C 
ATOM     70  C   UNL A   1      40.249  32.897  36.122  1.00  0.00     0.031 A 
BRANCH  57  71
ATOM     71  C   UNL A   1      44.446  28.543  35.814  1.00  0.00    -0.014 A 
ATOM     72  C   UNL A   1      44.248  27.486  36.694  1.00  0.00     0.010 A 
ATOM     73  C   UNL A   1      45.674  28.972  35.618  1.00  0.00     0.010 A 
ATOM     74  C   UNL A   1      45.353  26.634  36.918  1.00  0.00     0.020 A 
ATOM     75  C   UNL A   1      46.753  28.384  36.288  1.00  0.00     0.020 A 
ATOM     76  C   UNL A   1      46.607  27.241  36.924  1.00  0.00     0.054 A 
BRANCH  76  77
ATOM     77  S   UNL A   1      48.003  26.475  37.786  1.00  0.00     0.124 S 
ATOM     78  O   UNL A   1      48.535  27.438  38.852  1.00  0.00    -0.237 OA
ATOM     79  O   UNL A   1      47.542  25.178  38.455  1.00  0.00    -0.237 OA
ATOM     80  O   UNL A   1      49.245  26.127  36.663  1.00  0.00    -0.744 OA
ENDBRANCH  76  77
ENDBRANCH  57  71
BRANCH  58  81
ATOM     81  C   UNL A   1      36.805  32.884  31.170  1.00  0.00    -0.014 A 
ATOM     82  C   UNL A   1      35.493  32.678  31.584  1.00  0.00     0.010 A 
ATOM     83  C   UNL A   1      37.018  33.665  30.132  1.00  0.00     0.010 A 
ATOM     84  C   UNL A   1      34.554  33.671  31.222  1.00  0.00     0.020 A 
ATOM     85  C   UNL A   1      35.950  34.265  29.457  1.00  0.00     0.020 A 
ATOM     86  C   UNL A   1      34.743  34.275  29.981  1.00  0.00     0.054 A 
BRANCH  86  87
ATOM     87  S   UNL A   1      33.360  35.055  29.111  1.00  0.00     0.124 S 
ATOM     88  O   UNL A   1      32.247  35.379  30.109  1.00  0.00    -0.237 OA
ATOM     89  O   UNL A   1      33.840  36.346  28.443  1.00  0.00    -0.237 OA
ATOM     90  O   UNL A   1      32.762  33.986  27.917  1.00  0.00    -0.744 OA
ENDBRANCH  86  87
ENDBRANCH  58  81
BRANCH  70  91
ATOM     91  C   UNL A   1      40.109  33.859  37.290  1.00  0.00    -0.014 A 
ATOM     92  C   UNL A   1      40.705  35.115  37.330  1.00  0.00     0.010 A 
ATOM     93  C   UNL A   1      39.268  33.535  38.248  1.00  0.00     0.010 A 
ATOM     94  C   UNL A   1      40.022  36.115  38.060  1.00  0.00     0.020 A 
ATOM     95  C   UNL A   1      38.987  34.430  39.288  1.00  0.00     0.020 A 
ATOM     96  C   UNL A   1      39.350  35.693  39.205  1.00  0.00     0.054 A 
BRANCH  96  97
ATOM     97  S   UNL A   1      38.984  36.851  40.547  1.00  0.00     0.124 S 
ATOM     98  O   UNL A   1      40.295  37.375  41.140  1.00  0.00    -0.237 OA
ATOM     99  O   UNL A   1      38.168  38.025  39.999  1.00  0.00    -0.237 OA
ATOM    100  O   UNL A   1      38.088  36.052  41.763  1.00  0.00    -0.744 OA
ENDBRANCH  96  97
ENDBRANCH  70  91
ENDBRANCH  44  45
ENDBRANCH  37  39
ENDBRANCH  36  37
ENDBRANCH  35  36
ENDBRANCH  34  35
ENDBRANCH  33  34
ENDBRANCH  32  33
ENDBRANCH   1  32
TORSDOF 25
ENDMDL
MODEL 3
REMARK VINA RESULT:      -9.5      7.308     14.369
REMARK SMILES Cc1cc(S(F)(F)(F)(F)F)cc2c1O[C@H](C(F)(F)F)C(C(=O)OCCOCCOCCOCCOC(=O)c1ccc(-c3c4nc(c(-c5ccc(S(=O)(=O)[O-])cc5)c5ccc([nH]5)c(-c5ccc(S(=O)(=O)[O-])cc5)c5nc(c(-c6ccc(S(=O)(=O)[O-])cc6)c6ccc3[nH]6)C=C5)C=C4)cc1)=C2
REMARK SMILES IDX 30 1 29 2 28 3 27 4 26 5 25 6 24 7 23 8 21 9 22 10 20 11
REMARK SMILES IDX 1 12 2 13 3 14 13 15 4 16 12 17 14 18 11 19 98 20 15 21 5 22
REMARK SMILES IDX 6 23 7 24 8 25 9 26 10 27 16 28 17 29 18 30 19 31 31 32
REMARK SMILES IDX 32 33 33 34 34 35 35 36 36 37 37 38 38 39 39 40 97 41 40 42
REMARK SMILES IDX 96 43 41 44 42 45 43 46 90 47 44 48 95 49 89 50 91 51 45 52
REMARK SMILES IDX 94 53 88 54 87 55 46 57 76 58 57 59 75 60 58 61 61 62 74 63
REMARK SMILES IDX 92 64 59 65 60 66 73 68 93 69 62 70 47 71 48 72 56 73 49 74
REMARK SMILES IDX 55 75 50 76 51 77 52 78 53 79 54 80 77 81 78 82 86 83 79 84
REMARK SMILES IDX 85 85 80 86 81 87 82 88 83 89 84 90 63 91 64 92 72 93 65 94
REMARK SMILES IDX 71 95 66 96 67 97 68 98 69 99 70 100
REMARK H PARENT 91 56 61 67
REMARK Flexibility Score: inf
ROOT
ATOM      1  C   UNL A   1      36.194  33.863  34.857  1.00  0.00     0.188 C 
ENDROOT
BRANCH   1   2
ATOM      2  O   UNL A   1      36.381  32.528  34.410  1.00  0.00    -0.377 OA
BRANCH   2   3
ATOM      3  C   UNL A   1      37.692  32.097  34.741  1.00  0.00     0.188 C 
BRANCH   3   4
ATOM      4  C   UNL A   1      37.985  30.780  34.042  1.00  0.00     0.188 C 
BRANCH   4   5
ATOM      5  O   UNL A   1      37.183  30.676  32.875  1.00  0.00    -0.376 OA
BRANCH   5   6
ATOM      6  C   UNL A   1      37.116  29.318  32.466  1.00  0.00     0.202 C 
BRANCH   6   7
ATOM      7  C   UNL A   1      37.051  29.248  30.949  1.00  0.00     0.261 C 
BRANCH   7   8
ATOM      8  O   UNL A   1      38.043  28.348  30.475  1.00  0.00    -0.460 OA
BRANCH   8   9
ATOM      9  C   UNL A   1      38.660  28.571  29.215  1.00  0.00     0.338 C 
ATOM     10  O   UNL A   1      37.949  28.864  28.203  1.00  0.00    -0.246 OA
BRANCH   9  11
ATOM     11  C   UNL A   1      40.169  28.460  29.077  1.00  0.00     0.087 C 
ATOM     12  C   UNL A   1      45.048  26.861  29.185  1.00  0.00     0.048 C 
ATOM     13  C   UNL A   1      44.324  28.112  28.716  1.00  0.00    -0.007 A 
ATOM     14  C   UNL A   1      45.024  29.148  28.140  1.00  0.00     0.031 A 
ATOM     15  C   UNL A   1      42.939  28.210  28.844  1.00  0.00     0.130 A 
ATOM     16  C   UNL A   1      44.366  30.287  27.691  1.00  0.00     0.108 A 
ATOM     17  C   UNL A   1      42.273  29.367  28.382  1.00  0.00     0.019 A 
ATOM     18  O   UNL A   1      42.137  27.140  29.451  1.00  0.00    -0.475 OA
ATOM     19  C   UNL A   1      43.010  30.401  27.800  1.00  0.00     0.036 A 
ATOM     20  C   UNL A   1      40.819  29.443  28.530  1.00  0.00     0.027 C 
ATOM     21  C   UNL A   1      40.800  27.306  29.542  1.00  0.00     0.316 C 
BRANCH  16  22
ATOM     22  S   UNL A   1      45.320  31.635  26.950  1.00  0.00     0.310 S 
ATOM     23  F   UNL A   1      44.320  32.043  25.788  1.00  0.00    -0.094 F 
ATOM     24  F   UNL A   1      46.003  30.653  25.924  1.00  0.00    -0.094 F 
ATOM     25  F   UNL A   1      46.239  32.801  26.486  1.00  0.00    -0.094 F 
ATOM     26  F   UNL A   1      44.532  32.637  27.882  1.00  0.00    -0.094 F 
ATOM     27  F   UNL A   1      44.307  30.489  27.350  1.00  0.00    -0.094 F 
ENDBRANCH  16  22
BRANCH  21  28
ATOM     28  C   UNL A   1      40.277  26.244  28.587  1.00  0.00     0.430 C 
ATOM     29  F   UNL A   1      39.138  25.745  29.059  1.00  0.00    -0.167 F 
ATOM     30  F   UNL A   1      40.063  26.789  27.394  1.00  0.00    -0.167 F 
ATOM     31  F   UNL A   1      41.175  25.269  28.475  1.00  0.00    -0.167 F 
ENDBRANCH  21  28
ENDBRANCH   9  11
ENDBRANCH   8   9
ENDBRANCH   7   8
ENDBRANCH   6   7
ENDBRANCH   5   6
ENDBRANCH   4   5
ENDBRANCH   3   4
ENDBRANCH   2   3
ENDBRANCH   1   2
BRANCH   1  32
ATOM     32  C   UNL A   1      34.988  34.468  34.155  1.00  0.00     0.188 C 
BRANCH  32  33
ATOM     33  O   UNL A   1      35.346  35.723  33.597  1.00  0.00    -0.376 OA
BRANCH  33  34
ATOM     34  C   UNL A   1      34.278  36.206  32.794  1.00  0.00     0.202 C 
BRANCH  34  35
ATOM     35  C   UNL A   1      33.740  35.074  31.933  1.00  0.00     0.261 C 
BRANCH  35  36
ATOM     36  O   UNL A   1      34.576  34.904  30.799  1.00  0.00    -0.460 OA
BRANCH  36  37
ATOM     37  C   UNL A   1      35.052  33.611  30.455  1.00  0.00     0.338 C 
ATOM     38  O   UNL A   1      34.236  32.712  30.079  1.00  0.00    -0.246 OA
BRANCH  37  39
ATOM     39  C   UNL A   1      36.538  33.303  30.535  1.00  0.00     0.060 A 
ATOM     40  C   UNL A   1      37.161  32.424  29.654  1.00  0.00     0.016 A 
ATOM     41  C   UNL A   1      37.293  34.011  31.347  1.00  0.00     0.016 A 
ATOM     42  C   UNL A   1      38.506  32.703  29.330  1.00  0.00     0.010 A 
ATOM     43  C   UNL A   1      38.685  33.877  31.332  1.00  0.00     0.010 A 
ATOM     44  C   UNL A   1      39.290  33.241  30.350  1.00  0.00    -0.014 A 
BRANCH  44  45
ATOM     45  C   UNL A   1      40.802  33.097  30.329  1.00  0.00     0.031 A 
ATOM     46  C   UNL A   1      41.611  34.107  29.805  1.00  0.00     0.074 A 
ATOM     47  C   UNL A   1      41.287  31.988  31.001  1.00  0.00     0.049 A 
ATOM     48  N   UNL A   1      42.939  34.209  29.881  1.00  0.00    -0.248 NA
ATOM     49  C   UNL A   1      41.100  35.268  29.061  1.00  0.00     0.031 C 
ATOM     50  C   UNL A   1      40.478  30.969  31.539  1.00  0.00     0.029 A 
ATOM     51  N   UNL A   1      42.600  31.669  31.269  1.00  0.00    -0.354 N 
ATOM     52  C   UNL A   1      43.351  35.325  29.278  1.00  0.00     0.074 A 
ATOM     53  C   UNL A   1      42.175  36.020  28.737  1.00  0.00     0.031 C 
ATOM     54  C   UNL A   1      41.292  30.043  32.113  1.00  0.00     0.029 A 
ATOM     55  C   UNL A   1      42.623  30.469  31.943  1.00  0.00     0.049 A 
ATOM     56  H   UNL A   1      43.387  32.207  31.021  1.00  0.00     0.167 HD
ATOM     57  C   UNL A   1      44.661  35.792  29.160  1.00  0.00     0.031 A 
ATOM     58  C   UNL A   1      43.731  29.768  32.392  1.00  0.00     0.031 A 
ATOM     59  C   UNL A   1      45.766  35.112  29.647  1.00  0.00     0.049 A 
ATOM     60  C   UNL A   1      45.047  30.206  32.222  1.00  0.00     0.074 A 
ATOM     61  C   UNL A   1      47.093  35.573  29.543  1.00  0.00     0.029 A 
ATOM     62  N   UNL A   1      45.790  33.900  30.299  1.00  0.00    -0.354 N 
ATOM     63  N   UNL A   1      45.455  31.341  31.654  1.00  0.00    -0.248 NA
ATOM     64  C   UNL A   1      46.229  29.457  32.666  1.00  0.00     0.031 C 
ATOM     65  C   UNL A   1      47.906  34.647  30.117  1.00  0.00     0.029 A 
ATOM     66  C   UNL A   1      47.102  33.592  30.588  1.00  0.00     0.049 A 
ATOM     67  H   UNL A   1      45.006  33.348  30.522  1.00  0.00     0.167 HD
ATOM     68  C   UNL A   1      46.787  31.422  31.694  1.00  0.00     0.074 A 
ATOM     69  C   UNL A   1      47.304  30.207  32.339  1.00  0.00     0.031 C 
ATOM     70  C   UNL A   1      47.590  32.461  31.223  1.00  0.00     0.031 A 
BRANCH  57  71
ATOM     71  C   UNL A   1      44.889  37.121  28.458  1.00  0.00    -0.014 A 
ATOM     72  C   UNL A   1      45.170  38.274  29.183  1.00  0.00     0.010 A 
ATOM     73  C   UNL A   1      44.823  37.208  27.147  1.00  0.00     0.010 A 
ATOM     74  C   UNL A   1      45.847  39.304  28.494  1.00  0.00     0.020 A 
ATOM     75  C   UNL A   1      45.022  38.433  26.499  1.00  0.00     0.020 A 
ATOM     76  C   UNL A   1      45.523  39.462  27.148  1.00  0.00     0.054 A 
BRANCH  76  77
ATOM     77  S   UNL A   1      45.786  41.046  26.311  1.00  0.00     0.124 S 
ATOM     78  O   UNL A   1      44.516  41.895  26.414  1.00  0.00    -0.237 OA
ATOM     79  O   UNL A   1      46.950  41.787  26.973  1.00  0.00    -0.237 OA
ATOM     80  O   UNL A   1      46.152  40.766  24.664  1.00  0.00    -0.744 OA
ENDBRANCH  76  77
ENDBRANCH  57  71
BRANCH  58  81
ATOM     81  C   UNL A   1      43.502  28.447  33.109  1.00  0.00    -0.014 A 
ATOM     82  C   UNL A   1      43.524  27.243  32.414  1.00  0.00     0.010 A 
ATOM     83  C   UNL A   1      43.278  28.417  34.406  1.00  0.00     0.010 A 
ATOM     84  C   UNL A   1      43.811  26.083  33.169  1.00  0.00     0.020 A 
ATOM     85  C   UNL A   1      43.058  27.203  35.065  1.00  0.00     0.020 A 
ATOM     86  C   UNL A   1      43.316  26.057  34.472  1.00  0.00     0.054 A 
BRANCH  86  87
ATOM     87  S   UNL A   1      43.037  24.485  35.325  1.00  0.00     0.124 S 
ATOM     88  O   UNL A   1      41.574  24.395  35.763  1.00  0.00    -0.237 OA
ATOM     89  O   UNL A   1      43.360  23.327  34.379  1.00  0.00    -0.237 OA
ATOM     90  O   UNL A   1      44.050  24.396  36.701  1.00  0.00    -0.744 OA
ENDBRANCH  86  87
ENDBRANCH  58  81
BRANCH  70  91
ATOM     91  C   UNL A   1      49.093  32.345  31.417  1.00  0.00    -0.014 A 
ATOM     92  C   UNL A   1      49.957  31.824  30.460  1.00  0.00     0.010 A 
ATOM     93  C   UNL A   1      49.612  32.895  32.494  1.00  0.00     0.010 A 
ATOM     94  C   UNL A   1      51.270  32.346  30.443  1.00  0.00     0.020 A 
ATOM     95  C   UNL A   1      50.999  32.945  32.676  1.00  0.00     0.020 A 
ATOM     96  C   UNL A   1      51.818  32.680  31.680  1.00  0.00     0.054 A 
BRANCH  96  97
ATOM     97  S   UNL A   1      53.612  32.749  31.913  1.00  0.00     0.124 S 
ATOM     98  O   UNL A   1      53.964  32.238  33.313  1.00  0.00    -0.237 OA
ATOM     99  O   UNL A   1      54.296  31.871  30.862  1.00  0.00    -0.237 OA
ATOM    100  O   UNL A   1      54.148  34.363  31.745  1.00  0.00    -0.744 OA
ENDBRANCH  96  97
ENDBRANCH  70  91
ENDBRANCH  44  45
ENDBRANCH  37  39
ENDBRANCH  36  37
ENDBRANCH  35  36
ENDBRANCH  34  35
ENDBRANCH  33  34
ENDBRANCH  32  33
ENDBRANCH   1  32
TORSDOF 25
ENDMDL
