MODEL 1
REMARK VINA RESULT:      -9.4      0.000      0.000
REMARK SMILES N#Cc1ccc(C[N@H+]2CCCC[C@H]2C(=O)OCCOCCOCCOCCOC(=O)c2ccc(-c3c4nc(c(-c5ccc(S(=O)(=O)[O-])cc5)c5ccc([nH]5)c(-c5ccc(S(=O)(=O)[O-])cc5)c5nc(c(-c6ccc(S(=O)(=O)[O-])cc6)c6ccc3[nH]6)C=C5)C=C4)cc2)c(F)c1
REMARK SMILES IDX 22 1 21 2 20 3 19 4 18 5 17 6 16 7 14 8 15 9 13 10 8 11 9 12
REMARK SMILES IDX 10 14 12 15 11 16 7 17 6 18 3 19 4 20 93 21 5 22 91 23 92 24
REMARK SMILES IDX 2 25 1 26 23 27 24 28 25 29 26 30 27 31 28 32 29 33 30 34
REMARK SMILES IDX 31 35 32 36 90 37 33 38 89 39 34 40 35 41 36 42 83 43 37 44
REMARK SMILES IDX 88 45 82 46 84 47 38 48 87 49 81 50 80 51 39 53 69 54 50 55
REMARK SMILES IDX 68 56 51 57 54 58 67 59 85 60 52 61 53 62 66 64 86 65 55 66
REMARK SMILES IDX 40 67 41 68 49 69 42 70 48 71 43 72 44 73 45 74 46 75 47 76
REMARK SMILES IDX 70 77 71 78 79 79 72 80 78 81 73 82 74 83 75 84 76 85 77 86
REMARK SMILES IDX 56 87 57 88 65 89 58 90 64 91 59 92 60 93 61 94 62 95 63 96
REMARK H PARENT 8 13 84 52 54 63
REMARK Flexibility Score: inf
ROOT
ATOM      1  O   UNL A   1      33.050  22.053  23.640  1.00  0.00    -0.377 OA
ENDROOT
BRANCH   1   2
ATOM      2  C   UNL A   1      33.812  22.979  22.890  1.00  0.00     0.188 C 
BRANCH   2   3
ATOM      3  C   UNL A   1      33.066  24.045  22.113  1.00  0.00     0.188 C 
BRANCH   3   4
ATOM      4  O   UNL A   1      33.665  25.316  22.251  1.00  0.00    -0.376 OA
BRANCH   4   5
ATOM      5  C   UNL A   1      33.060  26.451  21.660  1.00  0.00     0.202 C 
BRANCH   5   6
ATOM      6  C   UNL A   1      31.955  27.362  22.306  1.00  0.00     0.261 C 
BRANCH   6   7
ATOM      7  O   UNL A   1      32.132  28.766  22.631  1.00  0.00    -0.459 OA
BRANCH   7   8
ATOM      8  C   UNL A   1      32.960  28.956  23.678  1.00  0.00     0.364 C 
ATOM      9  O   UNL A   1      34.100  29.315  23.439  1.00  0.00    -0.245 OA
BRANCH   8  10
ATOM     10  C   UNL A   1      32.448  28.658  25.110  1.00  0.00     0.295 C 
ATOM     11  N   UNL A   1      33.417  27.918  25.986  1.00  0.00    -0.319 N 
ATOM     12  C   UNL A   1      34.438  28.701  26.664  1.00  0.00     0.263 C 
ATOM     13  H   UNL A   1      32.743  27.722  26.726  1.00  0.00     0.349 HD
ATOM     14  C   UNL A   1      33.916  29.963  27.365  1.00  0.00     0.062 C 
ATOM     15  C   UNL A   1      31.842  29.852  25.874  1.00  0.00     0.078 C 
ATOM     16  C   UNL A   1      32.826  30.736  26.634  1.00  0.00     0.013 C 
BRANCH  11  17
ATOM     17  C   UNL A   1      33.796  26.523  25.651  1.00  0.00     0.302 C 
BRANCH  17  18
ATOM     18  C   UNL A   1      32.757  25.411  25.719  1.00  0.00     0.042 A 
ATOM     19  C   UNL A   1      30.732  23.623  26.535  1.00  0.00     0.055 A 
ATOM     20  C   UNL A   1      30.428  24.695  25.683  1.00  0.00     0.020 A 
ATOM     21  C   UNL A   1      32.066  23.342  26.833  1.00  0.00     0.059 A 
ATOM     22  C   UNL A   1      31.435  25.590  25.282  1.00  0.00     0.014 A 
ATOM     23  C   UNL A   1      33.069  24.211  26.390  1.00  0.00     0.133 A 
ATOM     24  F   UNL A   1      34.320  24.004  26.829  1.00  0.00    -0.206 F 
BRANCH  19  25
ATOM     25  C   UNL A   1      29.679  22.919  27.204  1.00  0.00     0.099 C 
ATOM     26  N   UNL A   1      28.833  22.308  27.725  1.00  0.00    -0.192 NA
ENDBRANCH  19  25
ENDBRANCH  17  18
ENDBRANCH  11  17
ENDBRANCH   8  10
ENDBRANCH   7   8
ENDBRANCH   6   7
ENDBRANCH   5   6
ENDBRANCH   4   5
ENDBRANCH   3   4
ENDBRANCH   2   3
ENDBRANCH   1   2
BRANCH   1  27
ATOM     27  C   UNL A   1      33.755  21.050  24.351  1.00  0.00     0.188 C 
BRANCH  27  28
ATOM     28  C   UNL A   1      35.091  21.477  24.977  1.00  0.00     0.188 C 
BRANCH  28  29
ATOM     29  O   UNL A   1      36.121  20.506  25.159  1.00  0.00    -0.376 OA
BRANCH  29  30
ATOM     30  C   UNL A   1      37.478  20.873  24.964  1.00  0.00     0.202 C 
BRANCH  30  31
ATOM     31  C   UNL A   1      37.930  22.244  25.460  1.00  0.00     0.261 C 
BRANCH  31  32
ATOM     32  O   UNL A   1      38.773  22.194  26.615  1.00  0.00    -0.460 OA
BRANCH  32  33
ATOM     33  C   UNL A   1      40.006  22.735  26.456  1.00  0.00     0.338 C 
ATOM     34  O   UNL A   1      40.964  22.237  25.893  1.00  0.00    -0.246 OA
BRANCH  33  35
ATOM     35  C   UNL A   1      39.974  24.131  26.932  1.00  0.00     0.060 A 
ATOM     36  C   UNL A   1      40.548  25.144  26.146  1.00  0.00     0.016 A 
ATOM     37  C   UNL A   1      39.419  24.425  28.176  1.00  0.00     0.016 A 
ATOM     38  C   UNL A   1      40.619  26.445  26.628  1.00  0.00     0.010 A 
ATOM     39  C   UNL A   1      39.516  25.722  28.672  1.00  0.00     0.010 A 
ATOM     40  C   UNL A   1      40.160  26.720  27.920  1.00  0.00    -0.014 A 
BRANCH  40  41
ATOM     41  C   UNL A   1      40.563  27.975  28.584  1.00  0.00     0.031 A 
ATOM     42  C   UNL A   1      41.954  28.059  29.146  1.00  0.00     0.074 A 
ATOM     43  C   UNL A   1      39.712  29.009  28.682  1.00  0.00     0.049 A 
ATOM     44  N   UNL A   1      42.508  29.008  29.851  1.00  0.00    -0.248 NA
ATOM     45  C   UNL A   1      42.837  26.909  28.884  1.00  0.00     0.031 C 
ATOM     46  C   UNL A   1      38.365  29.056  28.115  1.00  0.00     0.029 A 
ATOM     47  N   UNL A   1      39.861  30.220  29.306  1.00  0.00    -0.354 N 
ATOM     48  C   UNL A   1      43.795  28.564  30.133  1.00  0.00     0.074 A 
ATOM     49  C   UNL A   1      43.926  27.244  29.556  1.00  0.00     0.031 C 
ATOM     50  C   UNL A   1      37.806  30.238  28.425  1.00  0.00     0.029 A 
ATOM     51  C   UNL A   1      38.737  31.007  29.250  1.00  0.00     0.049 A 
ATOM     52  H   UNL A   1      40.693  30.498  29.753  1.00  0.00     0.167 HD
ATOM     53  C   UNL A   1      44.779  29.202  30.807  1.00  0.00     0.031 A 
ATOM     54  C   UNL A   1      38.487  32.198  29.823  1.00  0.00     0.031 A 
ATOM     55  C   UNL A   1      44.621  30.506  31.394  1.00  0.00     0.049 A 
ATOM     56  C   UNL A   1      39.563  32.845  30.658  1.00  0.00     0.074 A 
ATOM     57  C   UNL A   1      45.551  31.252  32.096  1.00  0.00     0.029 A 
ATOM     58  N   UNL A   1      43.453  31.254  31.356  1.00  0.00    -0.354 N 
ATOM     59  N   UNL A   1      40.781  32.426  30.907  1.00  0.00    -0.248 NA
ATOM     60  C   UNL A   1      39.229  34.132  31.282  1.00  0.00     0.031 C 
ATOM     61  C   UNL A   1      44.922  32.416  32.546  1.00  0.00     0.029 A 
ATOM     62  C   UNL A   1      43.626  32.438  32.051  1.00  0.00     0.049 A 
ATOM     63  H   UNL A   1      42.624  30.983  30.901  1.00  0.00     0.167 HD
ATOM     64  C   UNL A   1      41.373  33.417  31.684  1.00  0.00     0.074 A 
ATOM     65  C   UNL A   1      40.381  34.460  31.850  1.00  0.00     0.031 C 
ATOM     66  C   UNL A   1      42.625  33.466  32.206  1.00  0.00     0.031 A 
BRANCH  53  67
ATOM     67  C   UNL A   1      46.087  28.475  30.983  1.00  0.00    -0.014 A 
ATOM     68  C   UNL A   1      46.314  27.621  32.079  1.00  0.00     0.010 A 
ATOM     69  C   UNL A   1      47.106  28.637  30.025  1.00  0.00     0.010 A 
ATOM     70  C   UNL A   1      47.547  26.984  32.240  1.00  0.00     0.020 A 
ATOM     71  C   UNL A   1      48.328  27.972  30.162  1.00  0.00     0.020 A 
ATOM     72  C   UNL A   1      48.547  27.165  31.280  1.00  0.00     0.054 A 
BRANCH  72  73
ATOM     73  S   UNL A   1      50.131  26.314  31.507  1.00  0.00     0.124 S 
ATOM     74  O   UNL A   1      50.522  26.754  32.845  1.00  0.00    -0.237 OA
ATOM     75  O   UNL A   1      49.756  24.907  31.394  1.00  0.00    -0.237 OA
ATOM     76  O   UNL A   1      50.961  26.824  30.419  1.00  0.00    -0.744 OA
ENDBRANCH  72  73
ENDBRANCH  53  67
BRANCH  54  77
ATOM     77  C   UNL A   1      37.165  32.856  29.631  1.00  0.00    -0.014 A 
ATOM     78  C   UNL A   1      36.252  32.940  30.696  1.00  0.00     0.010 A 
ATOM     79  C   UNL A   1      36.812  33.404  28.384  1.00  0.00     0.010 A 
ATOM     80  C   UNL A   1      35.004  33.544  30.514  1.00  0.00     0.020 A 
ATOM     81  C   UNL A   1      35.580  34.040  28.207  1.00  0.00     0.020 A 
ATOM     82  C   UNL A   1      34.680  34.096  29.271  1.00  0.00     0.054 A 
BRANCH  82  83
ATOM     83  S   UNL A   1      33.076  34.920  29.079  1.00  0.00     0.124 S 
ATOM     84  O   UNL A   1      32.531  34.847  30.430  1.00  0.00    -0.237 OA
ATOM     85  O   UNL A   1      33.464  36.252  28.621  1.00  0.00    -0.237 OA
ATOM     86  O   UNL A   1      32.388  34.103  28.081  1.00  0.00    -0.744 OA
ENDBRANCH  82  83
ENDBRANCH  54  77
BRANCH  66  87
ATOM     87  C   UNL A   1      43.014  34.708  32.968  1.00  0.00    -0.014 A 
ATOM     88  C   UNL A   1      42.864  34.794  34.364  1.00  0.00     0.010 A 
ATOM     89  C   UNL A   1      43.595  35.786  32.274  1.00  0.00     0.010 A 
ATOM     90  C   UNL A   1      43.254  35.951  35.045  1.00  0.00     0.020 A 
ATOM     91  C   UNL A   1      44.022  36.928  32.957  1.00  0.00     0.020 A 
ATOM     92  C   UNL A   1      43.835  37.008  34.337  1.00  0.00     0.054 A 
BRANCH  92  93
ATOM     93  S   UNL A   1      44.376  38.476  35.254  1.00  0.00     0.124 S 
ATOM     94  O   UNL A   1      43.747  39.556  34.498  1.00  0.00    -0.237 OA
ATOM     95  O   UNL A   1      43.826  38.239  36.587  1.00  0.00    -0.237 OA
ATOM     96  O   UNL A   1      45.833  38.423  35.168  1.00  0.00    -0.744 OA
ENDBRANCH  92  93
ENDBRANCH  66  87
ENDBRANCH  40  41
ENDBRANCH  33  35
ENDBRANCH  32  33
ENDBRANCH  31  32
ENDBRANCH  30  31
ENDBRANCH  29  30
ENDBRANCH  28  29
ENDBRANCH  27  28
ENDBRANCH   1  27
TORSDOF 26
ENDMDL
MODEL 2
REMARK VINA RESULT:      -9.2      3.583      4.862
REMARK SMILES N#Cc1ccc(C[N@H+]2CCCC[C@H]2C(=O)OCCOCCOCCOCCOC(=O)c2ccc(-c3c4nc(c(-c5ccc(S(=O)(=O)[O-])cc5)c5ccc([nH]5)c(-c5ccc(S(=O)(=O)[O-])cc5)c5nc(c(-c6ccc(S(=O)(=O)[O-])cc6)c6ccc3[nH]6)C=C5)C=C4)cc2)c(F)c1
REMARK SMILES IDX 22 1 21 2 20 3 19 4 18 5 17 6 16 7 14 8 15 9 13 10 8 11 9 12
REMARK SMILES IDX 10 14 12 15 11 16 7 17 6 18 3 19 4 20 93 21 5 22 91 23 92 24
REMARK SMILES IDX 2 25 1 26 23 27 24 28 25 29 26 30 27 31 28 32 29 33 30 34
REMARK SMILES IDX 31 35 32 36 90 37 33 38 89 39 34 40 35 41 36 42 83 43 37 44
REMARK SMILES IDX 88 45 82 46 84 47 38 48 87 49 81 50 80 51 39 53 69 54 50 55
REMARK SMILES IDX 68 56 51 57 54 58 67 59 85 60 52 61 53 62 66 64 86 65 55 66
REMARK SMILES IDX 40 67 41 68 49 69 42 70 48 71 43 72 44 73 45 74 46 75 47 76
REMARK SMILES IDX 70 77 71 78 79 79 72 80 78 81 73 82 74 83 75 84 76 85 77 86
REMARK SMILES IDX 56 87 57 88 65 89 58 90 64 91 59 92 60 93 61 94 62 95 63 96
REMARK H PARENT 8 13 84 52 54 63
REMARK Flexibility Score: inf
ROOT
ATOM      1  O   UNL A   1      35.674  20.507  24.765  1.00  0.00    -0.377 OA
ENDROOT
BRANCH   1   2
ATOM      2  C   UNL A   1      34.503  20.132  25.467  1.00  0.00     0.188 C 
BRANCH   2   3
ATOM      3  C   UNL A   1      33.468  19.309  24.728  1.00  0.00     0.188 C 
BRANCH   3   4
ATOM      4  O   UNL A   1      32.230  19.981  24.631  1.00  0.00    -0.376 OA
BRANCH   4   5
ATOM      5  C   UNL A   1      32.170  21.275  24.059  1.00  0.00     0.202 C 
BRANCH   5   6
ATOM      6  C   UNL A   1      32.275  22.641  24.828  1.00  0.00     0.261 C 
BRANCH   6   7
ATOM      7  O   UNL A   1      31.136  23.402  25.311  1.00  0.00    -0.459 OA
BRANCH   7   8
ATOM      8  C   UNL A   1      31.484  24.618  25.778  1.00  0.00     0.364 C 
ATOM      9  O   UNL A   1      31.246  24.863  26.948  1.00  0.00    -0.245 OA
BRANCH   8  10
ATOM     10  C   UNL A   1      32.106  25.652  24.806  1.00  0.00     0.295 C 
ATOM     11  N   UNL A   1      31.293  26.897  24.602  1.00  0.00    -0.319 N 
ATOM     12  C   UNL A   1      31.428  27.954  25.591  1.00  0.00     0.263 C 
ATOM     13  H   UNL A   1      31.845  27.241  23.816  1.00  0.00     0.349 HD
ATOM     14  C   UNL A   1      32.877  28.298  25.965  1.00  0.00     0.062 C 
ATOM     15  C   UNL A   1      33.584  26.014  25.060  1.00  0.00     0.078 C 
ATOM     16  C   UNL A   1      33.841  27.124  26.074  1.00  0.00     0.013 C 
BRANCH  11  17
ATOM     17  C   UNL A   1      29.972  26.812  23.931  1.00  0.00     0.302 C 
BRANCH  17  18
ATOM     18  C   UNL A   1      29.477  27.967  23.071  1.00  0.00     0.042 A 
ATOM     19  C   UNL A   1      28.599  30.477  22.124  1.00  0.00     0.055 A 
ATOM     20  C   UNL A   1      29.912  30.048  21.878  1.00  0.00     0.020 A 
ATOM     21  C   UNL A   1      27.680  29.587  22.681  1.00  0.00     0.059 A 
ATOM     22  C   UNL A   1      30.351  28.801  22.355  1.00  0.00     0.014 A 
ATOM     23  C   UNL A   1      28.115  28.328  23.110  1.00  0.00     0.133 A 
ATOM     24  F   UNL A   1      27.247  27.561  23.788  1.00  0.00    -0.206 F 
BRANCH  19  25
ATOM     25  C   UNL A   1      28.250  31.854  21.940  1.00  0.00     0.099 C 
ATOM     26  N   UNL A   1      27.987  32.985  21.830  1.00  0.00    -0.192 NA
ENDBRANCH  19  25
ENDBRANCH  17  18
ENDBRANCH  11  17
ENDBRANCH   8  10
ENDBRANCH   7   8
ENDBRANCH   6   7
ENDBRANCH   5   6
ENDBRANCH   4   5
ENDBRANCH   3   4
ENDBRANCH   2   3
ENDBRANCH   1   2
BRANCH   1  27
ATOM     27  C   UNL A   1      36.546  21.429  25.395  1.00  0.00     0.188 C 
BRANCH  27  28
ATOM     28  C   UNL A   1      38.048  21.200  25.175  1.00  0.00     0.188 C 
BRANCH  28  29
ATOM     29  O   UNL A   1      38.987  21.816  26.055  1.00  0.00    -0.376 OA
BRANCH  29  30
ATOM     30  C   UNL A   1      40.190  21.140  26.388  1.00  0.00     0.202 C 
BRANCH  30  31
ATOM     31  C   UNL A   1      41.037  21.700  27.528  1.00  0.00     0.261 C 
BRANCH  31  32
ATOM     32  O   UNL A   1      40.708  23.046  27.888  1.00  0.00    -0.460 OA
BRANCH  32  33
ATOM     33  C   UNL A   1      41.473  24.003  27.308  1.00  0.00     0.338 C 
ATOM     34  O   UNL A   1      42.167  23.892  26.314  1.00  0.00    -0.246 OA
BRANCH  33  35
ATOM     35  C   UNL A   1      41.206  25.291  27.978  1.00  0.00     0.060 A 
ATOM     36  C   UNL A   1      42.259  26.201  28.171  1.00  0.00     0.016 A 
ATOM     37  C   UNL A   1      39.928  25.569  28.457  1.00  0.00     0.016 A 
ATOM     38  C   UNL A   1      42.046  27.369  28.892  1.00  0.00     0.010 A 
ATOM     39  C   UNL A   1      39.721  26.724  29.205  1.00  0.00     0.010 A 
ATOM     40  C   UNL A   1      40.791  27.599  29.465  1.00  0.00    -0.014 A 
BRANCH  40  41
ATOM     41  C   UNL A   1      40.650  28.613  30.528  1.00  0.00     0.031 A 
ATOM     42  C   UNL A   1      41.548  28.504  31.729  1.00  0.00     0.074 A 
ATOM     43  C   UNL A   1      39.749  29.603  30.424  1.00  0.00     0.049 A 
ATOM     44  N   UNL A   1      41.552  29.209  32.828  1.00  0.00    -0.248 NA
ATOM     45  C   UNL A   1      42.573  27.446  31.686  1.00  0.00     0.031 C 
ATOM     46  C   UNL A   1      38.877  29.839  29.275  1.00  0.00     0.029 A 
ATOM     47  N   UNL A   1      39.416  30.591  31.312  1.00  0.00    -0.354 N 
ATOM     48  C   UNL A   1      42.564  28.671  33.614  1.00  0.00     0.074 A 
ATOM     49  C   UNL A   1      43.125  27.556  32.883  1.00  0.00     0.031 C 
ATOM     50  C   UNL A   1      38.099  30.904  29.532  1.00  0.00     0.029 A 
ATOM     51  C   UNL A   1      38.388  31.393  30.880  1.00  0.00     0.049 A 
ATOM     52  H   UNL A   1      39.870  30.715  32.178  1.00  0.00     0.167 HD
ATOM     53  C   UNL A   1      42.990  29.073  34.834  1.00  0.00     0.031 A 
ATOM     54  C   UNL A   1      37.743  32.388  31.515  1.00  0.00     0.031 A 
ATOM     55  C   UNL A   1      42.403  30.171  35.556  1.00  0.00     0.049 A 
ATOM     56  C   UNL A   1      38.165  32.753  32.915  1.00  0.00     0.074 A 
ATOM     57  C   UNL A   1      42.755  30.671  36.797  1.00  0.00     0.029 A 
ATOM     58  N   UNL A   1      41.333  30.931  35.106  1.00  0.00    -0.354 N 
ATOM     59  N   UNL A   1      39.132  32.250  33.646  1.00  0.00    -0.248 NA
ATOM     60  C   UNL A   1      37.410  33.829  33.573  1.00  0.00     0.031 C 
ATOM     61  C   UNL A   1      41.850  31.684  37.128  1.00  0.00     0.029 A 
ATOM     62  C   UNL A   1      40.988  31.874  36.058  1.00  0.00     0.049 A 
ATOM     63  H   UNL A   1      40.885  30.816  34.237  1.00  0.00     0.167 HD
ATOM     64  C   UNL A   1      39.128  32.975  34.834  1.00  0.00     0.074 A 
ATOM     65  C   UNL A   1      38.070  33.958  34.715  1.00  0.00     0.031 C 
ATOM     66  C   UNL A   1      39.930  32.846  35.921  1.00  0.00     0.031 A 
BRANCH  53  67
ATOM     67  C   UNL A   1      44.108  28.292  35.474  1.00  0.00    -0.014 A 
ATOM     68  C   UNL A   1      43.892  27.015  36.024  1.00  0.00     0.010 A 
ATOM     69  C   UNL A   1      45.404  28.840  35.514  1.00  0.00     0.010 A 
ATOM     70  C   UNL A   1      44.936  26.323  36.644  1.00  0.00     0.020 A 
ATOM     71  C   UNL A   1      46.460  28.135  36.099  1.00  0.00     0.020 A 
ATOM     72  C   UNL A   1      46.214  26.889  36.678  1.00  0.00     0.054 A 
BRANCH  72  73
ATOM     73  S   UNL A   1      47.553  25.962  37.475  1.00  0.00     0.124 S 
ATOM     74  O   UNL A   1      46.957  25.620  38.765  1.00  0.00    -0.237 OA
ATOM     75  O   UNL A   1      47.754  24.842  36.560  1.00  0.00    -0.237 OA
ATOM     76  O   UNL A   1      48.654  26.920  37.534  1.00  0.00    -0.744 OA
ENDBRANCH  72  73
ENDBRANCH  53  67
BRANCH  54  77
ATOM     77  C   UNL A   1      36.629  33.107  30.837  1.00  0.00    -0.014 A 
ATOM     78  C   UNL A   1      35.294  32.846  31.190  1.00  0.00     0.010 A 
ATOM     79  C   UNL A   1      36.896  34.060  29.836  1.00  0.00     0.010 A 
ATOM     80  C   UNL A   1      34.247  33.509  30.545  1.00  0.00     0.020 A 
ATOM     81  C   UNL A   1      35.854  34.751  29.212  1.00  0.00     0.020 A 
ATOM     82  C   UNL A   1      34.535  34.463  29.564  1.00  0.00     0.054 A 
BRANCH  82  83
ATOM     83  S   UNL A   1      33.158  35.347  28.781  1.00  0.00     0.124 S 
ATOM     84  O   UNL A   1      32.486  34.278  28.050  1.00  0.00    -0.237 OA
ATOM     85  O   UNL A   1      32.436  35.880  29.932  1.00  0.00    -0.237 OA
ATOM     86  O   UNL A   1      33.824  36.351  27.952  1.00  0.00    -0.744 OA
ENDBRANCH  82  83
ENDBRANCH  54  77
BRANCH  66  87
ATOM     87  C   UNL A   1      39.729  33.821  37.054  1.00  0.00    -0.014 A 
ATOM     88  C   UNL A   1      38.921  33.509  38.161  1.00  0.00     0.010 A 
ATOM     89  C   UNL A   1      40.414  35.051  37.031  1.00  0.00     0.010 A 
ATOM     90  C   UNL A   1      38.772  34.425  39.207  1.00  0.00     0.020 A 
ATOM     91  C   UNL A   1      40.299  35.952  38.092  1.00  0.00     0.020 A 
ATOM     92  C   UNL A   1      39.466  35.640  39.167  1.00  0.00     0.054 A 
BRANCH  92  93
ATOM     93  S   UNL A   1      39.292  36.787  40.559  1.00  0.00     0.124 S 
ATOM     94  O   UNL A   1      40.672  36.920  41.019  1.00  0.00    -0.237 OA
ATOM     95  O   UNL A   1      38.724  37.974  39.925  1.00  0.00    -0.237 OA
ATOM     96  O   UNL A   1      38.396  36.088  41.477  1.00  0.00    -0.744 OA
ENDBRANCH  92  93
ENDBRANCH  66  87
ENDBRANCH  40  41
ENDBRANCH  33  35
ENDBRANCH  32  33
ENDBRANCH  31  32
ENDBRANCH  30  31
ENDBRANCH  29  30
ENDBRANCH  28  29
ENDBRANCH  27  28
ENDBRANCH   1  27
TORSDOF 26
ENDMDL
MODEL 3
REMARK VINA RESULT:      -8.4      1.961      2.553
REMARK SMILES N#Cc1ccc(C[N@H+]2CCCC[C@H]2C(=O)OCCOCCOCCOCCOC(=O)c2ccc(-c3c4nc(c(-c5ccc(S(=O)(=O)[O-])cc5)c5ccc([nH]5)c(-c5ccc(S(=O)(=O)[O-])cc5)c5nc(c(-c6ccc(S(=O)(=O)[O-])cc6)c6ccc3[nH]6)C=C5)C=C4)cc2)c(F)c1
REMARK SMILES IDX 22 1 21 2 20 3 19 4 18 5 17 6 16 7 14 8 15 9 13 10 8 11 9 12
REMARK SMILES IDX 10 14 12 15 11 16 7 17 6 18 3 19 4 20 93 21 5 22 91 23 92 24
REMARK SMILES IDX 2 25 1 26 23 27 24 28 25 29 26 30 27 31 28 32 29 33 30 34
REMARK SMILES IDX 31 35 32 36 90 37 33 38 89 39 34 40 35 41 36 42 83 43 37 44
REMARK SMILES IDX 88 45 82 46 84 47 38 48 87 49 81 50 80 51 39 53 69 54 50 55
REMARK SMILES IDX 68 56 51 57 54 58 67 59 85 60 52 61 53 62 66 64 86 65 55 66
REMARK SMILES IDX 40 67 41 68 49 69 42 70 48 71 43 72 44 73 45 74 46 75 47 76
REMARK SMILES IDX 70 77 71 78 79 79 72 80 78 81 73 82 74 83 75 84 76 85 77 86
REMARK SMILES IDX 56 87 57 88 65 89 58 90 64 91 59 92 60 93 61 94 62 95 63 96
REMARK H PARENT 8 13 84 52 54 63
REMARK Flexibility Score: inf
ROOT
ATOM      1  O   UNL A   1      33.313  22.160  23.753  1.00  0.00    -0.377 OA
ENDROOT
BRANCH   1   2
ATOM      2  C   UNL A   1      34.029  22.960  22.831  1.00  0.00     0.188 C 
BRANCH   2   3
ATOM      3  C   UNL A   1      33.244  23.947  21.990  1.00  0.00     0.188 C 
BRANCH   3   4
ATOM      4  O   UNL A   1      33.675  25.275  22.194  1.00  0.00    -0.376 OA
BRANCH   4   5
ATOM      5  C   UNL A   1      32.940  26.351  21.639  1.00  0.00     0.202 C 
BRANCH   5   6
ATOM      6  C   UNL A   1      31.764  27.131  22.329  1.00  0.00     0.261 C 
BRANCH   6   7
ATOM      7  O   UNL A   1      31.785  28.550  22.634  1.00  0.00    -0.459 OA
BRANCH   7   8
ATOM      8  C   UNL A   1      32.654  28.858  23.618  1.00  0.00     0.364 C 
ATOM      9  O   UNL A   1      33.733  29.325  23.294  1.00  0.00    -0.245 OA
BRANCH   8  10
ATOM     10  C   UNL A   1      32.271  28.552  25.088  1.00  0.00     0.295 C 
ATOM     11  N   UNL A   1      33.327  27.839  25.881  1.00  0.00    -0.319 N 
ATOM     12  C   UNL A   1      34.381  28.648  26.471  1.00  0.00     0.263 C 
ATOM     13  H   UNL A   1      32.721  27.629  26.675  1.00  0.00     0.349 HD
ATOM     14  C   UNL A   1      33.889  29.899  27.211  1.00  0.00     0.062 C 
ATOM     15  C   UNL A   1      31.702  29.734  25.898  1.00  0.00     0.078 C 
ATOM     16  C   UNL A   1      32.724  30.644  26.573  1.00  0.00     0.013 C 
BRANCH  11  17
ATOM     17  C   UNL A   1      33.711  26.452  25.518  1.00  0.00     0.302 C 
BRANCH  17  18
ATOM     18  C   UNL A   1      32.695  25.323  25.632  1.00  0.00     0.042 A 
ATOM     19  C   UNL A   1      30.689  23.543  26.512  1.00  0.00     0.055 A 
ATOM     20  C   UNL A   1      30.383  24.552  25.587  1.00  0.00     0.020 A 
ATOM     21  C   UNL A   1      32.021  23.312  26.859  1.00  0.00     0.059 A 
ATOM     22  C   UNL A   1      31.380  25.442  25.154  1.00  0.00     0.014 A 
ATOM     23  C   UNL A   1      33.015  24.175  26.385  1.00  0.00     0.133 A 
ATOM     24  F   UNL A   1      34.259  24.025  26.865  1.00  0.00    -0.206 F 
BRANCH  19  25
ATOM     25  C   UNL A   1      29.635  22.859  27.200  1.00  0.00     0.099 C 
ATOM     26  N   UNL A   1      28.784  22.265  27.732  1.00  0.00    -0.192 NA
ENDBRANCH  19  25
ENDBRANCH  17  18
ENDBRANCH  11  17
ENDBRANCH   8  10
ENDBRANCH   7   8
ENDBRANCH   6   7
ENDBRANCH   5   6
ENDBRANCH   4   5
ENDBRANCH   3   4
ENDBRANCH   2   3
ENDBRANCH   1   2
BRANCH   1  27
ATOM     27  C   UNL A   1      34.047  21.197  24.489  1.00  0.00     0.188 C 
BRANCH  27  28
ATOM     28  C   UNL A   1      35.442  21.627  24.966  1.00  0.00     0.188 C 
BRANCH  28  29
ATOM     29  O   UNL A   1      36.387  20.631  25.354  1.00  0.00    -0.376 OA
BRANCH  29  30
ATOM     30  C   UNL A   1      37.762  20.809  25.051  1.00  0.00     0.202 C 
BRANCH  30  31
ATOM     31  C   UNL A   1      38.513  21.936  25.757  1.00  0.00     0.261 C 
BRANCH  31  32
ATOM     32  O   UNL A   1      39.611  21.489  26.558  1.00  0.00    -0.460 OA
BRANCH  32  33
ATOM     33  C   UNL A   1      40.816  22.024  26.239  1.00  0.00     0.338 C 
ATOM     34  O   UNL A   1      41.680  21.529  25.539  1.00  0.00    -0.246 OA
BRANCH  33  35
ATOM     35  C   UNL A   1      40.865  23.410  26.742  1.00  0.00     0.060 A 
ATOM     36  C   UNL A   1      40.816  24.478  25.831  1.00  0.00     0.016 A 
ATOM     37  C   UNL A   1      41.008  23.646  28.108  1.00  0.00     0.016 A 
ATOM     38  C   UNL A   1      40.967  25.784  26.281  1.00  0.00     0.010 A 
ATOM     39  C   UNL A   1      41.189  24.951  28.555  1.00  0.00     0.010 A 
ATOM     40  C   UNL A   1      41.218  26.016  27.636  1.00  0.00    -0.014 A 
BRANCH  40  41
ATOM     41  C   UNL A   1      41.750  27.324  28.066  1.00  0.00     0.031 A 
ATOM     42  C   UNL A   1      43.237  27.536  27.999  1.00  0.00     0.074 A 
ATOM     43  C   UNL A   1      40.930  28.293  28.502  1.00  0.00     0.049 A 
ATOM     44  N   UNL A   1      43.948  28.552  28.405  1.00  0.00    -0.248 NA
ATOM     45  C   UNL A   1      44.028  26.445  27.401  1.00  0.00     0.031 C 
ATOM     46  C   UNL A   1      39.471  28.215  28.545  1.00  0.00     0.029 A 
ATOM     47  N   UNL A   1      41.219  29.536  29.002  1.00  0.00    -0.354 N 
ATOM     48  C   UNL A   1      45.269  28.218  28.130  1.00  0.00     0.074 A 
ATOM     49  C   UNL A   1      45.264  26.889  27.559  1.00  0.00     0.031 C 
ATOM     50  C   UNL A   1      38.991  29.363  29.053  1.00  0.00     0.029 A 
ATOM     51  C   UNL A   1      40.109  30.233  29.412  1.00  0.00     0.049 A 
ATOM     52  H   UNL A   1      42.135  29.895  29.061  1.00  0.00     0.167 HD
ATOM     53  C   UNL A   1      46.386  28.956  28.332  1.00  0.00     0.031 A 
ATOM     54  C   UNL A   1      40.018  31.425  30.030  1.00  0.00     0.031 A 
ATOM     55  C   UNL A   1      46.373  30.267  28.924  1.00  0.00     0.049 A 
ATOM     56  C   UNL A   1      41.282  32.184  30.340  1.00  0.00     0.074 A 
ATOM     57  C   UNL A   1      47.442  31.109  29.172  1.00  0.00     0.029 A 
ATOM     58  N   UNL A   1      45.234  30.922  29.369  1.00  0.00    -0.354 N 
ATOM     59  N   UNL A   1      42.525  31.869  30.063  1.00  0.00    -0.248 NA
ATOM     60  C   UNL A   1      41.127  33.467  31.038  1.00  0.00     0.031 C 
ATOM     61  C   UNL A   1      46.958  32.240  29.836  1.00  0.00     0.029 A 
ATOM     62  C   UNL A   1      45.577  32.143  29.923  1.00  0.00     0.049 A 
ATOM     63  H   UNL A   1      44.317  30.571  29.301  1.00  0.00     0.167 HD
ATOM     64  C   UNL A   1      43.298  32.933  30.518  1.00  0.00     0.074 A 
ATOM     65  C   UNL A   1      42.378  33.904  31.075  1.00  0.00     0.031 C 
ATOM     66  C   UNL A   1      44.644  33.098  30.474  1.00  0.00     0.031 A 
BRANCH  53  67
ATOM     67  C   UNL A   1      47.707  28.337  27.953  1.00  0.00    -0.014 A 
ATOM     68  C   UNL A   1      48.310  28.598  26.708  1.00  0.00     0.010 A 
ATOM     69  C   UNL A   1      48.365  27.492  28.864  1.00  0.00     0.010 A 
ATOM     70  C   UNL A   1      49.519  27.987  26.363  1.00  0.00     0.020 A 
ATOM     71  C   UNL A   1      49.593  26.908  28.539  1.00  0.00     0.020 A 
ATOM     72  C   UNL A   1      50.152  27.144  27.282  1.00  0.00     0.054 A 
BRANCH  72  73
ATOM     73  S   UNL A   1      51.727  26.377  26.814  1.00  0.00     0.124 S 
ATOM     74  O   UNL A   1      51.948  26.933  25.480  1.00  0.00    -0.237 OA
ATOM     75  O   UNL A   1      52.636  26.855  27.852  1.00  0.00    -0.237 OA
ATOM     76  O   UNL A   1      51.442  24.945  26.850  1.00  0.00    -0.744 OA
ENDBRANCH  72  73
ENDBRANCH  53  67
BRANCH  54  77
ATOM     77  C   UNL A   1      38.683  31.972  30.401  1.00  0.00    -0.014 A 
ATOM     78  C   UNL A   1      38.194  33.134  29.781  1.00  0.00     0.010 A 
ATOM     79  C   UNL A   1      37.892  31.333  31.374  1.00  0.00     0.010 A 
ATOM     80  C   UNL A   1      36.948  33.657  30.138  1.00  0.00     0.020 A 
ATOM     81  C   UNL A   1      36.631  31.832  31.709  1.00  0.00     0.020 A 
ATOM     82  C   UNL A   1      36.172  32.998  31.095  1.00  0.00     0.054 A 
BRANCH  82  83
ATOM     83  S   UNL A   1      34.536  33.669  31.500  1.00  0.00     0.124 S 
ATOM     84  O   UNL A   1      34.861  35.023  31.937  1.00  0.00    -0.237 OA
ATOM     85  O   UNL A   1      33.833  33.565  30.224  1.00  0.00    -0.237 OA
ATOM     86  O   UNL A   1      34.047  32.773  32.546  1.00  0.00    -0.744 OA
ENDBRANCH  82  83
ENDBRANCH  54  77
BRANCH  66  87
ATOM     87  C   UNL A   1      45.205  34.396  30.998  1.00  0.00    -0.014 A 
ATOM     88  C   UNL A   1      45.449  34.594  32.369  1.00  0.00     0.010 A 
ATOM     89  C   UNL A   1      45.548  35.414  30.089  1.00  0.00     0.010 A 
ATOM     90  C   UNL A   1      45.990  35.800  32.823  1.00  0.00     0.020 A 
ATOM     91  C   UNL A   1      46.126  36.605  30.534  1.00  0.00     0.020 A 
ATOM     92  C   UNL A   1      46.329  36.796  31.902  1.00  0.00     0.054 A 
BRANCH  92  93
ATOM     93  S   UNL A   1      47.074  38.331  32.514  1.00  0.00     0.124 S 
ATOM     94  O   UNL A   1      46.194  39.347  31.943  1.00  0.00    -0.237 OA
ATOM     95  O   UNL A   1      46.989  38.170  33.964  1.00  0.00    -0.237 OA
ATOM     96  O   UNL A   1      48.428  38.303  31.968  1.00  0.00    -0.744 OA
ENDBRANCH  92  93
ENDBRANCH  66  87
ENDBRANCH  40  41
ENDBRANCH  33  35
ENDBRANCH  32  33
ENDBRANCH  31  32
ENDBRANCH  30  31
ENDBRANCH  29  30
ENDBRANCH  28  29
ENDBRANCH  27  28
ENDBRANCH   1  27
TORSDOF 26
ENDMDL
