MODEL 1
REMARK VINA RESULT:      -6.7      0.000      0.000
REMARK SMILES CC[C@@](C)(NC(=O)N(C)CCO)C(=O)OCCOCCOCCOCCOC(=O)c1ccc(-c2c3nc(c(-c4ccc(S(=O)(=O)[O-])cc4)c4ccc([nH]4)c(-c4ccc(S(=O)(=O)[O-])cc4)c4nc(c(-c5ccc(S(=O)(=O)[O-])cc5)c5ccc2[nH]5)C=C4)C=C3)cc1
REMARK SMILES IDX 20 1 19 2 18 3 17 4 16 5 15 6 13 7 14 8 3 9 4 10 2 11 1 12
REMARK SMILES IDX 5 13 6 14 7 16 8 17 9 18 10 19 11 20 12 21 21 23 22 24 23 25
REMARK SMILES IDX 24 26 25 27 26 28 27 29 28 30 29 31 30 32 31 33 89 34 32 35
REMARK SMILES IDX 88 36 33 37 34 38 35 39 82 40 36 41 87 42 81 43 83 44 37 45
REMARK SMILES IDX 86 46 80 47 79 48 38 50 68 51 49 52 67 53 50 54 53 55 66 56
REMARK SMILES IDX 84 57 51 58 52 59 65 61 85 62 54 63 39 64 40 65 48 66 41 67
REMARK SMILES IDX 47 68 42 69 43 70 44 71 45 72 46 73 69 74 70 75 78 76 71 77
REMARK SMILES IDX 77 78 72 79 73 80 74 81 75 82 76 83 55 84 56 85 64 86 57 87
REMARK SMILES IDX 63 88 58 89 59 90 60 91 61 92 62 93
REMARK H PARENT 5 15 12 22 83 49 53 60
REMARK Flexibility Score: inf
ROOT
ATOM      1  C   UNL A   1      40.968  34.380  34.394  1.00  0.00     0.188 C 
ENDROOT
BRANCH   1   2
ATOM      2  C   UNL A   1      40.490  32.984  33.958  1.00  0.00     0.188 C 
BRANCH   2   3
ATOM      3  O   UNL A   1      39.523  32.298  34.749  1.00  0.00    -0.376 OA
BRANCH   3   4
ATOM      4  C   UNL A   1      38.411  31.688  34.099  1.00  0.00     0.202 C 
BRANCH   4   5
ATOM      5  C   UNL A   1      38.413  31.809  32.586  1.00  0.00     0.261 C 
BRANCH   5   6
ATOM      6  O   UNL A   1      37.103  32.257  32.198  1.00  0.00    -0.462 OA
BRANCH   6   7
ATOM      7  C   UNL A   1      37.015  33.427  31.552  1.00  0.00     0.331 C 
ATOM      8  O   UNL A   1      37.498  34.467  31.991  1.00  0.00    -0.249 OA
BRANCH   7   9
ATOM      9  C   UNL A   1      36.213  33.343  30.221  1.00  0.00     0.136 C 
ATOM     10  C   UNL A   1      37.092  34.066  29.190  1.00  0.00     0.047 C 
BRANCH   9  11
ATOM     11  C   UNL A   1      36.102  31.801  29.875  1.00  0.00     0.037 C 
ATOM     12  C   UNL A   1      35.429  31.342  28.589  1.00  0.00     0.007 C 
ENDBRANCH   9  11
BRANCH   9  13
ATOM     13  N   UNL A   1      34.777  33.787  29.989  1.00  0.00    -0.322 N 
ATOM     14  C   UNL A   1      33.744  34.575  30.280  1.00  0.00     0.318 C 
ATOM     15  H   UNL A   1      34.448  33.203  29.267  1.00  0.00     0.166 HD
ATOM     16  O   UNL A   1      32.856  34.558  29.416  1.00  0.00    -0.249 OA
BRANCH  14  17
ATOM     17  N   UNL A   1      33.547  35.241  31.436  1.00  0.00    -0.326 N 
ATOM     18  C   UNL A   1      33.793  34.762  32.773  1.00  0.00     0.148 C 
BRANCH  17  19
ATOM     19  C   UNL A   1      33.066  36.636  31.355  1.00  0.00     0.149 C 
BRANCH  19  20
ATOM     20  C   UNL A   1      33.984  37.623  32.084  1.00  0.00     0.177 C 
BRANCH  20  21
ATOM     21  O   UNL A   1      33.313  38.844  32.375  1.00  0.00    -0.395 OA
ATOM     22  H   UNL A   1      32.366  38.672  32.497  1.00  0.00     0.210 HD
ENDBRANCH  20  21
ENDBRANCH  19  20
ENDBRANCH  17  19
ENDBRANCH  14  17
ENDBRANCH   9  13
ENDBRANCH   7   9
ENDBRANCH   6   7
ENDBRANCH   5   6
ENDBRANCH   4   5
ENDBRANCH   3   4
ENDBRANCH   2   3
ENDBRANCH   1   2
BRANCH   1  23
ATOM     23  O   UNL A   1      40.041  35.357  34.859  1.00  0.00    -0.377 OA
BRANCH  23  24
ATOM     24  C   UNL A   1      40.565  36.469  35.571  1.00  0.00     0.188 C 
BRANCH  24  25
ATOM     25  C   UNL A   1      41.966  36.198  36.110  1.00  0.00     0.188 C 
BRANCH  25  26
ATOM     26  O   UNL A   1      42.285  36.790  37.366  1.00  0.00    -0.376 OA
BRANCH  26  27
ATOM     27  C   UNL A   1      42.422  35.911  38.477  1.00  0.00     0.202 C 
BRANCH  27  28
ATOM     28  C   UNL A   1      43.771  35.205  38.683  1.00  0.00     0.261 C 
BRANCH  28  29
ATOM     29  O   UNL A   1      43.847  34.324  39.816  1.00  0.00    -0.460 OA
BRANCH  29  30
ATOM     30  C   UNL A   1      45.003  33.637  39.932  1.00  0.00     0.338 C 
ATOM     31  O   UNL A   1      45.898  33.810  40.764  1.00  0.00    -0.246 OA
BRANCH  30  32
ATOM     32  C   UNL A   1      45.101  32.621  38.879  1.00  0.00     0.060 A 
ATOM     33  C   UNL A   1      46.276  32.469  38.131  1.00  0.00     0.016 A 
ATOM     34  C   UNL A   1      43.961  31.883  38.558  1.00  0.00     0.016 A 
ATOM     35  C   UNL A   1      46.307  31.580  37.053  1.00  0.00     0.010 A 
ATOM     36  C   UNL A   1      43.999  30.987  37.488  1.00  0.00     0.010 A 
ATOM     37  C   UNL A   1      45.165  30.839  36.716  1.00  0.00    -0.014 A 
BRANCH  37  38
ATOM     38  C   UNL A   1      45.139  29.962  35.517  1.00  0.00     0.031 A 
ATOM     39  C   UNL A   1      44.762  30.549  34.184  1.00  0.00     0.074 A 
ATOM     40  C   UNL A   1      45.392  28.643  35.626  1.00  0.00     0.049 A 
ATOM     41  N   UNL A   1      44.541  29.940  33.048  1.00  0.00    -0.248 NA
ATOM     42  C   UNL A   1      44.615  32.014  34.122  1.00  0.00     0.031 C 
ATOM     43  C   UNL A   1      45.800  27.955  36.852  1.00  0.00     0.029 A 
ATOM     44  N   UNL A   1      45.312  27.639  34.691  1.00  0.00    -0.354 N 
ATOM     45  C   UNL A   1      44.202  30.940  32.143  1.00  0.00     0.074 A 
ATOM     46  C   UNL A   1      44.238  32.195  32.862  1.00  0.00     0.031 C 
ATOM     47  C   UNL A   1      45.900  26.638  36.600  1.00  0.00     0.029 A 
ATOM     48  C   UNL A   1      45.524  26.384  35.211  1.00  0.00     0.049 A 
ATOM     49  H   UNL A   1      45.120  27.804  33.739  1.00  0.00     0.167 HD
ATOM     50  C   UNL A   1      43.889  30.822  30.831  1.00  0.00     0.031 A 
ATOM     51  C   UNL A   1      45.389  25.166  34.647  1.00  0.00     0.031 A 
ATOM     52  C   UNL A   1      43.857  29.576  30.114  1.00  0.00     0.049 A 
ATOM     53  C   UNL A   1      44.958  25.061  33.205  1.00  0.00     0.074 A 
ATOM     54  C   UNL A   1      43.603  29.368  28.770  1.00  0.00     0.029 A 
ATOM     55  N   UNL A   1      44.065  28.329  30.680  1.00  0.00    -0.354 N 
ATOM     56  N   UNL A   1      44.709  26.020  32.347  1.00  0.00    -0.248 NA
ATOM     57  C   UNL A   1      44.790  23.706  32.657  1.00  0.00     0.031 C 
ATOM     58  C   UNL A   1      43.590  27.991  28.536  1.00  0.00     0.029 A 
ATOM     59  C   UNL A   1      43.899  27.344  29.721  1.00  0.00     0.049 A 
ATOM     60  H   UNL A   1      44.297  28.167  31.623  1.00  0.00     0.167 HD
ATOM     61  C   UNL A   1      44.377  25.384  31.154  1.00  0.00     0.074 A 
ATOM     62  C   UNL A   1      44.480  23.960  31.394  1.00  0.00     0.031 C 
ATOM     63  C   UNL A   1      44.011  25.930  29.968  1.00  0.00     0.031 A 
BRANCH  50  64
ATOM     64  C   UNL A   1      43.522  32.070  30.075  1.00  0.00    -0.014 A 
ATOM     65  C   UNL A   1      42.260  32.671  30.227  1.00  0.00     0.010 A 
ATOM     66  C   UNL A   1      44.494  32.706  29.281  1.00  0.00     0.010 A 
ATOM     67  C   UNL A   1      41.975  33.883  29.590  1.00  0.00     0.020 A 
ATOM     68  C   UNL A   1      44.221  33.929  28.662  1.00  0.00     0.020 A 
ATOM     69  C   UNL A   1      42.960  34.507  28.818  1.00  0.00     0.054 A 
BRANCH  69  70
ATOM     70  S   UNL A   1      42.585  36.115  28.067  1.00  0.00     0.124 S 
ATOM     71  O   UNL A   1      43.559  36.987  28.720  1.00  0.00    -0.237 OA
ATOM     72  O   UNL A   1      42.819  35.866  26.647  1.00  0.00    -0.237 OA
ATOM     73  O   UNL A   1      41.191  36.356  28.434  1.00  0.00    -0.744 OA
ENDBRANCH  69  70
ENDBRANCH  50  64
BRANCH  51  74
ATOM     74  C   UNL A   1      45.601  23.933  35.456  1.00  0.00    -0.014 A 
ATOM     75  C   UNL A   1      46.618  23.874  36.426  1.00  0.00     0.010 A 
ATOM     76  C   UNL A   1      44.815  22.789  35.222  1.00  0.00     0.010 A 
ATOM     77  C   UNL A   1      46.868  22.685  37.119  1.00  0.00     0.020 A 
ATOM     78  C   UNL A   1      45.040  21.609  35.936  1.00  0.00     0.020 A 
ATOM     79  C   UNL A   1      46.079  21.558  36.867  1.00  0.00     0.054 A 
BRANCH  79  80
ATOM     80  S   UNL A   1      46.409  20.032  37.790  1.00  0.00     0.124 S 
ATOM     81  O   UNL A   1      46.123  20.441  39.162  1.00  0.00    -0.237 OA
ATOM     82  O   UNL A   1      45.460  19.094  37.196  1.00  0.00    -0.237 OA
ATOM     83  O   UNL A   1      47.813  19.754  37.497  1.00  0.00    -0.744 OA
ENDBRANCH  79  80
ENDBRANCH  51  74
BRANCH  63  84
ATOM     84  C   UNL A   1      43.719  24.994  28.824  1.00  0.00    -0.014 A 
ATOM     85  C   UNL A   1      44.421  25.092  27.609  1.00  0.00     0.010 A 
ATOM     86  C   UNL A   1      42.785  23.956  28.992  1.00  0.00     0.010 A 
ATOM     87  C   UNL A   1      44.177  24.182  26.577  1.00  0.00     0.020 A 
ATOM     88  C   UNL A   1      42.560  23.026  27.974  1.00  0.00     0.020 A 
ATOM     89  C   UNL A   1      43.251  23.151  26.768  1.00  0.00     0.054 A 
BRANCH  89  90
ATOM     90  S   UNL A   1      43.000  21.947  25.435  1.00  0.00     0.124 S 
ATOM     91  O   UNL A   1      43.376  22.718  24.253  1.00  0.00    -0.237 OA
ATOM     92  O   UNL A   1      43.916  20.869  25.799  1.00  0.00    -0.237 OA
ATOM     93  O   UNL A   1      41.581  21.610  25.533  1.00  0.00    -0.744 OA
ENDBRANCH  89  90
ENDBRANCH  63  84
ENDBRANCH  37  38
ENDBRANCH  30  32
ENDBRANCH  29  30
ENDBRANCH  28  29
ENDBRANCH  27  28
ENDBRANCH  26  27
ENDBRANCH  25  26
ENDBRANCH  24  25
ENDBRANCH  23  24
ENDBRANCH   1  23
TORSDOF 29
ENDMDL
MODEL 2
REMARK VINA RESULT:      -6.4      4.612     13.657
REMARK SMILES CC[C@@](C)(NC(=O)N(C)CCO)C(=O)OCCOCCOCCOCCOC(=O)c1ccc(-c2c3nc(c(-c4ccc(S(=O)(=O)[O-])cc4)c4ccc([nH]4)c(-c4ccc(S(=O)(=O)[O-])cc4)c4nc(c(-c5ccc(S(=O)(=O)[O-])cc5)c5ccc2[nH]5)C=C4)C=C3)cc1
REMARK SMILES IDX 20 1 19 2 18 3 17 4 16 5 15 6 13 7 14 8 3 9 4 10 2 11 1 12
REMARK SMILES IDX 5 13 6 14 7 16 8 17 9 18 10 19 11 20 12 21 21 23 22 24 23 25
REMARK SMILES IDX 24 26 25 27 26 28 27 29 28 30 29 31 30 32 31 33 89 34 32 35
REMARK SMILES IDX 88 36 33 37 34 38 35 39 82 40 36 41 87 42 81 43 83 44 37 45
REMARK SMILES IDX 86 46 80 47 79 48 38 50 68 51 49 52 67 53 50 54 53 55 66 56
REMARK SMILES IDX 84 57 51 58 52 59 65 61 85 62 54 63 39 64 40 65 48 66 41 67
REMARK SMILES IDX 47 68 42 69 43 70 44 71 45 72 46 73 69 74 70 75 78 76 71 77
REMARK SMILES IDX 77 78 72 79 73 80 74 81 75 82 76 83 55 84 56 85 64 86 57 87
REMARK SMILES IDX 63 88 58 89 59 90 60 91 61 92 62 93
REMARK H PARENT 5 15 12 22 83 49 53 60
REMARK Flexibility Score: inf
ROOT
ATOM      1  C   UNL A   1      51.458  25.081  32.286  1.00  0.00     0.188 C 
ENDROOT
BRANCH   1   2
ATOM      2  C   UNL A   1      51.637  25.346  33.791  1.00  0.00     0.188 C 
BRANCH   2   3
ATOM      3  O   UNL A   1      50.947  26.436  34.395  1.00  0.00    -0.376 OA
BRANCH   3   4
ATOM      4  C   UNL A   1      49.544  26.321  34.622  1.00  0.00     0.202 C 
BRANCH   4   5
ATOM      5  C   UNL A   1      49.063  24.916  34.932  1.00  0.00     0.261 C 
BRANCH   5   6
ATOM      6  O   UNL A   1      47.715  25.031  35.422  1.00  0.00    -0.462 OA
BRANCH   6   7
ATOM      7  C   UNL A   1      46.725  24.657  34.601  1.00  0.00     0.331 C 
ATOM      8  O   UNL A   1      46.236  25.410  33.763  1.00  0.00    -0.249 OA
BRANCH   7   9
ATOM      9  C   UNL A   1      46.237  23.200  34.841  1.00  0.00     0.136 C 
ATOM     10  C   UNL A   1      45.571  23.235  36.225  1.00  0.00     0.047 C 
BRANCH   9  11
ATOM     11  C   UNL A   1      45.162  22.908  33.715  1.00  0.00     0.037 C 
ATOM     12  C   UNL A   1      43.737  22.523  34.084  1.00  0.00     0.007 C 
ENDBRANCH   9  11
BRANCH   9  13
ATOM     13  N   UNL A   1      47.072  21.930  34.768  1.00  0.00    -0.322 N 
ATOM     14  C   UNL A   1      47.211  20.621  34.961  1.00  0.00     0.318 C 
ATOM     15  H   UNL A   1      47.935  22.220  34.394  1.00  0.00     0.166 HD
ATOM     16  O   UNL A   1      48.188  20.140  34.368  1.00  0.00    -0.249 OA
BRANCH  14  17
ATOM     17  N   UNL A   1      46.494  19.856  35.809  1.00  0.00    -0.326 N 
ATOM     18  C   UNL A   1      45.224  19.224  35.555  1.00  0.00     0.148 C 
BRANCH  17  19
ATOM     19  C   UNL A   1      47.068  19.582  37.143  1.00  0.00     0.149 C 
BRANCH  19  20
ATOM     20  C   UNL A   1      46.106  19.927  38.285  1.00  0.00     0.177 C 
BRANCH  20  21
ATOM     21  O   UNL A   1      45.913  18.820  39.159  1.00  0.00    -0.395 OA
ATOM     22  H   UNL A   1      45.241  19.044  39.822  1.00  0.00     0.210 HD
ENDBRANCH  20  21
ENDBRANCH  19  20
ENDBRANCH  17  19
ENDBRANCH  14  17
ENDBRANCH   9  13
ENDBRANCH   7   9
ENDBRANCH   6   7
ENDBRANCH   5   6
ENDBRANCH   4   5
ENDBRANCH   3   4
ENDBRANCH   2   3
ENDBRANCH   1   2
BRANCH   1  23
ATOM     23  O   UNL A   1      52.466  25.460  31.353  1.00  0.00    -0.377 OA
BRANCH  23  24
ATOM     24  C   UNL A   1      52.963  26.788  31.431  1.00  0.00     0.188 C 
BRANCH  24  25
ATOM     25  C   UNL A   1      53.479  27.290  30.086  1.00  0.00     0.188 C 
BRANCH  25  26
ATOM     26  O   UNL A   1      54.640  26.641  29.574  1.00  0.00    -0.376 OA
BRANCH  26  27
ATOM     27  C   UNL A   1      54.527  26.033  28.291  1.00  0.00     0.202 C 
BRANCH  27  28
ATOM     28  C   UNL A   1      53.604  26.692  27.254  1.00  0.00     0.261 C 
BRANCH  28  29
ATOM     29  O   UNL A   1      52.331  26.056  27.060  1.00  0.00    -0.460 OA
BRANCH  29  30
ATOM     30  C   UNL A   1      51.545  26.619  26.118  1.00  0.00     0.338 C 
ATOM     31  O   UNL A   1      51.736  26.640  24.898  1.00  0.00    -0.246 OA
BRANCH  30  32
ATOM     32  C   UNL A   1      50.389  27.270  26.740  1.00  0.00     0.060 A 
ATOM     33  C   UNL A   1      50.174  27.191  28.122  1.00  0.00     0.016 A 
ATOM     34  C   UNL A   1      49.442  27.877  25.913  1.00  0.00     0.016 A 
ATOM     35  C   UNL A   1      49.003  27.715  28.677  1.00  0.00     0.010 A 
ATOM     36  C   UNL A   1      48.279  28.410  26.472  1.00  0.00     0.010 A 
ATOM     37  C   UNL A   1      48.041  28.319  27.856  1.00  0.00    -0.014 A 
BRANCH  37  38
ATOM     38  C   UNL A   1      46.745  28.795  28.404  1.00  0.00     0.031 A 
ATOM     39  C   UNL A   1      45.537  27.899  28.321  1.00  0.00     0.074 A 
ATOM     40  C   UNL A   1      46.631  30.034  28.920  1.00  0.00     0.049 A 
ATOM     41  N   UNL A   1      44.290  28.169  28.606  1.00  0.00    -0.248 NA
ATOM     42  C   UNL A   1      45.765  26.521  27.853  1.00  0.00     0.031 C 
ATOM     43  C   UNL A   1      47.728  30.988  29.089  1.00  0.00     0.029 A 
ATOM     44  N   UNL A   1      45.525  30.715  29.369  1.00  0.00    -0.354 N 
ATOM     45  C   UNL A   1      43.579  27.007  28.329  1.00  0.00     0.074 A 
ATOM     46  C   UNL A   1      44.531  26.032  27.845  1.00  0.00     0.031 C 
ATOM     47  C   UNL A   1      47.234  32.141  29.573  1.00  0.00     0.029 A 
ATOM     48  C   UNL A   1      45.783  32.023  29.707  1.00  0.00     0.049 A 
ATOM     49  H   UNL A   1      44.632  30.305  29.441  1.00  0.00     0.167 HD
ATOM     50  C   UNL A   1      42.253  26.775  28.465  1.00  0.00     0.031 A 
ATOM     51  C   UNL A   1      44.945  33.024  30.044  1.00  0.00     0.031 A 
ATOM     52  C   UNL A   1      41.306  27.743  28.951  1.00  0.00     0.049 A 
ATOM     53  C   UNL A   1      43.462  32.759  30.109  1.00  0.00     0.074 A 
ATOM     54  C   UNL A   1      39.950  27.576  29.174  1.00  0.00     0.029 A 
ATOM     55  N   UNL A   1      41.606  29.057  29.269  1.00  0.00    -0.354 N 
ATOM     56  N   UNL A   1      42.816  31.635  29.910  1.00  0.00    -0.248 NA
ATOM     57  C   UNL A   1      42.594  33.899  30.443  1.00  0.00     0.031 C 
ATOM     58  C   UNL A   1      39.418  28.809  29.561  1.00  0.00     0.029 A 
ATOM     59  C   UNL A   1      40.453  29.725  29.642  1.00  0.00     0.049 A 
ATOM     60  H   UNL A   1      42.505  29.456  29.236  1.00  0.00     0.167 HD
ATOM     61  C   UNL A   1      41.471  31.931  30.117  1.00  0.00     0.074 A 
ATOM     62  C   UNL A   1      41.398  33.330  30.479  1.00  0.00     0.031 C 
ATOM     63  C   UNL A   1      40.391  31.117  30.008  1.00  0.00     0.031 A 
BRANCH  50  64
ATOM     64  C   UNL A   1      41.723  25.427  28.058  1.00  0.00    -0.014 A 
ATOM     65  C   UNL A   1      40.896  25.278  26.931  1.00  0.00     0.010 A 
ATOM     66  C   UNL A   1      42.147  24.280  28.755  1.00  0.00     0.010 A 
ATOM     67  C   UNL A   1      40.495  24.005  26.514  1.00  0.00     0.020 A 
ATOM     68  C   UNL A   1      41.768  23.005  28.327  1.00  0.00     0.020 A 
ATOM     69  C   UNL A   1      40.940  22.877  27.211  1.00  0.00     0.054 A 
BRANCH  69  70
ATOM     70  S   UNL A   1      40.465  21.236  26.600  1.00  0.00     0.124 S 
ATOM     71  O   UNL A   1      41.542  20.942  25.656  1.00  0.00    -0.237 OA
ATOM     72  O   UNL A   1      40.464  20.430  27.819  1.00  0.00    -0.237 OA
ATOM     73  O   UNL A   1      39.152  21.453  25.998  1.00  0.00    -0.744 OA
ENDBRANCH  69  70
ENDBRANCH  50  64
BRANCH  51  74
ATOM     74  C   UNL A   1      45.471  34.397  30.290  1.00  0.00    -0.014 A 
ATOM     75  C   UNL A   1      45.685  35.288  29.223  1.00  0.00     0.010 A 
ATOM     76  C   UNL A   1      45.810  34.802  31.594  1.00  0.00     0.010 A 
ATOM     77  C   UNL A   1      46.260  36.542  29.452  1.00  0.00     0.020 A 
ATOM     78  C   UNL A   1      46.355  36.067  31.831  1.00  0.00     0.020 A 
ATOM     79  C   UNL A   1      46.596  36.922  30.755  1.00  0.00     0.054 A 
BRANCH  79  80
ATOM     80  S   UNL A   1      47.324  38.560  31.030  1.00  0.00     0.124 S 
ATOM     81  O   UNL A   1      48.327  38.278  32.051  1.00  0.00    -0.237 OA
ATOM     82  O   UNL A   1      47.843  38.899  29.706  1.00  0.00    -0.237 OA
ATOM     83  O   UNL A   1      46.189  39.368  31.469  1.00  0.00    -0.744 OA
ENDBRANCH  79  80
ENDBRANCH  51  74
BRANCH  63  84
ATOM     84  C   UNL A   1      39.036  31.703  30.309  1.00  0.00    -0.014 A 
ATOM     85  C   UNL A   1      38.184  32.129  29.275  1.00  0.00     0.010 A 
ATOM     86  C   UNL A   1      38.580  31.758  31.639  1.00  0.00     0.010 A 
ATOM     87  C   UNL A   1      36.908  32.619  29.567  1.00  0.00     0.020 A 
ATOM     88  C   UNL A   1      37.294  32.219  31.933  1.00  0.00     0.020 A 
ATOM     89  C   UNL A   1      36.470  32.657  30.895  1.00  0.00     0.054 A 
BRANCH  89  90
ATOM     90  S   UNL A   1      34.787  33.239  31.240  1.00  0.00     0.124 S 
ATOM     91  O   UNL A   1      34.352  32.314  32.284  1.00  0.00    -0.237 OA
ATOM     92  O   UNL A   1      35.007  34.617  31.674  1.00  0.00    -0.237 OA
ATOM     93  O   UNL A   1      34.100  33.099  29.958  1.00  0.00    -0.744 OA
ENDBRANCH  89  90
ENDBRANCH  63  84
ENDBRANCH  37  38
ENDBRANCH  30  32
ENDBRANCH  29  30
ENDBRANCH  28  29
ENDBRANCH  27  28
ENDBRANCH  26  27
ENDBRANCH  25  26
ENDBRANCH  24  25
ENDBRANCH  23  24
ENDBRANCH   1  23
TORSDOF 29
ENDMDL
MODEL 3
REMARK VINA RESULT:      -6.3      5.765     13.299
REMARK SMILES CC[C@@](C)(NC(=O)N(C)CCO)C(=O)OCCOCCOCCOCCOC(=O)c1ccc(-c2c3nc(c(-c4ccc(S(=O)(=O)[O-])cc4)c4ccc([nH]4)c(-c4ccc(S(=O)(=O)[O-])cc4)c4nc(c(-c5ccc(S(=O)(=O)[O-])cc5)c5ccc2[nH]5)C=C4)C=C3)cc1
REMARK SMILES IDX 20 1 19 2 18 3 17 4 16 5 15 6 13 7 14 8 3 9 4 10 2 11 1 12
REMARK SMILES IDX 5 13 6 14 7 16 8 17 9 18 10 19 11 20 12 21 21 23 22 24 23 25
REMARK SMILES IDX 24 26 25 27 26 28 27 29 28 30 29 31 30 32 31 33 89 34 32 35
REMARK SMILES IDX 88 36 33 37 34 38 35 39 82 40 36 41 87 42 81 43 83 44 37 45
REMARK SMILES IDX 86 46 80 47 79 48 38 50 68 51 49 52 67 53 50 54 53 55 66 56
REMARK SMILES IDX 84 57 51 58 52 59 65 61 85 62 54 63 39 64 40 65 48 66 41 67
REMARK SMILES IDX 47 68 42 69 43 70 44 71 45 72 46 73 69 74 70 75 78 76 71 77
REMARK SMILES IDX 77 78 72 79 73 80 74 81 75 82 76 83 55 84 56 85 64 86 57 87
REMARK SMILES IDX 63 88 58 89 59 90 60 91 61 92 62 93
REMARK H PARENT 5 15 12 22 83 49 53 60
REMARK Flexibility Score: inf
ROOT
ATOM      1  C   UNL A   1      43.757  26.200  30.621  1.00  0.00     0.188 C 
ENDROOT
BRANCH   1   2
ATOM      2  C   UNL A   1      43.611  27.621  31.193  1.00  0.00     0.188 C 
BRANCH   2   3
ATOM      3  O   UNL A   1      42.835  27.824  32.371  1.00  0.00    -0.376 OA
BRANCH   3   4
ATOM      4  C   UNL A   1      41.510  28.331  32.243  1.00  0.00     0.202 C 
BRANCH   4   5
ATOM      5  C   UNL A   1      41.382  29.562  31.364  1.00  0.00     0.261 C 
BRANCH   5   6
ATOM      6  O   UNL A   1      40.987  30.650  32.217  1.00  0.00    -0.462 OA
BRANCH   6   7
ATOM      7  C   UNL A   1      41.957  31.350  32.817  1.00  0.00     0.331 C 
ATOM      8  O   UNL A   1      43.038  31.584  32.282  1.00  0.00    -0.249 OA
BRANCH   7   9
ATOM      9  C   UNL A   1      41.595  31.800  34.262  1.00  0.00     0.136 C 
ATOM     10  C   UNL A   1      40.091  31.514  34.394  1.00  0.00     0.047 C 
BRANCH   9  11
ATOM     11  C   UNL A   1      42.426  30.864  35.232  1.00  0.00     0.037 C 
ATOM     12  C   UNL A   1      41.769  29.667  35.904  1.00  0.00     0.007 C 
ENDBRANCH   9  11
BRANCH   9  13
ATOM     13  N   UNL A   1      41.857  33.161  34.890  1.00  0.00    -0.322 N 
ATOM     14  C   UNL A   1      41.831  33.977  35.941  1.00  0.00     0.318 C 
ATOM     15  H   UNL A   1      42.229  33.706  34.160  1.00  0.00     0.166 HD
ATOM     16  O   UNL A   1      42.519  34.997  35.785  1.00  0.00    -0.249 OA
BRANCH  14  17
ATOM     17  N   UNL A   1      41.053  33.850  37.034  1.00  0.00    -0.326 N 
ATOM     18  C   UNL A   1      41.415  33.270  38.303  1.00  0.00     0.148 C 
BRANCH  17  19
ATOM     19  C   UNL A   1      39.681  34.396  36.971  1.00  0.00     0.149 C 
BRANCH  19  20
ATOM     20  C   UNL A   1      39.646  35.925  37.086  1.00  0.00     0.177 C 
BRANCH  20  21
ATOM     21  O   UNL A   1      39.698  36.546  35.806  1.00  0.00    -0.395 OA
ATOM     22  H   UNL A   1      40.287  37.315  35.843  1.00  0.00     0.210 HD
ENDBRANCH  20  21
ENDBRANCH  19  20
ENDBRANCH  17  19
ENDBRANCH  14  17
ENDBRANCH   9  13
ENDBRANCH   7   9
ENDBRANCH   6   7
ENDBRANCH   5   6
ENDBRANCH   4   5
ENDBRANCH   3   4
ENDBRANCH   2   3
ENDBRANCH   1   2
BRANCH   1  23
ATOM     23  O   UNL A   1      43.978  25.992  29.229  1.00  0.00    -0.377 OA
BRANCH  23  24
ATOM     24  C   UNL A   1      42.835  25.913  28.390  1.00  0.00     0.188 C 
BRANCH  24  25
ATOM     25  C   UNL A   1      42.517  24.477  27.985  1.00  0.00     0.188 C 
BRANCH  25  26
ATOM     26  O   UNL A   1      42.839  24.114  26.645  1.00  0.00    -0.376 OA
BRANCH  26  27
ATOM     27  C   UNL A   1      44.218  23.939  26.338  1.00  0.00     0.202 C 
BRANCH  27  28
ATOM     28  C   UNL A   1      44.855  24.873  25.297  1.00  0.00     0.261 C 
BRANCH  28  29
ATOM     29  O   UNL A   1      45.077  26.225  25.726  1.00  0.00    -0.460 OA
BRANCH  29  30
ATOM     30  C   UNL A   1      46.138  26.402  26.541  1.00  0.00     0.338 C 
ATOM     31  O   UNL A   1      46.835  25.527  27.065  1.00  0.00    -0.246 OA
BRANCH  30  32
ATOM     32  C   UNL A   1      46.369  27.830  26.776  1.00  0.00     0.060 A 
ATOM     33  C   UNL A   1      46.826  28.292  28.017  1.00  0.00     0.016 A 
ATOM     34  C   UNL A   1      46.017  28.735  25.773  1.00  0.00     0.016 A 
ATOM     35  C   UNL A   1      46.923  29.666  28.258  1.00  0.00     0.010 A 
ATOM     36  C   UNL A   1      46.127  30.106  26.013  1.00  0.00     0.010 A 
ATOM     37  C   UNL A   1      46.565  30.584  27.262  1.00  0.00    -0.014 A 
BRANCH  37  38
ATOM     38  C   UNL A   1      46.563  32.047  27.522  1.00  0.00     0.031 A 
ATOM     39  C   UNL A   1      45.328  32.692  28.091  1.00  0.00     0.074 A 
ATOM     40  C   UNL A   1      47.632  32.802  27.202  1.00  0.00     0.049 A 
ATOM     41  N   UNL A   1      45.065  33.962  28.261  1.00  0.00    -0.248 NA
ATOM     42  C   UNL A   1      44.248  31.789  28.523  1.00  0.00     0.031 C 
ATOM     43  C   UNL A   1      48.901  32.298  26.676  1.00  0.00     0.029 A 
ATOM     44  N   UNL A   1      47.806  34.165  27.245  1.00  0.00    -0.354 N 
ATOM     45  C   UNL A   1      43.782  34.014  28.794  1.00  0.00     0.074 A 
ATOM     46  C   UNL A   1      43.315  32.650  28.911  1.00  0.00     0.031 C 
ATOM     47  C   UNL A   1      49.710  33.340  26.413  1.00  0.00     0.029 A 
ATOM     48  C   UNL A   1      49.003  34.584  26.712  1.00  0.00     0.049 A 
ATOM     49  H   UNL A   1      47.138  34.782  27.622  1.00  0.00     0.167 HD
ATOM     50  C   UNL A   1      43.059  35.101  29.152  1.00  0.00     0.031 A 
ATOM     51  C   UNL A   1      49.461  35.825  26.452  1.00  0.00     0.031 A 
ATOM     52  C   UNL A   1      43.525  36.457  29.039  1.00  0.00     0.049 A 
ATOM     53  C   UNL A   1      48.600  37.018  26.785  1.00  0.00     0.074 A 
ATOM     54  C   UNL A   1      42.880  37.618  29.429  1.00  0.00     0.029 A 
ATOM     55  N   UNL A   1      44.734  36.838  28.483  1.00  0.00    -0.354 N 
ATOM     56  N   UNL A   1      47.417  37.048  27.352  1.00  0.00    -0.248 NA
ATOM     57  C   UNL A   1      49.136  38.344  26.443  1.00  0.00     0.031 C 
ATOM     58  C   UNL A   1      43.670  38.705  29.046  1.00  0.00     0.029 A 
ATOM     59  C   UNL A   1      44.835  38.218  28.476  1.00  0.00     0.049 A 
ATOM     60  H   UNL A   1      45.420  36.219  28.143  1.00  0.00     0.167 HD
ATOM     61  C   UNL A   1      47.081  38.396  27.452  1.00  0.00     0.074 A 
ATOM     62  C   UNL A   1      48.192  39.149  26.911  1.00  0.00     0.031 C 
ATOM     63  C   UNL A   1      45.948  38.959  27.942  1.00  0.00     0.031 A 
BRANCH  50  64
ATOM     64  C   UNL A   1      41.666  34.884  29.676  1.00  0.00    -0.014 A 
ATOM     65  C   UNL A   1      40.553  34.886  28.816  1.00  0.00     0.010 A 
ATOM     66  C   UNL A   1      41.482  34.570  31.036  1.00  0.00     0.010 A 
ATOM     67  C   UNL A   1      39.280  34.586  29.310  1.00  0.00     0.020 A 
ATOM     68  C   UNL A   1      40.215  34.247  31.528  1.00  0.00     0.020 A 
ATOM     69  C   UNL A   1      39.120  34.262  30.661  1.00  0.00     0.054 A 
BRANCH  69  70
ATOM     70  S   UNL A   1      37.469  33.803  31.255  1.00  0.00     0.124 S 
ATOM     71  O   UNL A   1      37.638  32.381  31.546  1.00  0.00    -0.237 OA
ATOM     72  O   UNL A   1      37.299  34.666  32.421  1.00  0.00    -0.237 OA
ATOM     73  O   UNL A   1      36.594  34.107  30.125  1.00  0.00    -0.744 OA
ENDBRANCH  69  70
ENDBRANCH  50  64
BRANCH  51  74
ATOM     74  C   UNL A   1      50.779  36.018  25.783  1.00  0.00    -0.014 A 
ATOM     75  C   UNL A   1      50.878  36.046  24.381  1.00  0.00     0.010 A 
ATOM     76  C   UNL A   1      51.953  36.122  26.552  1.00  0.00     0.010 A 
ATOM     77  C   UNL A   1      52.128  36.139  23.761  1.00  0.00     0.020 A 
ATOM     78  C   UNL A   1      53.202  36.249  25.937  1.00  0.00     0.020 A 
ATOM     79  C   UNL A   1      53.283  36.236  24.543  1.00  0.00     0.054 A 
BRANCH  79  80
ATOM     80  S   UNL A   1      54.892  36.374  23.717  1.00  0.00     0.124 S 
ATOM     81  O   UNL A   1      55.754  35.596  24.601  1.00  0.00    -0.237 OA
ATOM     82  O   UNL A   1      54.625  35.782  22.409  1.00  0.00    -0.237 OA
ATOM     83  O   UNL A   1      55.144  37.813  23.700  1.00  0.00    -0.744 OA
ENDBRANCH  79  80
ENDBRANCH  51  74
BRANCH  63  84
ATOM     84  C   UNL A   1      45.856  40.462  27.944  1.00  0.00    -0.014 A 
ATOM     85  C   UNL A   1      46.423  41.223  28.982  1.00  0.00     0.010 A 
ATOM     86  C   UNL A   1      45.259  41.126  26.857  1.00  0.00     0.010 A 
ATOM     87  C   UNL A   1      46.377  42.619  28.942  1.00  0.00     0.020 A 
ATOM     88  C   UNL A   1      45.238  42.522  26.798  1.00  0.00     0.020 A 
ATOM     89  C   UNL A   1      45.788  43.260  27.847  1.00  0.00     0.054 A 
BRANCH  89  90
ATOM     90  S   UNL A   1      45.797  45.073  27.791  1.00  0.00     0.124 S 
ATOM     91  O   UNL A   1      44.902  45.417  28.893  1.00  0.00    -0.237 OA
ATOM     92  O   UNL A   1      47.206  45.394  28.002  1.00  0.00    -0.237 OA
ATOM     93  O   UNL A   1      45.287  45.382  26.456  1.00  0.00    -0.744 OA
ENDBRANCH  89  90
ENDBRANCH  63  84
ENDBRANCH  37  38
ENDBRANCH  30  32
ENDBRANCH  29  30
ENDBRANCH  28  29
ENDBRANCH  27  28
ENDBRANCH  26  27
ENDBRANCH  25  26
ENDBRANCH  24  25
ENDBRANCH  23  24
ENDBRANCH   1  23
TORSDOF 29
ENDMDL
