MODEL 1
REMARK VINA RESULT:      -8.9      0.000      0.000
REMARK SMILES CC(C)(O)C#Cc1ccc(C(=O)N[C@@H](CCC(N)=O)C(=O)OCCOCCOCCOCCOC(=O)c2ccc(-c3c4nc(c(-c5ccc(S(=O)(=O)[O-])cc5)c5ccc([nH]5)c(-c5ccc(S(=O)(=O)[O-])cc5)c5nc(c(-c6ccc(S(=O)(=O)[O-])cc6)c6ccc3[nH]6)C=C5)C=C4)cc2)s1
REMARK SMILES IDX 27 1 26 2 25 3 24 4 23 5 22 6 20 7 21 8 14 9 13 10 11 11
REMARK SMILES IDX 12 12 10 14 7 15 8 16 97 17 9 18 6 19 5 20 2 21 1 22 3 23
REMARK SMILES IDX 4 24 15 26 16 27 17 28 18 29 19 30 28 33 29 34 30 35 31 36
REMARK SMILES IDX 32 37 33 38 34 39 35 40 36 41 37 42 38 43 96 44 39 45 95 46
REMARK SMILES IDX 40 47 41 48 42 49 89 50 43 51 94 52 88 53 90 54 44 55 93 56
REMARK SMILES IDX 87 57 86 58 45 60 75 61 56 62 74 63 57 64 60 65 73 66 91 67
REMARK SMILES IDX 58 68 59 69 72 71 92 72 61 73 46 74 47 75 55 76 48 77 54 78
REMARK SMILES IDX 49 79 50 80 51 81 52 82 53 83 76 84 77 85 85 86 78 87 84 88
REMARK SMILES IDX 79 89 80 90 81 91 82 92 83 93 62 94 63 95 71 96 64 97 70 98
REMARK SMILES IDX 65 99 66 100 67 101 68 102 69 103
REMARK H PARENT 13 13 4 25 18 31 18 32 90 59 60 70
REMARK Flexibility Score: inf
ROOT
ATOM      1  C   UNL A   1      33.988  22.111  28.004  1.00  0.00     0.188 C 
ENDROOT
BRANCH   1   2
ATOM      2  C   UNL A   1      32.570  21.831  27.462  1.00  0.00     0.188 C 
BRANCH   2   3
ATOM      3  O   UNL A   1      31.937  22.720  26.550  1.00  0.00    -0.376 OA
BRANCH   3   4
ATOM      4  C   UNL A   1      30.927  23.608  27.001  1.00  0.00     0.202 C 
BRANCH   4   5
ATOM      5  C   UNL A   1      30.485  24.797  26.139  1.00  0.00     0.261 C 
BRANCH   5   6
ATOM      6  O   UNL A   1      31.320  25.965  26.216  1.00  0.00    -0.462 OA
BRANCH   6   7
ATOM      7  C   UNL A   1      32.477  25.942  25.522  1.00  0.00     0.328 C 
ATOM      8  O   UNL A   1      33.392  25.151  25.736  1.00  0.00    -0.250 OA
BRANCH   7   9
ATOM      9  C   UNL A   1      32.639  27.128  24.539  1.00  0.00     0.193 C 
BRANCH   9  10
ATOM     10  N   UNL A   1      33.038  26.963  23.128  1.00  0.00    -0.338 N 
ATOM     11  C   UNL A   1      33.079  25.886  22.252  1.00  0.00     0.262 C 
ATOM     12  O   UNL A   1      33.646  26.111  21.179  1.00  0.00    -0.268 OA
ATOM     13  H   UNL A   1      33.346  27.803  22.717  1.00  0.00     0.164 HD
BRANCH  11  14
ATOM     14  C   UNL A   1      32.442  24.586  22.489  1.00  0.00     0.093 A 
ATOM     15  C   UNL A   1      31.913  22.183  22.847  1.00  0.00     0.078 A 
ATOM     16  C   UNL A   1      30.857  22.980  23.213  1.00  0.00     0.030 A 
ATOM     17  S   UNL A   1      33.212  23.094  22.261  1.00  0.00    -0.121 S 
ATOM     18  C   UNL A   1      31.164  24.370  23.004  1.00  0.00     0.027 A 
BRANCH  15  19
ATOM     19  C   UNL A   1      32.059  20.776  22.920  1.00  0.00    -0.053 C 
ATOM     20  C   UNL A   1      32.370  19.656  23.238  1.00  0.00    -0.063 C 
BRANCH  20  21
ATOM     21  C   UNL A   1      32.864  18.392  23.791  1.00  0.00     0.120 C 
ATOM     22  C   UNL A   1      32.184  18.096  25.130  1.00  0.00     0.056 C 
ATOM     23  C   UNL A   1      34.379  18.440  23.938  1.00  0.00     0.056 C 
BRANCH  21  24
ATOM     24  O   UNL A   1      32.532  17.345  22.881  1.00  0.00    -0.378 OA
ATOM     25  H   UNL A   1      32.170  16.591  23.373  1.00  0.00     0.212 HD
ENDBRANCH  21  24
ENDBRANCH  20  21
ENDBRANCH  15  19
ENDBRANCH  11  14
ENDBRANCH   9  10
BRANCH   9  26
ATOM     26  C   UNL A   1      31.385  28.008  24.640  1.00  0.00     0.047 C 
BRANCH  26  27
ATOM     27  C   UNL A   1      31.568  29.391  25.259  1.00  0.00     0.102 C 
BRANCH  27  28
ATOM     28  C   UNL A   1      32.540  29.470  26.410  1.00  0.00     0.217 C 
ATOM     29  N   UNL A   1      33.681  30.176  26.185  1.00  0.00    -0.370 N 
ATOM     30  O   UNL A   1      32.323  28.959  27.502  1.00  0.00    -0.275 OA
ATOM     31  H   UNL A   1      33.843  30.581  25.303  1.00  0.00     0.159 HD
ATOM     32  H   UNL A   1      34.346  30.280  26.904  1.00  0.00     0.159 HD
ENDBRANCH  27  28
ENDBRANCH  26  27
ENDBRANCH   9  26
ENDBRANCH   7   9
ENDBRANCH   6   7
ENDBRANCH   5   6
ENDBRANCH   4   5
ENDBRANCH   3   4
ENDBRANCH   2   3
ENDBRANCH   1   2
BRANCH   1  33
ATOM     33  O   UNL A   1      35.057  21.839  27.122  1.00  0.00    -0.377 OA
BRANCH  33  34
ATOM     34  C   UNL A   1      34.733  21.215  25.889  1.00  0.00     0.188 C 
BRANCH  34  35
ATOM     35  C   UNL A   1      35.173  21.906  24.573  1.00  0.00     0.188 C 
BRANCH  35  36
ATOM     36  O   UNL A   1      36.232  22.846  24.692  1.00  0.00    -0.376 OA
BRANCH  36  37
ATOM     37  C   UNL A   1      37.610  22.510  24.603  1.00  0.00     0.202 C 
BRANCH  37  38
ATOM     38  C   UNL A   1      38.284  21.673  25.693  1.00  0.00     0.261 C 
BRANCH  38  39
ATOM     39  O   UNL A   1      38.803  22.439  26.755  1.00  0.00    -0.460 OA
BRANCH  39  40
ATOM     40  C   UNL A   1      40.076  22.140  27.074  1.00  0.00     0.338 C 
ATOM     41  O   UNL A   1      40.476  21.150  27.661  1.00  0.00    -0.246 OA
BRANCH  40  42
ATOM     42  C   UNL A   1      40.919  23.267  26.671  1.00  0.00     0.060 A 
ATOM     43  C   UNL A   1      42.137  23.339  27.342  1.00  0.00     0.016 A 
ATOM     44  C   UNL A   1      40.244  24.393  26.187  1.00  0.00     0.016 A 
ATOM     45  C   UNL A   1      42.458  24.548  27.899  1.00  0.00     0.010 A 
ATOM     46  C   UNL A   1      40.544  25.587  26.772  1.00  0.00     0.010 A 
ATOM     47  C   UNL A   1      41.571  25.614  27.713  1.00  0.00    -0.014 A 
BRANCH  47  48
ATOM     48  C   UNL A   1      41.839  26.860  28.382  1.00  0.00     0.031 A 
ATOM     49  C   UNL A   1      43.077  27.443  27.828  1.00  0.00     0.074 A 
ATOM     50  C   UNL A   1      40.988  27.419  29.263  1.00  0.00     0.049 A 
ATOM     51  N   UNL A   1      44.268  27.303  28.313  1.00  0.00    -0.248 NA
ATOM     52  C   UNL A   1      43.051  27.902  26.424  1.00  0.00     0.031 C 
ATOM     53  C   UNL A   1      39.642  26.988  29.647  1.00  0.00     0.029 A 
ATOM     54  N   UNL A   1      41.127  28.578  29.953  1.00  0.00    -0.354 N 
ATOM     55  C   UNL A   1      45.076  27.974  27.408  1.00  0.00     0.074 A 
ATOM     56  C   UNL A   1      44.358  27.968  26.162  1.00  0.00     0.031 C 
ATOM     57  C   UNL A   1      39.011  28.007  30.285  1.00  0.00     0.029 A 
ATOM     58  C   UNL A   1      39.945  29.106  30.463  1.00  0.00     0.049 A 
ATOM     59  H   UNL A   1      42.000  29.013  30.084  1.00  0.00     0.167 HD
ATOM     60  C   UNL A   1      45.991  28.878  27.859  1.00  0.00     0.031 A 
ATOM     61  C   UNL A   1      39.763  30.379  30.918  1.00  0.00     0.031 A 
ATOM     62  C   UNL A   1      46.249  28.694  29.270  1.00  0.00     0.049 A 
ATOM     63  C   UNL A   1      41.118  30.928  31.200  1.00  0.00     0.074 A 
ATOM     64  C   UNL A   1      46.652  27.636  30.062  1.00  0.00     0.029 A 
ATOM     65  N   UNL A   1      45.661  29.605  30.117  1.00  0.00    -0.354 N 
ATOM     66  N   UNL A   1      41.885  30.466  32.149  1.00  0.00    -0.248 NA
ATOM     67  C   UNL A   1      41.810  31.601  30.111  1.00  0.00     0.031 C 
ATOM     68  C   UNL A   1      45.902  27.766  31.267  1.00  0.00     0.029 A 
ATOM     69  C   UNL A   1      45.152  28.940  31.198  1.00  0.00     0.049 A 
ATOM     70  H   UNL A   1      45.614  30.578  29.969  1.00  0.00     0.167 HD
ATOM     71  C   UNL A   1      43.146  30.377  31.571  1.00  0.00     0.074 A 
ATOM     72  C   UNL A   1      43.051  31.158  30.335  1.00  0.00     0.031 C 
ATOM     73  C   UNL A   1      44.038  29.428  31.985  1.00  0.00     0.031 A 
BRANCH  60  74
ATOM     74  C   UNL A   1      46.203  30.216  27.181  1.00  0.00    -0.014 A 
ATOM     75  C   UNL A   1      47.514  30.723  27.118  1.00  0.00     0.010 A 
ATOM     76  C   UNL A   1      45.160  31.118  26.870  1.00  0.00     0.010 A 
ATOM     77  C   UNL A   1      47.756  32.074  26.843  1.00  0.00     0.020 A 
ATOM     78  C   UNL A   1      45.391  32.453  26.554  1.00  0.00     0.020 A 
ATOM     79  C   UNL A   1      46.689  32.930  26.572  1.00  0.00     0.054 A 
BRANCH  79  80
ATOM     80  S   UNL A   1      47.006  34.683  26.277  1.00  0.00     0.124 S 
ATOM     81  O   UNL A   1      48.030  34.631  25.240  1.00  0.00    -0.237 OA
ATOM     82  O   UNL A   1      45.693  35.159  25.853  1.00  0.00    -0.237 OA
ATOM     83  O   UNL A   1      47.452  35.173  27.579  1.00  0.00    -0.744 OA
ENDBRANCH  79  80
ENDBRANCH  60  74
BRANCH  61  84
ATOM     84  C   UNL A   1      38.572  31.263  30.751  1.00  0.00    -0.014 A 
ATOM     85  C   UNL A   1      38.660  32.495  30.068  1.00  0.00     0.010 A 
ATOM     86  C   UNL A   1      37.280  30.760  31.004  1.00  0.00     0.010 A 
ATOM     87  C   UNL A   1      37.505  33.160  29.602  1.00  0.00     0.020 A 
ATOM     88  C   UNL A   1      36.128  31.416  30.547  1.00  0.00     0.020 A 
ATOM     89  C   UNL A   1      36.244  32.602  29.826  1.00  0.00     0.054 A 
BRANCH  89  90
ATOM     90  S   UNL A   1      34.769  33.357  29.072  1.00  0.00     0.124 S 
ATOM     91  O   UNL A   1      34.455  32.423  27.993  1.00  0.00    -0.237 OA
ATOM     92  O   UNL A   1      33.819  33.383  30.180  1.00  0.00    -0.237 OA
ATOM     93  O   UNL A   1      35.240  34.670  28.634  1.00  0.00    -0.744 OA
ENDBRANCH  89  90
ENDBRANCH  61  84
BRANCH  73  94
ATOM     94  C   UNL A   1      43.773  28.702  33.282  1.00  0.00    -0.014 A 
ATOM     95  C   UNL A   1      43.038  27.506  33.405  1.00  0.00     0.010 A 
ATOM     96  C   UNL A   1      44.432  29.204  34.418  1.00  0.00     0.010 A 
ATOM     97  C   UNL A   1      42.943  26.852  34.646  1.00  0.00     0.020 A 
ATOM     98  C   UNL A   1      44.357  28.550  35.646  1.00  0.00     0.020 A 
ATOM     99  C   UNL A   1      43.602  27.384  35.760  1.00  0.00     0.054 A 
BRANCH  99 100
ATOM    100  S   UNL A   1      43.489  26.544  37.366  1.00  0.00     0.124 S 
ATOM    101  O   UNL A   1      44.325  27.383  38.222  1.00  0.00    -0.237 OA
ATOM    102  O   UNL A   1      42.057  26.581  37.652  1.00  0.00    -0.237 OA
ATOM    103  O   UNL A   1      44.024  25.210  37.100  1.00  0.00    -0.744 OA
ENDBRANCH  99 100
ENDBRANCH  73  94
ENDBRANCH  47  48
ENDBRANCH  40  42
ENDBRANCH  39  40
ENDBRANCH  38  39
ENDBRANCH  37  38
ENDBRANCH  36  37
ENDBRANCH  35  36
ENDBRANCH  34  35
ENDBRANCH  33  34
ENDBRANCH   1  33
TORSDOF 31
ENDMDL
MODEL 2
REMARK VINA RESULT:      -8.8      3.655      9.867
REMARK SMILES CC(C)(O)C#Cc1ccc(C(=O)N[C@@H](CCC(N)=O)C(=O)OCCOCCOCCOCCOC(=O)c2ccc(-c3c4nc(c(-c5ccc(S(=O)(=O)[O-])cc5)c5ccc([nH]5)c(-c5ccc(S(=O)(=O)[O-])cc5)c5nc(c(-c6ccc(S(=O)(=O)[O-])cc6)c6ccc3[nH]6)C=C5)C=C4)cc2)s1
REMARK SMILES IDX 27 1 26 2 25 3 24 4 23 5 22 6 20 7 21 8 14 9 13 10 11 11
REMARK SMILES IDX 12 12 10 14 7 15 8 16 97 17 9 18 6 19 5 20 2 21 1 22 3 23
REMARK SMILES IDX 4 24 15 26 16 27 17 28 18 29 19 30 28 33 29 34 30 35 31 36
REMARK SMILES IDX 32 37 33 38 34 39 35 40 36 41 37 42 38 43 96 44 39 45 95 46
REMARK SMILES IDX 40 47 41 48 42 49 89 50 43 51 94 52 88 53 90 54 44 55 93 56
REMARK SMILES IDX 87 57 86 58 45 60 75 61 56 62 74 63 57 64 60 65 73 66 91 67
REMARK SMILES IDX 58 68 59 69 72 71 92 72 61 73 46 74 47 75 55 76 48 77 54 78
REMARK SMILES IDX 49 79 50 80 51 81 52 82 53 83 76 84 77 85 85 86 78 87 84 88
REMARK SMILES IDX 79 89 80 90 81 91 82 92 83 93 62 94 63 95 71 96 64 97 70 98
REMARK SMILES IDX 65 99 66 100 67 101 68 102 69 103
REMARK H PARENT 13 13 4 25 18 31 18 32 90 59 60 70
REMARK Flexibility Score: inf
ROOT
ATOM      1  C   UNL A   1      36.263  22.333  24.240  1.00  0.00     0.188 C 
ENDROOT
BRANCH   1   2
ATOM      2  C   UNL A   1      34.920  23.090  24.320  1.00  0.00     0.188 C 
BRANCH   2   3
ATOM      3  O   UNL A   1      34.742  24.353  23.690  1.00  0.00    -0.376 OA
BRANCH   3   4
ATOM      4  C   UNL A   1      33.466  24.736  23.204  1.00  0.00     0.202 C 
BRANCH   4   5
ATOM      5  C   UNL A   1      33.335  25.679  22.002  1.00  0.00     0.261 C 
BRANCH   5   6
ATOM      6  O   UNL A   1      32.085  26.384  21.899  1.00  0.00    -0.462 OA
BRANCH   6   7
ATOM      7  C   UNL A   1      31.976  27.547  22.574  1.00  0.00     0.328 C 
ATOM      8  O   UNL A   1      32.848  28.412  22.600  1.00  0.00    -0.250 OA
BRANCH   7   9
ATOM      9  C   UNL A   1      30.723  27.629  23.480  1.00  0.00     0.193 C 
BRANCH   9  10
ATOM     10  N   UNL A   1      30.613  26.934  24.777  1.00  0.00    -0.338 N 
ATOM     11  C   UNL A   1      31.334  26.976  25.963  1.00  0.00     0.262 C 
ATOM     12  O   UNL A   1      31.035  26.103  26.784  1.00  0.00    -0.268 OA
ATOM     13  H   UNL A   1      29.862  26.298  24.808  1.00  0.00     0.164 HD
BRANCH  11  14
ATOM     14  C   UNL A   1      32.323  28.001  26.309  1.00  0.00     0.093 A 
ATOM     15  C   UNL A   1      33.561  29.959  27.213  1.00  0.00     0.078 A 
ATOM     16  C   UNL A   1      34.423  29.041  26.666  1.00  0.00     0.030 A 
ATOM     17  S   UNL A   1      31.950  29.464  27.078  1.00  0.00    -0.121 S 
ATOM     18  C   UNL A   1      33.705  27.909  26.142  1.00  0.00     0.027 A 
BRANCH  15  19
ATOM     19  C   UNL A   1      33.834  31.185  27.868  1.00  0.00    -0.053 C 
ATOM     20  C   UNL A   1      34.299  32.247  28.198  1.00  0.00    -0.063 C 
BRANCH  20  21
ATOM     21  C   UNL A   1      35.006  33.511  28.424  1.00  0.00     0.120 C 
ATOM     22  C   UNL A   1      35.907  33.402  29.658  1.00  0.00     0.056 C 
ATOM     23  C   UNL A   1      34.007  34.652  28.566  1.00  0.00     0.056 C 
BRANCH  21  24
ATOM     24  O   UNL A   1      35.831  33.771  27.290  1.00  0.00    -0.378 OA
ATOM     25  H   UNL A   1      35.732  33.053  26.646  1.00  0.00     0.212 HD
ENDBRANCH  21  24
ENDBRANCH  20  21
ENDBRANCH  15  19
ENDBRANCH  11  14
ENDBRANCH   9  10
BRANCH   9  26
ATOM     26  C   UNL A   1      30.338  29.108  23.632  1.00  0.00     0.047 C 
BRANCH  26  27
ATOM     27  C   UNL A   1      29.428  29.693  22.556  1.00  0.00     0.102 C 
BRANCH  27  28
ATOM     28  C   UNL A   1      28.028  30.041  23.000  1.00  0.00     0.217 C 
ATOM     29  N   UNL A   1      27.041  29.199  22.589  1.00  0.00    -0.370 N 
ATOM     30  O   UNL A   1      27.774  31.006  23.710  1.00  0.00    -0.275 OA
ATOM     31  H   UNL A   1      27.259  28.427  22.018  1.00  0.00     0.159 HD
ATOM     32  H   UNL A   1      26.109  29.362  22.863  1.00  0.00     0.159 HD
ENDBRANCH  27  28
ENDBRANCH  26  27
ENDBRANCH   9  26
ENDBRANCH   7   9
ENDBRANCH   6   7
ENDBRANCH   5   6
ENDBRANCH   4   5
ENDBRANCH   3   4
ENDBRANCH   2   3
ENDBRANCH   1   2
BRANCH   1  33
ATOM     33  O   UNL A   1      37.313  22.840  25.035  1.00  0.00    -0.377 OA
BRANCH  33  34
ATOM     34  C   UNL A   1      38.194  21.892  25.620  1.00  0.00     0.188 C 
BRANCH  34  35
ATOM     35  C   UNL A   1      39.342  22.410  26.524  1.00  0.00     0.188 C 
BRANCH  35  36
ATOM     36  O   UNL A   1      40.316  21.446  26.901  1.00  0.00    -0.376 OA
BRANCH  36  37
ATOM     37  C   UNL A   1      41.648  21.765  27.278  1.00  0.00     0.202 C 
BRANCH  37  38
ATOM     38  C   UNL A   1      42.821  21.469  26.340  1.00  0.00     0.261 C 
BRANCH  38  39
ATOM     39  O   UNL A   1      42.898  22.344  25.239  1.00  0.00    -0.460 OA
BRANCH  39  40
ATOM     40  C   UNL A   1      43.997  22.174  24.481  1.00  0.00     0.338 C 
ATOM     41  O   UNL A   1      44.315  21.177  23.856  1.00  0.00    -0.246 OA
BRANCH  40  42
ATOM     42  C   UNL A   1      44.818  23.380  24.599  1.00  0.00     0.060 A 
ATOM     43  C   UNL A   1      46.127  23.144  25.010  1.00  0.00     0.016 A 
ATOM     44  C   UNL A   1      44.127  24.563  24.886  1.00  0.00     0.016 A 
ATOM     45  C   UNL A   1      46.586  23.896  26.058  1.00  0.00     0.010 A 
ATOM     46  C   UNL A   1      44.569  25.287  25.954  1.00  0.00     0.010 A 
ATOM     47  C   UNL A   1      45.730  24.863  26.596  1.00  0.00    -0.014 A 
BRANCH  47  48
ATOM     48  C   UNL A   1      46.155  25.587  27.766  1.00  0.00     0.031 A 
ATOM     49  C   UNL A   1      44.962  26.037  28.509  1.00  0.00     0.074 A 
ATOM     50  C   UNL A   1      47.445  25.685  28.141  1.00  0.00     0.049 A 
ATOM     51  N   UNL A   1      44.389  27.192  28.405  1.00  0.00    -0.248 NA
ATOM     52  C   UNL A   1      44.114  25.002  29.138  1.00  0.00     0.031 C 
ATOM     53  C   UNL A   1      48.626  25.043  27.560  1.00  0.00     0.029 A 
ATOM     54  N   UNL A   1      47.966  26.334  29.211  1.00  0.00    -0.354 N 
ATOM     55  C   UNL A   1      43.292  27.097  29.246  1.00  0.00     0.074 A 
ATOM     56  C   UNL A   1      42.991  25.694  29.340  1.00  0.00     0.031 C 
ATOM     57  C   UNL A   1      49.659  25.129  28.437  1.00  0.00     0.029 A 
ATOM     58  C   UNL A   1      49.248  25.933  29.576  1.00  0.00     0.049 A 
ATOM     59  H   UNL A   1      47.475  27.037  29.694  1.00  0.00     0.167 HD
ATOM     60  C   UNL A   1      43.049  28.082  30.155  1.00  0.00     0.031 A 
ATOM     61  C   UNL A   1      49.866  26.198  30.762  1.00  0.00     0.031 A 
ATOM     62  C   UNL A   1      43.770  29.289  29.816  1.00  0.00     0.049 A 
ATOM     63  C   UNL A   1      49.137  27.341  31.377  1.00  0.00     0.074 A 
ATOM     64  C   UNL A   1      43.848  30.102  28.702  1.00  0.00     0.029 A 
ATOM     65  N   UNL A   1      44.894  29.553  30.564  1.00  0.00    -0.354 N 
ATOM     66  N   UNL A   1      49.138  28.539  30.862  1.00  0.00    -0.248 NA
ATOM     67  C   UNL A   1      48.002  27.032  32.235  1.00  0.00     0.031 C 
ATOM     68  C   UNL A   1      45.217  30.490  28.619  1.00  0.00     0.029 A 
ATOM     69  C   UNL A   1      45.890  29.980  29.730  1.00  0.00     0.049 A 
ATOM     70  H   UNL A   1      44.969  29.452  31.540  1.00  0.00     0.167 HD
ATOM     71  C   UNL A   1      47.816  28.960  30.945  1.00  0.00     0.074 A 
ATOM     72  C   UNL A   1      47.176  28.016  31.866  1.00  0.00     0.031 C 
ATOM     73  C   UNL A   1      47.299  29.829  30.025  1.00  0.00     0.031 A 
BRANCH  60  74
ATOM     74  C   UNL A   1      42.635  27.778  31.580  1.00  0.00    -0.014 A 
ATOM     75  C   UNL A   1      41.471  28.397  32.074  1.00  0.00     0.010 A 
ATOM     76  C   UNL A   1      43.476  27.159  32.532  1.00  0.00     0.010 A 
ATOM     77  C   UNL A   1      41.214  28.462  33.449  1.00  0.00     0.020 A 
ATOM     78  C   UNL A   1      43.209  27.182  33.898  1.00  0.00     0.020 A 
ATOM     79  C   UNL A   1      42.092  27.861  34.350  1.00  0.00     0.054 A 
BRANCH  79  80
ATOM     80  S   UNL A   1      41.783  28.001  36.123  1.00  0.00     0.124 S 
ATOM     81  O   UNL A   1      40.715  28.994  36.163  1.00  0.00    -0.237 OA
ATOM     82  O   UNL A   1      41.399  26.637  36.472  1.00  0.00    -0.237 OA
ATOM     83  O   UNL A   1      43.070  28.439  36.660  1.00  0.00    -0.744 OA
ENDBRANCH  79  80
ENDBRANCH  60  74
BRANCH  61  84
ATOM     84  C   UNL A   1      50.757  25.307  31.563  1.00  0.00    -0.014 A 
ATOM     85  C   UNL A   1      52.082  25.680  31.876  1.00  0.00     0.010 A 
ATOM     86  C   UNL A   1      50.211  24.220  32.275  1.00  0.00     0.010 A 
ATOM     87  C   UNL A   1      52.804  25.033  32.903  1.00  0.00     0.020 A 
ATOM     88  C   UNL A   1      50.923  23.570  33.294  1.00  0.00     0.020 A 
ATOM     89  C   UNL A   1      52.208  23.994  33.621  1.00  0.00     0.054 A 
BRANCH  89  90
ATOM     90  S   UNL A   1      53.062  23.280  35.063  1.00  0.00     0.124 S 
ATOM     91  O   UNL A   1      54.468  23.496  34.734  1.00  0.00    -0.237 OA
ATOM     92  O   UNL A   1      52.544  24.077  36.171  1.00  0.00    -0.237 OA
ATOM     93  O   UNL A   1      52.634  21.881  35.059  1.00  0.00    -0.744 OA
ENDBRANCH  89  90
ENDBRANCH  61  84
BRANCH  73  94
ATOM     94  C   UNL A   1      48.251  30.578  29.124  1.00  0.00    -0.014 A 
ATOM     95  C   UNL A   1      48.694  30.129  27.863  1.00  0.00     0.010 A 
ATOM     96  C   UNL A   1      48.601  31.876  29.534  1.00  0.00     0.010 A 
ATOM     97  C   UNL A   1      49.495  30.954  27.053  1.00  0.00     0.020 A 
ATOM     98  C   UNL A   1      49.378  32.705  28.728  1.00  0.00     0.020 A 
ATOM     99  C   UNL A   1      49.835  32.237  27.497  1.00  0.00     0.054 A 
BRANCH  99 100
ATOM    100  S   UNL A   1      50.864  33.312  26.456  1.00  0.00     0.124 S 
ATOM    101  O   UNL A   1      50.786  32.659  25.152  1.00  0.00    -0.237 OA
ATOM    102  O   UNL A   1      50.187  34.603  26.556  1.00  0.00    -0.237 OA
ATOM    103  O   UNL A   1      52.178  33.261  27.094  1.00  0.00    -0.744 OA
ENDBRANCH  99 100
ENDBRANCH  73  94
ENDBRANCH  47  48
ENDBRANCH  40  42
ENDBRANCH  39  40
ENDBRANCH  38  39
ENDBRANCH  37  38
ENDBRANCH  36  37
ENDBRANCH  35  36
ENDBRANCH  34  35
ENDBRANCH  33  34
ENDBRANCH   1  33
TORSDOF 31
ENDMDL
MODEL 3
REMARK VINA RESULT:      -8.7      2.316      5.185
REMARK SMILES CC(C)(O)C#Cc1ccc(C(=O)N[C@@H](CCC(N)=O)C(=O)OCCOCCOCCOCCOC(=O)c2ccc(-c3c4nc(c(-c5ccc(S(=O)(=O)[O-])cc5)c5ccc([nH]5)c(-c5ccc(S(=O)(=O)[O-])cc5)c5nc(c(-c6ccc(S(=O)(=O)[O-])cc6)c6ccc3[nH]6)C=C5)C=C4)cc2)s1
REMARK SMILES IDX 27 1 26 2 25 3 24 4 23 5 22 6 20 7 21 8 14 9 13 10 11 11
REMARK SMILES IDX 12 12 10 14 7 15 8 16 97 17 9 18 6 19 5 20 2 21 1 22 3 23
REMARK SMILES IDX 4 24 15 26 16 27 17 28 18 29 19 30 28 33 29 34 30 35 31 36
REMARK SMILES IDX 32 37 33 38 34 39 35 40 36 41 37 42 38 43 96 44 39 45 95 46
REMARK SMILES IDX 40 47 41 48 42 49 89 50 43 51 94 52 88 53 90 54 44 55 93 56
REMARK SMILES IDX 87 57 86 58 45 60 75 61 56 62 74 63 57 64 60 65 73 66 91 67
REMARK SMILES IDX 58 68 59 69 72 71 92 72 61 73 46 74 47 75 55 76 48 77 54 78
REMARK SMILES IDX 49 79 50 80 51 81 52 82 53 83 76 84 77 85 85 86 78 87 84 88
REMARK SMILES IDX 79 89 80 90 81 91 82 92 83 93 62 94 63 95 71 96 64 97 70 98
REMARK SMILES IDX 65 99 66 100 67 101 68 102 69 103
REMARK H PARENT 13 13 4 25 18 31 18 32 90 59 60 70
REMARK Flexibility Score: inf
ROOT
ATOM      1  C   UNL A   1      35.234  21.847  24.479  1.00  0.00     0.188 C 
ENDROOT
BRANCH   1   2
ATOM      2  C   UNL A   1      34.171  22.952  24.303  1.00  0.00     0.188 C 
BRANCH   2   3
ATOM      3  O   UNL A   1      34.493  24.200  23.701  1.00  0.00    -0.376 OA
BRANCH   3   4
ATOM      4  C   UNL A   1      33.489  25.183  23.510  1.00  0.00     0.202 C 
BRANCH   4   5
ATOM      5  C   UNL A   1      33.802  26.495  22.781  1.00  0.00     0.261 C 
BRANCH   5   6
ATOM      6  O   UNL A   1      32.672  27.167  22.198  1.00  0.00    -0.462 OA
BRANCH   6   7
ATOM      7  C   UNL A   1      32.227  28.277  22.822  1.00  0.00     0.328 C 
ATOM      8  O   UNL A   1      32.913  29.276  23.022  1.00  0.00    -0.250 OA
BRANCH   7   9
ATOM      9  C   UNL A   1      30.815  28.123  23.440  1.00  0.00     0.193 C 
BRANCH   9  10
ATOM     10  N   UNL A   1      30.569  27.503  24.756  1.00  0.00    -0.338 N 
ATOM     11  C   UNL A   1      31.266  27.470  25.957  1.00  0.00     0.262 C 
ATOM     12  O   UNL A   1      30.813  26.688  26.799  1.00  0.00    -0.268 OA
ATOM     13  H   UNL A   1      29.724  26.999  24.790  1.00  0.00     0.164 HD
BRANCH  11  14
ATOM     14  C   UNL A   1      32.403  28.333  26.292  1.00  0.00     0.093 A 
ATOM     15  C   UNL A   1      33.918  30.127  27.110  1.00  0.00     0.078 A 
ATOM     16  C   UNL A   1      34.628  29.010  26.747  1.00  0.00     0.030 A 
ATOM     17  S   UNL A   1      32.257  29.920  26.868  1.00  0.00    -0.121 S 
ATOM     18  C   UNL A   1      33.751  27.973  26.273  1.00  0.00     0.027 A 
BRANCH  15  19
ATOM     19  C   UNL A   1      34.369  31.353  27.661  1.00  0.00    -0.053 C 
ATOM     20  C   UNL A   1      34.511  32.515  27.944  1.00  0.00    -0.063 C 
BRANCH  20  21
ATOM     21  C   UNL A   1      34.509  33.966  28.153  1.00  0.00     0.120 C 
ATOM     22  C   UNL A   1      35.624  34.365  29.123  1.00  0.00     0.056 C 
ATOM     23  C   UNL A   1      33.147  34.421  28.657  1.00  0.00     0.056 C 
BRANCH  21  24
ATOM     24  O   UNL A   1      34.761  34.598  26.899  1.00  0.00    -0.378 OA
ATOM     25  H   UNL A   1      35.665  34.949  26.889  1.00  0.00     0.212 HD
ENDBRANCH  21  24
ENDBRANCH  20  21
ENDBRANCH  15  19
ENDBRANCH  11  14
ENDBRANCH   9  10
BRANCH   9  26
ATOM     26  C   UNL A   1      30.101  29.480  23.348  1.00  0.00     0.047 C 
BRANCH  26  27
ATOM     27  C   UNL A   1      29.211  29.703  22.129  1.00  0.00     0.102 C 
BRANCH  27  28
ATOM     28  C   UNL A   1      28.688  31.108  21.947  1.00  0.00     0.217 C 
ATOM     29  N   UNL A   1      29.500  32.110  22.378  1.00  0.00    -0.370 N 
ATOM     30  O   UNL A   1      27.610  31.355  21.421  1.00  0.00    -0.275 OA
ATOM     31  H   UNL A   1      30.365  31.897  22.799  1.00  0.00     0.159 HD
ATOM     32  H   UNL A   1      29.224  33.049  22.268  1.00  0.00     0.159 HD
ENDBRANCH  27  28
ENDBRANCH  26  27
ENDBRANCH   9  26
ENDBRANCH   7   9
ENDBRANCH   6   7
ENDBRANCH   5   6
ENDBRANCH   4   5
ENDBRANCH   3   4
ENDBRANCH   2   3
ENDBRANCH   1   2
BRANCH   1  33
ATOM     33  O   UNL A   1      35.795  21.721  25.768  1.00  0.00    -0.377 OA
BRANCH  33  34
ATOM     34  C   UNL A   1      37.047  22.352  25.991  1.00  0.00     0.188 C 
BRANCH  34  35
ATOM     35  C   UNL A   1      38.338  21.596  25.583  1.00  0.00     0.188 C 
BRANCH  35  36
ATOM     36  O   UNL A   1      39.542  22.063  26.176  1.00  0.00    -0.376 OA
BRANCH  36  37
ATOM     37  C   UNL A   1      40.733  21.294  26.273  1.00  0.00     0.202 C 
BRANCH  37  38
ATOM     38  C   UNL A   1      42.067  21.846  25.766  1.00  0.00     0.261 C 
BRANCH  38  39
ATOM     39  O   UNL A   1      42.568  22.913  26.538  1.00  0.00    -0.460 OA
BRANCH  39  40
ATOM     40  C   UNL A   1      42.233  24.131  26.073  1.00  0.00     0.338 C 
ATOM     41  O   UNL A   1      42.549  24.623  25.004  1.00  0.00    -0.246 OA
BRANCH  40  42
ATOM     42  C   UNL A   1      41.480  24.823  27.120  1.00  0.00     0.060 A 
ATOM     43  C   UNL A   1      40.915  26.029  26.716  1.00  0.00     0.016 A 
ATOM     44  C   UNL A   1      41.890  24.572  28.434  1.00  0.00     0.016 A 
ATOM     45  C   UNL A   1      41.154  27.116  27.514  1.00  0.00     0.010 A 
ATOM     46  C   UNL A   1      42.161  25.660  29.211  1.00  0.00     0.010 A 
ATOM     47  C   UNL A   1      41.900  26.921  28.682  1.00  0.00    -0.014 A 
BRANCH  47  48
ATOM     48  C   UNL A   1      42.252  28.070  29.475  1.00  0.00     0.031 A 
ATOM     49  C   UNL A   1      43.415  28.738  28.858  1.00  0.00     0.074 A 
ATOM     50  C   UNL A   1      41.517  28.495  30.521  1.00  0.00     0.049 A 
ATOM     51  N   UNL A   1      44.656  28.550  29.171  1.00  0.00    -0.248 NA
ATOM     52  C   UNL A   1      43.219  29.381  27.542  1.00  0.00     0.031 C 
ATOM     53  C   UNL A   1      40.226  27.998  31.004  1.00  0.00     0.029 A 
ATOM     54  N   UNL A   1      41.744  29.552  31.338  1.00  0.00    -0.354 N 
ATOM     55  C   UNL A   1      45.350  29.347  28.274  1.00  0.00     0.074 A 
ATOM     56  C   UNL A   1      44.484  29.499  27.135  1.00  0.00     0.031 C 
ATOM     57  C   UNL A   1      39.682  28.913  31.845  1.00  0.00     0.029 A 
ATOM     58  C   UNL A   1      40.634  29.992  32.055  1.00  0.00     0.049 A 
ATOM     59  H   UNL A   1      42.628  29.977  31.420  1.00  0.00     0.167 HD
ATOM     60  C   UNL A   1      46.315  30.194  28.728  1.00  0.00     0.031 A 
ATOM     61  C   UNL A   1      40.514  31.189  32.697  1.00  0.00     0.031 A 
ATOM     62  C   UNL A   1      46.744  29.826  30.059  1.00  0.00     0.049 A 
ATOM     63  C   UNL A   1      41.896  31.713  32.883  1.00  0.00     0.074 A 
ATOM     64  C   UNL A   1      47.237  28.676  30.646  1.00  0.00     0.029 A 
ATOM     65  N   UNL A   1      46.267  30.607  31.086  1.00  0.00    -0.354 N 
ATOM     66  N   UNL A   1      42.771  31.138  33.660  1.00  0.00    -0.248 NA
ATOM     67  C   UNL A   1      42.451  32.535  31.818  1.00  0.00     0.031 C 
ATOM     68  C   UNL A   1      46.641  28.633  31.939  1.00  0.00     0.029 A 
ATOM     69  C   UNL A   1      45.892  29.796  32.122  1.00  0.00     0.049 A 
ATOM     70  H   UNL A   1      46.206  31.590  31.077  1.00  0.00     0.167 HD
ATOM     71  C   UNL A   1      43.952  31.143  32.927  1.00  0.00     0.074 A 
ATOM     72  C   UNL A   1      43.709  32.082  31.828  1.00  0.00     0.031 C 
ATOM     73  C   UNL A   1      44.885  30.159  33.096  1.00  0.00     0.031 A 
BRANCH  60  74
ATOM     74  C   UNL A   1      46.447  31.614  28.215  1.00  0.00    -0.014 A 
ATOM     75  C   UNL A   1      46.422  32.659  29.157  1.00  0.00     0.010 A 
ATOM     76  C   UNL A   1      46.302  31.980  26.858  1.00  0.00     0.010 A 
ATOM     77  C   UNL A   1      46.180  33.982  28.764  1.00  0.00     0.020 A 
ATOM     78  C   UNL A   1      46.103  33.296  26.452  1.00  0.00     0.020 A 
ATOM     79  C   UNL A   1      46.014  34.287  27.414  1.00  0.00     0.054 A 
BRANCH  79  80
ATOM     80  S   UNL A   1      45.644  35.984  26.923  1.00  0.00     0.124 S 
ATOM     81  O   UNL A   1      45.922  36.718  28.153  1.00  0.00    -0.237 OA
ATOM     82  O   UNL A   1      46.586  36.193  25.828  1.00  0.00    -0.237 OA
ATOM     83  O   UNL A   1      44.237  35.926  26.528  1.00  0.00    -0.744 OA
ENDBRANCH  79  80
ENDBRANCH  60  74
BRANCH  61  84
ATOM     84  C   UNL A   1      39.315  32.071  32.797  1.00  0.00    -0.014 A 
ATOM     85  C   UNL A   1      38.586  32.456  31.650  1.00  0.00     0.010 A 
ATOM     86  C   UNL A   1      38.707  32.295  34.048  1.00  0.00     0.010 A 
ATOM     87  C   UNL A   1      37.280  32.981  31.752  1.00  0.00     0.020 A 
ATOM     88  C   UNL A   1      37.411  32.820  34.158  1.00  0.00     0.020 A 
ATOM     89  C   UNL A   1      36.692  33.139  33.010  1.00  0.00     0.054 A 
BRANCH  89  90
ATOM     90  S   UNL A   1      34.946  33.641  33.139  1.00  0.00     0.124 S 
ATOM     91  O   UNL A   1      34.742  33.701  34.584  1.00  0.00    -0.237 OA
ATOM     92  O   UNL A   1      34.929  34.927  32.447  1.00  0.00    -0.237 OA
ATOM     93  O   UNL A   1      34.226  32.566  32.457  1.00  0.00    -0.744 OA
ENDBRANCH  89  90
ENDBRANCH  61  84
BRANCH  73  94
ATOM     94  C   UNL A   1      44.778  29.263  34.307  1.00  0.00    -0.014 A 
ATOM     95  C   UNL A   1      45.342  29.536  35.569  1.00  0.00     0.010 A 
ATOM     96  C   UNL A   1      43.934  28.146  34.177  1.00  0.00     0.010 A 
ATOM     97  C   UNL A   1      45.089  28.688  36.662  1.00  0.00     0.020 A 
ATOM     98  C   UNL A   1      43.665  27.312  35.261  1.00  0.00     0.020 A 
ATOM     99  C   UNL A   1      44.254  27.577  36.496  1.00  0.00     0.054 A 
BRANCH  99 100
ATOM    100  S   UNL A   1      43.917  26.480  37.902  1.00  0.00     0.124 S 
ATOM    101  O   UNL A   1      44.394  27.264  39.038  1.00  0.00    -0.237 OA
ATOM    102  O   UNL A   1      42.470  26.294  37.829  1.00  0.00    -0.237 OA
ATOM    103  O   UNL A   1      44.702  25.283  37.607  1.00  0.00    -0.744 OA
ENDBRANCH  99 100
ENDBRANCH  73  94
ENDBRANCH  47  48
ENDBRANCH  40  42
ENDBRANCH  39  40
ENDBRANCH  38  39
ENDBRANCH  37  38
ENDBRANCH  36  37
ENDBRANCH  35  36
ENDBRANCH  34  35
ENDBRANCH  33  34
ENDBRANCH   1  33
TORSDOF 31
ENDMDL
