MODEL 1
REMARK VINA RESULT:      -7.7      0.000      0.000
REMARK SMILES O=C(C[NH+]1CCC(C(=O)OCCOCCOCCOCCOC(=O)c2ccc(-c3c4nc(c(-c5ccc(S(=O)(=O)[O-])cc5)c5ccc([nH]5)c(-c5ccc(S(=O)(=O)[O-])cc5)c5nc(c(-c6ccc(S(=O)(=O)[O-])cc6)c6ccc3[nH]6)C=C5)C=C4)cc2)CC1)Nc1ccccc1Oc1ccccc1
REMARK SMILES IDX 15 1 14 2 13 3 12 4 11 5 10 6 8 7 9 8 7 9 4 10 5 11 86 12
REMARK SMILES IDX 6 14 85 15 3 16 2 17 1 18 87 19 88 21 89 22 93 23 90 24
REMARK SMILES IDX 92 25 91 26 94 27 95 28 96 29 100 30 97 31 99 32 98 33 16 34
REMARK SMILES IDX 17 35 18 36 19 37 20 38 21 39 22 40 23 41 24 42 25 43 26 44
REMARK SMILES IDX 84 45 27 46 83 47 28 48 29 49 30 50 77 51 31 52 82 53 76 54
REMARK SMILES IDX 78 55 32 56 81 57 75 58 74 59 33 61 63 62 44 63 62 64 45 65
REMARK SMILES IDX 48 66 61 67 79 68 46 69 47 70 60 72 80 73 49 74 34 75 35 76
REMARK SMILES IDX 43 77 36 78 42 79 37 80 38 81 39 82 40 83 41 84 64 85 65 86
REMARK SMILES IDX 73 87 66 88 72 89 67 90 68 91 69 92 70 93 71 94 50 95 51 96
REMARK SMILES IDX 59 97 52 98 58 99 53 100 54 101 55 102 56 103 57 104
REMARK H PARENT 4 13 87 20 78 60 48 71
REMARK Flexibility Score: inf
ROOT
ATOM      1  C   UNL A   1      39.447  34.040  33.010  1.00  0.00     0.188 C 
ENDROOT
BRANCH   1   2
ATOM      2  C   UNL A   1      37.946  34.241  33.266  1.00  0.00     0.188 C 
BRANCH   2   3
ATOM      3  O   UNL A   1      37.123  33.134  33.631  1.00  0.00    -0.376 OA
BRANCH   3   4
ATOM      4  C   UNL A   1      35.971  32.796  32.858  1.00  0.00     0.202 C 
BRANCH   4   5
ATOM      5  C   UNL A   1      35.042  33.880  32.291  1.00  0.00     0.261 C 
BRANCH   5   6
ATOM      6  O   UNL A   1      34.313  33.477  31.132  1.00  0.00    -0.463 OA
BRANCH   6   7
ATOM      7  C   UNL A   1      35.011  33.287  29.985  1.00  0.00     0.309 C 
ATOM      8  O   UNL A   1      35.855  34.051  29.531  1.00  0.00    -0.252 OA
BRANCH   7   9
ATOM      9  C   UNL A   1      34.692  31.948  29.342  1.00  0.00     0.110 C 
ATOM     10  N   UNL A   1      34.862  29.994  27.180  1.00  0.00    -0.327 N 
ATOM     11  C   UNL A   1      33.671  30.806  27.308  1.00  0.00     0.263 C 
ATOM     12  C   UNL A   1      35.527  29.764  28.474  1.00  0.00     0.263 C 
ATOM     13  H   UNL A   1      35.474  30.559  26.591  1.00  0.00     0.348 HD
ATOM     14  C   UNL A   1      33.992  32.100  28.005  1.00  0.00     0.077 C 
ATOM     15  C   UNL A   1      35.913  31.068  29.178  1.00  0.00     0.077 C 
BRANCH  10  16
ATOM     16  C   UNL A   1      34.674  28.722  26.460  1.00  0.00     0.363 C 
BRANCH  16  17
ATOM     17  C   UNL A   1      33.243  28.313  26.084  1.00  0.00     0.279 C 
ATOM     18  O   UNL A   1      32.411  27.957  26.914  1.00  0.00    -0.268 OA
ATOM     19  N   UNL A   1      32.984  28.444  24.724  1.00  0.00    -0.318 N 
ATOM     20  H   UNL A   1      33.751  28.521  24.111  1.00  0.00     0.170 HD
BRANCH  19  21
ATOM     21  C   UNL A   1      31.695  28.475  24.175  1.00  0.00     0.084 A 
ATOM     22  C   UNL A   1      31.001  29.690  24.278  1.00  0.00     0.030 A 
ATOM     23  C   UNL A   1      31.077  27.366  23.575  1.00  0.00     0.150 A 
ATOM     24  C   UNL A   1      29.745  29.842  23.687  1.00  0.00     0.002 A 
ATOM     25  C   UNL A   1      29.815  27.534  22.986  1.00  0.00     0.049 A 
ATOM     26  C   UNL A   1      29.158  28.767  23.028  1.00  0.00     0.004 A 
BRANCH  23  27
ATOM     27  O   UNL A   1      31.552  26.071  23.482  1.00  0.00    -0.455 OA
BRANCH  27  28
ATOM     28  C   UNL A   1      31.212  25.115  24.409  1.00  0.00     0.127 A 
ATOM     29  C   UNL A   1      31.669  23.822  24.138  1.00  0.00     0.047 A 
ATOM     30  C   UNL A   1      30.449  25.359  25.554  1.00  0.00     0.047 A 
ATOM     31  C   UNL A   1      31.443  22.789  25.050  1.00  0.00     0.004 A 
ATOM     32  C   UNL A   1      30.225  24.322  26.469  1.00  0.00     0.004 A 
ATOM     33  C   UNL A   1      30.730  23.042  26.221  1.00  0.00     0.000 A 
ENDBRANCH  27  28
ENDBRANCH  23  27
ENDBRANCH  19  21
ENDBRANCH  16  17
ENDBRANCH  10  16
ENDBRANCH   7   9
ENDBRANCH   6   7
ENDBRANCH   5   6
ENDBRANCH   4   5
ENDBRANCH   3   4
ENDBRANCH   2   3
ENDBRANCH   1   2
BRANCH   1  34
ATOM     34  O   UNL A   1      40.251  34.607  34.017  1.00  0.00    -0.377 OA
BRANCH  34  35
ATOM     35  C   UNL A   1      39.555  35.335  35.024  1.00  0.00     0.188 C 
BRANCH  35  36
ATOM     36  C   UNL A   1      39.595  34.789  36.477  1.00  0.00     0.188 C 
BRANCH  36  37
ATOM     37  O   UNL A   1      38.453  34.070  36.924  1.00  0.00    -0.376 OA
BRANCH  37  38
ATOM     38  C   UNL A   1      38.607  32.913  37.740  1.00  0.00     0.202 C 
BRANCH  38  39
ATOM     39  C   UNL A   1      38.419  33.011  39.269  1.00  0.00     0.261 C 
BRANCH  39  40
ATOM     40  O   UNL A   1      38.076  34.299  39.798  1.00  0.00    -0.460 OA
BRANCH  40  41
ATOM     41  C   UNL A   1      38.440  34.572  41.067  1.00  0.00     0.338 C 
ATOM     42  O   UNL A   1      38.437  33.795  42.010  1.00  0.00    -0.246 OA
BRANCH  41  43
ATOM     43  C   UNL A   1      39.067  35.908  41.085  1.00  0.00     0.060 A 
ATOM     44  C   UNL A   1      38.989  36.698  39.930  1.00  0.00     0.016 A 
ATOM     45  C   UNL A   1      39.727  36.382  42.222  1.00  0.00     0.016 A 
ATOM     46  C   UNL A   1      39.608  37.944  39.889  1.00  0.00     0.010 A 
ATOM     47  C   UNL A   1      40.381  37.617  42.168  1.00  0.00     0.010 A 
ATOM     48  C   UNL A   1      40.358  38.381  40.987  1.00  0.00    -0.014 A 
BRANCH  48  49
ATOM     49  C   UNL A   1      41.301  39.508  40.798  1.00  0.00     0.031 A 
ATOM     50  C   UNL A   1      40.854  40.883  41.222  1.00  0.00     0.074 A 
ATOM     51  C   UNL A   1      42.545  39.313  40.327  1.00  0.00     0.049 A 
ATOM     52  N   UNL A   1      41.495  42.020  41.160  1.00  0.00    -0.248 NA
ATOM     53  C   UNL A   1      39.501  40.984  41.800  1.00  0.00     0.031 C 
ATOM     54  C   UNL A   1      43.114  38.021  39.947  1.00  0.00     0.029 A 
ATOM     55  N   UNL A   1      43.556  40.210  40.094  1.00  0.00    -0.354 N 
ATOM     56  C   UNL A   1      40.623  42.971  41.679  1.00  0.00     0.074 A 
ATOM     57  C   UNL A   1      39.398  42.284  42.023  1.00  0.00     0.031 C 
ATOM     58  C   UNL A   1      44.376  38.212  39.520  1.00  0.00     0.029 A 
ATOM     59  C   UNL A   1      44.689  39.639  39.565  1.00  0.00     0.049 A 
ATOM     60  H   UNL A   1      43.478  41.172  40.287  1.00  0.00     0.167 HD
ATOM     61  C   UNL A   1      40.825  44.297  41.858  1.00  0.00     0.031 A 
ATOM     62  C   UNL A   1      45.837  40.209  39.144  1.00  0.00     0.031 A 
ATOM     63  C   UNL A   1      42.039  44.978  41.496  1.00  0.00     0.049 A 
ATOM     64  C   UNL A   1      46.004  41.702  39.269  1.00  0.00     0.074 A 
ATOM     65  C   UNL A   1      42.347  46.320  41.639  1.00  0.00     0.029 A 
ATOM     66  N   UNL A   1      43.142  44.374  40.912  1.00  0.00    -0.354 N 
ATOM     67  N   UNL A   1      45.178  42.588  39.774  1.00  0.00    -0.248 NA
ATOM     68  C   UNL A   1      47.266  42.271  38.773  1.00  0.00     0.031 C 
ATOM     69  C   UNL A   1      43.609  46.538  41.079  1.00  0.00     0.029 A 
ATOM     70  C   UNL A   1      44.120  45.320  40.659  1.00  0.00     0.049 A 
ATOM     71  H   UNL A   1      43.218  43.414  40.708  1.00  0.00     0.167 HD
ATOM     72  C   UNL A   1      45.835  43.814  39.687  1.00  0.00     0.074 A 
ATOM     73  C   UNL A   1      47.131  43.550  39.096  1.00  0.00     0.031 C 
ATOM     74  C   UNL A   1      45.406  45.044  40.067  1.00  0.00     0.031 A 
BRANCH  61  75
ATOM     75  C   UNL A   1      39.688  45.104  42.430  1.00  0.00    -0.014 A 
ATOM     76  C   UNL A   1      38.734  45.721  41.601  1.00  0.00     0.010 A 
ATOM     77  C   UNL A   1      39.558  45.221  43.827  1.00  0.00     0.010 A 
ATOM     78  C   UNL A   1      37.692  46.469  42.156  1.00  0.00     0.020 A 
ATOM     79  C   UNL A   1      38.499  45.941  44.387  1.00  0.00     0.020 A 
ATOM     80  C   UNL A   1      37.581  46.573  43.546  1.00  0.00     0.054 A 
BRANCH  80  81
ATOM     81  S   UNL A   1      36.203  47.528  44.239  1.00  0.00     0.124 S 
ATOM     82  O   UNL A   1      35.581  48.076  43.035  1.00  0.00    -0.237 OA
ATOM     83  O   UNL A   1      35.427  46.507  44.936  1.00  0.00    -0.237 OA
ATOM     84  O   UNL A   1      36.857  48.508  45.101  1.00  0.00    -0.744 OA
ENDBRANCH  80  81
ENDBRANCH  61  75
BRANCH  62  85
ATOM     85  C   UNL A   1      46.911  39.368  38.545  1.00  0.00    -0.014 A 
ATOM     86  C   UNL A   1      46.946  39.118  37.162  1.00  0.00     0.010 A 
ATOM     87  C   UNL A   1      47.907  38.803  39.364  1.00  0.00     0.010 A 
ATOM     88  C   UNL A   1      47.943  38.306  36.613  1.00  0.00     0.020 A 
ATOM     89  C   UNL A   1      48.924  38.018  38.815  1.00  0.00     0.020 A 
ATOM     90  C   UNL A   1      48.930  37.765  37.442  1.00  0.00     0.054 A 
BRANCH  90  91
ATOM     91  S   UNL A   1      50.243  36.758  36.699  1.00  0.00     0.124 S 
ATOM     92  O   UNL A   1      50.151  35.522  37.468  1.00  0.00    -0.237 OA
ATOM     93  O   UNL A   1      49.818  36.670  35.304  1.00  0.00    -0.237 OA
ATOM     94  O   UNL A   1      51.451  37.548  36.925  1.00  0.00    -0.744 OA
ENDBRANCH  90  91
ENDBRANCH  62  85
BRANCH  74  95
ATOM     95  C   UNL A   1      46.361  46.198  39.897  1.00  0.00    -0.014 A 
ATOM     96  C   UNL A   1      46.363  46.987  38.733  1.00  0.00     0.010 A 
ATOM     97  C   UNL A   1      47.238  46.530  40.948  1.00  0.00     0.010 A 
ATOM     98  C   UNL A   1      47.252  48.058  38.607  1.00  0.00     0.020 A 
ATOM     99  C   UNL A   1      48.103  47.621  40.840  1.00  0.00     0.020 A 
ATOM    100  C   UNL A   1      48.117  48.368  39.661  1.00  0.00     0.054 A 
BRANCH 100 101
ATOM    101  S   UNL A   1      49.237  49.784  39.485  1.00  0.00     0.124 S 
ATOM    102  O   UNL A   1      48.314  50.913  39.566  1.00  0.00    -0.237 OA
ATOM    103  O   UNL A   1      50.137  49.624  40.624  1.00  0.00    -0.237 OA
ATOM    104  O   UNL A   1      49.854  49.577  38.177  1.00  0.00    -0.744 OA
ENDBRANCH 100 101
ENDBRANCH  74  95
ENDBRANCH  48  49
ENDBRANCH  41  43
ENDBRANCH  40  41
ENDBRANCH  39  40
ENDBRANCH  38  39
ENDBRANCH  37  38
ENDBRANCH  36  37
ENDBRANCH  35  36
ENDBRANCH  34  35
ENDBRANCH   1  34
TORSDOF 28
ENDMDL
MODEL 2
REMARK VINA RESULT:      -7.5      0.680      7.603
REMARK SMILES O=C(C[NH+]1CCC(C(=O)OCCOCCOCCOCCOC(=O)c2ccc(-c3c4nc(c(-c5ccc(S(=O)(=O)[O-])cc5)c5ccc([nH]5)c(-c5ccc(S(=O)(=O)[O-])cc5)c5nc(c(-c6ccc(S(=O)(=O)[O-])cc6)c6ccc3[nH]6)C=C5)C=C4)cc2)CC1)Nc1ccccc1Oc1ccccc1
REMARK SMILES IDX 15 1 14 2 13 3 12 4 11 5 10 6 8 7 9 8 7 9 4 10 5 11 86 12
REMARK SMILES IDX 6 14 85 15 3 16 2 17 1 18 87 19 88 21 89 22 93 23 90 24
REMARK SMILES IDX 92 25 91 26 94 27 95 28 96 29 100 30 97 31 99 32 98 33 16 34
REMARK SMILES IDX 17 35 18 36 19 37 20 38 21 39 22 40 23 41 24 42 25 43 26 44
REMARK SMILES IDX 84 45 27 46 83 47 28 48 29 49 30 50 77 51 31 52 82 53 76 54
REMARK SMILES IDX 78 55 32 56 81 57 75 58 74 59 33 61 63 62 44 63 62 64 45 65
REMARK SMILES IDX 48 66 61 67 79 68 46 69 47 70 60 72 80 73 49 74 34 75 35 76
REMARK SMILES IDX 43 77 36 78 42 79 37 80 38 81 39 82 40 83 41 84 64 85 65 86
REMARK SMILES IDX 73 87 66 88 72 89 67 90 68 91 69 92 70 93 71 94 50 95 51 96
REMARK SMILES IDX 59 97 52 98 58 99 53 100 54 101 55 102 56 103 57 104
REMARK H PARENT 4 13 87 20 78 60 48 71
REMARK Flexibility Score: inf
ROOT
ATOM      1  C   UNL A   1      39.840  33.194  32.895  1.00  0.00     0.188 C 
ENDROOT
BRANCH   1   2
ATOM      2  C   UNL A   1      38.313  33.300  32.766  1.00  0.00     0.188 C 
BRANCH   2   3
ATOM      3  O   UNL A   1      37.469  32.317  33.364  1.00  0.00    -0.376 OA
BRANCH   3   4
ATOM      4  C   UNL A   1      36.126  32.137  32.915  1.00  0.00     0.202 C 
BRANCH   4   5
ATOM      5  C   UNL A   1      35.210  33.338  32.635  1.00  0.00     0.261 C 
BRANCH   5   6
ATOM      6  O   UNL A   1      34.386  33.187  31.478  1.00  0.00    -0.463 OA
BRANCH   6   7
ATOM      7  C   UNL A   1      34.998  33.183  30.268  1.00  0.00     0.309 C 
ATOM      8  O   UNL A   1      35.714  34.076  29.829  1.00  0.00    -0.252 OA
BRANCH   7   9
ATOM      9  C   UNL A   1      34.767  31.880  29.520  1.00  0.00     0.110 C 
ATOM     10  N   UNL A   1      35.178  30.061  27.275  1.00  0.00    -0.327 N 
ATOM     11  C   UNL A   1      33.965  30.847  27.336  1.00  0.00     0.263 C 
ATOM     12  C   UNL A   1      35.722  29.764  28.611  1.00  0.00     0.263 C 
ATOM     13  H   UNL A   1      35.832  30.669  26.781  1.00  0.00     0.348 HD
ATOM     14  C   UNL A   1      34.194  32.101  28.134  1.00  0.00     0.077 C 
ATOM     15  C   UNL A   1      36.015  31.028  29.423  1.00  0.00     0.077 C 
BRANCH  10  16
ATOM     16  C   UNL A   1      35.084  28.831  26.468  1.00  0.00     0.363 C 
BRANCH  16  17
ATOM     17  C   UNL A   1      33.684  28.291  26.142  1.00  0.00     0.279 C 
ATOM     18  O   UNL A   1      32.882  27.954  27.008  1.00  0.00    -0.268 OA
ATOM     19  N   UNL A   1      33.413  28.281  24.778  1.00  0.00    -0.318 N 
ATOM     20  H   UNL A   1      34.171  28.357  24.154  1.00  0.00     0.170 HD
BRANCH  19  21
ATOM     21  C   UNL A   1      32.124  28.173  24.240  1.00  0.00     0.084 A 
ATOM     22  C   UNL A   1      31.311  29.312  24.330  1.00  0.00     0.030 A 
ATOM     23  C   UNL A   1      31.617  26.996  23.663  1.00  0.00     0.150 A 
ATOM     24  C   UNL A   1      30.042  29.326  23.747  1.00  0.00     0.002 A 
ATOM     25  C   UNL A   1      30.341  27.026  23.081  1.00  0.00     0.049 A 
ATOM     26  C   UNL A   1      29.563  28.187  23.110  1.00  0.00     0.004 A 
BRANCH  23  27
ATOM     27  O   UNL A   1      32.221  25.755  23.586  1.00  0.00    -0.455 OA
BRANCH  27  28
ATOM     28  C   UNL A   1      32.037  24.807  24.563  1.00  0.00     0.127 A 
ATOM     29  C   UNL A   1      33.048  24.727  25.526  1.00  0.00     0.047 A 
ATOM     30  C   UNL A   1      30.940  23.943  24.631  1.00  0.00     0.047 A 
ATOM     31  C   UNL A   1      32.927  23.848  26.603  1.00  0.00     0.004 A 
ATOM     32  C   UNL A   1      30.820  23.063  25.714  1.00  0.00     0.004 A 
ATOM     33  C   UNL A   1      31.806  23.024  26.704  1.00  0.00     0.000 A 
ENDBRANCH  27  28
ENDBRANCH  23  27
ENDBRANCH  19  21
ENDBRANCH  16  17
ENDBRANCH  10  16
ENDBRANCH   7   9
ENDBRANCH   6   7
ENDBRANCH   5   6
ENDBRANCH   4   5
ENDBRANCH   3   4
ENDBRANCH   2   3
ENDBRANCH   1   2
BRANCH   1  34
ATOM     34  O   UNL A   1      40.364  34.056  33.876  1.00  0.00    -0.377 OA
BRANCH  34  35
ATOM     35  C   UNL A   1      39.426  34.937  34.487  1.00  0.00     0.188 C 
BRANCH  35  36
ATOM     36  C   UNL A   1      39.370  34.980  36.038  1.00  0.00     0.188 C 
BRANCH  36  37
ATOM     37  O   UNL A   1      38.459  34.094  36.673  1.00  0.00    -0.376 OA
BRANCH  37  38
ATOM     38  C   UNL A   1      38.939  33.049  37.512  1.00  0.00     0.202 C 
BRANCH  38  39
ATOM     39  C   UNL A   1      38.740  33.127  39.041  1.00  0.00     0.261 C 
BRANCH  39  40
ATOM     40  O   UNL A   1      38.263  34.372  39.568  1.00  0.00    -0.460 OA
BRANCH  40  41
ATOM     41  C   UNL A   1      38.498  34.632  40.870  1.00  0.00     0.338 C 
ATOM     42  O   UNL A   1      38.445  33.835  41.795  1.00  0.00    -0.246 OA
BRANCH  41  43
ATOM     43  C   UNL A   1      39.062  35.993  40.970  1.00  0.00     0.060 A 
ATOM     44  C   UNL A   1      38.873  36.874  39.897  1.00  0.00     0.016 A 
ATOM     45  C   UNL A   1      39.769  36.401  42.103  1.00  0.00     0.016 A 
ATOM     46  C   UNL A   1      39.429  38.149  39.930  1.00  0.00     0.010 A 
ATOM     47  C   UNL A   1      40.359  37.670  42.121  1.00  0.00     0.010 A 
ATOM     48  C   UNL A   1      40.225  38.530  41.016  1.00  0.00    -0.014 A 
BRANCH  48  49
ATOM     49  C   UNL A   1      41.100  39.717  40.873  1.00  0.00     0.031 A 
ATOM     50  C   UNL A   1      42.471  39.516  40.281  1.00  0.00     0.074 A 
ATOM     51  C   UNL A   1      40.672  40.949  41.195  1.00  0.00     0.049 A 
ATOM     52  N   UNL A   1      43.413  40.392  40.054  1.00  0.00    -0.248 NA
ATOM     53  C   UNL A   1      42.821  38.139  39.887  1.00  0.00     0.031 C 
ATOM     54  C   UNL A   1      39.345  41.278  41.713  1.00  0.00     0.029 A 
ATOM     55  N   UNL A   1      41.317  42.158  41.126  1.00  0.00    -0.354 N 
ATOM     56  C   UNL A   1      44.468  39.674  39.502  1.00  0.00     0.074 A 
ATOM     57  C   UNL A   1      44.063  38.288  39.456  1.00  0.00     0.031 C 
ATOM     58  C   UNL A   1      39.277  42.605  41.922  1.00  0.00     0.029 A 
ATOM     59  C   UNL A   1      40.564  43.212  41.585  1.00  0.00     0.049 A 
ATOM     60  H   UNL A   1      42.233  42.262  40.780  1.00  0.00     0.167 HD
ATOM     61  C   UNL A   1      45.667  40.129  39.068  1.00  0.00     0.031 A 
ATOM     62  C   UNL A   1      40.886  44.513  41.738  1.00  0.00     0.031 A 
ATOM     63  C   UNL A   1      46.072  41.508  39.134  1.00  0.00     0.049 A 
ATOM     64  C   UNL A   1      42.261  44.981  41.332  1.00  0.00     0.074 A 
ATOM     65  C   UNL A   1      47.264  42.074  38.718  1.00  0.00     0.029 A 
ATOM     66  N   UNL A   1      45.302  42.536  39.657  1.00  0.00    -0.354 N 
ATOM     67  N   UNL A   1      43.244  44.295  40.798  1.00  0.00    -0.248 NA
ATOM     68  C   UNL A   1      42.565  46.404  41.541  1.00  0.00     0.031 C 
ATOM     69  C   UNL A   1      47.241  43.431  39.052  1.00  0.00     0.029 A 
ATOM     70  C   UNL A   1      46.005  43.727  39.604  1.00  0.00     0.049 A 
ATOM     71  H   UNL A   1      44.390  42.432  40.014  1.00  0.00     0.167 HD
ATOM     72  C   UNL A   1      44.271  45.210  40.578  1.00  0.00     0.074 A 
ATOM     73  C   UNL A   1      43.781  46.499  41.021  1.00  0.00     0.031 C 
ATOM     74  C   UNL A   1      45.505  45.004  40.052  1.00  0.00     0.031 A 
BRANCH  61  75
ATOM     75  C   UNL A   1      46.642  39.116  38.525  1.00  0.00    -0.014 A 
ATOM     76  C   UNL A   1      47.489  38.383  39.375  1.00  0.00     0.010 A 
ATOM     77  C   UNL A   1      46.687  38.873  37.140  1.00  0.00     0.010 A 
ATOM     78  C   UNL A   1      48.389  37.453  38.847  1.00  0.00     0.020 A 
ATOM     79  C   UNL A   1      47.563  37.921  36.611  1.00  0.00     0.020 A 
ATOM     80  C   UNL A   1      48.419  37.227  37.468  1.00  0.00     0.054 A 
BRANCH  80  81
ATOM     81  S   UNL A   1      49.578  35.994  36.814  1.00  0.00     0.124 S 
ATOM     82  O   UNL A   1      49.442  36.188  35.372  1.00  0.00    -0.237 OA
ATOM     83  O   UNL A   1      50.851  36.419  37.387  1.00  0.00    -0.237 OA
ATOM     84  O   UNL A   1      49.060  34.727  37.321  1.00  0.00    -0.744 OA
ENDBRANCH  80  81
ENDBRANCH  61  75
BRANCH  62  85
ATOM     85  C   UNL A   1      39.898  45.464  42.321  1.00  0.00    -0.014 A 
ATOM     86  C   UNL A   1      39.005  46.172  41.497  1.00  0.00     0.010 A 
ATOM     87  C   UNL A   1      39.852  45.672  43.712  1.00  0.00     0.010 A 
ATOM     88  C   UNL A   1      38.099  47.082  42.051  1.00  0.00     0.020 A 
ATOM     89  C   UNL A   1      38.927  46.556  44.272  1.00  0.00     0.020 A 
ATOM     90  C   UNL A   1      38.062  47.265  43.436  1.00  0.00     0.054 A 
BRANCH  90  91
ATOM     91  S   UNL A   1      36.843  48.412  44.135  1.00  0.00     0.124 S 
ATOM     92  O   UNL A   1      36.834  49.486  43.148  1.00  0.00    -0.237 OA
ATOM     93  O   UNL A   1      35.636  47.591  44.189  1.00  0.00    -0.237 OA
ATOM     94  O   UNL A   1      37.407  48.762  45.437  1.00  0.00    -0.744 OA
ENDBRANCH  90  91
ENDBRANCH  62  85
BRANCH  74  95
ATOM     95  C   UNL A   1      46.402  46.204  39.884  1.00  0.00    -0.014 A 
ATOM     96  C   UNL A   1      46.414  46.954  38.694  1.00  0.00     0.010 A 
ATOM     97  C   UNL A   1      47.210  46.618  40.960  1.00  0.00     0.010 A 
ATOM     98  C   UNL A   1      47.248  48.069  38.570  1.00  0.00     0.020 A 
ATOM     99  C   UNL A   1      48.018  47.752  40.852  1.00  0.00     0.020 A 
ATOM    100  C   UNL A   1      48.045  48.461  39.650  1.00  0.00     0.054 A 
BRANCH 100 101
ATOM    101  S   UNL A   1      49.093  49.931  39.474  1.00  0.00     0.124 S 
ATOM    102  O   UNL A   1      48.677  50.445  38.171  1.00  0.00    -0.237 OA
ATOM    103  O   UNL A   1      48.702  50.742  40.624  1.00  0.00    -0.237 OA
ATOM    104  O   UNL A   1      50.452  49.397  39.528  1.00  0.00    -0.744 OA
ENDBRANCH 100 101
ENDBRANCH  74  95
ENDBRANCH  48  49
ENDBRANCH  41  43
ENDBRANCH  40  41
ENDBRANCH  39  40
ENDBRANCH  38  39
ENDBRANCH  37  38
ENDBRANCH  36  37
ENDBRANCH  35  36
ENDBRANCH  34  35
ENDBRANCH   1  34
TORSDOF 28
ENDMDL
MODEL 3
REMARK VINA RESULT:      -7.1      9.826     16.189
REMARK SMILES O=C(C[NH+]1CCC(C(=O)OCCOCCOCCOCCOC(=O)c2ccc(-c3c4nc(c(-c5ccc(S(=O)(=O)[O-])cc5)c5ccc([nH]5)c(-c5ccc(S(=O)(=O)[O-])cc5)c5nc(c(-c6ccc(S(=O)(=O)[O-])cc6)c6ccc3[nH]6)C=C5)C=C4)cc2)CC1)Nc1ccccc1Oc1ccccc1
REMARK SMILES IDX 15 1 14 2 13 3 12 4 11 5 10 6 8 7 9 8 7 9 4 10 5 11 86 12
REMARK SMILES IDX 6 14 85 15 3 16 2 17 1 18 87 19 88 21 89 22 93 23 90 24
REMARK SMILES IDX 92 25 91 26 94 27 95 28 96 29 100 30 97 31 99 32 98 33 16 34
REMARK SMILES IDX 17 35 18 36 19 37 20 38 21 39 22 40 23 41 24 42 25 43 26 44
REMARK SMILES IDX 84 45 27 46 83 47 28 48 29 49 30 50 77 51 31 52 82 53 76 54
REMARK SMILES IDX 78 55 32 56 81 57 75 58 74 59 33 61 63 62 44 63 62 64 45 65
REMARK SMILES IDX 48 66 61 67 79 68 46 69 47 70 60 72 80 73 49 74 34 75 35 76
REMARK SMILES IDX 43 77 36 78 42 79 37 80 38 81 39 82 40 83 41 84 64 85 65 86
REMARK SMILES IDX 73 87 66 88 72 89 67 90 68 91 69 92 70 93 71 94 50 95 51 96
REMARK SMILES IDX 59 97 52 98 58 99 53 100 54 101 55 102 56 103 57 104
REMARK H PARENT 4 13 87 20 78 60 48 71
REMARK Flexibility Score: inf
ROOT
ATOM      1  C   UNL A   1      40.035  33.370  32.241  1.00  0.00     0.188 C 
ENDROOT
BRANCH   1   2
ATOM      2  C   UNL A   1      38.613  33.696  32.722  1.00  0.00     0.188 C 
BRANCH   2   3
ATOM      3  O   UNL A   1      37.810  32.686  33.332  1.00  0.00    -0.376 OA
BRANCH   3   4
ATOM      4  C   UNL A   1      36.466  32.465  32.904  1.00  0.00     0.202 C 
BRANCH   4   5
ATOM      5  C   UNL A   1      36.142  31.500  31.754  1.00  0.00     0.261 C 
BRANCH   5   6
ATOM      6  O   UNL A   1      37.209  30.613  31.417  1.00  0.00    -0.463 OA
BRANCH   6   7
ATOM      7  C   UNL A   1      37.862  30.830  30.248  1.00  0.00     0.309 C 
ATOM      8  O   UNL A   1      39.075  30.942  30.121  1.00  0.00    -0.252 OA
BRANCH   7   9
ATOM      9  C   UNL A   1      36.912  30.840  29.062  1.00  0.00     0.110 C 
ATOM     10  N   UNL A   1      34.279  30.550  27.835  1.00  0.00    -0.327 N 
ATOM     11  C   UNL A   1      35.232  29.468  27.729  1.00  0.00     0.263 C 
ATOM     12  C   UNL A   1      34.933  31.866  27.944  1.00  0.00     0.263 C 
ATOM     13  H   UNL A   1      33.790  30.354  28.709  1.00  0.00     0.348 HD
ATOM     14  C   UNL A   1      36.205  29.511  28.875  1.00  0.00     0.077 C 
ATOM     15  C   UNL A   1      35.888  31.953  29.137  1.00  0.00     0.077 C 
BRANCH  10  16
ATOM     16  C   UNL A   1      33.241  30.573  26.790  1.00  0.00     0.363 C 
BRANCH  16  17
ATOM     17  C   UNL A   1      32.287  29.373  26.698  1.00  0.00     0.279 C 
ATOM     18  O   UNL A   1      31.522  29.059  27.607  1.00  0.00    -0.268 OA
ATOM     19  N   UNL A   1      32.348  28.727  25.469  1.00  0.00    -0.318 N 
ATOM     20  H   UNL A   1      33.127  28.901  24.892  1.00  0.00     0.170 HD
BRANCH  19  21
ATOM     21  C   UNL A   1      31.364  27.845  25.002  1.00  0.00     0.084 A 
ATOM     22  C   UNL A   1      30.484  28.347  24.032  1.00  0.00     0.030 A 
ATOM     23  C   UNL A   1      31.208  26.532  25.476  1.00  0.00     0.150 A 
ATOM     24  C   UNL A   1      29.526  27.517  23.446  1.00  0.00     0.002 A 
ATOM     25  C   UNL A   1      30.240  25.710  24.877  1.00  0.00     0.049 A 
ATOM     26  C   UNL A   1      29.414  26.194  23.859  1.00  0.00     0.004 A 
BRANCH  23  27
ATOM     27  O   UNL A   1      31.897  25.905  26.496  1.00  0.00    -0.455 OA
BRANCH  27  28
ATOM     28  C   UNL A   1      32.831  24.931  26.238  1.00  0.00     0.127 A 
ATOM     29  C   UNL A   1      33.947  25.342  25.502  1.00  0.00     0.047 A 
ATOM     30  C   UNL A   1      32.717  23.598  26.644  1.00  0.00     0.047 A 
ATOM     31  C   UNL A   1      34.990  24.452  25.246  1.00  0.00     0.004 A 
ATOM     32  C   UNL A   1      33.766  22.706  26.388  1.00  0.00     0.004 A 
ATOM     33  C   UNL A   1      34.905  23.135  25.699  1.00  0.00     0.000 A 
ENDBRANCH  27  28
ENDBRANCH  23  27
ENDBRANCH  19  21
ENDBRANCH  16  17
ENDBRANCH  10  16
ENDBRANCH   7   9
ENDBRANCH   6   7
ENDBRANCH   5   6
ENDBRANCH   4   5
ENDBRANCH   3   4
ENDBRANCH   2   3
ENDBRANCH   1   2
BRANCH   1  34
ATOM     34  O   UNL A   1      40.448  34.188  31.173  1.00  0.00    -0.377 OA
BRANCH  34  35
ATOM     35  C   UNL A   1      39.494  34.369  30.131  1.00  0.00     0.188 C 
BRANCH  35  36
ATOM     36  C   UNL A   1      39.843  35.358  28.987  1.00  0.00     0.188 C 
BRANCH  36  37
ATOM     37  O   UNL A   1      41.095  35.176  28.339  1.00  0.00    -0.376 OA
BRANCH  37  38
ATOM     38  C   UNL A   1      41.685  36.242  27.602  1.00  0.00     0.202 C 
BRANCH  38  39
ATOM     39  C   UNL A   1      43.206  36.257  27.342  1.00  0.00     0.261 C 
BRANCH  39  40
ATOM     40  O   UNL A   1      43.874  34.989  27.336  1.00  0.00    -0.460 OA
BRANCH  40  41
ATOM     41  C   UNL A   1      45.027  34.884  28.028  1.00  0.00     0.338 C 
ATOM     42  O   UNL A   1      45.849  35.768  28.214  1.00  0.00    -0.246 OA
BRANCH  41  43
ATOM     43  C   UNL A   1      45.024  33.583  28.726  1.00  0.00     0.060 A 
ATOM     44  C   UNL A   1      43.943  33.279  29.564  1.00  0.00     0.016 A 
ATOM     45  C   UNL A   1      46.070  32.672  28.562  1.00  0.00     0.016 A 
ATOM     46  C   UNL A   1      43.924  32.084  30.279  1.00  0.00     0.010 A 
ATOM     47  C   UNL A   1      46.069  31.489  29.308  1.00  0.00     0.010 A 
ATOM     48  C   UNL A   1      45.016  31.213  30.199  1.00  0.00    -0.014 A 
BRANCH  48  49
ATOM     49  C   UNL A   1      45.155  30.154  31.227  1.00  0.00     0.031 A 
ATOM     50  C   UNL A   1      44.874  28.731  30.817  1.00  0.00     0.074 A 
ATOM     51  C   UNL A   1      45.582  30.432  32.470  1.00  0.00     0.049 A 
ATOM     52  N   UNL A   1      44.927  27.637  31.529  1.00  0.00    -0.248 NA
ATOM     53  C   UNL A   1      44.487  28.517  29.411  1.00  0.00     0.031 C 
ATOM     54  C   UNL A   1      45.949  31.758  32.964  1.00  0.00     0.029 A 
ATOM     55  N   UNL A   1      45.784  29.603  33.545  1.00  0.00    -0.354 N 
ATOM     56  C   UNL A   1      44.571  26.608  30.664  1.00  0.00     0.074 A 
ATOM     57  C   UNL A   1      44.276  27.211  29.383  1.00  0.00     0.031 C 
ATOM     58  C   UNL A   1      46.326  31.653  34.251  1.00  0.00     0.029 A 
ATOM     59  C   UNL A   1      46.193  30.261  34.680  1.00  0.00     0.049 A 
ATOM     60  H   UNL A   1      45.648  28.629  33.507  1.00  0.00     0.167 HD
ATOM     61  C   UNL A   1      44.501  25.279  30.911  1.00  0.00     0.031 A 
ATOM     62  C   UNL A   1      46.413  29.795  35.926  1.00  0.00     0.031 A 
ATOM     63  C   UNL A   1      44.778  24.687  32.192  1.00  0.00     0.049 A 
ATOM     64  C   UNL A   1      46.240  28.322  36.201  1.00  0.00     0.074 A 
ATOM     65  C   UNL A   1      44.739  23.351  32.547  1.00  0.00     0.029 A 
ATOM     66  N   UNL A   1      45.136  25.394  33.331  1.00  0.00    -0.354 N 
ATOM     67  N   UNL A   1      45.917  27.358  35.370  1.00  0.00    -0.248 NA
ATOM     68  C   UNL A   1      46.471  27.874  37.582  1.00  0.00     0.031 C 
ATOM     69  C   UNL A   1      45.007  23.257  33.916  1.00  0.00     0.029 A 
ATOM     70  C   UNL A   1      45.290  24.525  34.397  1.00  0.00     0.049 A 
ATOM     71  H   UNL A   1      45.262  26.370  33.373  1.00  0.00     0.167 HD
ATOM     72  C   UNL A   1      45.938  26.186  36.122  1.00  0.00     0.074 A 
ATOM     73  C   UNL A   1      46.322  26.562  37.468  1.00  0.00     0.031 C 
ATOM     74  C   UNL A   1      45.670  24.914  35.733  1.00  0.00     0.031 A 
BRANCH  61  75
ATOM     75  C   UNL A   1      44.064  24.383  29.781  1.00  0.00    -0.014 A 
ATOM     76  C   UNL A   1      42.725  23.975  29.642  1.00  0.00     0.010 A 
ATOM     77  C   UNL A   1      45.008  23.966  28.825  1.00  0.00     0.010 A 
ATOM     78  C   UNL A   1      42.346  23.138  28.589  1.00  0.00     0.020 A 
ATOM     79  C   UNL A   1      44.627  23.155  27.752  1.00  0.00     0.020 A 
ATOM     80  C   UNL A   1      43.300  22.735  27.650  1.00  0.00     0.054 A 
BRANCH  80  81
ATOM     81  S   UNL A   1      42.773  21.671  26.278  1.00  0.00     0.124 S 
ATOM     82  O   UNL A   1      42.064  22.616  25.419  1.00  0.00    -0.237 OA
ATOM     83  O   UNL A   1      44.042  21.176  25.753  1.00  0.00    -0.237 OA
ATOM     84  O   UNL A   1      41.932  20.665  26.921  1.00  0.00    -0.744 OA
ENDBRANCH  80  81
ENDBRANCH  61  75
BRANCH  62  85
ATOM     85  C   UNL A   1      46.801  30.734  37.016  1.00  0.00    -0.014 A 
ATOM     86  C   UNL A   1      48.142  31.115  37.197  1.00  0.00     0.010 A 
ATOM     87  C   UNL A   1      45.824  31.246  37.890  1.00  0.00     0.010 A 
ATOM     88  C   UNL A   1      48.501  31.975  38.240  1.00  0.00     0.020 A 
ATOM     89  C   UNL A   1      46.173  32.132  38.912  1.00  0.00     0.020 A 
ATOM     90  C   UNL A   1      47.512  32.483  39.088  1.00  0.00     0.054 A 
BRANCH  90  91
ATOM     91  S   UNL A   1      47.995  33.638  40.401  1.00  0.00     0.124 S 
ATOM     92  O   UNL A   1      47.152  34.794  40.114  1.00  0.00    -0.237 OA
ATOM     93  O   UNL A   1      47.659  32.894  41.612  1.00  0.00    -0.237 OA
ATOM     94  O   UNL A   1      49.426  33.835  40.177  1.00  0.00    -0.744 OA
ENDBRANCH  90  91
ENDBRANCH  62  85
BRANCH  74  95
ATOM     95  C   UNL A   1      45.823  23.823  36.762  1.00  0.00    -0.014 A 
ATOM     96  C   UNL A   1      46.596  22.676  36.510  1.00  0.00     0.010 A 
ATOM     97  C   UNL A   1      45.222  23.976  38.026  1.00  0.00     0.010 A 
ATOM     98  C   UNL A   1      46.729  21.684  37.487  1.00  0.00     0.020 A 
ATOM     99  C   UNL A   1      45.381  23.005  39.017  1.00  0.00     0.020 A 
ATOM    100  C   UNL A   1      46.120  21.855  38.734  1.00  0.00     0.054 A 
BRANCH 100 101
ATOM    101  S   UNL A   1      46.337  20.569  39.996  1.00  0.00     0.124 S 
ATOM    102  O   UNL A   1      47.746  20.726  40.349  1.00  0.00    -0.237 OA
ATOM    103  O   UNL A   1      45.382  20.968  41.026  1.00  0.00    -0.237 OA
ATOM    104  O   UNL A   1      46.005  19.333  39.291  1.00  0.00    -0.744 OA
ENDBRANCH 100 101
ENDBRANCH  74  95
ENDBRANCH  48  49
ENDBRANCH  41  43
ENDBRANCH  40  41
ENDBRANCH  39  40
ENDBRANCH  38  39
ENDBRANCH  37  38
ENDBRANCH  36  37
ENDBRANCH  35  36
ENDBRANCH  34  35
ENDBRANCH   1  34
TORSDOF 28
ENDMDL
