MODEL 1
REMARK VINA RESULT:      -9.5      0.000      0.000
REMARK SMILES O=C(CS[C@H](C(=O)Nc1ccc(C(F)(F)F)cc1)c1ccccc1)OCCOCCOCCOCCOC(=O)c1ccc(-c2c3nc(c(-c4ccc(S(=O)(=O)[O-])cc4)c4ccc([nH]4)c(-c4ccc(S(=O)(=O)[O-])cc4)c4nc(c(-c5ccc(S(=O)(=O)[O-])cc5)c5ccc2[nH]5)C=C4)C=C3)cc1
REMARK SMILES IDX 30 1 29 2 28 3 27 4 26 5 25 6 2 7 1 8 3 9 4 10 5 11 19 12
REMARK SMILES IDX 20 13 24 14 21 15 23 16 22 17 6 18 7 19 8 20 9 22 10 23
REMARK SMILES IDX 18 24 11 25 17 26 12 27 13 28 14 29 15 30 16 31 31 32 32 33
REMARK SMILES IDX 33 34 34 35 35 36 36 37 37 38 38 39 39 40 40 41 41 42 99 43
REMARK SMILES IDX 42 44 98 45 43 46 44 47 45 48 92 49 46 50 97 51 91 52 93 53
REMARK SMILES IDX 47 54 96 55 90 56 89 57 48 59 78 60 59 61 77 62 60 63 63 64
REMARK SMILES IDX 76 65 94 66 61 67 62 68 75 70 95 71 64 72 49 73 50 74 58 75
REMARK SMILES IDX 51 76 57 77 52 78 53 79 54 80 55 81 56 82 79 83 80 84 88 85
REMARK SMILES IDX 81 86 87 87 82 88 83 89 84 90 85 91 86 92 65 93 66 94 74 95
REMARK SMILES IDX 67 96 73 97 68 98 69 99 70 100 71 101 72 102
REMARK H PARENT 8 21 93 58 63 69
REMARK Flexibility Score: inf
ROOT
ATOM      1  C   UNL A   1      34.349  32.178  28.025  1.00  0.00     0.188 C 
ENDROOT
BRANCH   1   2
ATOM      2  C   UNL A   1      34.896  30.827  27.547  1.00  0.00     0.188 C 
BRANCH   2   3
ATOM      3  O   UNL A   1      33.979  29.806  27.187  1.00  0.00    -0.376 OA
BRANCH   3   4
ATOM      4  C   UNL A   1      32.595  30.109  27.088  1.00  0.00     0.202 C 
BRANCH   4   5
ATOM      5  C   UNL A   1      31.910  30.028  25.727  1.00  0.00     0.261 C 
BRANCH   5   6
ATOM      6  O   UNL A   1      32.548  29.180  24.768  1.00  0.00    -0.463 OA
BRANCH   6   7
ATOM      7  C   UNL A   1      31.911  28.370  23.899  1.00  0.00     0.316 C 
ATOM      8  O   UNL A   1      30.988  28.827  23.228  1.00  0.00    -0.251 OA
BRANCH   7   9
ATOM      9  C   UNL A   1      32.343  26.931  23.785  1.00  0.00     0.193 C 
BRANCH   9  10
ATOM     10  S   UNL A   1      32.407  26.015  25.369  1.00  0.00    -0.132 SA
BRANCH  10  11
ATOM     11  C   UNL A   1      32.599  24.186  24.894  1.00  0.00     0.166 C 
BRANCH  11  12
ATOM     12  C   UNL A   1      34.068  23.812  24.694  1.00  0.00    -0.026 A 
ATOM     13  C   UNL A   1      34.567  23.143  23.563  1.00  0.00     0.005 A 
ATOM     14  C   UNL A   1      34.999  24.085  25.711  1.00  0.00     0.005 A 
ATOM     15  C   UNL A   1      35.931  22.903  23.372  1.00  0.00     0.000 A 
ATOM     16  C   UNL A   1      36.368  23.832  25.535  1.00  0.00     0.000 A 
ATOM     17  C   UNL A   1      36.837  23.275  24.350  1.00  0.00     0.000 A 
ENDBRANCH  11  12
BRANCH  11  18
ATOM     18  C   UNL A   1      31.575  23.282  25.660  1.00  0.00     0.242 C 
ATOM     19  O   UNL A   1      30.615  23.808  26.256  1.00  0.00    -0.273 OA
ATOM     20  N   UNL A   1      31.480  21.919  25.664  1.00  0.00    -0.325 N 
ATOM     21  H   UNL A   1      30.742  21.581  26.221  1.00  0.00     0.169 HD
BRANCH  20  22
ATOM     22  C   UNL A   1      32.211  20.911  25.042  1.00  0.00     0.041 A 
ATOM     23  C   UNL A   1      33.281  20.362  25.754  1.00  0.00     0.027 A 
ATOM     24  C   UNL A   1      31.962  20.478  23.745  1.00  0.00     0.027 A 
ATOM     25  C   UNL A   1      33.913  19.210  25.283  1.00  0.00     0.015 A 
ATOM     26  C   UNL A   1      32.616  19.339  23.258  1.00  0.00     0.015 A 
ATOM     27  C   UNL A   1      33.513  18.635  24.071  1.00  0.00     0.056 A 
BRANCH  27  28
ATOM     28  C   UNL A   1      33.970  17.241  23.698  1.00  0.00     0.416 C 
ATOM     29  F   UNL A   1      34.197  17.092  22.369  1.00  0.00    -0.166 F 
ATOM     30  F   UNL A   1      35.141  16.914  24.321  1.00  0.00    -0.166 F 
ATOM     31  F   UNL A   1      33.078  16.285  24.058  1.00  0.00    -0.166 F 
ENDBRANCH  27  28
ENDBRANCH  20  22
ENDBRANCH  11  18
ENDBRANCH  10  11
ENDBRANCH   9  10
ENDBRANCH   7   9
ENDBRANCH   6   7
ENDBRANCH   5   6
ENDBRANCH   4   5
ENDBRANCH   3   4
ENDBRANCH   2   3
ENDBRANCH   1   2
BRANCH   1  32
ATOM     32  O   UNL A   1      35.119  33.291  27.611  1.00  0.00    -0.377 OA
BRANCH  32  33
ATOM     33  C   UNL A   1      34.757  34.533  28.185  1.00  0.00     0.188 C 
BRANCH  33  34
ATOM     34  C   UNL A   1      33.249  34.843  28.276  1.00  0.00     0.188 C 
BRANCH  34  35
ATOM     35  O   UNL A   1      32.670  35.244  29.503  1.00  0.00    -0.376 OA
BRANCH  35  36
ATOM     36  C   UNL A   1      33.408  35.887  30.523  1.00  0.00     0.202 C 
BRANCH  36  37
ATOM     37  C   UNL A   1      33.934  35.174  31.780  1.00  0.00     0.261 C 
BRANCH  37  38
ATOM     38  O   UNL A   1      35.124  34.393  31.621  1.00  0.00    -0.460 OA
BRANCH  38  39
ATOM     39  C   UNL A   1      35.069  33.130  32.113  1.00  0.00     0.338 C 
ATOM     40  O   UNL A   1      34.093  32.580  32.599  1.00  0.00    -0.246 OA
BRANCH  39  41
ATOM     41  C   UNL A   1      36.311  32.410  31.741  1.00  0.00     0.060 A 
ATOM     42  C   UNL A   1      37.152  31.967  32.774  1.00  0.00     0.016 A 
ATOM     43  C   UNL A   1      36.638  32.149  30.409  1.00  0.00     0.016 A 
ATOM     44  C   UNL A   1      38.334  31.288  32.478  1.00  0.00     0.010 A 
ATOM     45  C   UNL A   1      37.843  31.502  30.113  1.00  0.00     0.010 A 
ATOM     46  C   UNL A   1      38.710  31.096  31.144  1.00  0.00    -0.014 A 
BRANCH  46  47
ATOM     47  C   UNL A   1      40.100  30.691  30.827  1.00  0.00     0.031 A 
ATOM     48  C   UNL A   1      41.194  31.704  31.046  1.00  0.00     0.074 A 
ATOM     49  C   UNL A   1      40.396  29.463  30.361  1.00  0.00     0.049 A 
ATOM     50  N   UNL A   1      42.469  31.619  30.775  1.00  0.00    -0.248 NA
ATOM     51  C   UNL A   1      40.790  32.985  31.652  1.00  0.00     0.031 C 
ATOM     52  C   UNL A   1      39.440  28.377  30.156  1.00  0.00     0.029 A 
ATOM     53  N   UNL A   1      41.599  28.934  29.960  1.00  0.00    -0.354 N 
ATOM     54  C   UNL A   1      43.018  32.835  31.166  1.00  0.00     0.074 A 
ATOM     55  C   UNL A   1      41.938  33.646  31.682  1.00  0.00     0.031 C 
ATOM     56  C   UNL A   1      40.090  27.317  29.640  1.00  0.00     0.029 A 
ATOM     57  C   UNL A   1      41.499  27.661  29.450  1.00  0.00     0.049 A 
ATOM     58  H   UNL A   1      42.452  29.421  30.031  1.00  0.00     0.167 HD
ATOM     59  C   UNL A   1      44.306  33.242  31.100  1.00  0.00     0.031 A 
ATOM     60  C   UNL A   1      42.431  26.881  28.863  1.00  0.00     0.031 A 
ATOM     61  C   UNL A   1      45.378  32.445  30.570  1.00  0.00     0.049 A 
ATOM     62  C   UNL A   1      43.842  27.396  28.716  1.00  0.00     0.074 A 
ATOM     63  C   UNL A   1      46.720  32.765  30.477  1.00  0.00     0.029 A 
ATOM     64  N   UNL A   1      45.227  31.177  30.030  1.00  0.00    -0.354 N 
ATOM     65  N   UNL A   1      44.354  28.535  29.121  1.00  0.00    -0.248 NA
ATOM     66  C   UNL A   1      44.802  26.520  28.027  1.00  0.00     0.031 C 
ATOM     67  C   UNL A   1      47.373  31.716  29.823  1.00  0.00     0.029 A 
ATOM     68  C   UNL A   1      46.447  30.717  29.567  1.00  0.00     0.049 A 
ATOM     69  H   UNL A   1      44.380  30.679  29.984  1.00  0.00     0.167 HD
ATOM     70  C   UNL A   1      45.697  28.500  28.755  1.00  0.00     0.074 A 
ATOM     71  C   UNL A   1      45.924  27.222  28.114  1.00  0.00     0.031 C 
ATOM     72  C   UNL A   1      46.657  29.442  28.931  1.00  0.00     0.031 A 
BRANCH  59  73
ATOM     73  C   UNL A   1      44.626  34.632  31.576  1.00  0.00    -0.014 A 
ATOM     74  C   UNL A   1      45.077  34.866  32.886  1.00  0.00     0.010 A 
ATOM     75  C   UNL A   1      44.534  35.709  30.676  1.00  0.00     0.010 A 
ATOM     76  C   UNL A   1      45.419  36.159  33.293  1.00  0.00     0.020 A 
ATOM     77  C   UNL A   1      44.897  36.999  31.072  1.00  0.00     0.020 A 
ATOM     78  C   UNL A   1      45.330  37.217  32.381  1.00  0.00     0.054 A 
BRANCH  78  79
ATOM     79  S   UNL A   1      45.833  38.873  32.921  1.00  0.00     0.124 S 
ATOM     80  O   UNL A   1      46.613  38.576  34.120  1.00  0.00    -0.237 OA
ATOM     81  O   UNL A   1      46.600  39.361  31.777  1.00  0.00    -0.237 OA
ATOM     82  O   UNL A   1      44.566  39.562  33.158  1.00  0.00    -0.744 OA
ENDBRANCH  78  79
ENDBRANCH  59  73
BRANCH  60  83
ATOM     83  C   UNL A   1      42.057  25.549  28.309  1.00  0.00    -0.014 A 
ATOM     84  C   UNL A   1      41.309  25.441  27.124  1.00  0.00     0.010 A 
ATOM     85  C   UNL A   1      42.410  24.375  29.002  1.00  0.00     0.010 A 
ATOM     86  C   UNL A   1      40.895  24.188  26.658  1.00  0.00     0.020 A 
ATOM     87  C   UNL A   1      42.024  23.120  28.522  1.00  0.00     0.020 A 
ATOM     88  C   UNL A   1      41.254  23.036  27.361  1.00  0.00     0.054 A 
BRANCH  88  89
ATOM     89  S   UNL A   1      40.728  21.417  26.732  1.00  0.00     0.124 S 
ATOM     90  O   UNL A   1      39.416  21.722  26.173  1.00  0.00    -0.237 OA
ATOM     91  O   UNL A   1      41.773  21.098  25.763  1.00  0.00    -0.237 OA
ATOM     92  O   UNL A   1      40.722  20.575  27.927  1.00  0.00    -0.744 OA
ENDBRANCH  88  89
ENDBRANCH  60  83
BRANCH  72  93
ATOM     93  C   UNL A   1      48.048  29.124  28.448  1.00  0.00    -0.014 A 
ATOM     94  C   UNL A   1      48.981  28.488  29.286  1.00  0.00     0.010 A 
ATOM     95  C   UNL A   1      48.403  29.404  27.116  1.00  0.00     0.010 A 
ATOM     96  C   UNL A   1      50.254  28.163  28.808  1.00  0.00     0.020 A 
ATOM     97  C   UNL A   1      49.664  29.054  26.626  1.00  0.00     0.020 A 
ATOM     98  C   UNL A   1      50.587  28.448  27.481  1.00  0.00     0.054 A 
BRANCH  98  99
ATOM     99  S   UNL A   1      52.228  27.971  26.871  1.00  0.00     0.124 S 
ATOM    100  O   UNL A   1      53.070  29.043  27.398  1.00  0.00    -0.237 OA
ATOM    101  O   UNL A   1      52.428  26.659  27.479  1.00  0.00    -0.237 OA
ATOM    102  O   UNL A   1      52.069  27.961  25.419  1.00  0.00    -0.744 OA
ENDBRANCH  98  99
ENDBRANCH  72  93
ENDBRANCH  46  47
ENDBRANCH  39  41
ENDBRANCH  38  39
ENDBRANCH  37  38
ENDBRANCH  36  37
ENDBRANCH  35  36
ENDBRANCH  34  35
ENDBRANCH  33  34
ENDBRANCH  32  33
ENDBRANCH   1  32
TORSDOF 29
ENDMDL
MODEL 2
REMARK VINA RESULT:      -9.0      1.864      2.656
REMARK SMILES O=C(CS[C@H](C(=O)Nc1ccc(C(F)(F)F)cc1)c1ccccc1)OCCOCCOCCOCCOC(=O)c1ccc(-c2c3nc(c(-c4ccc(S(=O)(=O)[O-])cc4)c4ccc([nH]4)c(-c4ccc(S(=O)(=O)[O-])cc4)c4nc(c(-c5ccc(S(=O)(=O)[O-])cc5)c5ccc2[nH]5)C=C4)C=C3)cc1
REMARK SMILES IDX 30 1 29 2 28 3 27 4 26 5 25 6 2 7 1 8 3 9 4 10 5 11 19 12
REMARK SMILES IDX 20 13 24 14 21 15 23 16 22 17 6 18 7 19 8 20 9 22 10 23
REMARK SMILES IDX 18 24 11 25 17 26 12 27 13 28 14 29 15 30 16 31 31 32 32 33
REMARK SMILES IDX 33 34 34 35 35 36 36 37 37 38 38 39 39 40 40 41 41 42 99 43
REMARK SMILES IDX 42 44 98 45 43 46 44 47 45 48 92 49 46 50 97 51 91 52 93 53
REMARK SMILES IDX 47 54 96 55 90 56 89 57 48 59 78 60 59 61 77 62 60 63 63 64
REMARK SMILES IDX 76 65 94 66 61 67 62 68 75 70 95 71 64 72 49 73 50 74 58 75
REMARK SMILES IDX 51 76 57 77 52 78 53 79 54 80 55 81 56 82 79 83 80 84 88 85
REMARK SMILES IDX 81 86 87 87 82 88 83 89 84 90 85 91 86 92 65 93 66 94 74 95
REMARK SMILES IDX 67 96 73 97 68 98 69 99 70 100 71 101 72 102
REMARK H PARENT 8 21 93 58 63 69
REMARK Flexibility Score: inf
ROOT
ATOM      1  C   UNL A   1      32.244  30.666  27.228  1.00  0.00     0.188 C 
ENDROOT
BRANCH   1   2
ATOM      2  C   UNL A   1      32.686  30.416  25.781  1.00  0.00     0.188 C 
BRANCH   2   3
ATOM      3  O   UNL A   1      32.460  29.138  25.207  1.00  0.00    -0.376 OA
BRANCH   3   4
ATOM      4  C   UNL A   1      31.273  28.902  24.464  1.00  0.00     0.202 C 
BRANCH   4   5
ATOM      5  C   UNL A   1      30.715  27.485  24.383  1.00  0.00     0.261 C 
BRANCH   5   6
ATOM      6  O   UNL A   1      30.687  26.763  25.618  1.00  0.00    -0.463 OA
BRANCH   6   7
ATOM      7  C   UNL A   1      30.148  25.541  25.794  1.00  0.00     0.316 C 
ATOM      8  O   UNL A   1      29.207  25.413  26.575  1.00  0.00    -0.251 OA
BRANCH   7   9
ATOM      9  C   UNL A   1      30.719  24.370  25.035  1.00  0.00     0.193 C 
BRANCH   9  10
ATOM     10  S   UNL A   1      32.378  23.828  25.586  1.00  0.00    -0.132 SA
BRANCH  10  11
ATOM     11  C   UNL A   1      33.364  23.505  23.994  1.00  0.00     0.166 C 
BRANCH  11  12
ATOM     12  C   UNL A   1      34.710  22.844  24.295  1.00  0.00    -0.026 A 
ATOM     13  C   UNL A   1      34.920  21.909  25.324  1.00  0.00     0.005 A 
ATOM     14  C   UNL A   1      35.847  23.215  23.557  1.00  0.00     0.005 A 
ATOM     15  C   UNL A   1      36.142  21.256  25.507  1.00  0.00     0.000 A 
ATOM     16  C   UNL A   1      37.081  22.577  23.746  1.00  0.00     0.000 A 
ATOM     17  C   UNL A   1      37.218  21.571  24.696  1.00  0.00     0.000 A 
ENDBRANCH  11  12
BRANCH  11  18
ATOM     18  C   UNL A   1      32.430  23.061  22.819  1.00  0.00     0.242 C 
ATOM     19  O   UNL A   1      32.140  23.877  21.921  1.00  0.00    -0.273 OA
ATOM     20  N   UNL A   1      31.967  21.810  22.525  1.00  0.00    -0.325 N 
ATOM     21  H   UNL A   1      31.397  21.783  21.723  1.00  0.00     0.169 HD
BRANCH  20  22
ATOM     22  C   UNL A   1      32.137  20.566  23.126  1.00  0.00     0.041 A 
ATOM     23  C   UNL A   1      32.197  19.451  22.286  1.00  0.00     0.027 A 
ATOM     24  C   UNL A   1      32.186  20.385  24.503  1.00  0.00     0.027 A 
ATOM     25  C   UNL A   1      32.581  18.212  22.800  1.00  0.00     0.015 A 
ATOM     26  C   UNL A   1      32.542  19.134  25.024  1.00  0.00     0.015 A 
ATOM     27  C   UNL A   1      32.851  18.071  24.167  1.00  0.00     0.056 A 
BRANCH  27  28
ATOM     28  C   UNL A   1      33.549  16.832  24.685  1.00  0.00     0.416 C 
ATOM     29  F   UNL A   1      34.755  16.616  24.104  1.00  0.00    -0.166 F 
ATOM     30  F   UNL A   1      33.784  16.914  26.028  1.00  0.00    -0.166 F 
ATOM     31  F   UNL A   1      32.814  15.705  24.505  1.00  0.00    -0.166 F 
ENDBRANCH  27  28
ENDBRANCH  20  22
ENDBRANCH  11  18
ENDBRANCH  10  11
ENDBRANCH   9  10
ENDBRANCH   7   9
ENDBRANCH   6   7
ENDBRANCH   5   6
ENDBRANCH   4   5
ENDBRANCH   3   4
ENDBRANCH   2   3
ENDBRANCH   1   2
BRANCH   1  32
ATOM     32  O   UNL A   1      33.274  31.153  28.068  1.00  0.00    -0.377 OA
BRANCH  32  33
ATOM     33  C   UNL A   1      33.875  32.368  27.659  1.00  0.00     0.188 C 
BRANCH  33  34
ATOM     34  C   UNL A   1      33.010  33.640  27.758  1.00  0.00     0.188 C 
BRANCH  34  35
ATOM     35  O   UNL A   1      33.402  34.714  28.591  1.00  0.00    -0.376 OA
BRANCH  35  36
ATOM     36  C   UNL A   1      34.611  34.713  29.321  1.00  0.00     0.202 C 
BRANCH  36  37
ATOM     37  C   UNL A   1      34.873  33.821  30.547  1.00  0.00     0.261 C 
BRANCH  37  38
ATOM     38  O   UNL A   1      36.146  33.168  30.601  1.00  0.00    -0.460 OA
BRANCH  38  39
ATOM     39  C   UNL A   1      36.147  31.924  31.144  1.00  0.00     0.338 C 
ATOM     40  O   UNL A   1      35.231  31.396  31.755  1.00  0.00    -0.246 OA
BRANCH  39  41
ATOM     41  C   UNL A   1      37.340  31.186  30.664  1.00  0.00     0.060 A 
ATOM     42  C   UNL A   1      38.238  30.688  31.621  1.00  0.00     0.016 A 
ATOM     43  C   UNL A   1      37.569  30.962  29.305  1.00  0.00     0.016 A 
ATOM     44  C   UNL A   1      39.378  29.990  31.223  1.00  0.00     0.010 A 
ATOM     45  C   UNL A   1      38.732  30.295  28.905  1.00  0.00     0.010 A 
ATOM     46  C   UNL A   1      39.656  29.833  29.861  1.00  0.00    -0.014 A 
BRANCH  46  47
ATOM     47  C   UNL A   1      41.010  29.404  29.435  1.00  0.00     0.031 A 
ATOM     48  C   UNL A   1      42.095  30.448  29.390  1.00  0.00     0.074 A 
ATOM     49  C   UNL A   1      41.280  28.129  29.098  1.00  0.00     0.049 A 
ATOM     50  N   UNL A   1      43.332  30.342  28.983  1.00  0.00    -0.248 NA
ATOM     51  C   UNL A   1      41.732  31.794  29.871  1.00  0.00     0.031 C 
ATOM     52  C   UNL A   1      40.335  27.016  29.150  1.00  0.00     0.029 A 
ATOM     53  N   UNL A   1      42.441  27.564  28.629  1.00  0.00    -0.354 N 
ATOM     54  C   UNL A   1      43.892  31.603  29.147  1.00  0.00     0.074 A 
ATOM     55  C   UNL A   1      42.859  32.463  29.679  1.00  0.00     0.031 C 
ATOM     56  C   UNL A   1      40.947  25.904  28.701  1.00  0.00     0.029 A 
ATOM     57  C   UNL A   1      42.315  26.235  28.302  1.00  0.00     0.049 A 
ATOM     58  H   UNL A   1      43.284  28.065  28.535  1.00  0.00     0.167 HD
ATOM     59  C   UNL A   1      45.152  32.012  28.876  1.00  0.00     0.031 A 
ATOM     60  C   UNL A   1      43.192  25.394  27.714  1.00  0.00     0.031 A 
ATOM     61  C   UNL A   1      46.175  31.162  28.329  1.00  0.00     0.049 A 
ATOM     62  C   UNL A   1      44.563  25.899  27.335  1.00  0.00     0.074 A 
ATOM     63  C   UNL A   1      47.489  31.481  28.038  1.00  0.00     0.029 A 
ATOM     64  N   UNL A   1      45.995  29.834  27.979  1.00  0.00    -0.354 N 
ATOM     65  N   UNL A   1      45.089  27.087  27.526  1.00  0.00    -0.248 NA
ATOM     66  C   UNL A   1      45.458  24.951  26.655  1.00  0.00     0.031 C 
ATOM     67  C   UNL A   1      48.088  30.362  27.451  1.00  0.00     0.029 A 
ATOM     68  C   UNL A   1      47.164  29.329  27.437  1.00  0.00     0.049 A 
ATOM     69  H   UNL A   1      45.161  29.325  28.098  1.00  0.00     0.167 HD
ATOM     70  C   UNL A   1      46.381  27.018  27.011  1.00  0.00     0.074 A 
ATOM     71  C   UNL A   1      46.564  25.670  26.517  1.00  0.00     0.031 C 
ATOM     72  C   UNL A   1      47.330  27.984  26.949  1.00  0.00     0.031 A 
BRANCH  59  73
ATOM     73  C   UNL A   1      45.490  33.454  29.129  1.00  0.00    -0.014 A 
ATOM     74  C   UNL A   1      45.948  33.886  30.386  1.00  0.00     0.010 A 
ATOM     75  C   UNL A   1      45.410  34.378  28.071  1.00  0.00     0.010 A 
ATOM     76  C   UNL A   1      46.306  35.222  30.585  1.00  0.00     0.020 A 
ATOM     77  C   UNL A   1      45.788  35.710  28.260  1.00  0.00     0.020 A 
ATOM     78  C   UNL A   1      46.227  36.125  29.519  1.00  0.00     0.054 A 
BRANCH  78  79
ATOM     79  S   UNL A   1      46.752  37.839  29.792  1.00  0.00     0.124 S 
ATOM     80  O   UNL A   1      48.185  37.682  30.030  1.00  0.00    -0.237 OA
ATOM     81  O   UNL A   1      46.391  38.487  28.533  1.00  0.00    -0.237 OA
ATOM     82  O   UNL A   1      45.971  38.261  30.953  1.00  0.00    -0.744 OA
ENDBRANCH  78  79
ENDBRANCH  59  73
BRANCH  60  83
ATOM     83  C   UNL A   1      42.790  23.997  27.384  1.00  0.00    -0.014 A 
ATOM     84  C   UNL A   1      42.513  23.065  28.398  1.00  0.00     0.010 A 
ATOM     85  C   UNL A   1      42.734  23.580  26.040  1.00  0.00     0.010 A 
ATOM     86  C   UNL A   1      42.216  21.735  28.078  1.00  0.00     0.020 A 
ATOM     87  C   UNL A   1      42.407  22.261  25.716  1.00  0.00     0.020 A 
ATOM     88  C   UNL A   1      42.167  21.341  26.738  1.00  0.00     0.054 A 
BRANCH  88  89
ATOM     89  S   UNL A   1      41.759  19.619  26.338  1.00  0.00     0.124 S 
ATOM     90  O   UNL A   1      42.149  18.924  27.560  1.00  0.00    -0.237 OA
ATOM     91  O   UNL A   1      40.324  19.684  26.075  1.00  0.00    -0.237 OA
ATOM     92  O   UNL A   1      42.585  19.340  25.165  1.00  0.00    -0.744 OA
ENDBRANCH  88  89
ENDBRANCH  60  83
BRANCH  72  93
ATOM     93  C   UNL A   1      48.664  27.620  26.350  1.00  0.00    -0.014 A 
ATOM     94  C   UNL A   1      48.849  27.583  24.957  1.00  0.00     0.010 A 
ATOM     95  C   UNL A   1      49.763  27.380  27.194  1.00  0.00     0.010 A 
ATOM     96  C   UNL A   1      50.104  27.284  24.419  1.00  0.00     0.020 A 
ATOM     97  C   UNL A   1      51.026  27.109  26.660  1.00  0.00     0.020 A 
ATOM     98  C   UNL A   1      51.185  27.050  25.274  1.00  0.00     0.054 A 
BRANCH  98  99
ATOM     99  S   UNL A   1      52.814  26.713  24.551  1.00  0.00     0.124 S 
ATOM    100  O   UNL A   1      53.692  27.528  25.388  1.00  0.00    -0.237 OA
ATOM    101  O   UNL A   1      52.948  25.268  24.721  1.00  0.00    -0.237 OA
ATOM    102  O   UNL A   1      52.680  27.162  23.167  1.00  0.00    -0.744 OA
ENDBRANCH  98  99
ENDBRANCH  72  93
ENDBRANCH  46  47
ENDBRANCH  39  41
ENDBRANCH  38  39
ENDBRANCH  37  38
ENDBRANCH  36  37
ENDBRANCH  35  36
ENDBRANCH  34  35
ENDBRANCH  33  34
ENDBRANCH  32  33
ENDBRANCH   1  32
TORSDOF 29
ENDMDL
MODEL 3
REMARK VINA RESULT:      -9.0      2.556      3.054
REMARK SMILES O=C(CS[C@H](C(=O)Nc1ccc(C(F)(F)F)cc1)c1ccccc1)OCCOCCOCCOCCOC(=O)c1ccc(-c2c3nc(c(-c4ccc(S(=O)(=O)[O-])cc4)c4ccc([nH]4)c(-c4ccc(S(=O)(=O)[O-])cc4)c4nc(c(-c5ccc(S(=O)(=O)[O-])cc5)c5ccc2[nH]5)C=C4)C=C3)cc1
REMARK SMILES IDX 30 1 29 2 28 3 27 4 26 5 25 6 2 7 1 8 3 9 4 10 5 11 19 12
REMARK SMILES IDX 20 13 24 14 21 15 23 16 22 17 6 18 7 19 8 20 9 22 10 23
REMARK SMILES IDX 18 24 11 25 17 26 12 27 13 28 14 29 15 30 16 31 31 32 32 33
REMARK SMILES IDX 33 34 34 35 35 36 36 37 37 38 38 39 39 40 40 41 41 42 99 43
REMARK SMILES IDX 42 44 98 45 43 46 44 47 45 48 92 49 46 50 97 51 91 52 93 53
REMARK SMILES IDX 47 54 96 55 90 56 89 57 48 59 78 60 59 61 77 62 60 63 63 64
REMARK SMILES IDX 76 65 94 66 61 67 62 68 75 70 95 71 64 72 49 73 50 74 58 75
REMARK SMILES IDX 51 76 57 77 52 78 53 79 54 80 55 81 56 82 79 83 80 84 88 85
REMARK SMILES IDX 81 86 87 87 82 88 83 89 84 90 85 91 86 92 65 93 66 94 74 95
REMARK SMILES IDX 67 96 73 97 68 98 69 99 70 100 71 101 72 102
REMARK H PARENT 8 21 93 58 63 69
REMARK Flexibility Score: inf
ROOT
ATOM      1  C   UNL A   1      34.052  31.660  27.674  1.00  0.00     0.188 C 
ENDROOT
BRANCH   1   2
ATOM      2  C   UNL A   1      34.525  30.204  27.582  1.00  0.00     0.188 C 
BRANCH   2   3
ATOM      3  O   UNL A   1      33.553  29.175  27.472  1.00  0.00    -0.376 OA
BRANCH   3   4
ATOM      4  C   UNL A   1      32.333  29.433  26.792  1.00  0.00     0.202 C 
BRANCH   4   5
ATOM      5  C   UNL A   1      32.342  29.571  25.272  1.00  0.00     0.261 C 
BRANCH   5   6
ATOM      6  O   UNL A   1      33.330  28.792  24.591  1.00  0.00    -0.463 OA
BRANCH   6   7
ATOM      7  C   UNL A   1      33.161  28.195  23.395  1.00  0.00     0.316 C 
ATOM      8  O   UNL A   1      33.182  28.885  22.377  1.00  0.00    -0.251 OA
BRANCH   7   9
ATOM      9  C   UNL A   1      32.943  26.704  23.342  1.00  0.00     0.193 C 
BRANCH   9  10
ATOM     10  S   UNL A   1      32.545  25.924  24.950  1.00  0.00    -0.132 SA
BRANCH  10  11
ATOM     11  C   UNL A   1      32.837  24.064  24.700  1.00  0.00     0.166 C 
BRANCH  11  12
ATOM     12  C   UNL A   1      34.327  23.744  24.575  1.00  0.00    -0.026 A 
ATOM     13  C   UNL A   1      35.289  24.058  25.552  1.00  0.00     0.005 A 
ATOM     14  C   UNL A   1      34.815  23.152  23.397  1.00  0.00     0.005 A 
ATOM     15  C   UNL A   1      36.625  23.664  25.444  1.00  0.00     0.000 A 
ATOM     16  C   UNL A   1      36.158  22.769  23.274  1.00  0.00     0.000 A 
ATOM     17  C   UNL A   1      37.055  22.992  24.313  1.00  0.00     0.000 A 
ENDBRANCH  11  12
BRANCH  11  18
ATOM     18  C   UNL A   1      31.839  23.206  25.548  1.00  0.00     0.242 C 
ATOM     19  O   UNL A   1      30.918  23.770  26.171  1.00  0.00    -0.273 OA
ATOM     20  N   UNL A   1      31.723  21.846  25.607  1.00  0.00    -0.325 N 
ATOM     21  H   UNL A   1      31.008  21.541  26.211  1.00  0.00     0.169 HD
BRANCH  20  22
ATOM     22  C   UNL A   1      32.406  20.803  24.986  1.00  0.00     0.041 A 
ATOM     23  C   UNL A   1      33.560  20.329  25.615  1.00  0.00     0.027 A 
ATOM     24  C   UNL A   1      32.027  20.267  23.762  1.00  0.00     0.027 A 
ATOM     25  C   UNL A   1      34.164  19.153  25.167  1.00  0.00     0.015 A 
ATOM     26  C   UNL A   1      32.651  19.103  23.294  1.00  0.00     0.015 A 
ATOM     27  C   UNL A   1      33.648  18.478  24.054  1.00  0.00     0.056 A 
BRANCH  27  28
ATOM     28  C   UNL A   1      34.095  17.067  23.740  1.00  0.00     0.416 C 
ATOM     29  F   UNL A   1      35.164  16.670  24.476  1.00  0.00    -0.166 F 
ATOM     30  F   UNL A   1      33.106  16.160  23.992  1.00  0.00    -0.166 F 
ATOM     31  F   UNL A   1      34.428  16.902  22.435  1.00  0.00    -0.166 F 
ENDBRANCH  27  28
ENDBRANCH  20  22
ENDBRANCH  11  18
ENDBRANCH  10  11
ENDBRANCH   9  10
ENDBRANCH   7   9
ENDBRANCH   6   7
ENDBRANCH   5   6
ENDBRANCH   4   5
ENDBRANCH   3   4
ENDBRANCH   2   3
ENDBRANCH   1   2
BRANCH   1  32
ATOM     32  O   UNL A   1      35.103  32.609  27.652  1.00  0.00    -0.377 OA
BRANCH  32  33
ATOM     33  C   UNL A   1      34.769  33.903  28.119  1.00  0.00     0.188 C 
BRANCH  33  34
ATOM     34  C   UNL A   1      33.269  34.207  28.312  1.00  0.00     0.188 C 
BRANCH  34  35
ATOM     35  O   UNL A   1      32.801  34.780  29.517  1.00  0.00    -0.376 OA
BRANCH  35  36
ATOM     36  C   UNL A   1      33.618  35.571  30.357  1.00  0.00     0.202 C 
BRANCH  36  37
ATOM     37  C   UNL A   1      34.261  35.060  31.657  1.00  0.00     0.261 C 
BRANCH  37  38
ATOM     38  O   UNL A   1      35.418  34.228  31.514  1.00  0.00    -0.460 OA
BRANCH  38  39
ATOM     39  C   UNL A   1      35.193  32.891  31.575  1.00  0.00     0.338 C 
ATOM     40  O   UNL A   1      34.110  32.331  31.503  1.00  0.00    -0.246 OA
BRANCH  39  41
ATOM     41  C   UNL A   1      36.489  32.176  31.486  1.00  0.00     0.060 A 
ATOM     42  C   UNL A   1      36.690  31.066  32.320  1.00  0.00     0.016 A 
ATOM     43  C   UNL A   1      37.483  32.567  30.586  1.00  0.00     0.016 A 
ATOM     44  C   UNL A   1      37.892  30.360  32.278  1.00  0.00     0.010 A 
ATOM     45  C   UNL A   1      38.703  31.882  30.572  1.00  0.00     0.010 A 
ATOM     46  C   UNL A   1      38.924  30.796  31.439  1.00  0.00    -0.014 A 
BRANCH  46  47
ATOM     47  C   UNL A   1      40.297  30.271  31.635  1.00  0.00     0.031 A 
ATOM     48  C   UNL A   1      41.190  30.991  32.611  1.00  0.00     0.074 A 
ATOM     49  C   UNL A   1      40.747  29.189  30.974  1.00  0.00     0.049 A 
ATOM     50  N   UNL A   1      42.446  30.777  32.900  1.00  0.00    -0.248 NA
ATOM     51  C   UNL A   1      40.580  32.104  33.361  1.00  0.00     0.031 C 
ATOM     52  C   UNL A   1      39.969  28.372  30.045  1.00  0.00     0.029 A 
ATOM     53  N   UNL A   1      41.989  28.601  30.980  1.00  0.00    -0.354 N 
ATOM     54  C   UNL A   1      42.780  31.731  33.854  1.00  0.00     0.074 A 
ATOM     55  C   UNL A   1      41.601  32.534  34.088  1.00  0.00     0.031 C 
ATOM     56  C   UNL A   1      40.760  27.404  29.548  1.00  0.00     0.029 A 
ATOM     57  C   UNL A   1      42.107  27.552  30.099  1.00  0.00     0.049 A 
ATOM     58  H   UNL A   1      42.725  28.903  31.560  1.00  0.00     0.167 HD
ATOM     59  C   UNL A   1      43.964  31.924  34.479  1.00  0.00     0.031 A 
ATOM     60  C   UNL A   1      43.188  26.822  29.751  1.00  0.00     0.031 A 
ATOM     61  C   UNL A   1      45.143  31.139  34.233  1.00  0.00     0.049 A 
ATOM     62  C   UNL A   1      44.521  27.119  30.394  1.00  0.00     0.074 A 
ATOM     63  C   UNL A   1      46.386  31.248  34.831  1.00  0.00     0.029 A 
ATOM     64  N   UNL A   1      45.230  30.112  33.308  1.00  0.00    -0.354 N 
ATOM     65  N   UNL A   1      44.814  28.003  31.319  1.00  0.00    -0.248 NA
ATOM     66  C   UNL A   1      45.671  26.322  29.942  1.00  0.00     0.031 C 
ATOM     67  C   UNL A   1      47.243  30.327  34.222  1.00  0.00     0.029 A 
ATOM     68  C   UNL A   1      46.517  29.604  33.289  1.00  0.00     0.049 A 
ATOM     69  H   UNL A   1      44.488  29.791  32.747  1.00  0.00     0.167 HD
ATOM     70  C   UNL A   1      46.175  27.851  31.573  1.00  0.00     0.074 A 
ATOM     71  C   UNL A   1      46.643  26.780  30.719  1.00  0.00     0.031 C 
ATOM     72  C   UNL A   1      46.967  28.537  32.433  1.00  0.00     0.031 A 
BRANCH  59  73
ATOM     73  C   UNL A   1      44.060  33.057  35.463  1.00  0.00    -0.014 A 
ATOM     74  C   UNL A   1      43.839  32.849  36.835  1.00  0.00     0.010 A 
ATOM     75  C   UNL A   1      44.441  34.333  35.012  1.00  0.00     0.010 A 
ATOM     76  C   UNL A   1      43.983  33.905  37.740  1.00  0.00     0.020 A 
ATOM     77  C   UNL A   1      44.609  35.385  35.916  1.00  0.00     0.020 A 
ATOM     78  C   UNL A   1      44.372  35.166  37.274  1.00  0.00     0.054 A 
BRANCH  78  79
ATOM     79  S   UNL A   1      44.606  36.501  38.478  1.00  0.00     0.124 S 
ATOM     80  O   UNL A   1      43.304  37.163  38.452  1.00  0.00    -0.237 OA
ATOM     81  O   UNL A   1      44.916  35.773  39.705  1.00  0.00    -0.237 OA
ATOM     82  O   UNL A   1      45.711  37.280  37.922  1.00  0.00    -0.744 OA
ENDBRANCH  78  79
ENDBRANCH  59  73
BRANCH  60  83
ATOM     83  C   UNL A   1      43.081  25.774  28.697  1.00  0.00    -0.014 A 
ATOM     84  C   UNL A   1      42.490  24.529  28.971  1.00  0.00     0.010 A 
ATOM     85  C   UNL A   1      43.624  26.005  27.418  1.00  0.00     0.010 A 
ATOM     86  C   UNL A   1      42.468  23.524  27.997  1.00  0.00     0.020 A 
ATOM     87  C   UNL A   1      43.576  25.015  26.433  1.00  0.00     0.020 A 
ATOM     88  C   UNL A   1      43.014  23.773  26.735  1.00  0.00     0.054 A 
BRANCH  88  89
ATOM     89  S   UNL A   1      42.958  22.468  25.476  1.00  0.00     0.124 S 
ATOM     90  O   UNL A   1      44.071  21.614  25.876  1.00  0.00    -0.237 OA
ATOM     91  O   UNL A   1      41.625  21.902  25.661  1.00  0.00    -0.237 OA
ATOM     92  O   UNL A   1      43.145  23.198  24.223  1.00  0.00    -0.744 OA
ENDBRANCH  88  89
ENDBRANCH  60  83
BRANCH  72  93
ATOM     93  C   UNL A   1      48.419  28.141  32.518  1.00  0.00    -0.014 A 
ATOM     94  C   UNL A   1      48.888  27.317  33.556  1.00  0.00     0.010 A 
ATOM     95  C   UNL A   1      49.310  28.543  31.506  1.00  0.00     0.010 A 
ATOM     96  C   UNL A   1      50.229  26.925  33.596  1.00  0.00     0.020 A 
ATOM     97  C   UNL A   1      50.644  28.130  31.527  1.00  0.00     0.020 A 
ATOM     98  C   UNL A   1      51.099  27.334  32.580  1.00  0.00     0.054 A 
BRANCH  98  99
ATOM     99  S   UNL A   1      52.823  26.772  32.628  1.00  0.00     0.124 S 
ATOM    100  O   UNL A   1      53.548  28.031  32.781  1.00  0.00    -0.237 OA
ATOM    101  O   UNL A   1      52.841  25.891  33.793  1.00  0.00    -0.237 OA
ATOM    102  O   UNL A   1      53.005  26.100  31.343  1.00  0.00    -0.744 OA
ENDBRANCH  98  99
ENDBRANCH  72  93
ENDBRANCH  46  47
ENDBRANCH  39  41
ENDBRANCH  38  39
ENDBRANCH  37  38
ENDBRANCH  36  37
ENDBRANCH  35  36
ENDBRANCH  34  35
ENDBRANCH  33  34
ENDBRANCH  32  33
ENDBRANCH   1  32
TORSDOF 29
ENDMDL
