MODEL 1
REMARK VINA RESULT:      -8.8      0.000      0.000
REMARK SMILES CCOc1ccc(NC(=O)[C@@H]2[C@@H](C(=O)OCCOCCOCCOCCOC(=O)c3ccc(-c4c5nc(c(-c6ccc(S(=O)(=O)[O-])cc6)c6ccc([nH]6)c(-c6ccc(S(=O)(=O)[O-])cc6)c6nc(c(-c7ccc(S(=O)(=O)[O-])cc7)c7ccc4[nH]7)C=C6)C=C5)cc3)[C@H]3C=C[C@@H]2C3)cc1
REMARK SMILES IDX 20 1 19 2 18 3 17 4 16 5 15 6 13 7 14 8 12 9 11 10 93 11
REMARK SMILES IDX 90 12 92 13 94 14 91 15 9 16 8 17 10 19 7 20 4 21 5 22 96 23
REMARK SMILES IDX 6 24 95 25 3 26 2 27 1 28 21 29 22 30 23 31 24 32 25 33
REMARK SMILES IDX 26 34 27 35 28 36 29 37 30 38 31 39 89 40 32 41 88 42 33 43
REMARK SMILES IDX 34 44 35 45 82 46 36 47 87 48 81 49 83 50 37 51 86 52 80 53
REMARK SMILES IDX 79 54 38 56 68 57 49 58 67 59 50 60 53 61 66 62 84 63 51 64
REMARK SMILES IDX 52 65 65 67 85 68 54 69 39 70 40 71 48 72 41 73 47 74 42 75
REMARK SMILES IDX 43 76 44 77 45 78 46 79 69 80 70 81 78 82 71 83 77 84 72 85
REMARK SMILES IDX 73 86 74 87 75 88 76 89 55 90 56 91 64 92 57 93 63 94 58 95
REMARK SMILES IDX 59 96 60 97 61 98 62 99
REMARK H PARENT 8 18 83 55 53 66
REMARK Flexibility Score: inf
ROOT
ATOM      1  C   UNL A   1      34.342  28.958  23.087  1.00  0.00     0.188 C 
ENDROOT
BRANCH   1   2
ATOM      2  C   UNL A   1      33.645  28.179  21.987  1.00  0.00     0.188 C 
BRANCH   2   3
ATOM      3  O   UNL A   1      33.855  26.776  22.004  1.00  0.00    -0.376 OA
BRANCH   3   4
ATOM      4  C   UNL A   1      32.851  25.975  21.365  1.00  0.00     0.202 C 
BRANCH   4   5
ATOM      5  C   UNL A   1      31.357  26.286  21.625  1.00  0.00     0.261 C 
BRANCH   5   6
ATOM      6  O   UNL A   1      30.849  25.750  22.882  1.00  0.00    -0.463 OA
BRANCH   6   7
ATOM      7  C   UNL A   1      31.078  26.484  24.009  1.00  0.00     0.310 C 
ATOM      8  O   UNL A   1      30.422  27.489  24.256  1.00  0.00    -0.252 OA
BRANCH   7   9
ATOM      9  C   UNL A   1      32.123  25.835  24.968  1.00  0.00     0.119 C 
ATOM     10  C   UNL A   1      32.560  24.357  24.551  1.00  0.00     0.100 C 
ATOM     11  C   UNL A   1      31.932  23.537  25.734  1.00  0.00     0.025 C 
ATOM     12  C   UNL A   1      31.471  25.624  26.374  1.00  0.00     0.027 C 
ATOM     13  C   UNL A   1      30.432  23.672  25.758  1.00  0.00    -0.027 C 
ATOM     14  C   UNL A   1      32.282  24.453  26.918  1.00  0.00     0.017 C 
ATOM     15  C   UNL A   1      30.154  24.895  26.226  1.00  0.00    -0.027 C 
BRANCH  10  16
ATOM     16  C   UNL A   1      34.043  23.849  24.485  1.00  0.00     0.228 C 
ATOM     17  N   UNL A   1      34.521  22.582  24.473  1.00  0.00    -0.326 N 
ATOM     18  H   UNL A   1      35.500  22.545  24.382  1.00  0.00     0.169 HD
ATOM     19  O   UNL A   1      34.959  24.694  24.478  1.00  0.00    -0.274 OA
BRANCH  17  20
ATOM     20  C   UNL A   1      33.939  21.325  24.561  1.00  0.00     0.041 A 
ATOM     21  C   UNL A   1      32.534  18.954  24.837  1.00  0.00     0.119 A 
ATOM     22  C   UNL A   1      33.309  19.422  25.878  1.00  0.00     0.048 A 
ATOM     23  C   UNL A   1      32.491  19.631  23.623  1.00  0.00     0.048 A 
ATOM     24  C   UNL A   1      34.064  20.560  25.695  1.00  0.00     0.030 A 
ATOM     25  C   UNL A   1      33.207  20.823  23.481  1.00  0.00     0.030 A 
BRANCH  21  26
ATOM     26  O   UNL A   1      31.875  17.767  24.976  1.00  0.00    -0.494 OA
BRANCH  26  27
ATOM     27  C   UNL A   1      32.696  16.851  25.705  1.00  0.00     0.226 C 
ATOM     28  C   UNL A   1      33.174  15.767  24.770  1.00  0.00     0.049 C 
ENDBRANCH  26  27
ENDBRANCH  21  26
ENDBRANCH  17  20
ENDBRANCH  10  16
ENDBRANCH   7   9
ENDBRANCH   6   7
ENDBRANCH   5   6
ENDBRANCH   4   5
ENDBRANCH   3   4
ENDBRANCH   2   3
ENDBRANCH   1   2
BRANCH   1  29
ATOM     29  O   UNL A   1      33.933  28.506  24.376  1.00  0.00    -0.377 OA
BRANCH  29  30
ATOM     30  C   UNL A   1      33.134  29.394  25.150  1.00  0.00     0.188 C 
BRANCH  30  31
ATOM     31  C   UNL A   1      33.425  29.414  26.653  1.00  0.00     0.188 C 
BRANCH  31  32
ATOM     32  O   UNL A   1      33.587  30.672  27.310  1.00  0.00    -0.376 OA
BRANCH  32  33
ATOM     33  C   UNL A   1      32.527  31.617  27.297  1.00  0.00     0.202 C 
BRANCH  33  34
ATOM     34  C   UNL A   1      32.916  33.091  27.409  1.00  0.00     0.261 C 
BRANCH  34  35
ATOM     35  O   UNL A   1      32.547  33.703  28.653  1.00  0.00    -0.460 OA
BRANCH  35  36
ATOM     36  C   UNL A   1      33.415  34.639  29.096  1.00  0.00     0.338 C 
ATOM     37  O   UNL A   1      33.208  35.845  29.201  1.00  0.00    -0.246 OA
BRANCH  36  38
ATOM     38  C   UNL A   1      34.673  34.014  29.540  1.00  0.00     0.060 A 
ATOM     39  C   UNL A   1      34.638  33.130  30.629  1.00  0.00     0.016 A 
ATOM     40  C   UNL A   1      35.891  34.379  28.966  1.00  0.00     0.016 A 
ATOM     41  C   UNL A   1      35.825  32.642  31.184  1.00  0.00     0.010 A 
ATOM     42  C   UNL A   1      37.076  33.892  29.521  1.00  0.00     0.010 A 
ATOM     43  C   UNL A   1      37.056  33.041  30.651  1.00  0.00    -0.014 A 
BRANCH  43  44
ATOM     44  C   UNL A   1      38.338  32.751  31.341  1.00  0.00     0.031 A 
ATOM     45  C   UNL A   1      39.145  31.608  30.800  1.00  0.00     0.074 A 
ATOM     46  C   UNL A   1      38.750  33.404  32.446  1.00  0.00     0.049 A 
ATOM     47  N   UNL A   1      40.244  31.088  31.270  1.00  0.00    -0.248 NA
ATOM     48  C   UNL A   1      38.667  30.994  29.547  1.00  0.00     0.031 C 
ATOM     49  C   UNL A   1      38.158  34.612  33.005  1.00  0.00     0.029 A 
ATOM     50  N   UNL A   1      39.743  33.096  33.348  1.00  0.00    -0.354 N 
ATOM     51  C   UNL A   1      40.611  30.116  30.352  1.00  0.00     0.074 A 
ATOM     52  C   UNL A   1      39.581  30.060  29.341  1.00  0.00     0.031 C 
ATOM     53  C   UNL A   1      38.654  34.837  34.233  1.00  0.00     0.029 A 
ATOM     54  C   UNL A   1      39.679  33.841  34.506  1.00  0.00     0.049 A 
ATOM     55  H   UNL A   1      40.431  32.412  33.181  1.00  0.00     0.167 HD
ATOM     56  C   UNL A   1      41.735  29.369  30.335  1.00  0.00     0.031 A 
ATOM     57  C   UNL A   1      40.379  33.744  35.655  1.00  0.00     0.031 A 
ATOM     58  C   UNL A   1      42.740  29.424  31.357  1.00  0.00     0.049 A 
ATOM     59  C   UNL A   1      41.550  32.803  35.684  1.00  0.00     0.074 A 
ATOM     60  C   UNL A   1      43.945  28.749  31.413  1.00  0.00     0.029 A 
ATOM     61  N   UNL A   1      42.647  30.182  32.515  1.00  0.00    -0.354 N 
ATOM     62  N   UNL A   1      41.948  31.966  34.755  1.00  0.00    -0.248 NA
ATOM     63  C   UNL A   1      42.418  32.854  36.866  1.00  0.00     0.031 C 
ATOM     64  C   UNL A   1      44.546  29.041  32.641  1.00  0.00     0.029 A 
ATOM     65  C   UNL A   1      43.751  29.954  33.316  1.00  0.00     0.049 A 
ATOM     66  H   UNL A   1      41.906  30.793  32.734  1.00  0.00     0.167 HD
ATOM     67  C   UNL A   1      43.154  31.446  35.209  1.00  0.00     0.074 A 
ATOM     68  C   UNL A   1      43.411  32.055  36.499  1.00  0.00     0.031 C 
ATOM     69  C   UNL A   1      43.985  30.567  34.599  1.00  0.00     0.031 A 
BRANCH  56  70
ATOM     70  C   UNL A   1      41.925  28.433  29.178  1.00  0.00    -0.014 A 
ATOM     71  C   UNL A   1      42.681  28.816  28.054  1.00  0.00     0.010 A 
ATOM     72  C   UNL A   1      41.382  27.139  29.236  1.00  0.00     0.010 A 
ATOM     73  C   UNL A   1      42.877  27.922  27.000  1.00  0.00     0.020 A 
ATOM     74  C   UNL A   1      41.599  26.234  28.196  1.00  0.00     0.020 A 
ATOM     75  C   UNL A   1      42.340  26.633  27.082  1.00  0.00     0.054 A 
BRANCH  75  76
ATOM     76  S   UNL A   1      42.672  25.470  25.732  1.00  0.00     0.124 S 
ATOM     77  O   UNL A   1      43.854  26.061  25.110  1.00  0.00    -0.237 OA
ATOM     78  O   UNL A   1      42.897  24.214  26.444  1.00  0.00    -0.237 OA
ATOM     79  O   UNL A   1      41.454  25.518  24.927  1.00  0.00    -0.744 OA
ENDBRANCH  75  76
ENDBRANCH  56  70
BRANCH  57  80
ATOM     80  C   UNL A   1      40.046  34.601  36.829  1.00  0.00    -0.014 A 
ATOM     81  C   UNL A   1      40.702  35.826  37.039  1.00  0.00     0.010 A 
ATOM     82  C   UNL A   1      39.080  34.180  37.763  1.00  0.00     0.010 A 
ATOM     83  C   UNL A   1      40.431  36.594  38.177  1.00  0.00     0.020 A 
ATOM     84  C   UNL A   1      38.791  34.955  38.893  1.00  0.00     0.020 A 
ATOM     85  C   UNL A   1      39.480  36.151  39.101  1.00  0.00     0.054 A 
BRANCH  85  86
ATOM     86  S   UNL A   1      39.143  37.174  40.563  1.00  0.00     0.124 S 
ATOM     87  O   UNL A   1      38.511  36.216  41.465  1.00  0.00    -0.237 OA
ATOM     88  O   UNL A   1      40.480  37.619  40.947  1.00  0.00    -0.237 OA
ATOM     89  O   UNL A   1      38.266  38.226  40.053  1.00  0.00    -0.744 OA
ENDBRANCH  85  86
ENDBRANCH  57  80
BRANCH  69  90
ATOM     90  C   UNL A   1      45.271  30.235  35.301  1.00  0.00    -0.014 A 
ATOM     91  C   UNL A   1      45.317  29.277  36.328  1.00  0.00     0.010 A 
ATOM     92  C   UNL A   1      46.465  30.852  34.881  1.00  0.00     0.010 A 
ATOM     93  C   UNL A   1      46.528  28.967  36.947  1.00  0.00     0.020 A 
ATOM     94  C   UNL A   1      47.683  30.519  35.473  1.00  0.00     0.020 A 
ATOM     95  C   UNL A   1      47.704  29.589  36.513  1.00  0.00     0.054 A 
BRANCH  95  96
ATOM     96  S   UNL A   1      49.269  29.131  37.303  1.00  0.00     0.124 S 
ATOM     97  O   UNL A   1      48.875  27.983  38.115  1.00  0.00    -0.237 OA
ATOM     98  O   UNL A   1      50.127  28.829  36.160  1.00  0.00    -0.237 OA
ATOM     99  O   UNL A   1      49.641  30.327  38.055  1.00  0.00    -0.744 OA
ENDBRANCH  95  96
ENDBRANCH  69  90
ENDBRANCH  43  44
ENDBRANCH  36  38
ENDBRANCH  35  36
ENDBRANCH  34  35
ENDBRANCH  33  34
ENDBRANCH  32  33
ENDBRANCH  31  32
ENDBRANCH  30  31
ENDBRANCH  29  30
ENDBRANCH   1  29
TORSDOF 27
ENDMDL
MODEL 2
REMARK VINA RESULT:      -8.4      5.890      9.098
REMARK SMILES CCOc1ccc(NC(=O)[C@@H]2[C@@H](C(=O)OCCOCCOCCOCCOC(=O)c3ccc(-c4c5nc(c(-c6ccc(S(=O)(=O)[O-])cc6)c6ccc([nH]6)c(-c6ccc(S(=O)(=O)[O-])cc6)c6nc(c(-c7ccc(S(=O)(=O)[O-])cc7)c7ccc4[nH]7)C=C6)C=C5)cc3)[C@H]3C=C[C@@H]2C3)cc1
REMARK SMILES IDX 20 1 19 2 18 3 17 4 16 5 15 6 13 7 14 8 12 9 11 10 93 11
REMARK SMILES IDX 90 12 92 13 94 14 91 15 9 16 8 17 10 19 7 20 4 21 5 22 96 23
REMARK SMILES IDX 6 24 95 25 3 26 2 27 1 28 21 29 22 30 23 31 24 32 25 33
REMARK SMILES IDX 26 34 27 35 28 36 29 37 30 38 31 39 89 40 32 41 88 42 33 43
REMARK SMILES IDX 34 44 35 45 82 46 36 47 87 48 81 49 83 50 37 51 86 52 80 53
REMARK SMILES IDX 79 54 38 56 68 57 49 58 67 59 50 60 53 61 66 62 84 63 51 64
REMARK SMILES IDX 52 65 65 67 85 68 54 69 39 70 40 71 48 72 41 73 47 74 42 75
REMARK SMILES IDX 43 76 44 77 45 78 46 79 69 80 70 81 78 82 71 83 77 84 72 85
REMARK SMILES IDX 73 86 74 87 75 88 76 89 55 90 56 91 64 92 57 93 63 94 58 95
REMARK SMILES IDX 59 96 60 97 61 98 62 99
REMARK H PARENT 8 18 83 55 53 66
REMARK Flexibility Score: inf
ROOT
ATOM      1  C   UNL A   1      42.717  19.559  26.278  1.00  0.00     0.188 C 
ENDROOT
BRANCH   1   2
ATOM      2  C   UNL A   1      41.532  20.232  26.946  1.00  0.00     0.188 C 
BRANCH   2   3
ATOM      3  O   UNL A   1      40.782  21.109  26.122  1.00  0.00    -0.376 OA
BRANCH   3   4
ATOM      4  C   UNL A   1      39.461  20.674  25.768  1.00  0.00     0.202 C 
BRANCH   4   5
ATOM      5  C   UNL A   1      38.345  21.729  25.573  1.00  0.00     0.261 C 
BRANCH   5   6
ATOM      6  O   UNL A   1      37.021  21.159  25.351  1.00  0.00    -0.463 OA
BRANCH   6   7
ATOM      7  C   UNL A   1      36.197  21.821  24.489  1.00  0.00     0.310 C 
ATOM      8  O   UNL A   1      36.637  22.373  23.488  1.00  0.00    -0.252 OA
BRANCH   7   9
ATOM      9  C   UNL A   1      34.684  21.667  24.839  1.00  0.00     0.119 C 
ATOM     10  C   UNL A   1      33.722  22.633  24.007  1.00  0.00     0.100 C 
ATOM     11  C   UNL A   1      33.222  23.583  25.154  1.00  0.00     0.025 C 
ATOM     12  C   UNL A   1      34.448  22.125  26.316  1.00  0.00     0.027 C 
ATOM     13  C   UNL A   1      34.365  24.351  25.764  1.00  0.00    -0.027 C 
ATOM     14  C   UNL A   1      32.986  22.558  26.275  1.00  0.00     0.017 C 
ATOM     15  C   UNL A   1      35.050  23.495  26.533  1.00  0.00    -0.027 C 
BRANCH  10  16
ATOM     16  C   UNL A   1      32.402  22.178  23.291  1.00  0.00     0.228 C 
ATOM     17  N   UNL A   1      31.914  20.930  23.095  1.00  0.00    -0.326 N 
ATOM     18  H   UNL A   1      31.036  20.930  22.650  1.00  0.00     0.169 HD
ATOM     19  O   UNL A   1      31.677  23.049  22.775  1.00  0.00    -0.274 OA
BRANCH  17  20
ATOM     20  C   UNL A   1      32.374  19.652  23.380  1.00  0.00     0.041 A 
ATOM     21  C   UNL A   1      33.568  17.209  23.912  1.00  0.00     0.119 A 
ATOM     22  C   UNL A   1      33.196  17.530  22.623  1.00  0.00     0.048 A 
ATOM     23  C   UNL A   1      33.300  18.078  24.964  1.00  0.00     0.048 A 
ATOM     24  C   UNL A   1      32.531  18.714  22.389  1.00  0.00     0.030 A 
ATOM     25  C   UNL A   1      32.689  19.306  24.697  1.00  0.00     0.030 A 
BRANCH  21  26
ATOM     26  O   UNL A   1      34.122  15.989  24.163  1.00  0.00    -0.494 OA
BRANCH  26  27
ATOM     27  C   UNL A   1      33.830  15.602  25.508  1.00  0.00     0.226 C 
ATOM     28  C   UNL A   1      32.538  14.823  25.526  1.00  0.00     0.049 C 
ENDBRANCH  26  27
ENDBRANCH  21  26
ENDBRANCH  17  20
ENDBRANCH  10  16
ENDBRANCH   7   9
ENDBRANCH   6   7
ENDBRANCH   5   6
ENDBRANCH   4   5
ENDBRANCH   3   4
ENDBRANCH   2   3
ENDBRANCH   1   2
BRANCH   1  29
ATOM     29  O   UNL A   1      43.310  20.413  25.302  1.00  0.00    -0.377 OA
BRANCH  29  30
ATOM     30  C   UNL A   1      44.642  20.110  24.900  1.00  0.00     0.188 C 
BRANCH  30  31
ATOM     31  C   UNL A   1      45.587  21.307  24.769  1.00  0.00     0.188 C 
BRANCH  31  32
ATOM     32  O   UNL A   1      45.994  22.001  25.949  1.00  0.00    -0.376 OA
BRANCH  32  33
ATOM     33  C   UNL A   1      45.195  23.061  26.456  1.00  0.00     0.202 C 
BRANCH  33  34
ATOM     34  C   UNL A   1      45.730  24.480  26.263  1.00  0.00     0.261 C 
BRANCH  34  35
ATOM     35  O   UNL A   1      45.049  25.474  27.041  1.00  0.00    -0.460 OA
BRANCH  35  36
ATOM     36  C   UNL A   1      44.278  26.318  26.319  1.00  0.00     0.338 C 
ATOM     37  O   UNL A   1      43.781  26.102  25.217  1.00  0.00    -0.246 OA
BRANCH  36  38
ATOM     38  C   UNL A   1      44.017  27.557  27.072  1.00  0.00     0.060 A 
ATOM     39  C   UNL A   1      43.252  28.565  26.465  1.00  0.00     0.016 A 
ATOM     40  C   UNL A   1      44.611  27.774  28.316  1.00  0.00     0.016 A 
ATOM     41  C   UNL A   1      43.116  29.816  27.076  1.00  0.00     0.010 A 
ATOM     42  C   UNL A   1      44.475  29.023  28.925  1.00  0.00     0.010 A 
ATOM     43  C   UNL A   1      43.749  30.064  28.299  1.00  0.00    -0.014 A 
BRANCH  43  44
ATOM     44  C   UNL A   1      43.839  31.431  28.870  1.00  0.00     0.031 A 
ATOM     45  C   UNL A   1      45.047  32.236  28.492  1.00  0.00     0.074 A 
ATOM     46  C   UNL A   1      42.947  31.928  29.751  1.00  0.00     0.049 A 
ATOM     47  N   UNL A   1      45.415  33.410  28.921  1.00  0.00    -0.248 NA
ATOM     48  C   UNL A   1      45.936  31.655  27.468  1.00  0.00     0.031 C 
ATOM     49  C   UNL A   1      41.665  31.334  30.106  1.00  0.00     0.029 A 
ATOM     50  N   UNL A   1      43.017  33.033  30.567  1.00  0.00    -0.354 N 
ATOM     51  C   UNL A   1      46.552  33.726  28.195  1.00  0.00     0.074 A 
ATOM     52  C   UNL A   1      46.863  32.593  27.355  1.00  0.00     0.031 C 
ATOM     53  C   UNL A   1      41.160  31.953  31.186  1.00  0.00     0.029 A 
ATOM     54  C   UNL A   1      42.038  33.059  31.538  1.00  0.00     0.049 A 
ATOM     55  H   UNL A   1      43.698  33.736  30.466  1.00  0.00     0.167 HD
ATOM     56  C   UNL A   1      47.249  34.882  28.199  1.00  0.00     0.031 A 
ATOM     57  C   UNL A   1      41.858  33.889  32.584  1.00  0.00     0.031 A 
ATOM     58  C   UNL A   1      46.939  35.993  29.053  1.00  0.00     0.049 A 
ATOM     59  C   UNL A   1      42.731  35.109  32.669  1.00  0.00     0.074 A 
ATOM     60  C   UNL A   1      47.546  37.233  29.103  1.00  0.00     0.029 A 
ATOM     61  N   UNL A   1      45.948  35.988  30.024  1.00  0.00    -0.354 N 
ATOM     62  N   UNL A   1      43.739  35.447  31.899  1.00  0.00    -0.248 NA
ATOM     63  C   UNL A   1      42.394  36.101  33.696  1.00  0.00     0.031 C 
ATOM     64  C   UNL A   1      46.972  37.952  30.155  1.00  0.00     0.029 A 
ATOM     65  C   UNL A   1      45.959  37.188  30.712  1.00  0.00     0.049 A 
ATOM     66  H   UNL A   1      45.328  35.243  30.197  1.00  0.00     0.167 HD
ATOM     67  C   UNL A   1      44.107  36.724  32.301  1.00  0.00     0.074 A 
ATOM     68  C   UNL A   1      43.222  37.091  33.388  1.00  0.00     0.031 C 
ATOM     69  C   UNL A   1      45.072  37.530  31.795  1.00  0.00     0.031 A 
BRANCH  56  70
ATOM     70  C   UNL A   1      48.409  34.994  27.255  1.00  0.00    -0.014 A 
ATOM     71  C   UNL A   1      48.276  35.650  26.017  1.00  0.00     0.010 A 
ATOM     72  C   UNL A   1      49.661  34.477  27.630  1.00  0.00     0.010 A 
ATOM     73  C   UNL A   1      49.373  35.775  25.164  1.00  0.00     0.020 A 
ATOM     74  C   UNL A   1      50.766  34.624  26.791  1.00  0.00     0.020 A 
ATOM     75  C   UNL A   1      50.614  35.267  25.561  1.00  0.00     0.054 A 
BRANCH  75  76
ATOM     76  S   UNL A   1      52.038  35.507  24.466  1.00  0.00     0.124 S 
ATOM     77  O   UNL A   1      53.072  35.934  25.405  1.00  0.00    -0.237 OA
ATOM     78  O   UNL A   1      52.223  34.177  23.889  1.00  0.00    -0.237 OA
ATOM     79  O   UNL A   1      51.586  36.533  23.529  1.00  0.00    -0.744 OA
ENDBRANCH  75  76
ENDBRANCH  56  70
BRANCH  57  80
ATOM     80  C   UNL A   1      40.775  33.643  33.580  1.00  0.00    -0.014 A 
ATOM     81  C   UNL A   1      39.521  34.267  33.454  1.00  0.00     0.010 A 
ATOM     82  C   UNL A   1      41.004  32.795  34.681  1.00  0.00     0.010 A 
ATOM     83  C   UNL A   1      38.533  34.082  34.427  1.00  0.00     0.020 A 
ATOM     84  C   UNL A   1      40.009  32.591  35.646  1.00  0.00     0.020 A 
ATOM     85  C   UNL A   1      38.784  33.248  35.520  1.00  0.00     0.054 A 
BRANCH  85  86
ATOM     86  S   UNL A   1      37.478  33.021  36.761  1.00  0.00     0.124 S 
ATOM     87  O   UNL A   1      37.957  33.849  37.863  1.00  0.00    -0.237 OA
ATOM     88  O   UNL A   1      36.295  33.518  36.063  1.00  0.00    -0.237 OA
ATOM     89  O   UNL A   1      37.486  31.581  37.010  1.00  0.00    -0.744 OA
ENDBRANCH  85  86
ENDBRANCH  57  80
BRANCH  69  90
ATOM     90  C   UNL A   1      45.200  38.906  32.386  1.00  0.00    -0.014 A 
ATOM     91  C   UNL A   1      46.106  39.171  33.427  1.00  0.00     0.010 A 
ATOM     92  C   UNL A   1      44.442  39.962  31.847  1.00  0.00     0.010 A 
ATOM     93  C   UNL A   1      46.225  40.463  33.943  1.00  0.00     0.020 A 
ATOM     94  C   UNL A   1      44.584  41.261  32.336  1.00  0.00     0.020 A 
ATOM     95  C   UNL A   1      45.466  41.499  33.391  1.00  0.00     0.054 A 
BRANCH  95  96
ATOM     96  S   UNL A   1      45.677  43.174  34.049  1.00  0.00     0.124 S 
ATOM     97  O   UNL A   1      44.569  43.271  34.994  1.00  0.00    -0.237 OA
ATOM     98  O   UNL A   1      47.010  43.117  34.645  1.00  0.00    -0.237 OA
ATOM     99  O   UNL A   1      45.565  44.027  32.867  1.00  0.00    -0.744 OA
ENDBRANCH  95  96
ENDBRANCH  69  90
ENDBRANCH  43  44
ENDBRANCH  36  38
ENDBRANCH  35  36
ENDBRANCH  34  35
ENDBRANCH  33  34
ENDBRANCH  32  33
ENDBRANCH  31  32
ENDBRANCH  30  31
ENDBRANCH  29  30
ENDBRANCH   1  29
TORSDOF 27
ENDMDL
MODEL 3
REMARK VINA RESULT:      -8.0      4.703      9.691
REMARK SMILES CCOc1ccc(NC(=O)[C@@H]2[C@@H](C(=O)OCCOCCOCCOCCOC(=O)c3ccc(-c4c5nc(c(-c6ccc(S(=O)(=O)[O-])cc6)c6ccc([nH]6)c(-c6ccc(S(=O)(=O)[O-])cc6)c6nc(c(-c7ccc(S(=O)(=O)[O-])cc7)c7ccc4[nH]7)C=C6)C=C5)cc3)[C@H]3C=C[C@@H]2C3)cc1
REMARK SMILES IDX 20 1 19 2 18 3 17 4 16 5 15 6 13 7 14 8 12 9 11 10 93 11
REMARK SMILES IDX 90 12 92 13 94 14 91 15 9 16 8 17 10 19 7 20 4 21 5 22 96 23
REMARK SMILES IDX 6 24 95 25 3 26 2 27 1 28 21 29 22 30 23 31 24 32 25 33
REMARK SMILES IDX 26 34 27 35 28 36 29 37 30 38 31 39 89 40 32 41 88 42 33 43
REMARK SMILES IDX 34 44 35 45 82 46 36 47 87 48 81 49 83 50 37 51 86 52 80 53
REMARK SMILES IDX 79 54 38 56 68 57 49 58 67 59 50 60 53 61 66 62 84 63 51 64
REMARK SMILES IDX 52 65 65 67 85 68 54 69 39 70 40 71 48 72 41 73 47 74 42 75
REMARK SMILES IDX 43 76 44 77 45 78 46 79 69 80 70 81 78 82 71 83 77 84 72 85
REMARK SMILES IDX 73 86 74 87 75 88 76 89 55 90 56 91 64 92 57 93 63 94 58 95
REMARK SMILES IDX 59 96 60 97 61 98 62 99
REMARK H PARENT 8 18 83 55 53 66
REMARK Flexibility Score: inf
ROOT
ATOM      1  C   UNL A   1      34.019  30.919  27.840  1.00  0.00     0.188 C 
ENDROOT
BRANCH   1   2
ATOM      2  C   UNL A   1      34.487  29.686  27.090  1.00  0.00     0.188 C 
BRANCH   2   3
ATOM      3  O   UNL A   1      33.461  28.895  26.513  1.00  0.00    -0.376 OA
BRANCH   3   4
ATOM      4  C   UNL A   1      33.870  27.956  25.509  1.00  0.00     0.202 C 
BRANCH   4   5
ATOM      5  C   UNL A   1      33.949  26.453  25.866  1.00  0.00     0.261 C 
BRANCH   5   6
ATOM      6  O   UNL A   1      34.507  25.618  24.808  1.00  0.00    -0.463 OA
BRANCH   6   7
ATOM      7  C   UNL A   1      34.919  24.365  25.157  1.00  0.00     0.310 C 
ATOM      8  O   UNL A   1      35.929  24.194  25.828  1.00  0.00    -0.252 OA
BRANCH   7   9
ATOM      9  C   UNL A   1      33.915  23.246  24.742  1.00  0.00     0.119 C 
ATOM     10  C   UNL A   1      32.735  23.008  25.792  1.00  0.00     0.100 C 
ATOM     11  C   UNL A   1      33.111  21.574  26.313  1.00  0.00     0.025 C 
ATOM     12  C   UNL A   1      34.654  21.868  24.729  1.00  0.00     0.027 C 
ATOM     13  C   UNL A   1      34.452  21.575  26.997  1.00  0.00    -0.027 C 
ATOM     14  C   UNL A   1      33.507  20.899  24.990  1.00  0.00     0.017 C 
ATOM     15  C   UNL A   1      35.384  21.663  26.038  1.00  0.00    -0.027 C 
BRANCH  10  16
ATOM     16  C   UNL A   1      31.216  22.888  25.417  1.00  0.00     0.228 C 
ATOM     17  N   UNL A   1      30.408  23.780  24.795  1.00  0.00    -0.326 N 
ATOM     18  H   UNL A   1      29.501  23.431  24.643  1.00  0.00     0.169 HD
ATOM     19  O   UNL A   1      30.602  21.857  25.751  1.00  0.00    -0.274 OA
BRANCH  17  20
ATOM     20  C   UNL A   1      30.574  25.074  24.323  1.00  0.00     0.041 A 
ATOM     21  C   UNL A   1      30.620  27.648  23.300  1.00  0.00     0.119 A 
ATOM     22  C   UNL A   1      30.950  26.579  22.493  1.00  0.00     0.048 A 
ATOM     23  C   UNL A   1      30.316  27.456  24.643  1.00  0.00     0.048 A 
ATOM     24  C   UNL A   1      31.001  25.315  23.040  1.00  0.00     0.030 A 
ATOM     25  C   UNL A   1      30.302  26.159  25.161  1.00  0.00     0.030 A 
BRANCH  21  26
ATOM     26  O   UNL A   1      30.680  28.912  22.791  1.00  0.00    -0.494 OA
BRANCH  26  27
ATOM     27  C   UNL A   1      29.393  29.288  22.295  1.00  0.00     0.226 C 
ATOM     28  C   UNL A   1      28.828  30.379  23.171  1.00  0.00     0.049 C 
ENDBRANCH  26  27
ENDBRANCH  21  26
ENDBRANCH  17  20
ENDBRANCH  10  16
ENDBRANCH   7   9
ENDBRANCH   6   7
ENDBRANCH   5   6
ENDBRANCH   4   5
ENDBRANCH   3   4
ENDBRANCH   2   3
ENDBRANCH   1   2
BRANCH   1  29
ATOM     29  O   UNL A   1      35.122  31.642  28.381  1.00  0.00    -0.377 OA
BRANCH  29  30
ATOM     30  C   UNL A   1      34.851  32.521  29.468  1.00  0.00     0.188 C 
BRANCH  30  31
ATOM     31  C   UNL A   1      35.080  31.943  30.866  1.00  0.00     0.188 C 
BRANCH  31  32
ATOM     32  O   UNL A   1      34.484  32.592  31.990  1.00  0.00    -0.376 OA
BRANCH  32  33
ATOM     33  C   UNL A   1      34.280  33.998  31.968  1.00  0.00     0.202 C 
BRANCH  33  34
ATOM     34  C   UNL A   1      35.399  34.865  32.546  1.00  0.00     0.261 C 
BRANCH  34  35
ATOM     35  O   UNL A   1      36.680  34.653  31.936  1.00  0.00    -0.460 OA
BRANCH  35  36
ATOM     36  C   UNL A   1      37.685  34.427  32.809  1.00  0.00     0.338 C 
ATOM     37  O   UNL A   1      37.793  34.884  33.944  1.00  0.00    -0.246 OA
BRANCH  36  38
ATOM     38  C   UNL A   1      38.646  33.457  32.257  1.00  0.00     0.060 A 
ATOM     39  C   UNL A   1      39.303  32.583  33.137  1.00  0.00     0.016 A 
ATOM     40  C   UNL A   1      38.983  33.480  30.903  1.00  0.00     0.016 A 
ATOM     41  C   UNL A   1      40.337  31.761  32.679  1.00  0.00     0.010 A 
ATOM     42  C   UNL A   1      40.016  32.659  30.446  1.00  0.00     0.010 A 
ATOM     43  C   UNL A   1      40.720  31.811  31.333  1.00  0.00    -0.014 A 
BRANCH  43  44
ATOM     44  C   UNL A   1      41.955  31.147  30.846  1.00  0.00     0.031 A 
ATOM     45  C   UNL A   1      43.162  32.021  30.676  1.00  0.00     0.074 A 
ATOM     46  C   UNL A   1      42.007  29.848  30.487  1.00  0.00     0.049 A 
ATOM     47  N   UNL A   1      44.329  31.717  30.180  1.00  0.00    -0.248 NA
ATOM     48  C   UNL A   1      43.049  33.409  31.160  1.00  0.00     0.031 C 
ATOM     49  C   UNL A   1      40.974  28.847  30.721  1.00  0.00     0.029 A 
ATOM     50  N   UNL A   1      42.960  29.154  29.779  1.00  0.00    -0.354 N 
ATOM     51  C   UNL A   1      45.099  32.860  30.329  1.00  0.00     0.074 A 
ATOM     52  C   UNL A   1      44.251  33.888  30.885  1.00  0.00     0.031 C 
ATOM     53  C   UNL A   1      41.247  27.737  30.015  1.00  0.00     0.029 A 
ATOM     54  C   UNL A   1      42.532  27.913  29.356  1.00  0.00     0.049 A 
ATOM     55  H   UNL A   1      43.859  29.508  29.593  1.00  0.00     0.167 HD
ATOM     56  C   UNL A   1      46.413  33.018  30.064  1.00  0.00     0.031 A 
ATOM     57  C   UNL A   1      43.116  27.011  28.542  1.00  0.00     0.031 A 
ATOM     58  C   UNL A   1      47.238  31.992  29.493  1.00  0.00     0.049 A 
ATOM     59  C   UNL A   1      44.540  27.258  28.129  1.00  0.00     0.074 A 
ATOM     60  C   UNL A   1      48.594  32.028  29.232  1.00  0.00     0.029 A 
ATOM     61  N   UNL A   1      46.777  30.752  29.075  1.00  0.00    -0.354 N 
ATOM     62  N   UNL A   1      45.291  28.305  28.376  1.00  0.00    -0.248 NA
ATOM     63  C   UNL A   1      45.223  26.176  27.411  1.00  0.00     0.031 C 
ATOM     64  C   UNL A   1      48.940  30.838  28.586  1.00  0.00     0.029 A 
ATOM     65  C   UNL A   1      47.814  30.032  28.512  1.00  0.00     0.049 A 
ATOM     66  H   UNL A   1      45.850  30.432  29.166  1.00  0.00     0.167 HD
ATOM     67  C   UNL A   1      46.558  27.976  27.910  1.00  0.00     0.074 A 
ATOM     68  C   UNL A   1      46.465  26.640  27.357  1.00  0.00     0.031 C 
ATOM     69  C   UNL A   1      47.699  28.704  27.963  1.00  0.00     0.031 A 
BRANCH  56  70
ATOM     70  C   UNL A   1      47.027  34.348  30.387  1.00  0.00    -0.014 A 
ATOM     71  C   UNL A   1      47.050  35.386  29.436  1.00  0.00     0.010 A 
ATOM     72  C   UNL A   1      47.545  34.579  31.672  1.00  0.00     0.010 A 
ATOM     73  C   UNL A   1      47.594  36.629  29.763  1.00  0.00     0.020 A 
ATOM     74  C   UNL A   1      48.066  35.829  32.011  1.00  0.00     0.020 A 
ATOM     75  C   UNL A   1      48.092  36.844  31.053  1.00  0.00     0.054 A 
BRANCH  75  76
ATOM     76  S   UNL A   1      48.728  38.489  31.471  1.00  0.00     0.124 S 
ATOM     77  O   UNL A   1      48.403  38.584  32.893  1.00  0.00    -0.237 OA
ATOM     78  O   UNL A   1      50.150  38.369  31.158  1.00  0.00    -0.237 OA
ATOM     79  O   UNL A   1      47.973  39.385  30.599  1.00  0.00    -0.744 OA
ENDBRANCH  75  76
ENDBRANCH  56  70
BRANCH  57  80
ATOM     80  C   UNL A   1      42.396  25.770  28.133  1.00  0.00    -0.014 A 
ATOM     81  C   UNL A   1      42.597  24.558  28.816  1.00  0.00     0.010 A 
ATOM     82  C   UNL A   1      41.517  25.792  27.032  1.00  0.00     0.010 A 
ATOM     83  C   UNL A   1      41.968  23.385  28.385  1.00  0.00     0.020 A 
ATOM     84  C   UNL A   1      40.869  24.623  26.611  1.00  0.00     0.020 A 
ATOM     85  C   UNL A   1      41.111  23.424  27.282  1.00  0.00     0.054 A 
BRANCH  85  86
ATOM     86  S   UNL A   1      40.302  21.886  26.753  1.00  0.00     0.124 S 
ATOM     87  O   UNL A   1      38.940  22.337  26.480  1.00  0.00    -0.237 OA
ATOM     88  O   UNL A   1      41.089  21.505  25.583  1.00  0.00    -0.237 OA
ATOM     89  O   UNL A   1      40.448  21.004  27.909  1.00  0.00    -0.744 OA
ENDBRANCH  85  86
ENDBRANCH  57  80
BRANCH  69  90
ATOM     90  C   UNL A   1      48.952  28.060  27.441  1.00  0.00    -0.014 A 
ATOM     91  C   UNL A   1      49.436  28.342  26.152  1.00  0.00     0.010 A 
ATOM     92  C   UNL A   1      49.688  27.204  28.280  1.00  0.00     0.010 A 
ATOM     93  C   UNL A   1      50.616  27.750  25.698  1.00  0.00     0.020 A 
ATOM     94  C   UNL A   1      50.887  26.638  27.844  1.00  0.00     0.020 A 
ATOM     95  C   UNL A   1      51.335  26.905  26.549  1.00  0.00     0.054 A 
BRANCH  95  96
ATOM     96  S   UNL A   1      52.888  26.190  25.951  1.00  0.00     0.124 S 
ATOM     97  O   UNL A   1      52.889  26.596  24.549  1.00  0.00    -0.237 OA
ATOM     98  O   UNL A   1      53.886  26.842  26.796  1.00  0.00    -0.237 OA
ATOM     99  O   UNL A   1      52.723  24.757  26.185  1.00  0.00    -0.744 OA
ENDBRANCH  95  96
ENDBRANCH  69  90
ENDBRANCH  43  44
ENDBRANCH  36  38
ENDBRANCH  35  36
ENDBRANCH  34  35
ENDBRANCH  33  34
ENDBRANCH  32  33
ENDBRANCH  31  32
ENDBRANCH  30  31
ENDBRANCH  29  30
ENDBRANCH   1  29
TORSDOF 27
ENDMDL
