MODEL 1
REMARK VINA RESULT:      -8.1      0.000      0.000
REMARK SMILES C[C@@H](C(=O)OCCOCCOCCOCCOC(=O)c1ccc(-c2c3nc(c(-c4ccc(S(=O)(=O)[O-])cc4)c4ccc([nH]4)c(-c4ccc(S(=O)(=O)[O-])cc4)c4nc(c(-c5ccc(S(=O)(=O)[O-])cc5)c5ccc2[nH]5)C=C4)C=C3)cc1)n1ccc(C(=O)N2CC[NH+](Cc3cccc(F)c3)CC2)n1
REMARK SMILES IDX 10 1 9 2 8 3 7 4 6 5 5 6 3 7 4 8 2 9 1 10 80 11 81 12 100 13
REMARK SMILES IDX 82 14 83 15 84 16 85 17 86 18 87 19 99 20 88 21 98 22 89 23
REMARK SMILES IDX 90 25 91 26 92 27 97 28 93 29 95 30 94 31 96 32 11 33 12 34
REMARK SMILES IDX 13 35 14 36 15 37 16 38 17 39 18 40 19 41 20 42 21 43 79 44
REMARK SMILES IDX 22 45 78 46 23 47 24 48 25 49 72 50 26 51 77 52 71 53 73 54
REMARK SMILES IDX 27 55 76 56 70 57 69 58 28 60 58 61 39 62 57 63 40 64 43 65
REMARK SMILES IDX 56 66 74 67 41 68 42 69 55 71 75 72 44 73 29 74 30 75 38 76
REMARK SMILES IDX 31 77 37 78 32 79 33 80 34 81 35 82 36 83 59 84 60 85 68 86
REMARK SMILES IDX 61 87 67 88 62 89 63 90 64 91 65 92 66 93 45 94 46 95 54 96
REMARK SMILES IDX 47 97 53 98 48 99 49 100 50 101 51 102 52 103
REMARK H PARENT 89 24 73 59 43 70
REMARK Flexibility Score: inf
ROOT
ATOM      1  C   UNL A   1      39.431  23.705  27.407  1.00  0.00     0.188 C 
ENDROOT
BRANCH   1   2
ATOM      2  C   UNL A   1      38.514  24.424  26.405  1.00  0.00     0.188 C 
BRANCH   2   3
ATOM      3  O   UNL A   1      37.829  23.687  25.403  1.00  0.00    -0.376 OA
BRANCH   3   4
ATOM      4  C   UNL A   1      37.192  22.450  25.694  1.00  0.00     0.202 C 
BRANCH   4   5
ATOM      5  C   UNL A   1      35.692  22.175  25.469  1.00  0.00     0.261 C 
BRANCH   5   6
ATOM      6  O   UNL A   1      34.892  23.291  25.057  1.00  0.00    -0.462 OA
BRANCH   6   7
ATOM      7  C   UNL A   1      34.498  23.332  23.764  1.00  0.00     0.330 C 
ATOM      8  O   UNL A   1      35.271  23.468  22.819  1.00  0.00    -0.250 OA
BRANCH   7   9
ATOM      9  C   UNL A   1      32.997  23.125  23.576  1.00  0.00     0.213 C 
ATOM     10  C   UNL A   1      32.563  22.477  22.250  1.00  0.00     0.046 C 
BRANCH   9  11
ATOM     11  N   UNL A   1      32.275  24.344  23.954  1.00  0.00    -0.258 N 
ATOM     12  C   UNL A   1      31.074  24.389  24.611  1.00  0.00     0.110 A 
ATOM     13  N   UNL A   1      32.759  25.579  23.683  1.00  0.00    -0.167 NA
ATOM     14  C   UNL A   1      30.793  25.714  24.816  1.00  0.00     0.056 A 
ATOM     15  C   UNL A   1      31.864  26.434  24.220  1.00  0.00     0.150 A 
BRANCH  15  16
ATOM     16  C   UNL A   1      32.021  27.904  24.291  1.00  0.00     0.274 C 
ATOM     17  O   UNL A   1      31.789  28.587  23.289  1.00  0.00    -0.267 OA
ATOM     18  N   UNL A   1      32.416  28.519  25.493  1.00  0.00    -0.326 N 
ATOM     19  C   UNL A   1      32.333  29.977  25.509  1.00  0.00     0.181 C 
ATOM     20  C   UNL A   1      33.393  27.899  26.389  1.00  0.00     0.181 C 
ATOM     21  C   UNL A   1      32.579  30.640  26.877  1.00  0.00     0.284 C 
ATOM     22  C   UNL A   1      33.561  28.617  27.741  1.00  0.00     0.284 C 
ATOM     23  N   UNL A   1      33.659  30.080  27.693  1.00  0.00    -0.328 N 
ATOM     24  H   UNL A   1      33.501  30.415  28.643  1.00  0.00     0.348 HD
BRANCH  23  25
ATOM     25  C   UNL A   1      34.999  30.640  27.495  1.00  0.00     0.299 C 
BRANCH  25  26
ATOM     26  C   UNL A   1      36.117  30.088  28.347  1.00  0.00     0.009 A 
ATOM     27  C   UNL A   1      36.064  30.167  29.748  1.00  0.00     0.010 A 
ATOM     28  C   UNL A   1      37.209  29.439  27.754  1.00  0.00     0.048 A 
ATOM     29  C   UNL A   1      37.018  29.515  30.535  1.00  0.00     0.004 A 
ATOM     30  C   UNL A   1      38.139  28.773  28.546  1.00  0.00     0.123 A 
ATOM     31  C   UNL A   1      38.042  28.790  29.930  1.00  0.00     0.039 A 
ATOM     32  F   UNL A   1      39.120  28.075  27.959  1.00  0.00    -0.207 F 
ENDBRANCH  25  26
ENDBRANCH  23  25
ENDBRANCH  15  16
ENDBRANCH   9  11
ENDBRANCH   7   9
ENDBRANCH   6   7
ENDBRANCH   5   6
ENDBRANCH   4   5
ENDBRANCH   3   4
ENDBRANCH   2   3
ENDBRANCH   1   2
BRANCH   1  33
ATOM     33  O   UNL A   1      40.252  24.569  28.171  1.00  0.00    -0.377 OA
BRANCH  33  34
ATOM     34  C   UNL A   1      41.281  25.268  27.484  1.00  0.00     0.188 C 
BRANCH  34  35
ATOM     35  C   UNL A   1      42.707  25.269  28.073  1.00  0.00     0.188 C 
BRANCH  35  36
ATOM     36  O   UNL A   1      43.160  23.998  28.520  1.00  0.00    -0.376 OA
BRANCH  36  37
ATOM     37  C   UNL A   1      44.324  23.939  29.332  1.00  0.00     0.202 C 
BRANCH  37  38
ATOM     38  C   UNL A   1      44.155  23.466  30.786  1.00  0.00     0.261 C 
BRANCH  38  39
ATOM     39  O   UNL A   1      44.224  24.477  31.804  1.00  0.00    -0.460 OA
BRANCH  39  40
ATOM     40  C   UNL A   1      43.854  24.136  33.060  1.00  0.00     0.338 C 
ATOM     41  O   UNL A   1      43.751  23.018  33.513  1.00  0.00    -0.246 OA
BRANCH  40  42
ATOM     42  C   UNL A   1      43.791  25.382  33.860  1.00  0.00     0.060 A 
ATOM     43  C   UNL A   1      42.897  25.449  34.936  1.00  0.00     0.016 A 
ATOM     44  C   UNL A   1      44.605  26.474  33.549  1.00  0.00     0.016 A 
ATOM     45  C   UNL A   1      42.781  26.625  35.679  1.00  0.00     0.010 A 
ATOM     46  C   UNL A   1      44.473  27.658  34.280  1.00  0.00     0.010 A 
ATOM     47  C   UNL A   1      43.534  27.752  35.324  1.00  0.00    -0.014 A 
BRANCH  47  48
ATOM     48  C   UNL A   1      43.193  29.076  35.900  1.00  0.00     0.031 A 
ATOM     49  C   UNL A   1      43.983  29.561  37.087  1.00  0.00     0.074 A 
ATOM     50  C   UNL A   1      42.223  29.846  35.373  1.00  0.00     0.049 A 
ATOM     51  N   UNL A   1      43.838  30.653  37.790  1.00  0.00    -0.248 NA
ATOM     52  C   UNL A   1      45.082  28.693  37.541  1.00  0.00     0.031 C 
ATOM     53  C   UNL A   1      41.422  29.514  34.197  1.00  0.00     0.029 A 
ATOM     54  N   UNL A   1      41.744  31.069  35.774  1.00  0.00    -0.354 N 
ATOM     55  C   UNL A   1      44.820  30.601  38.774  1.00  0.00     0.074 A 
ATOM     56  C   UNL A   1      45.530  29.353  38.597  1.00  0.00     0.031 C 
ATOM     57  C   UNL A   1      40.541  30.506  33.977  1.00  0.00     0.029 A 
ATOM     58  C   UNL A   1      40.690  31.523  35.018  1.00  0.00     0.049 A 
ATOM     59  H   UNL A   1      42.121  31.573  36.530  1.00  0.00     0.167 HD
ATOM     60  C   UNL A   1      45.109  31.511  39.734  1.00  0.00     0.031 A 
ATOM     61  C   UNL A   1      39.916  32.618  35.166  1.00  0.00     0.031 A 
ATOM     62  C   UNL A   1      44.387  32.741  39.920  1.00  0.00     0.049 A 
ATOM     63  C   UNL A   1      40.199  33.576  36.295  1.00  0.00     0.074 A 
ATOM     64  C   UNL A   1      44.605  33.732  40.860  1.00  0.00     0.029 A 
ATOM     65  N   UNL A   1      43.302  33.145  39.156  1.00  0.00    -0.354 N 
ATOM     66  N   UNL A   1      41.142  33.522  37.207  1.00  0.00    -0.248 NA
ATOM     67  C   UNL A   1      39.319  34.748  36.411  1.00  0.00     0.031 C 
ATOM     68  C   UNL A   1      43.609  34.703  40.709  1.00  0.00     0.029 A 
ATOM     69  C   UNL A   1      42.820  34.356  39.624  1.00  0.00     0.049 A 
ATOM     70  H   UNL A   1      42.929  32.644  38.394  1.00  0.00     0.167 HD
ATOM     71  C   UNL A   1      40.986  34.667  37.984  1.00  0.00     0.074 A 
ATOM     72  C   UNL A   1      39.870  35.401  37.426  1.00  0.00     0.031 C 
ATOM     73  C   UNL A   1      41.706  35.077  39.058  1.00  0.00     0.031 A 
BRANCH  60  74
ATOM     74  C   UNL A   1      46.234  31.185  40.684  1.00  0.00    -0.014 A 
ATOM     75  C   UNL A   1      47.555  31.592  40.422  1.00  0.00     0.010 A 
ATOM     76  C   UNL A   1      45.958  30.486  41.873  1.00  0.00     0.010 A 
ATOM     77  C   UNL A   1      48.584  31.269  41.310  1.00  0.00     0.020 A 
ATOM     78  C   UNL A   1      46.979  30.190  42.780  1.00  0.00     0.020 A 
ATOM     79  C   UNL A   1      48.289  30.569  42.484  1.00  0.00     0.054 A 
BRANCH  79  80
ATOM     80  S   UNL A   1      49.643  30.182  43.628  1.00  0.00     0.124 S 
ATOM     81  O   UNL A   1      49.025  29.184  44.498  1.00  0.00    -0.237 OA
ATOM     82  O   UNL A   1      50.681  29.679  42.732  1.00  0.00    -0.237 OA
ATOM     83  O   UNL A   1      49.939  31.464  44.263  1.00  0.00    -0.744 OA
ENDBRANCH  79  80
ENDBRANCH  60  74
BRANCH  61  84
ATOM     84  C   UNL A   1      38.777  32.855  34.234  1.00  0.00    -0.014 A 
ATOM     85  C   UNL A   1      37.518  32.275  34.466  1.00  0.00     0.010 A 
ATOM     86  C   UNL A   1      38.952  33.670  33.099  1.00  0.00     0.010 A 
ATOM     87  C   UNL A   1      36.461  32.493  33.575  1.00  0.00     0.020 A 
ATOM     88  C   UNL A   1      37.890  33.917  32.224  1.00  0.00     0.020 A 
ATOM     89  C   UNL A   1      36.653  33.319  32.464  1.00  0.00     0.054 A 
BRANCH  89  90
ATOM     90  S   UNL A   1      35.251  33.637  31.357  1.00  0.00     0.124 S 
ATOM     91  O   UNL A   1      35.888  33.619  30.045  1.00  0.00    -0.237 OA
ATOM     92  O   UNL A   1      34.363  32.513  31.646  1.00  0.00    -0.237 OA
ATOM     93  O   UNL A   1      34.755  34.939  31.797  1.00  0.00    -0.744 OA
ENDBRANCH  89  90
ENDBRANCH  61  84
BRANCH  73  94
ATOM     94  C   UNL A   1      41.341  36.400  39.685  1.00  0.00    -0.014 A 
ATOM     95  C   UNL A   1      42.075  37.569  39.417  1.00  0.00     0.010 A 
ATOM     96  C   UNL A   1      40.203  36.483  40.509  1.00  0.00     0.010 A 
ATOM     97  C   UNL A   1      41.697  38.788  39.988  1.00  0.00     0.020 A 
ATOM     98  C   UNL A   1      39.802  37.705  41.055  1.00  0.00     0.020 A 
ATOM     99  C   UNL A   1      40.561  38.848  40.801  1.00  0.00     0.054 A 
BRANCH  99 100
ATOM    100  S   UNL A   1      40.068  40.451  41.493  1.00  0.00     0.124 S 
ATOM    101  O   UNL A   1      39.218  40.051  42.611  1.00  0.00    -0.237 OA
ATOM    102  O   UNL A   1      41.349  41.049  41.860  1.00  0.00    -0.237 OA
ATOM    103  O   UNL A   1      39.374  41.108  40.387  1.00  0.00    -0.744 OA
ENDBRANCH  99 100
ENDBRANCH  73  94
ENDBRANCH  47  48
ENDBRANCH  40  42
ENDBRANCH  39  40
ENDBRANCH  38  39
ENDBRANCH  37  38
ENDBRANCH  36  37
ENDBRANCH  35  36
ENDBRANCH  34  35
ENDBRANCH  33  34
ENDBRANCH   1  33
TORSDOF 27
ENDMDL
MODEL 2
REMARK VINA RESULT:      -7.1      5.004     12.305
REMARK SMILES C[C@@H](C(=O)OCCOCCOCCOCCOC(=O)c1ccc(-c2c3nc(c(-c4ccc(S(=O)(=O)[O-])cc4)c4ccc([nH]4)c(-c4ccc(S(=O)(=O)[O-])cc4)c4nc(c(-c5ccc(S(=O)(=O)[O-])cc5)c5ccc2[nH]5)C=C4)C=C3)cc1)n1ccc(C(=O)N2CC[NH+](Cc3cccc(F)c3)CC2)n1
REMARK SMILES IDX 10 1 9 2 8 3 7 4 6 5 5 6 3 7 4 8 2 9 1 10 80 11 81 12 100 13
REMARK SMILES IDX 82 14 83 15 84 16 85 17 86 18 87 19 99 20 88 21 98 22 89 23
REMARK SMILES IDX 90 25 91 26 92 27 97 28 93 29 95 30 94 31 96 32 11 33 12 34
REMARK SMILES IDX 13 35 14 36 15 37 16 38 17 39 18 40 19 41 20 42 21 43 79 44
REMARK SMILES IDX 22 45 78 46 23 47 24 48 25 49 72 50 26 51 77 52 71 53 73 54
REMARK SMILES IDX 27 55 76 56 70 57 69 58 28 60 58 61 39 62 57 63 40 64 43 65
REMARK SMILES IDX 56 66 74 67 41 68 42 69 55 71 75 72 44 73 29 74 30 75 38 76
REMARK SMILES IDX 31 77 37 78 32 79 33 80 34 81 35 82 36 83 59 84 60 85 68 86
REMARK SMILES IDX 61 87 67 88 62 89 63 90 64 91 65 92 66 93 45 94 46 95 54 96
REMARK SMILES IDX 47 97 53 98 48 99 49 100 50 101 51 102 52 103
REMARK H PARENT 89 24 73 59 43 70
REMARK Flexibility Score: inf
ROOT
ATOM      1  C   UNL A   1      51.029  21.402  35.774  1.00  0.00     0.188 C 
ENDROOT
BRANCH   1   2
ATOM      2  C   UNL A   1      50.087  20.966  36.908  1.00  0.00     0.188 C 
BRANCH   2   3
ATOM      3  O   UNL A   1      50.606  20.353  38.078  1.00  0.00    -0.376 OA
BRANCH   3   4
ATOM      4  C   UNL A   1      50.033  19.168  38.614  1.00  0.00     0.202 C 
BRANCH   4   5
ATOM      5  C   UNL A   1      49.891  18.879  40.122  1.00  0.00     0.261 C 
BRANCH   5   6
ATOM      6  O   UNL A   1      48.628  19.207  40.718  1.00  0.00    -0.462 OA
BRANCH   6   7
ATOM      7  C   UNL A   1      48.075  20.396  40.392  1.00  0.00     0.330 C 
ATOM      8  O   UNL A   1      48.665  21.470  40.475  1.00  0.00    -0.250 OA
BRANCH   7   9
ATOM      9  C   UNL A   1      46.655  20.278  39.840  1.00  0.00     0.213 C 
ATOM     10  C   UNL A   1      45.800  19.132  40.408  1.00  0.00     0.046 C 
BRANCH   9  11
ATOM     11  N   UNL A   1      46.679  20.389  38.378  1.00  0.00    -0.258 N 
ATOM     12  C   UNL A   1      46.691  19.340  37.498  1.00  0.00     0.110 A 
ATOM     13  N   UNL A   1      46.682  21.588  37.748  1.00  0.00    -0.167 NA
ATOM     14  C   UNL A   1      46.651  19.886  36.242  1.00  0.00     0.056 A 
ATOM     15  C   UNL A   1      46.651  21.295  36.431  1.00  0.00     0.150 A 
BRANCH  15  16
ATOM     16  C   UNL A   1      46.515  22.282  35.338  1.00  0.00     0.274 C 
ATOM     17  O   UNL A   1      47.454  22.451  34.554  1.00  0.00    -0.267 OA
ATOM     18  N   UNL A   1      45.323  23.012  35.183  1.00  0.00    -0.326 N 
ATOM     19  C   UNL A   1      45.220  23.795  33.955  1.00  0.00     0.181 C 
ATOM     20  C   UNL A   1      44.552  23.480  36.337  1.00  0.00     0.181 C 
ATOM     21  C   UNL A   1      43.846  24.438  33.692  1.00  0.00     0.284 C 
ATOM     22  C   UNL A   1      43.184  24.092  35.982  1.00  0.00     0.284 C 
ATOM     23  N   UNL A   1      43.162  25.023  34.849  1.00  0.00    -0.328 N 
ATOM     24  H   UNL A   1      42.184  25.129  34.578  1.00  0.00     0.348 HD
BRANCH  23  25
ATOM     25  C   UNL A   1      43.449  26.428  35.149  1.00  0.00     0.299 C 
BRANCH  25  26
ATOM     26  C   UNL A   1      42.316  27.417  35.002  1.00  0.00     0.009 A 
ATOM     27  C   UNL A   1      42.101  28.416  35.965  1.00  0.00     0.010 A 
ATOM     28  C   UNL A   1      41.488  27.387  33.873  1.00  0.00     0.048 A 
ATOM     29  C   UNL A   1      41.158  29.425  35.747  1.00  0.00     0.004 A 
ATOM     30  C   UNL A   1      40.569  28.408  33.653  1.00  0.00     0.123 A 
ATOM     31  C   UNL A   1      40.411  29.436  34.571  1.00  0.00     0.039 A 
ATOM     32  F   UNL A   1      39.856  28.417  32.520  1.00  0.00    -0.207 F 
ENDBRANCH  25  26
ENDBRANCH  23  25
ENDBRANCH  15  16
ENDBRANCH   9  11
ENDBRANCH   7   9
ENDBRANCH   6   7
ENDBRANCH   5   6
ENDBRANCH   4   5
ENDBRANCH   3   4
ENDBRANCH   2   3
ENDBRANCH   1   2
BRANCH   1  33
ATOM     33  O   UNL A   1      52.095  22.235  36.189  1.00  0.00    -0.377 OA
BRANCH  33  34
ATOM     34  C   UNL A   1      51.830  23.165  37.230  1.00  0.00     0.188 C 
BRANCH  34  35
ATOM     35  C   UNL A   1      51.310  24.571  36.865  1.00  0.00     0.188 C 
BRANCH  35  36
ATOM     36  O   UNL A   1      49.894  24.688  36.846  1.00  0.00    -0.376 OA
BRANCH  36  37
ATOM     37  C   UNL A   1      49.321  25.983  36.741  1.00  0.00     0.202 C 
BRANCH  37  38
ATOM     38  C   UNL A   1      50.090  27.156  37.375  1.00  0.00     0.261 C 
BRANCH  38  39
ATOM     39  O   UNL A   1      49.314  28.102  38.127  1.00  0.00    -0.460 OA
BRANCH  39  40
ATOM     40  C   UNL A   1      49.291  29.385  37.698  1.00  0.00     0.338 C 
ATOM     41  O   UNL A   1      50.136  30.232  37.884  1.00  0.00    -0.246 OA
BRANCH  40  42
ATOM     42  C   UNL A   1      48.141  29.526  36.775  1.00  0.00     0.060 A 
ATOM     43  C   UNL A   1      48.275  30.350  35.650  1.00  0.00     0.016 A 
ATOM     44  C   UNL A   1      46.941  28.853  37.018  1.00  0.00     0.016 A 
ATOM     45  C   UNL A   1      47.194  30.540  34.788  1.00  0.00     0.010 A 
ATOM     46  C   UNL A   1      45.853  29.062  36.166  1.00  0.00     0.010 A 
ATOM     47  C   UNL A   1      45.962  29.935  35.069  1.00  0.00    -0.014 A 
BRANCH  47  48
ATOM     48  C   UNL A   1      44.744  30.375  34.345  1.00  0.00     0.031 A 
ATOM     49  C   UNL A   1      43.887  31.441  34.976  1.00  0.00     0.074 A 
ATOM     50  C   UNL A   1      44.412  29.864  33.146  1.00  0.00     0.049 A 
ATOM     51  N   UNL A   1      42.756  31.949  34.563  1.00  0.00    -0.248 NA
ATOM     52  C   UNL A   1      44.373  32.006  36.246  1.00  0.00     0.031 C 
ATOM     53  C   UNL A   1      45.183  28.867  32.407  1.00  0.00     0.029 A 
ATOM     54  N   UNL A   1      43.326  30.114  32.344  1.00  0.00    -0.354 N 
ATOM     55  C   UNL A   1      42.390  32.886  35.525  1.00  0.00     0.074 A 
ATOM     56  C   UNL A   1      43.402  32.850  36.558  1.00  0.00     0.031 C 
ATOM     57  C   UNL A   1      44.539  28.580  31.262  1.00  0.00     0.029 A 
ATOM     58  C   UNL A   1      43.292  29.343  31.206  1.00  0.00     0.049 A 
ATOM     59  H   UNL A   1      42.637  30.781  32.562  1.00  0.00     0.167 HD
ATOM     60  C   UNL A   1      41.314  33.706  35.544  1.00  0.00     0.031 A 
ATOM     61  C   UNL A   1      42.351  29.245  30.244  1.00  0.00     0.031 A 
ATOM     62  C   UNL A   1      40.298  33.724  34.525  1.00  0.00     0.049 A 
ATOM     63  C   UNL A   1      41.115  30.105  30.329  1.00  0.00     0.074 A 
ATOM     64  C   UNL A   1      39.170  34.522  34.450  1.00  0.00     0.029 A 
ATOM     65  N   UNL A   1      40.282  32.902  33.408  1.00  0.00    -0.354 N 
ATOM     66  N   UNL A   1      40.791  30.999  31.235  1.00  0.00    -0.248 NA
ATOM     67  C   UNL A   1      40.121  29.951  29.258  1.00  0.00     0.031 C 
ATOM     68  C   UNL A   1      38.437  34.135  33.323  1.00  0.00     0.029 A 
ATOM     69  C   UNL A   1      39.148  33.152  32.654  1.00  0.00     0.049 A 
ATOM     70  H   UNL A   1      40.975  32.239  33.185  1.00  0.00     0.167 HD
ATOM     71  C   UNL A   1      39.573  31.534  30.824  1.00  0.00     0.074 A 
ATOM     72  C   UNL A   1      39.226  30.874  29.582  1.00  0.00     0.031 C 
ATOM     73  C   UNL A   1      38.813  32.487  31.418  1.00  0.00     0.031 A 
BRANCH  60  74
ATOM     74  C   UNL A   1      41.161  34.624  36.730  1.00  0.00    -0.014 A 
ATOM     75  C   UNL A   1      41.706  35.922  36.726  1.00  0.00     0.010 A 
ATOM     76  C   UNL A   1      40.434  34.192  37.854  1.00  0.00     0.010 A 
ATOM     77  C   UNL A   1      41.562  36.752  37.841  1.00  0.00     0.020 A 
ATOM     78  C   UNL A   1      40.260  35.032  38.958  1.00  0.00     0.020 A 
ATOM     79  C   UNL A   1      40.841  36.301  38.951  1.00  0.00     0.054 A 
BRANCH  79  80
ATOM     80  S   UNL A   1      40.654  37.409  40.375  1.00  0.00     0.124 S 
ATOM     81  O   UNL A   1      39.886  38.510  39.801  1.00  0.00    -0.237 OA
ATOM     82  O   UNL A   1      39.937  36.574  41.335  1.00  0.00    -0.237 OA
ATOM     83  O   UNL A   1      42.030  37.735  40.743  1.00  0.00    -0.744 OA
ENDBRANCH  79  80
ENDBRANCH  60  74
BRANCH  61  84
ATOM     84  C   UNL A   1      42.526  28.272  29.128  1.00  0.00    -0.014 A 
ATOM     85  C   UNL A   1      42.009  26.968  29.216  1.00  0.00     0.010 A 
ATOM     86  C   UNL A   1      43.219  28.653  27.963  1.00  0.00     0.010 A 
ATOM     87  C   UNL A   1      42.192  26.060  28.167  1.00  0.00     0.020 A 
ATOM     88  C   UNL A   1      43.377  27.759  26.900  1.00  0.00     0.020 A 
ATOM     89  C   UNL A   1      42.870  26.465  27.014  1.00  0.00     0.054 A 
BRANCH  89  90
ATOM     90  S   UNL A   1      43.043  25.289  25.642  1.00  0.00     0.124 S 
ATOM     91  O   UNL A   1      43.101  24.010  26.343  1.00  0.00    -0.237 OA
ATOM     92  O   UNL A   1      41.828  25.532  24.867  1.00  0.00    -0.237 OA
ATOM     93  O   UNL A   1      44.282  25.704  24.989  1.00  0.00    -0.744 OA
ENDBRANCH  89  90
ENDBRANCH  61  84
BRANCH  73  94
ATOM     94  C   UNL A   1      37.546  32.913  30.718  1.00  0.00    -0.014 A 
ATOM     95  C   UNL A   1      36.312  32.297  30.990  1.00  0.00     0.010 A 
ATOM     96  C   UNL A   1      37.587  33.992  29.815  1.00  0.00     0.010 A 
ATOM     97  C   UNL A   1      35.149  32.732  30.348  1.00  0.00     0.020 A 
ATOM     98  C   UNL A   1      36.422  34.451  29.197  1.00  0.00     0.020 A 
ATOM     99  C   UNL A   1      35.210  33.808  29.457  1.00  0.00     0.054 A 
BRANCH  99 100
ATOM    100  S   UNL A   1      33.679  34.379  28.672  1.00  0.00     0.124 S 
ATOM    101  O   UNL A   1      34.166  35.432  27.784  1.00  0.00    -0.237 OA
ATOM    102  O   UNL A   1      33.191  33.174  28.007  1.00  0.00    -0.237 OA
ATOM    103  O   UNL A   1      32.863  34.839  29.794  1.00  0.00    -0.744 OA
ENDBRANCH  99 100
ENDBRANCH  73  94
ENDBRANCH  47  48
ENDBRANCH  40  42
ENDBRANCH  39  40
ENDBRANCH  38  39
ENDBRANCH  37  38
ENDBRANCH  36  37
ENDBRANCH  35  36
ENDBRANCH  34  35
ENDBRANCH  33  34
ENDBRANCH   1  33
TORSDOF 27
ENDMDL
MODEL 3
REMARK VINA RESULT:      -6.9      1.810      2.273
REMARK SMILES C[C@@H](C(=O)OCCOCCOCCOCCOC(=O)c1ccc(-c2c3nc(c(-c4ccc(S(=O)(=O)[O-])cc4)c4ccc([nH]4)c(-c4ccc(S(=O)(=O)[O-])cc4)c4nc(c(-c5ccc(S(=O)(=O)[O-])cc5)c5ccc2[nH]5)C=C4)C=C3)cc1)n1ccc(C(=O)N2CC[NH+](Cc3cccc(F)c3)CC2)n1
REMARK SMILES IDX 10 1 9 2 8 3 7 4 6 5 5 6 3 7 4 8 2 9 1 10 80 11 81 12 100 13
REMARK SMILES IDX 82 14 83 15 84 16 85 17 86 18 87 19 99 20 88 21 98 22 89 23
REMARK SMILES IDX 90 25 91 26 92 27 97 28 93 29 95 30 94 31 96 32 11 33 12 34
REMARK SMILES IDX 13 35 14 36 15 37 16 38 17 39 18 40 19 41 20 42 21 43 79 44
REMARK SMILES IDX 22 45 78 46 23 47 24 48 25 49 72 50 26 51 77 52 71 53 73 54
REMARK SMILES IDX 27 55 76 56 70 57 69 58 28 60 58 61 39 62 57 63 40 64 43 65
REMARK SMILES IDX 56 66 74 67 41 68 42 69 55 71 75 72 44 73 29 74 30 75 38 76
REMARK SMILES IDX 31 77 37 78 32 79 33 80 34 81 35 82 36 83 59 84 60 85 68 86
REMARK SMILES IDX 61 87 67 88 62 89 63 90 64 91 65 92 66 93 45 94 46 95 54 96
REMARK SMILES IDX 47 97 53 98 48 99 49 100 50 101 51 102 52 103
REMARK H PARENT 89 24 73 59 43 70
REMARK Flexibility Score: inf
ROOT
ATOM      1  C   UNL A   1      39.274  23.739  27.427  1.00  0.00     0.188 C 
ENDROOT
BRANCH   1   2
ATOM      2  C   UNL A   1      38.269  24.356  26.441  1.00  0.00     0.188 C 
BRANCH   2   3
ATOM      3  O   UNL A   1      37.705  23.569  25.404  1.00  0.00    -0.376 OA
BRANCH   3   4
ATOM      4  C   UNL A   1      37.349  22.209  25.613  1.00  0.00     0.202 C 
BRANCH   4   5
ATOM      5  C   UNL A   1      35.921  21.652  25.448  1.00  0.00     0.261 C 
BRANCH   5   6
ATOM      6  O   UNL A   1      34.873  22.618  25.291  1.00  0.00    -0.462 OA
BRANCH   6   7
ATOM      7  C   UNL A   1      34.264  22.686  24.085  1.00  0.00     0.330 C 
ATOM      8  O   UNL A   1      34.850  22.949  23.038  1.00  0.00    -0.250 OA
BRANCH   7   9
ATOM      9  C   UNL A   1      32.778  22.337  24.131  1.00  0.00     0.213 C 
ATOM     10  C   UNL A   1      32.216  21.603  22.901  1.00  0.00     0.046 C 
BRANCH   9  11
ATOM     11  N   UNL A   1      32.008  23.499  24.584  1.00  0.00    -0.258 N 
ATOM     12  C   UNL A   1      31.039  23.487  25.553  1.00  0.00     0.110 A 
ATOM     13  N   UNL A   1      32.203  24.736  24.070  1.00  0.00    -0.167 NA
ATOM     14  C   UNL A   1      30.624  24.783  25.704  1.00  0.00     0.056 A 
ATOM     15  C   UNL A   1      31.368  25.541  24.759  1.00  0.00     0.150 A 
BRANCH  15  16
ATOM     16  C   UNL A   1      31.310  27.015  24.642  1.00  0.00     0.274 C 
ATOM     17  O   UNL A   1      30.782  27.524  23.649  1.00  0.00    -0.267 OA
ATOM     18  N   UNL A   1      31.837  27.830  25.660  1.00  0.00    -0.326 N 
ATOM     19  C   UNL A   1      31.538  29.254  25.544  1.00  0.00     0.181 C 
ATOM     20  C   UNL A   1      33.056  27.464  26.385  1.00  0.00     0.181 C 
ATOM     21  C   UNL A   1      31.946  30.118  26.751  1.00  0.00     0.284 C 
ATOM     22  C   UNL A   1      33.378  28.370  27.587  1.00  0.00     0.284 C 
ATOM     23  N   UNL A   1      33.241  29.814  27.368  1.00  0.00    -0.328 N 
ATOM     24  H   UNL A   1      33.225  30.249  28.290  1.00  0.00     0.348 HD
BRANCH  23  25
ATOM     25  C   UNL A   1      34.413  30.510  26.830  1.00  0.00     0.299 C 
BRANCH  25  26
ATOM     26  C   UNL A   1      35.313  31.220  27.812  1.00  0.00     0.009 A 
ATOM     27  C   UNL A   1      36.358  30.539  28.456  1.00  0.00     0.010 A 
ATOM     28  C   UNL A   1      35.153  32.590  28.062  1.00  0.00     0.048 A 
ATOM     29  C   UNL A   1      37.287  31.233  29.238  1.00  0.00     0.004 A 
ATOM     30  C   UNL A   1      36.096  33.276  28.821  1.00  0.00     0.123 A 
ATOM     31  C   UNL A   1      37.171  32.612  29.396  1.00  0.00     0.039 A 
ATOM     32  F   UNL A   1      35.982  34.602  28.968  1.00  0.00    -0.207 F 
ENDBRANCH  25  26
ENDBRANCH  23  25
ENDBRANCH  15  16
ENDBRANCH   9  11
ENDBRANCH   7   9
ENDBRANCH   6   7
ENDBRANCH   5   6
ENDBRANCH   4   5
ENDBRANCH   3   4
ENDBRANCH   2   3
ENDBRANCH   1   2
BRANCH   1  33
ATOM     33  O   UNL A   1      39.954  24.681  28.234  1.00  0.00    -0.377 OA
BRANCH  33  34
ATOM     34  C   UNL A   1      40.625  25.745  27.571  1.00  0.00     0.188 C 
BRANCH  34  35
ATOM     35  C   UNL A   1      42.103  26.026  27.911  1.00  0.00     0.188 C 
BRANCH  35  36
ATOM     36  O   UNL A   1      42.934  24.873  27.921  1.00  0.00    -0.376 OA
BRANCH  36  37
ATOM     37  C   UNL A   1      44.227  24.972  28.500  1.00  0.00     0.202 C 
BRANCH  37  38
ATOM     38  C   UNL A   1      44.481  24.207  29.811  1.00  0.00     0.261 C 
BRANCH  38  39
ATOM     39  O   UNL A   1      44.519  24.988  31.015  1.00  0.00    -0.460 OA
BRANCH  39  40
ATOM     40  C   UNL A   1      44.418  24.336  32.196  1.00  0.00     0.338 C 
ATOM     41  O   UNL A   1      44.503  23.142  32.380  1.00  0.00    -0.246 OA
BRANCH  40  42
ATOM     42  C   UNL A   1      44.392  25.357  33.270  1.00  0.00     0.060 A 
ATOM     43  C   UNL A   1      43.638  25.105  34.423  1.00  0.00     0.016 A 
ATOM     44  C   UNL A   1      45.104  26.552  33.139  1.00  0.00     0.016 A 
ATOM     45  C   UNL A   1      43.556  26.067  35.430  1.00  0.00     0.010 A 
ATOM     46  C   UNL A   1      45.003  27.523  34.138  1.00  0.00     0.010 A 
ATOM     47  C   UNL A   1      44.199  27.301  35.271  1.00  0.00    -0.014 A 
BRANCH  47  48
ATOM     48  C   UNL A   1      43.865  28.428  36.177  1.00  0.00     0.031 A 
ATOM     49  C   UNL A   1      44.669  28.588  37.440  1.00  0.00     0.074 A 
ATOM     50  C   UNL A   1      42.888  29.305  35.883  1.00  0.00     0.049 A 
ATOM     51  N   UNL A   1      44.533  29.458  38.407  1.00  0.00    -0.248 NA
ATOM     52  C   UNL A   1      45.774  27.636  37.639  1.00  0.00     0.031 C 
ATOM     53  C   UNL A   1      42.073  29.289  34.670  1.00  0.00     0.029 A 
ATOM     54  N   UNL A   1      42.414  30.379  36.595  1.00  0.00    -0.354 N 
ATOM     55  C   UNL A   1      45.527  29.154  39.331  1.00  0.00     0.074 A 
ATOM     56  C   UNL A   1      46.236  27.998  38.825  1.00  0.00     0.031 C 
ATOM     57  C   UNL A   1      41.188  30.301  34.727  1.00  0.00     0.029 A 
ATOM     58  C   UNL A   1      41.350  31.011  35.997  1.00  0.00     0.049 A 
ATOM     59  H   UNL A   1      42.800  30.670  37.452  1.00  0.00     0.167 HD
ATOM     60  C   UNL A   1      45.828  29.782  40.491  1.00  0.00     0.031 A 
ATOM     61  C   UNL A   1      40.577  32.027  36.435  1.00  0.00     0.031 A 
ATOM     62  C   UNL A   1      45.107  30.918  41.001  1.00  0.00     0.049 A 
ATOM     63  C   UNL A   1      40.874  32.657  37.772  1.00  0.00     0.074 A 
ATOM     64  C   UNL A   1      45.337  31.629  42.166  1.00  0.00     0.029 A 
ATOM     65  N   UNL A   1      44.013  31.504  40.383  1.00  0.00    -0.354 N 
ATOM     66  N   UNL A   1      41.829  32.370  38.627  1.00  0.00    -0.248 NA
ATOM     67  C   UNL A   1      39.996  33.754  38.201  1.00  0.00     0.031 C 
ATOM     68  C   UNL A   1      44.340  32.603  42.285  1.00  0.00     0.029 A 
ATOM     69  C   UNL A   1      43.537  32.549  41.157  1.00  0.00     0.049 A 
ATOM     70  H   UNL A   1      43.631  31.219  39.521  1.00  0.00     0.167 HD
ATOM     71  C   UNL A   1      41.683  33.272  39.678  1.00  0.00     0.074 A 
ATOM     72  C   UNL A   1      40.559  34.122  39.344  1.00  0.00     0.031 C 
ATOM     73  C   UNL A   1      42.415  33.388  40.813  1.00  0.00     0.031 A 
BRANCH  60  74
ATOM     74  C   UNL A   1      46.964  29.223  41.309  1.00  0.00    -0.014 A 
ATOM     75  C   UNL A   1      46.746  28.233  42.285  1.00  0.00     0.010 A 
ATOM     76  C   UNL A   1      48.276  29.674  41.076  1.00  0.00     0.010 A 
ATOM     77  C   UNL A   1      47.812  27.737  43.041  1.00  0.00     0.020 A 
ATOM     78  C   UNL A   1      49.350  29.156  41.806  1.00  0.00     0.020 A 
ATOM     79  C   UNL A   1      49.108  28.203  42.796  1.00  0.00     0.054 A 
BRANCH  79  80
ATOM     80  S   UNL A   1      50.474  27.526  43.779  1.00  0.00     0.124 S 
ATOM     81  O   UNL A   1      49.891  26.289  44.293  1.00  0.00    -0.237 OA
ATOM     82  O   UNL A   1      51.529  27.357  42.782  1.00  0.00    -0.237 OA
ATOM     83  O   UNL A   1      50.727  28.559  44.781  1.00  0.00    -0.744 OA
ENDBRANCH  79  80
ENDBRANCH  60  74
BRANCH  61  84
ATOM     84  C   UNL A   1      39.427  32.496  35.611  1.00  0.00    -0.014 A 
ATOM     85  C   UNL A   1      39.633  33.208  34.417  1.00  0.00     0.010 A 
ATOM     86  C   UNL A   1      38.107  32.229  36.026  1.00  0.00     0.010 A 
ATOM     87  C   UNL A   1      38.544  33.655  33.660  1.00  0.00     0.020 A 
ATOM     88  C   UNL A   1      37.018  32.647  35.256  1.00  0.00     0.020 A 
ATOM     89  C   UNL A   1      37.244  33.365  34.082  1.00  0.00     0.054 A 
BRANCH  89  90
ATOM     90  S   UNL A   1      35.850  33.903  33.053  1.00  0.00     0.124 S 
ATOM     91  O   UNL A   1      36.473  34.904  32.193  1.00  0.00    -0.237 OA
ATOM     92  O   UNL A   1      35.450  32.661  32.394  1.00  0.00    -0.237 OA
ATOM     93  O   UNL A   1      34.887  34.420  34.023  1.00  0.00    -0.744 OA
ENDBRANCH  89  90
ENDBRANCH  61  84
BRANCH  73  94
ATOM     94  C   UNL A   1      42.058  34.501  41.768  1.00  0.00    -0.014 A 
ATOM     95  C   UNL A   1      42.851  35.656  41.883  1.00  0.00     0.010 A 
ATOM     96  C   UNL A   1      40.871  34.410  42.519  1.00  0.00     0.010 A 
ATOM     97  C   UNL A   1      42.480  36.684  42.754  1.00  0.00     0.020 A 
ATOM     98  C   UNL A   1      40.479  35.450  43.366  1.00  0.00     0.020 A 
ATOM     99  C   UNL A   1      41.295  36.576  43.489  1.00  0.00     0.054 A 
BRANCH  99 100
ATOM    100  S   UNL A   1      40.816  37.944  44.578  1.00  0.00     0.124 S 
ATOM    101  O   UNL A   1      39.359  37.835  44.581  1.00  0.00    -0.237 OA
ATOM    102  O   UNL A   1      41.474  37.598  45.836  1.00  0.00    -0.237 OA
ATOM    103  O   UNL A   1      41.350  39.127  43.907  1.00  0.00    -0.744 OA
ENDBRANCH  99 100
ENDBRANCH  73  94
ENDBRANCH  47  48
ENDBRANCH  40  42
ENDBRANCH  39  40
ENDBRANCH  38  39
ENDBRANCH  37  38
ENDBRANCH  36  37
ENDBRANCH  35  36
ENDBRANCH  34  35
ENDBRANCH  33  34
ENDBRANCH   1  33
TORSDOF 27
ENDMDL
