MODEL 1
REMARK VINA RESULT:      -9.1      0.000      0.000
REMARK SMILES O=C(C[NH+]1CC(c2nc(-c3cccs3)no2)C1)OCCOCCOCCOCCOC(=O)c1ccc(-c2c3nc(c(-c4ccc(S(=O)(=O)[O-])cc4)c4ccc([nH]4)c(-c4ccc(S(=O)(=O)[O-])cc4)c4nc(c(-c5ccc(S(=O)(=O)[O-])cc5)c5ccc2[nH]5)C=C4)C=C3)cc1
REMARK SMILES IDX 24 1 23 2 22 3 21 4 20 5 19 6 18 7 2 8 1 9 3 10 4 11 5 12
REMARK SMILES IDX 17 13 6 15 7 16 8 17 16 18 9 19 15 20 10 21 11 22 14 23
REMARK SMILES IDX 12 24 13 25 25 26 26 27 27 28 28 29 29 30 30 31 31 32 32 33
REMARK SMILES IDX 33 34 34 35 92 36 35 37 91 38 36 39 37 40 38 41 85 42 39 43
REMARK SMILES IDX 90 44 84 45 86 46 40 47 89 48 83 49 82 50 41 52 71 53 52 54
REMARK SMILES IDX 70 55 53 56 56 57 69 58 87 59 54 60 55 61 68 63 88 64 57 65
REMARK SMILES IDX 42 66 43 67 51 68 44 69 50 70 45 71 46 72 47 73 48 74 49 75
REMARK SMILES IDX 72 76 73 77 81 78 74 79 80 80 75 81 76 82 77 83 78 84 79 85
REMARK SMILES IDX 58 86 59 87 67 88 60 89 66 90 61 91 62 92 63 93 64 94 65 95
REMARK H PARENT 4 14 86 51 56 62
REMARK Flexibility Score: inf
ROOT
ATOM      1  O   UNL A   1      39.953  22.258  26.062  1.00  0.00    -0.377 OA
ENDROOT
BRANCH   1   2
ATOM      2  C   UNL A   1      38.799  21.489  25.780  1.00  0.00     0.188 C 
BRANCH   2   3
ATOM      3  C   UNL A   1      37.485  22.234  25.526  1.00  0.00     0.188 C 
BRANCH   3   4
ATOM      4  O   UNL A   1      36.503  22.364  26.534  1.00  0.00    -0.376 OA
BRANCH   4   5
ATOM      5  C   UNL A   1      35.276  23.062  26.460  1.00  0.00     0.202 C 
BRANCH   5   6
ATOM      6  C   UNL A   1      34.043  22.715  27.290  1.00  0.00     0.261 C 
BRANCH   6   7
ATOM      7  O   UNL A   1      32.959  22.030  26.649  1.00  0.00    -0.459 OA
BRANCH   7   8
ATOM      8  C   UNL A   1      32.403  22.331  25.454  1.00  0.00     0.361 C 
ATOM      9  O   UNL A   1      33.007  22.042  24.421  1.00  0.00    -0.245 OA
BRANCH   8  10
ATOM     10  C   UNL A   1      31.158  23.204  25.392  1.00  0.00     0.386 C 
BRANCH  10  11
ATOM     11  N   UNL A   1      31.346  24.495  26.049  1.00  0.00    -0.324 N 
ATOM     12  C   UNL A   1      32.313  25.322  25.293  1.00  0.00     0.282 C 
ATOM     13  C   UNL A   1      30.269  25.427  25.689  1.00  0.00     0.282 C 
ATOM     14  H   UNL A   1      31.515  24.244  27.023  1.00  0.00     0.348 HD
ATOM     15  C   UNL A   1      31.365  26.515  25.503  1.00  0.00     0.188 C 
BRANCH  15  16
ATOM     16  C   UNL A   1      31.060  27.338  24.287  1.00  0.00     0.241 A 
ATOM     17  N   UNL A   1      30.780  28.617  24.363  1.00  0.00    -0.190 NA
ATOM     18  O   UNL A   1      30.822  26.808  23.051  1.00  0.00    -0.338 OA
ATOM     19  C   UNL A   1      30.204  28.856  23.140  1.00  0.00     0.212 A 
ATOM     20  N   UNL A   1      30.270  27.828  22.283  1.00  0.00    -0.056 NA
BRANCH  19  21
ATOM     21  C   UNL A   1      29.448  30.109  22.881  1.00  0.00     0.075 A 
ATOM     22  C   UNL A   1      29.237  31.071  23.847  1.00  0.00     0.024 A 
ATOM     23  S   UNL A   1      28.672  30.487  21.412  1.00  0.00    -0.140 S 
ATOM     24  C   UNL A   1      28.402  32.123  23.375  1.00  0.00     0.012 A 
ATOM     25  C   UNL A   1      28.009  31.920  22.071  1.00  0.00     0.065 A 
ENDBRANCH  19  21
ENDBRANCH  15  16
ENDBRANCH  10  11
ENDBRANCH   8  10
ENDBRANCH   7   8
ENDBRANCH   6   7
ENDBRANCH   5   6
ENDBRANCH   4   5
ENDBRANCH   3   4
ENDBRANCH   2   3
ENDBRANCH   1   2
BRANCH   1  26
ATOM     26  C   UNL A   1      40.800  21.711  27.051  1.00  0.00     0.188 C 
BRANCH  26  27
ATOM     27  C   UNL A   1      42.170  21.268  26.501  1.00  0.00     0.188 C 
BRANCH  27  28
ATOM     28  O   UNL A   1      42.645  21.771  25.267  1.00  0.00    -0.376 OA
BRANCH  28  29
ATOM     29  C   UNL A   1      42.945  23.144  25.076  1.00  0.00     0.202 C 
BRANCH  29  30
ATOM     30  C   UNL A   1      43.319  24.160  26.177  1.00  0.00     0.261 C 
BRANCH  30  31
ATOM     31  O   UNL A   1      43.559  25.514  25.803  1.00  0.00    -0.460 OA
BRANCH  31  32
ATOM     32  C   UNL A   1      42.491  26.339  25.836  1.00  0.00     0.338 C 
ATOM     33  O   UNL A   1      41.600  26.426  25.004  1.00  0.00    -0.246 OA
BRANCH  32  34
ATOM     34  C   UNL A   1      42.448  26.959  27.176  1.00  0.00     0.060 A 
ATOM     35  C   UNL A   1      41.663  26.349  28.165  1.00  0.00     0.016 A 
ATOM     36  C   UNL A   1      43.204  28.096  27.470  1.00  0.00     0.016 A 
ATOM     37  C   UNL A   1      41.616  26.884  29.448  1.00  0.00     0.010 A 
ATOM     38  C   UNL A   1      43.120  28.660  28.744  1.00  0.00     0.010 A 
ATOM     39  C   UNL A   1      42.299  28.073  29.725  1.00  0.00    -0.014 A 
BRANCH  39  40
ATOM     40  C   UNL A   1      41.948  28.833  30.945  1.00  0.00     0.031 A 
ATOM     41  C   UNL A   1      40.735  29.721  30.884  1.00  0.00     0.074 A 
ATOM     42  C   UNL A   1      42.659  28.719  32.080  1.00  0.00     0.049 A 
ATOM     43  N   UNL A   1      40.247  30.521  31.793  1.00  0.00    -0.248 NA
ATOM     44  C   UNL A   1      39.973  29.703  29.622  1.00  0.00     0.031 C 
ATOM     45  C   UNL A   1      43.813  27.844  32.273  1.00  0.00     0.029 A 
ATOM     46  N   UNL A   1      42.510  29.357  33.285  1.00  0.00    -0.354 N 
ATOM     47  C   UNL A   1      39.132  31.112  31.211  1.00  0.00     0.074 A 
ATOM     48  C   UNL A   1      39.029  30.598  29.863  1.00  0.00     0.031 C 
ATOM     49  C   UNL A   1      44.280  28.012  33.524  1.00  0.00     0.029 A 
ATOM     50  C   UNL A   1      43.481  29.033  34.202  1.00  0.00     0.049 A 
ATOM     51  H   UNL A   1      41.778  29.986  33.475  1.00  0.00     0.167 HD
ATOM     52  C   UNL A   1      38.269  32.003  31.751  1.00  0.00     0.031 A 
ATOM     53  C   UNL A   1      43.711  29.527  35.435  1.00  0.00     0.031 A 
ATOM     54  C   UNL A   1      38.392  32.524  33.084  1.00  0.00     0.049 A 
ATOM     55  C   UNL A   1      42.787  30.585  35.986  1.00  0.00     0.074 A 
ATOM     56  C   UNL A   1      37.567  33.426  33.733  1.00  0.00     0.029 A 
ATOM     57  N   UNL A   1      39.411  32.203  33.968  1.00  0.00    -0.354 N 
ATOM     58  N   UNL A   1      41.722  31.120  35.434  1.00  0.00    -0.248 NA
ATOM     59  C   UNL A   1      43.092  31.102  37.327  1.00  0.00     0.031 C 
ATOM     60  C   UNL A   1      38.126  33.701  34.984  1.00  0.00     0.029 A 
ATOM     61  C   UNL A   1      39.254  32.912  35.146  1.00  0.00     0.049 A 
ATOM     62  H   UNL A   1      40.137  31.564  33.785  1.00  0.00     0.167 HD
ATOM     63  C   UNL A   1      41.213  32.012  36.375  1.00  0.00     0.074 A 
ATOM     64  C   UNL A   1      42.079  31.933  37.534  1.00  0.00     0.031 C 
ATOM     65  C   UNL A   1      40.126  32.819  36.292  1.00  0.00     0.031 A 
BRANCH  52  66
ATOM     66  C   UNL A   1      37.150  32.505  30.876  1.00  0.00    -0.014 A 
ATOM     67  C   UNL A   1      37.374  33.477  29.884  1.00  0.00     0.010 A 
ATOM     68  C   UNL A   1      35.857  31.975  31.036  1.00  0.00     0.010 A 
ATOM     69  C   UNL A   1      36.317  33.935  29.093  1.00  0.00     0.020 A 
ATOM     70  C   UNL A   1      34.805  32.406  30.225  1.00  0.00     0.020 A 
ATOM     71  C   UNL A   1      35.038  33.395  29.269  1.00  0.00     0.054 A 
BRANCH  71  72
ATOM     72  S   UNL A   1      33.692  33.989  28.209  1.00  0.00     0.124 S 
ATOM     73  O   UNL A   1      33.238  32.753  27.577  1.00  0.00    -0.237 OA
ATOM     74  O   UNL A   1      32.764  34.577  29.173  1.00  0.00    -0.237 OA
ATOM     75  O   UNL A   1      34.345  34.942  27.316  1.00  0.00    -0.744 OA
ENDBRANCH  71  72
ENDBRANCH  52  66
BRANCH  53  76
ATOM     76  C   UNL A   1      44.879  29.048  36.226  1.00  0.00    -0.014 A 
ATOM     77  C   UNL A   1      46.192  29.236  35.761  1.00  0.00     0.010 A 
ATOM     78  C   UNL A   1      44.681  28.392  37.456  1.00  0.00     0.010 A 
ATOM     79  C   UNL A   1      47.281  28.766  36.501  1.00  0.00     0.020 A 
ATOM     80  C   UNL A   1      45.768  27.948  38.214  1.00  0.00     0.020 A 
ATOM     81  C   UNL A   1      47.062  28.129  37.726  1.00  0.00     0.054 A 
BRANCH  81  82
ATOM     82  S   UNL A   1      48.495  27.579  38.693  1.00  0.00     0.124 S 
ATOM     83  O   UNL A   1      48.458  28.487  39.835  1.00  0.00    -0.237 OA
ATOM     84  O   UNL A   1      48.163  26.186  38.978  1.00  0.00    -0.237 OA
ATOM     85  O   UNL A   1      49.619  27.768  37.778  1.00  0.00    -0.744 OA
ENDBRANCH  81  82
ENDBRANCH  53  76
BRANCH  65  86
ATOM     86  C   UNL A   1      39.777  33.653  37.498  1.00  0.00    -0.014 A 
ATOM     87  C   UNL A   1      39.003  33.135  38.551  1.00  0.00     0.010 A 
ATOM     88  C   UNL A   1      40.296  34.956  37.607  1.00  0.00     0.010 A 
ATOM     89  C   UNL A   1      38.727  33.918  39.675  1.00  0.00     0.020 A 
ATOM     90  C   UNL A   1      40.051  35.729  38.745  1.00  0.00     0.020 A 
ATOM     91  C   UNL A   1      39.256  35.209  39.767  1.00  0.00     0.054 A 
BRANCH  91  92
ATOM     92  S   UNL A   1      38.923  36.186  41.259  1.00  0.00     0.124 S 
ATOM     93  O   UNL A   1      37.801  35.463  41.851  1.00  0.00    -0.237 OA
ATOM     94  O   UNL A   1      40.185  36.093  41.988  1.00  0.00    -0.237 OA
ATOM     95  O   UNL A   1      38.604  37.514  40.741  1.00  0.00    -0.744 OA
ENDBRANCH  91  92
ENDBRANCH  65  86
ENDBRANCH  39  40
ENDBRANCH  32  34
ENDBRANCH  31  32
ENDBRANCH  30  31
ENDBRANCH  29  30
ENDBRANCH  28  29
ENDBRANCH  27  28
ENDBRANCH  26  27
ENDBRANCH   1  26
TORSDOF 26
ENDMDL
MODEL 2
REMARK VINA RESULT:      -9.0      3.741      9.230
REMARK SMILES O=C(C[NH+]1CC(c2nc(-c3cccs3)no2)C1)OCCOCCOCCOCCOC(=O)c1ccc(-c2c3nc(c(-c4ccc(S(=O)(=O)[O-])cc4)c4ccc([nH]4)c(-c4ccc(S(=O)(=O)[O-])cc4)c4nc(c(-c5ccc(S(=O)(=O)[O-])cc5)c5ccc2[nH]5)C=C4)C=C3)cc1
REMARK SMILES IDX 24 1 23 2 22 3 21 4 20 5 19 6 18 7 2 8 1 9 3 10 4 11 5 12
REMARK SMILES IDX 17 13 6 15 7 16 8 17 16 18 9 19 15 20 10 21 11 22 14 23
REMARK SMILES IDX 12 24 13 25 25 26 26 27 27 28 28 29 29 30 30 31 31 32 32 33
REMARK SMILES IDX 33 34 34 35 92 36 35 37 91 38 36 39 37 40 38 41 85 42 39 43
REMARK SMILES IDX 90 44 84 45 86 46 40 47 89 48 83 49 82 50 41 52 71 53 52 54
REMARK SMILES IDX 70 55 53 56 56 57 69 58 87 59 54 60 55 61 68 63 88 64 57 65
REMARK SMILES IDX 42 66 43 67 51 68 44 69 50 70 45 71 46 72 47 73 48 74 49 75
REMARK SMILES IDX 72 76 73 77 81 78 74 79 80 80 75 81 76 82 77 83 78 84 79 85
REMARK SMILES IDX 58 86 59 87 67 88 60 89 66 90 61 91 62 92 63 93 64 94 65 95
REMARK H PARENT 4 14 86 51 56 62
REMARK Flexibility Score: inf
ROOT
ATOM      1  O   UNL A   1      34.158  25.127  24.717  1.00  0.00    -0.377 OA
ENDROOT
BRANCH   1   2
ATOM      2  C   UNL A   1      35.046  24.226  25.353  1.00  0.00     0.188 C 
BRANCH   2   3
ATOM      3  C   UNL A   1      35.802  23.225  24.476  1.00  0.00     0.188 C 
BRANCH   3   4
ATOM      4  O   UNL A   1      35.346  21.898  24.307  1.00  0.00    -0.376 OA
BRANCH   4   5
ATOM      5  C   UNL A   1      34.332  21.233  25.033  1.00  0.00     0.202 C 
BRANCH   5   6
ATOM      6  C   UNL A   1      33.045  20.697  24.410  1.00  0.00     0.261 C 
BRANCH   6   7
ATOM      7  O   UNL A   1      31.794  21.054  25.013  1.00  0.00    -0.459 OA
BRANCH   7   8
ATOM      8  C   UNL A   1      31.489  22.226  25.613  1.00  0.00     0.361 C 
ATOM      9  O   UNL A   1      31.780  22.388  26.799  1.00  0.00    -0.245 OA
BRANCH   8  10
ATOM     10  C   UNL A   1      30.610  23.242  24.897  1.00  0.00     0.386 C 
BRANCH  10  11
ATOM     11  N   UNL A   1      31.376  24.366  24.364  1.00  0.00    -0.324 N 
ATOM     12  C   UNL A   1      30.886  24.729  23.015  1.00  0.00     0.282 C 
ATOM     13  C   UNL A   1      30.869  25.641  24.889  1.00  0.00     0.282 C 
ATOM     14  H   UNL A   1      32.345  24.088  24.516  1.00  0.00     0.348 HD
ATOM     15  C   UNL A   1      30.979  26.203  23.444  1.00  0.00     0.188 C 
BRANCH  15  16
ATOM     16  C   UNL A   1      29.784  27.057  23.139  1.00  0.00     0.241 A 
ATOM     17  N   UNL A   1      29.866  28.132  22.394  1.00  0.00    -0.190 NA
ATOM     18  O   UNL A   1      28.581  26.934  23.775  1.00  0.00    -0.338 OA
ATOM     19  C   UNL A   1      28.697  28.781  22.700  1.00  0.00     0.212 A 
ATOM     20  N   UNL A   1      27.852  28.076  23.465  1.00  0.00    -0.056 NA
BRANCH  19  21
ATOM     21  C   UNL A   1      28.489  30.204  22.322  1.00  0.00     0.075 A 
ATOM     22  C   UNL A   1      28.183  30.601  21.037  1.00  0.00     0.024 A 
ATOM     23  S   UNL A   1      28.683  31.526  23.379  1.00  0.00    -0.140 S 
ATOM     24  C   UNL A   1      28.135  32.019  20.917  1.00  0.00     0.012 A 
ATOM     25  C   UNL A   1      28.406  32.644  22.114  1.00  0.00     0.065 A 
ENDBRANCH  19  21
ENDBRANCH  15  16
ENDBRANCH  10  11
ENDBRANCH   8  10
ENDBRANCH   7   8
ENDBRANCH   6   7
ENDBRANCH   5   6
ENDBRANCH   4   5
ENDBRANCH   3   4
ENDBRANCH   2   3
ENDBRANCH   1   2
BRANCH   1  26
ATOM     26  C   UNL A   1      34.272  26.469  25.143  1.00  0.00     0.188 C 
BRANCH  26  27
ATOM     27  C   UNL A   1      34.020  27.487  24.013  1.00  0.00     0.188 C 
BRANCH  27  28
ATOM     28  O   UNL A   1      33.194  28.614  24.233  1.00  0.00    -0.376 OA
BRANCH  28  29
ATOM     29  C   UNL A   1      33.259  29.377  25.428  1.00  0.00     0.202 C 
BRANCH  29  30
ATOM     30  C   UNL A   1      33.268  28.821  26.869  1.00  0.00     0.261 C 
BRANCH  30  31
ATOM     31  O   UNL A   1      33.318  29.743  27.955  1.00  0.00    -0.460 OA
BRANCH  31  32
ATOM     32  C   UNL A   1      34.158  30.789  27.808  1.00  0.00     0.338 C 
ATOM     33  O   UNL A   1      33.855  31.961  27.647  1.00  0.00    -0.246 OA
BRANCH  32  34
ATOM     34  C   UNL A   1      35.522  30.312  28.116  1.00  0.00     0.060 A 
ATOM     35  C   UNL A   1      35.809  29.924  29.433  1.00  0.00     0.016 A 
ATOM     36  C   UNL A   1      36.491  30.203  27.116  1.00  0.00     0.016 A 
ATOM     37  C   UNL A   1      37.072  29.442  29.760  1.00  0.00     0.010 A 
ATOM     38  C   UNL A   1      37.773  29.765  27.454  1.00  0.00     0.010 A 
ATOM     39  C   UNL A   1      38.074  29.415  28.783  1.00  0.00    -0.014 A 
BRANCH  39  40
ATOM     40  C   UNL A   1      39.484  29.274  29.208  1.00  0.00     0.031 A 
ATOM     41  C   UNL A   1      40.175  27.973  28.900  1.00  0.00     0.074 A 
ATOM     42  C   UNL A   1      40.143  30.273  29.819  1.00  0.00     0.049 A 
ATOM     43  N   UNL A   1      41.383  27.584  29.206  1.00  0.00    -0.248 NA
ATOM     44  C   UNL A   1      39.391  26.978  28.146  1.00  0.00     0.031 C 
ATOM     45  C   UNL A   1      39.595  31.596  30.112  1.00  0.00     0.029 A 
ATOM     46  N   UNL A   1      41.424  30.320  30.309  1.00  0.00    -0.354 N 
ATOM     47  C   UNL A   1      41.500  26.296  28.696  1.00  0.00     0.074 A 
ATOM     48  C   UNL A   1      40.234  25.960  28.084  1.00  0.00     0.031 C 
ATOM     49  C   UNL A   1      40.533  32.323  30.748  1.00  0.00     0.029 A 
ATOM     50  C   UNL A   1      41.729  31.502  30.939  1.00  0.00     0.049 A 
ATOM     51  H   UNL A   1      42.063  29.577  30.218  1.00  0.00     0.167 HD
ATOM     52  C   UNL A   1      42.568  25.466  28.735  1.00  0.00     0.031 A 
ATOM     53  C   UNL A   1      42.836  31.865  31.616  1.00  0.00     0.031 A 
ATOM     54  C   UNL A   1      43.815  25.800  29.366  1.00  0.00     0.049 A 
ATOM     55  C   UNL A   1      43.984  30.891  31.722  1.00  0.00     0.074 A 
ATOM     56  C   UNL A   1      44.964  25.035  29.455  1.00  0.00     0.029 A 
ATOM     57  N   UNL A   1      44.072  26.991  30.027  1.00  0.00    -0.354 N 
ATOM     58  N   UNL A   1      44.093  29.684  31.216  1.00  0.00    -0.248 NA
ATOM     59  C   UNL A   1      45.161  31.330  32.484  1.00  0.00     0.031 C 
ATOM     60  C   UNL A   1      45.892  25.737  30.229  1.00  0.00     0.029 A 
ATOM     61  C   UNL A   1      45.351  26.970  30.556  1.00  0.00     0.049 A 
ATOM     62  H   UNL A   1      43.439  27.741  30.109  1.00  0.00     0.167 HD
ATOM     63  C   UNL A   1      45.361  29.234  31.573  1.00  0.00     0.074 A 
ATOM     64  C   UNL A   1      45.986  30.304  32.324  1.00  0.00     0.031 C 
ATOM     65  C   UNL A   1      45.958  28.047  31.300  1.00  0.00     0.031 A 
BRANCH  52  66
ATOM     66  C   UNL A   1      42.409  24.100  28.121  1.00  0.00    -0.014 A 
ATOM     67  C   UNL A   1      42.124  23.940  26.752  1.00  0.00     0.010 A 
ATOM     68  C   UNL A   1      42.573  22.958  28.924  1.00  0.00     0.010 A 
ATOM     69  C   UNL A   1      41.971  22.661  26.208  1.00  0.00     0.020 A 
ATOM     70  C   UNL A   1      42.453  21.679  28.377  1.00  0.00     0.020 A 
ATOM     71  C   UNL A   1      42.136  21.539  27.025  1.00  0.00     0.054 A 
BRANCH  71  72
ATOM     72  S   UNL A   1      41.959  19.892  26.286  1.00  0.00     0.124 S 
ATOM     73  O   UNL A   1      40.579  19.924  25.807  1.00  0.00    -0.237 OA
ATOM     74  O   UNL A   1      42.984  19.898  25.245  1.00  0.00    -0.237 OA
ATOM     75  O   UNL A   1      42.210  18.981  27.399  1.00  0.00    -0.744 OA
ENDBRANCH  71  72
ENDBRANCH  52  66
BRANCH  53  76
ATOM     76  C   UNL A   1      42.908  33.202  32.269  1.00  0.00    -0.014 A 
ATOM     77  C   UNL A   1      42.491  33.378  33.600  1.00  0.00     0.010 A 
ATOM     78  C   UNL A   1      43.394  34.314  31.555  1.00  0.00     0.010 A 
ATOM     79  C   UNL A   1      42.544  34.641  34.199  1.00  0.00     0.020 A 
ATOM     80  C   UNL A   1      43.478  35.572  32.159  1.00  0.00     0.020 A 
ATOM     81  C   UNL A   1      43.042  35.729  33.475  1.00  0.00     0.054 A 
BRANCH  81  82
ATOM     82  S   UNL A   1      43.153  37.345  34.294  1.00  0.00     0.124 S 
ATOM     83  O   UNL A   1      44.257  37.139  35.227  1.00  0.00    -0.237 OA
ATOM     84  O   UNL A   1      43.427  38.243  33.175  1.00  0.00    -0.237 OA
ATOM     85  O   UNL A   1      41.837  37.509  34.907  1.00  0.00    -0.744 OA
ENDBRANCH  81  82
ENDBRANCH  53  76
BRANCH  65  86
ATOM     86  C   UNL A   1      47.376  27.850  31.774  1.00  0.00    -0.014 A 
ATOM     87  C   UNL A   1      47.659  27.322  33.045  1.00  0.00     0.010 A 
ATOM     88  C   UNL A   1      48.440  28.135  30.898  1.00  0.00     0.010 A 
ATOM     89  C   UNL A   1      48.983  27.114  33.444  1.00  0.00     0.020 A 
ATOM     90  C   UNL A   1      49.762  27.896  31.280  1.00  0.00     0.020 A 
ATOM     91  C   UNL A   1      50.026  27.399  32.557  1.00  0.00     0.054 A 
BRANCH  91  92
ATOM     92  S   UNL A   1      51.732  27.074  33.082  1.00  0.00     0.124 S 
ATOM     93  O   UNL A   1      52.053  25.860  32.335  1.00  0.00    -0.237 OA
ATOM     94  O   UNL A   1      52.434  28.280  32.651  1.00  0.00    -0.237 OA
ATOM     95  O   UNL A   1      51.624  26.904  34.529  1.00  0.00    -0.744 OA
ENDBRANCH  91  92
ENDBRANCH  65  86
ENDBRANCH  39  40
ENDBRANCH  32  34
ENDBRANCH  31  32
ENDBRANCH  30  31
ENDBRANCH  29  30
ENDBRANCH  28  29
ENDBRANCH  27  28
ENDBRANCH  26  27
ENDBRANCH   1  26
TORSDOF 26
ENDMDL
MODEL 3
REMARK VINA RESULT:      -8.7      2.873      9.723
REMARK SMILES O=C(C[NH+]1CC(c2nc(-c3cccs3)no2)C1)OCCOCCOCCOCCOC(=O)c1ccc(-c2c3nc(c(-c4ccc(S(=O)(=O)[O-])cc4)c4ccc([nH]4)c(-c4ccc(S(=O)(=O)[O-])cc4)c4nc(c(-c5ccc(S(=O)(=O)[O-])cc5)c5ccc2[nH]5)C=C4)C=C3)cc1
REMARK SMILES IDX 24 1 23 2 22 3 21 4 20 5 19 6 18 7 2 8 1 9 3 10 4 11 5 12
REMARK SMILES IDX 17 13 6 15 7 16 8 17 16 18 9 19 15 20 10 21 11 22 14 23
REMARK SMILES IDX 12 24 13 25 25 26 26 27 27 28 28 29 29 30 30 31 31 32 32 33
REMARK SMILES IDX 33 34 34 35 92 36 35 37 91 38 36 39 37 40 38 41 85 42 39 43
REMARK SMILES IDX 90 44 84 45 86 46 40 47 89 48 83 49 82 50 41 52 71 53 52 54
REMARK SMILES IDX 70 55 53 56 56 57 69 58 87 59 54 60 55 61 68 63 88 64 57 65
REMARK SMILES IDX 42 66 43 67 51 68 44 69 50 70 45 71 46 72 47 73 48 74 49 75
REMARK SMILES IDX 72 76 73 77 81 78 74 79 80 80 75 81 76 82 77 83 78 84 79 85
REMARK SMILES IDX 58 86 59 87 67 88 60 89 66 90 61 91 62 92 63 93 64 94 65 95
REMARK H PARENT 4 14 86 51 56 62
REMARK Flexibility Score: inf
ROOT
ATOM      1  O   UNL A   1      31.487  29.007  24.984  1.00  0.00    -0.377 OA
ENDROOT
BRANCH   1   2
ATOM      2  C   UNL A   1      30.626  29.523  23.987  1.00  0.00     0.188 C 
BRANCH   2   3
ATOM      3  C   UNL A   1      30.034  28.541  22.972  1.00  0.00     0.188 C 
BRANCH   3   4
ATOM      4  O   UNL A   1      30.221  27.146  23.098  1.00  0.00    -0.376 OA
BRANCH   4   5
ATOM      5  C   UNL A   1      29.543  26.257  23.964  1.00  0.00     0.202 C 
BRANCH   5   6
ATOM      6  C   UNL A   1      29.666  26.285  25.485  1.00  0.00     0.261 C 
BRANCH   6   7
ATOM      7  O   UNL A   1      30.044  25.078  26.162  1.00  0.00    -0.459 OA
BRANCH   7   8
ATOM      8  C   UNL A   1      31.300  24.645  26.404  1.00  0.00     0.361 C 
ATOM      9  O   UNL A   1      31.539  24.056  27.459  1.00  0.00    -0.245 OA
BRANCH   8  10
ATOM     10  C   UNL A   1      32.442  25.065  25.490  1.00  0.00     0.386 C 
BRANCH  10  11
ATOM     11  N   UNL A   1      32.406  24.381  24.199  1.00  0.00    -0.324 N 
ATOM     12  C   UNL A   1      33.755  23.892  23.838  1.00  0.00     0.282 C 
ATOM     13  C   UNL A   1      31.946  22.995  24.355  1.00  0.00     0.282 C 
ATOM     14  H   UNL A   1      31.903  25.033  23.598  1.00  0.00     0.348 HD
ATOM     15  C   UNL A   1      33.093  22.578  23.391  1.00  0.00     0.188 C 
BRANCH  15  16
ATOM     16  C   UNL A   1      33.734  21.314  23.884  1.00  0.00     0.241 A 
ATOM     17  N   UNL A   1      33.282  20.129  23.552  1.00  0.00    -0.190 NA
ATOM     18  O   UNL A   1      34.672  21.274  24.875  1.00  0.00    -0.338 OA
ATOM     19  C   UNL A   1      33.875  19.325  24.494  1.00  0.00     0.212 A 
ATOM     20  N   UNL A   1      34.778  19.944  25.266  1.00  0.00    -0.056 NA
BRANCH  19  21
ATOM     21  C   UNL A   1      33.417  17.926  24.705  1.00  0.00     0.075 A 
ATOM     22  C   UNL A   1      32.725  17.525  25.828  1.00  0.00     0.024 A 
ATOM     23  S   UNL A   1      33.755  16.627  23.656  1.00  0.00    -0.140 S 
ATOM     24  C   UNL A   1      32.492  16.121  25.836  1.00  0.00     0.012 A 
ATOM     25  C   UNL A   1      33.017  15.508  24.719  1.00  0.00     0.065 A 
ENDBRANCH  19  21
ENDBRANCH  15  16
ENDBRANCH  10  11
ENDBRANCH   8  10
ENDBRANCH   7   8
ENDBRANCH   6   7
ENDBRANCH   5   6
ENDBRANCH   4   5
ENDBRANCH   3   4
ENDBRANCH   2   3
ENDBRANCH   1   2
BRANCH   1  26
ATOM     26  C   UNL A   1      32.802  29.524  24.955  1.00  0.00     0.188 C 
BRANCH  26  27
ATOM     27  C   UNL A   1      33.292  30.012  26.332  1.00  0.00     0.188 C 
BRANCH  27  28
ATOM     28  O   UNL A   1      32.750  31.182  26.915  1.00  0.00    -0.376 OA
BRANCH  28  29
ATOM     29  C   UNL A   1      33.421  31.895  27.943  1.00  0.00     0.202 C 
BRANCH  29  30
ATOM     30  C   UNL A   1      33.611  33.425  28.019  1.00  0.00     0.261 C 
BRANCH  30  31
ATOM     31  O   UNL A   1      32.835  34.163  28.960  1.00  0.00    -0.460 OA
BRANCH  31  32
ATOM     32  C   UNL A   1      33.526  34.858  29.887  1.00  0.00     0.338 C 
ATOM     33  O   UNL A   1      33.154  35.852  30.493  1.00  0.00    -0.246 OA
BRANCH  32  34
ATOM     34  C   UNL A   1      34.731  34.074  30.226  1.00  0.00     0.060 A 
ATOM     35  C   UNL A   1      34.603  33.024  31.148  1.00  0.00     0.016 A 
ATOM     36  C   UNL A   1      35.958  34.334  29.613  1.00  0.00     0.016 A 
ATOM     37  C   UNL A   1      35.706  32.243  31.474  1.00  0.00     0.010 A 
ATOM     38  C   UNL A   1      37.076  33.580  29.976  1.00  0.00     0.010 A 
ATOM     39  C   UNL A   1      36.958  32.555  30.932  1.00  0.00    -0.014 A 
BRANCH  39  40
ATOM     40  C   UNL A   1      38.171  31.986  31.558  1.00  0.00     0.031 A 
ATOM     41  C   UNL A   1      38.574  32.523  32.904  1.00  0.00     0.074 A 
ATOM     42  C   UNL A   1      38.877  31.005  30.971  1.00  0.00     0.049 A 
ATOM     43  N   UNL A   1      39.614  32.228  33.637  1.00  0.00    -0.248 NA
ATOM     44  C   UNL A   1      37.680  33.532  33.502  1.00  0.00     0.031 C 
ATOM     45  C   UNL A   1      38.546  30.365  29.699  1.00  0.00     0.029 A 
ATOM     46  N   UNL A   1      40.030  30.380  31.375  1.00  0.00    -0.354 N 
ATOM     47  C   UNL A   1      39.508  33.024  34.772  1.00  0.00     0.074 A 
ATOM     48  C   UNL A   1      38.318  33.830  34.621  1.00  0.00     0.031 C 
ATOM     49  C   UNL A   1      39.488  29.446  29.418  1.00  0.00     0.029 A 
ATOM     50  C   UNL A   1      40.504  29.462  30.470  1.00  0.00     0.049 A 
ATOM     51  H   UNL A   1      40.475  30.572  32.232  1.00  0.00     0.167 HD
ATOM     52  C   UNL A   1      40.330  33.077  35.845  1.00  0.00     0.031 A 
ATOM     53  C   UNL A   1      41.643  28.741  30.480  1.00  0.00     0.031 A 
ATOM     54  C   UNL A   1      41.523  32.287  35.977  1.00  0.00     0.049 A 
ATOM     55  C   UNL A   1      42.590  28.880  31.646  1.00  0.00     0.074 A 
ATOM     56  C   UNL A   1      42.423  32.258  37.027  1.00  0.00     0.029 A 
ATOM     57  N   UNL A   1      41.991  31.397  35.021  1.00  0.00    -0.354 N 
ATOM     58  N   UNL A   1      42.469  29.618  32.726  1.00  0.00    -0.248 NA
ATOM     59  C   UNL A   1      43.824  28.084  31.600  1.00  0.00     0.031 C 
ATOM     60  C   UNL A   1      43.470  31.401  36.677  1.00  0.00     0.029 A 
ATOM     61  C   UNL A   1      43.184  30.837  35.443  1.00  0.00     0.049 A 
ATOM     62  H   UNL A   1      41.541  31.194  34.169  1.00  0.00     0.167 HD
ATOM     63  C   UNL A   1      43.595  29.350  33.499  1.00  0.00     0.074 A 
ATOM     64  C   UNL A   1      44.377  28.372  32.770  1.00  0.00     0.031 C 
ATOM     65  C   UNL A   1      43.949  29.862  34.705  1.00  0.00     0.031 A 
BRANCH  52  66
ATOM     66  C   UNL A   1      39.988  34.060  36.934  1.00  0.00    -0.014 A 
ATOM     67  C   UNL A   1      39.367  33.647  38.127  1.00  0.00     0.010 A 
ATOM     68  C   UNL A   1      40.318  35.417  36.769  1.00  0.00     0.010 A 
ATOM     69  C   UNL A   1      39.051  34.580  39.118  1.00  0.00     0.020 A 
ATOM     70  C   UNL A   1      40.032  36.347  37.770  1.00  0.00     0.020 A 
ATOM     71  C   UNL A   1      39.386  35.925  38.933  1.00  0.00     0.054 A 
BRANCH  71  72
ATOM     72  S   UNL A   1      38.987  37.109  40.247  1.00  0.00     0.124 S 
ATOM     73  O   UNL A   1      40.290  37.314  40.875  1.00  0.00    -0.237 OA
ATOM     74  O   UNL A   1      38.465  38.250  39.500  1.00  0.00    -0.237 OA
ATOM     75  O   UNL A   1      38.006  36.403  41.067  1.00  0.00    -0.744 OA
ENDBRANCH  71  72
ENDBRANCH  52  66
BRANCH  53  76
ATOM     76  C   UNL A   1      41.967  27.840  29.338  1.00  0.00    -0.014 A 
ATOM     77  C   UNL A   1      42.722  28.301  28.247  1.00  0.00     0.010 A 
ATOM     78  C   UNL A   1      41.512  26.507  29.336  1.00  0.00     0.010 A 
ATOM     79  C   UNL A   1      43.005  27.454  27.170  1.00  0.00     0.020 A 
ATOM     80  C   UNL A   1      41.819  25.648  28.278  1.00  0.00     0.020 A 
ATOM     81  C   UNL A   1      42.555  26.131  27.195  1.00  0.00     0.054 A 
BRANCH  81  82
ATOM     82  S   UNL A   1      42.983  25.037  25.813  1.00  0.00     0.124 S 
ATOM     83  O   UNL A   1      42.059  23.924  26.007  1.00  0.00    -0.237 OA
ATOM     84  O   UNL A   1      42.722  25.884  24.652  1.00  0.00    -0.237 OA
ATOM     85  O   UNL A   1      44.393  24.728  26.044  1.00  0.00    -0.744 OA
ENDBRANCH  81  82
ENDBRANCH  53  76
BRANCH  65  86
ATOM     86  C   UNL A   1      45.214  29.346  35.341  1.00  0.00    -0.014 A 
ATOM     87  C   UNL A   1      46.449  29.989  35.151  1.00  0.00     0.010 A 
ATOM     88  C   UNL A   1      45.147  28.234  36.203  1.00  0.00     0.010 A 
ATOM     89  C   UNL A   1      47.599  29.510  35.784  1.00  0.00     0.020 A 
ATOM     90  C   UNL A   1      46.288  27.775  36.864  1.00  0.00     0.020 A 
ATOM     91  C   UNL A   1      47.511  28.408  36.640  1.00  0.00     0.054 A 
BRANCH  91  92
ATOM     92  S   UNL A   1      49.010  27.838  37.488  1.00  0.00     0.124 S 
ATOM     93  O   UNL A   1      48.532  27.647  38.854  1.00  0.00    -0.237 OA
ATOM     94  O   UNL A   1      49.342  26.615  36.761  1.00  0.00    -0.237 OA
ATOM     95  O   UNL A   1      49.952  28.940  37.307  1.00  0.00    -0.744 OA
ENDBRANCH  91  92
ENDBRANCH  65  86
ENDBRANCH  39  40
ENDBRANCH  32  34
ENDBRANCH  31  32
ENDBRANCH  30  31
ENDBRANCH  29  30
ENDBRANCH  28  29
ENDBRANCH  27  28
ENDBRANCH  26  27
ENDBRANCH   1  26
TORSDOF 26
ENDMDL
