MODEL 1
REMARK VINA RESULT:      -9.1      0.000      0.000
REMARK SMILES CCOC(=O)c1c(NC(=O)[C@@H]2[C@@H](C(=O)OCCOCCOCCOCCOC(=O)c3ccc(-c4c5nc(c(-c6ccc(S(=O)(=O)[O-])cc6)c6ccc([nH]6)c(-c6ccc(S(=O)(=O)[O-])cc6)c6nc(c(-c7ccc(S(=O)(=O)[O-])cc7)c7ccc4[nH]7)C=C6)C=C5)cc3)[C@@H]3C=C[C@H]2CC3)sc2c1CCC2
REMARK SMILES IDX 20 1 19 2 18 3 17 4 16 5 15 6 13 7 14 8 12 9 11 10 93 11
REMARK SMILES IDX 90 12 92 13 94 14 91 15 95 16 9 17 8 18 10 20 7 21 6 22
REMARK SMILES IDX 98 23 96 24 97 25 99 26 101 27 100 28 4 29 5 30 3 31 2 32
REMARK SMILES IDX 1 33 21 34 22 35 23 36 24 37 25 38 26 39 27 40 28 41 29 42
REMARK SMILES IDX 30 43 31 44 89 45 32 46 88 47 33 48 34 49 35 50 82 51 36 52
REMARK SMILES IDX 87 53 81 54 83 55 37 56 86 57 80 58 79 59 38 61 68 62 49 63
REMARK SMILES IDX 67 64 50 65 53 66 66 67 84 68 51 69 52 70 65 72 85 73 54 74
REMARK SMILES IDX 39 75 40 76 48 77 41 78 47 79 42 80 43 81 44 82 45 83 46 84
REMARK SMILES IDX 69 85 70 86 78 87 71 88 77 89 72 90 73 91 74 92 75 93 76 94
REMARK SMILES IDX 55 95 56 96 64 97 57 98 63 99 58 100 59 101 60 102 61 103
REMARK SMILES IDX 62 104
REMARK H PARENT 8 19 83 60 53 71
REMARK Flexibility Score: inf
ROOT
ATOM      1  C   UNL A   1      31.827  28.898  26.256  1.00  0.00     0.188 C 
ENDROOT
BRANCH   1   2
ATOM      2  C   UNL A   1      31.374  29.461  24.888  1.00  0.00     0.188 C 
BRANCH   2   3
ATOM      3  O   UNL A   1      32.436  29.614  23.961  1.00  0.00    -0.376 OA
BRANCH   3   4
ATOM      4  C   UNL A   1      32.529  28.673  22.905  1.00  0.00     0.202 C 
BRANCH   4   5
ATOM      5  C   UNL A   1      33.671  27.655  22.976  1.00  0.00     0.261 C 
BRANCH   5   6
ATOM      6  O   UNL A   1      33.849  27.030  24.268  1.00  0.00    -0.463 OA
BRANCH   6   7
ATOM      7  C   UNL A   1      33.750  25.678  24.377  1.00  0.00     0.310 C 
ATOM      8  O   UNL A   1      34.510  24.885  23.839  1.00  0.00    -0.252 OA
BRANCH   7   9
ATOM      9  C   UNL A   1      32.519  25.286  25.195  1.00  0.00     0.119 C 
ATOM     10  C   UNL A   1      32.411  23.784  25.561  1.00  0.00     0.100 C 
ATOM     11  C   UNL A   1      30.927  23.333  25.322  1.00  0.00     0.025 C 
ATOM     12  C   UNL A   1      31.206  25.794  24.549  1.00  0.00     0.026 C 
ATOM     13  C   UNL A   1      30.017  24.315  26.033  1.00  0.00    -0.027 C 
ATOM     14  C   UNL A   1      30.622  23.462  23.803  1.00  0.00     0.009 C 
ATOM     15  C   UNL A   1      30.143  25.587  25.619  1.00  0.00    -0.027 C 
ATOM     16  C   UNL A   1      30.836  24.919  23.341  1.00  0.00     0.009 C 
BRANCH  10  17
ATOM     17  C   UNL A   1      32.936  23.169  26.885  1.00  0.00     0.229 C 
ATOM     18  N   UNL A   1      34.086  22.480  27.136  1.00  0.00    -0.317 N 
ATOM     19  H   UNL A   1      34.194  22.180  28.067  1.00  0.00     0.170 HD
ATOM     20  O   UNL A   1      32.250  23.401  27.898  1.00  0.00    -0.274 OA
BRANCH  18  21
ATOM     21  C   UNL A   1      35.113  22.139  26.298  1.00  0.00     0.110 A 
ATOM     22  C   UNL A   1      35.191  21.159  25.309  1.00  0.00     0.098 A 
ATOM     23  C   UNL A   1      36.580  20.882  25.154  1.00  0.00    -0.017 A 
ATOM     24  S   UNL A   1      36.416  23.240  26.035  1.00  0.00    -0.122 S 
ATOM     25  C   UNL A   1      37.345  21.895  25.668  1.00  0.00     0.011 A 
ATOM     26  C   UNL A   1      37.456  19.815  24.615  1.00  0.00     0.038 C 
ATOM     27  C   UNL A   1      38.790  21.619  25.767  1.00  0.00     0.047 C 
ATOM     28  C   UNL A   1      38.821  20.121  25.328  1.00  0.00     0.010 C 
BRANCH  22  29
ATOM     29  C   UNL A   1      34.010  20.537  24.725  1.00  0.00     0.341 C 
ATOM     30  O   UNL A   1      33.429  21.022  23.785  1.00  0.00    -0.246 OA
BRANCH  29  31
ATOM     31  O   UNL A   1      33.740  19.309  25.268  1.00  0.00    -0.462 OA
BRANCH  31  32
ATOM     32  C   UNL A   1      33.599  18.222  24.338  1.00  0.00     0.230 C 
ATOM     33  C   UNL A   1      34.797  17.294  24.231  1.00  0.00     0.049 C 
ENDBRANCH  31  32
ENDBRANCH  29  31
ENDBRANCH  22  29
ENDBRANCH  18  21
ENDBRANCH  10  17
ENDBRANCH   7   9
ENDBRANCH   6   7
ENDBRANCH   5   6
ENDBRANCH   4   5
ENDBRANCH   3   4
ENDBRANCH   2   3
ENDBRANCH   1   2
BRANCH   1  34
ATOM     34  O   UNL A   1      32.312  29.738  27.301  1.00  0.00    -0.377 OA
BRANCH  34  35
ATOM     35  C   UNL A   1      32.927  30.971  26.977  1.00  0.00     0.188 C 
BRANCH  35  36
ATOM     36  C   UNL A   1      34.346  31.183  27.545  1.00  0.00     0.188 C 
BRANCH  36  37
ATOM     37  O   UNL A   1      34.397  31.817  28.818  1.00  0.00    -0.376 OA
BRANCH  37  38
ATOM     38  C   UNL A   1      34.224  33.225  28.898  1.00  0.00     0.202 C 
BRANCH  38  39
ATOM     39  C   UNL A   1      34.419  33.837  30.288  1.00  0.00     0.261 C 
BRANCH  39  40
ATOM     40  O   UNL A   1      34.214  32.926  31.354  1.00  0.00    -0.460 OA
BRANCH  40  41
ATOM     41  C   UNL A   1      34.242  33.480  32.577  1.00  0.00     0.338 C 
ATOM     42  O   UNL A   1      33.564  34.410  32.982  1.00  0.00    -0.246 OA
BRANCH  41  43
ATOM     43  C   UNL A   1      35.319  32.878  33.356  1.00  0.00     0.060 A 
ATOM     44  C   UNL A   1      35.863  33.694  34.349  1.00  0.00     0.016 A 
ATOM     45  C   UNL A   1      36.005  31.788  32.805  1.00  0.00     0.016 A 
ATOM     46  C   UNL A   1      37.214  33.608  34.566  1.00  0.00     0.010 A 
ATOM     47  C   UNL A   1      37.359  31.719  33.006  1.00  0.00     0.010 A 
ATOM     48  C   UNL A   1      37.949  32.700  33.797  1.00  0.00    -0.014 A 
BRANCH  48  49
ATOM     49  C   UNL A   1      39.385  32.806  33.851  1.00  0.00     0.031 A 
ATOM     50  C   UNL A   1      39.978  33.179  32.562  1.00  0.00     0.074 A 
ATOM     51  C   UNL A   1      40.086  32.623  34.981  1.00  0.00     0.049 A 
ATOM     52  N   UNL A   1      40.625  32.415  31.751  1.00  0.00    -0.248 NA
ATOM     53  C   UNL A   1      39.648  34.509  32.035  1.00  0.00     0.031 C 
ATOM     54  C   UNL A   1      39.571  32.513  36.350  1.00  0.00     0.029 A 
ATOM     55  N   UNL A   1      41.435  32.593  35.146  1.00  0.00    -0.354 N 
ATOM     56  C   UNL A   1      40.987  33.243  30.700  1.00  0.00     0.074 A 
ATOM     57  C   UNL A   1      40.185  34.435  30.818  1.00  0.00     0.031 C 
ATOM     58  C   UNL A   1      40.600  32.643  37.218  1.00  0.00     0.029 A 
ATOM     59  C   UNL A   1      41.843  32.690  36.466  1.00  0.00     0.049 A 
ATOM     60  H   UNL A   1      42.065  32.509  34.394  1.00  0.00     0.167 HD
ATOM     61  C   UNL A   1      42.132  33.026  30.002  1.00  0.00     0.031 A 
ATOM     62  C   UNL A   1      43.115  32.841  36.901  1.00  0.00     0.031 A 
ATOM     63  C   UNL A   1      42.681  31.720  30.255  1.00  0.00     0.049 A 
ATOM     64  C   UNL A   1      44.021  32.356  35.834  1.00  0.00     0.074 A 
ATOM     65  C   UNL A   1      42.354  30.426  29.915  1.00  0.00     0.029 A 
ATOM     66  N   UNL A   1      43.562  31.657  31.309  1.00  0.00    -0.354 N 
ATOM     67  N   UNL A   1      44.086  31.105  35.472  1.00  0.00    -0.248 NA
ATOM     68  C   UNL A   1      44.633  33.299  34.907  1.00  0.00     0.031 C 
ATOM     69  C   UNL A   1      42.883  29.600  30.950  1.00  0.00     0.029 A 
ATOM     70  C   UNL A   1      43.525  30.411  31.885  1.00  0.00     0.049 A 
ATOM     71  H   UNL A   1      44.137  32.399  31.606  1.00  0.00     0.167 HD
ATOM     72  C   UNL A   1      44.356  31.145  34.117  1.00  0.00     0.074 A 
ATOM     73  C   UNL A   1      44.853  32.490  33.866  1.00  0.00     0.031 C 
ATOM     74  C   UNL A   1      43.868  30.187  33.277  1.00  0.00     0.031 A 
BRANCH  61  75
ATOM     75  C   UNL A   1      42.985  34.156  29.487  1.00  0.00    -0.014 A 
ATOM     76  C   UNL A   1      43.467  35.113  30.397  1.00  0.00     0.010 A 
ATOM     77  C   UNL A   1      43.092  34.463  28.112  1.00  0.00     0.010 A 
ATOM     78  C   UNL A   1      43.983  36.337  29.951  1.00  0.00     0.020 A 
ATOM     79  C   UNL A   1      43.645  35.657  27.657  1.00  0.00     0.020 A 
ATOM     80  C   UNL A   1      44.055  36.603  28.582  1.00  0.00     0.054 A 
BRANCH  80  81
ATOM     81  S   UNL A   1      44.611  38.228  28.016  1.00  0.00     0.124 S 
ATOM     82  O   UNL A   1      43.754  38.449  26.855  1.00  0.00    -0.237 OA
ATOM     83  O   UNL A   1      44.338  39.071  29.177  1.00  0.00    -0.237 OA
ATOM     84  O   UNL A   1      46.027  38.022  27.721  1.00  0.00    -0.744 OA
ENDBRANCH  80  81
ENDBRANCH  61  75
BRANCH  62  85
ATOM     85  C   UNL A   1      43.598  33.565  38.095  1.00  0.00    -0.014 A 
ATOM     86  C   UNL A   1      43.237  34.905  38.318  1.00  0.00     0.010 A 
ATOM     87  C   UNL A   1      44.185  32.848  39.158  1.00  0.00     0.010 A 
ATOM     88  C   UNL A   1      43.391  35.487  39.585  1.00  0.00     0.020 A 
ATOM     89  C   UNL A   1      44.347  33.426  40.421  1.00  0.00     0.020 A 
ATOM     90  C   UNL A   1      43.922  34.736  40.635  1.00  0.00     0.054 A 
BRANCH  90  91
ATOM     91  S   UNL A   1      43.932  35.436  42.311  1.00  0.00     0.124 S 
ATOM     92  O   UNL A   1      43.328  34.366  43.099  1.00  0.00    -0.237 OA
ATOM     93  O   UNL A   1      45.354  35.671  42.548  1.00  0.00    -0.237 OA
ATOM     94  O   UNL A   1      43.122  36.647  42.184  1.00  0.00    -0.744 OA
ENDBRANCH  90  91
ENDBRANCH  62  85
BRANCH  74  95
ATOM     95  C   UNL A   1      43.462  28.873  33.893  1.00  0.00    -0.014 A 
ATOM     96  C   UNL A   1      44.358  28.018  34.564  1.00  0.00     0.010 A 
ATOM     97  C   UNL A   1      42.099  28.532  33.864  1.00  0.00     0.010 A 
ATOM     98  C   UNL A   1      43.901  26.841  35.175  1.00  0.00     0.020 A 
ATOM     99  C   UNL A   1      41.635  27.370  34.484  1.00  0.00     0.020 A 
ATOM    100  C   UNL A   1      42.539  26.525  35.130  1.00  0.00     0.054 A 
BRANCH 100 101
ATOM    101  S   UNL A   1      41.942  25.031  35.971  1.00  0.00     0.124 S 
ATOM    102  O   UNL A   1      40.546  25.357  36.247  1.00  0.00    -0.237 OA
ATOM    103  O   UNL A   1      42.158  23.986  34.970  1.00  0.00    -0.237 OA
ATOM    104  O   UNL A   1      42.799  24.930  37.151  1.00  0.00    -0.744 OA
ENDBRANCH 100 101
ENDBRANCH  74  95
ENDBRANCH  48  49
ENDBRANCH  41  43
ENDBRANCH  40  41
ENDBRANCH  39  40
ENDBRANCH  38  39
ENDBRANCH  37  38
ENDBRANCH  36  37
ENDBRANCH  35  36
ENDBRANCH  34  35
ENDBRANCH   1  34
TORSDOF 28
ENDMDL
MODEL 2
REMARK VINA RESULT:      -8.7      4.543      6.524
REMARK SMILES CCOC(=O)c1c(NC(=O)[C@@H]2[C@@H](C(=O)OCCOCCOCCOCCOC(=O)c3ccc(-c4c5nc(c(-c6ccc(S(=O)(=O)[O-])cc6)c6ccc([nH]6)c(-c6ccc(S(=O)(=O)[O-])cc6)c6nc(c(-c7ccc(S(=O)(=O)[O-])cc7)c7ccc4[nH]7)C=C6)C=C5)cc3)[C@@H]3C=C[C@H]2CC3)sc2c1CCC2
REMARK SMILES IDX 20 1 19 2 18 3 17 4 16 5 15 6 13 7 14 8 12 9 11 10 93 11
REMARK SMILES IDX 90 12 92 13 94 14 91 15 95 16 9 17 8 18 10 20 7 21 6 22
REMARK SMILES IDX 98 23 96 24 97 25 99 26 101 27 100 28 4 29 5 30 3 31 2 32
REMARK SMILES IDX 1 33 21 34 22 35 23 36 24 37 25 38 26 39 27 40 28 41 29 42
REMARK SMILES IDX 30 43 31 44 89 45 32 46 88 47 33 48 34 49 35 50 82 51 36 52
REMARK SMILES IDX 87 53 81 54 83 55 37 56 86 57 80 58 79 59 38 61 68 62 49 63
REMARK SMILES IDX 67 64 50 65 53 66 66 67 84 68 51 69 52 70 65 72 85 73 54 74
REMARK SMILES IDX 39 75 40 76 48 77 41 78 47 79 42 80 43 81 44 82 45 83 46 84
REMARK SMILES IDX 69 85 70 86 78 87 71 88 77 89 72 90 73 91 74 92 75 93 76 94
REMARK SMILES IDX 55 95 56 96 64 97 57 98 63 99 58 100 59 101 60 102 61 103
REMARK SMILES IDX 62 104
REMARK H PARENT 8 19 83 60 53 71
REMARK Flexibility Score: inf
ROOT
ATOM      1  C   UNL A   1      34.670  30.057  27.611  1.00  0.00     0.188 C 
ENDROOT
BRANCH   1   2
ATOM      2  C   UNL A   1      33.473  30.784  26.955  1.00  0.00     0.188 C 
BRANCH   2   3
ATOM      3  O   UNL A   1      32.553  29.904  26.330  1.00  0.00    -0.376 OA
BRANCH   3   4
ATOM      4  C   UNL A   1      32.749  29.614  24.956  1.00  0.00     0.202 C 
BRANCH   4   5
ATOM      5  C   UNL A   1      31.530  29.132  24.164  1.00  0.00     0.261 C 
BRANCH   5   6
ATOM      6  O   UNL A   1      31.640  27.792  23.634  1.00  0.00    -0.463 OA
BRANCH   6   7
ATOM      7  C   UNL A   1      32.828  27.136  23.714  1.00  0.00     0.310 C 
ATOM      8  O   UNL A   1      33.862  27.514  23.181  1.00  0.00    -0.252 OA
BRANCH   7   9
ATOM      9  C   UNL A   1      32.678  25.828  24.492  1.00  0.00     0.119 C 
ATOM     10  C   UNL A   1      31.284  25.156  24.406  1.00  0.00     0.100 C 
ATOM     11  C   UNL A   1      30.887  24.676  25.847  1.00  0.00     0.025 C 
ATOM     12  C   UNL A   1      33.131  25.974  25.966  1.00  0.00     0.026 C 
ATOM     13  C   UNL A   1      32.042  23.871  26.409  1.00  0.00    -0.027 C 
ATOM     14  C   UNL A   1      30.740  25.933  26.750  1.00  0.00     0.009 C 
ATOM     15  C   UNL A   1      33.200  24.547  26.493  1.00  0.00    -0.027 C 
ATOM     16  C   UNL A   1      32.064  26.725  26.778  1.00  0.00     0.009 C 
BRANCH  10  17
ATOM     17  C   UNL A   1      30.904  24.064  23.370  1.00  0.00     0.229 C 
ATOM     18  N   UNL A   1      31.623  22.997  22.920  1.00  0.00    -0.317 N 
ATOM     19  H   UNL A   1      31.164  22.444  22.246  1.00  0.00     0.170 HD
ATOM     20  O   UNL A   1      29.738  24.114  22.936  1.00  0.00    -0.274 OA
BRANCH  18  21
ATOM     21  C   UNL A   1      32.881  22.573  23.253  1.00  0.00     0.110 A 
ATOM     22  C   UNL A   1      33.313  21.380  23.833  1.00  0.00     0.098 A 
ATOM     23  C   UNL A   1      34.568  21.682  24.437  1.00  0.00    -0.017 A 
ATOM     24  S   UNL A   1      34.263  23.338  22.559  1.00  0.00    -0.122 S 
ATOM     25  C   UNL A   1      35.100  22.833  23.919  1.00  0.00     0.011 A 
ATOM     26  C   UNL A   1      35.471  21.134  25.476  1.00  0.00     0.038 C 
ATOM     27  C   UNL A   1      36.282  23.364  24.622  1.00  0.00     0.047 C 
ATOM     28  C   UNL A   1      36.354  22.381  25.834  1.00  0.00     0.010 C 
BRANCH  22  29
ATOM     29  C   UNL A   1      32.494  20.175  23.855  1.00  0.00     0.341 C 
ATOM     30  O   UNL A   1      32.052  19.683  22.846  1.00  0.00    -0.246 OA
BRANCH  29  31
ATOM     31  O   UNL A   1      32.413  19.618  25.103  1.00  0.00    -0.462 OA
BRANCH  31  32
ATOM     32  C   UNL A   1      32.651  18.203  25.181  1.00  0.00     0.230 C 
ATOM     33  C   UNL A   1      34.045  17.751  24.780  1.00  0.00     0.049 C 
ENDBRANCH  31  32
ENDBRANCH  29  31
ENDBRANCH  22  29
ENDBRANCH  18  21
ENDBRANCH  10  17
ENDBRANCH   7   9
ENDBRANCH   6   7
ENDBRANCH   5   6
ENDBRANCH   4   5
ENDBRANCH   3   4
ENDBRANCH   2   3
ENDBRANCH   1   2
BRANCH   1  34
ATOM     34  O   UNL A   1      35.494  30.681  28.594  1.00  0.00    -0.377 OA
BRANCH  34  35
ATOM     35  C   UNL A   1      35.420  32.082  28.779  1.00  0.00     0.188 C 
BRANCH  35  36
ATOM     36  C   UNL A   1      34.704  32.552  30.062  1.00  0.00     0.188 C 
BRANCH  36  37
ATOM     37  O   UNL A   1      35.193  33.770  30.612  1.00  0.00    -0.376 OA
BRANCH  37  38
ATOM     38  C   UNL A   1      35.776  33.761  31.908  1.00  0.00     0.202 C 
BRANCH  38  39
ATOM     39  C   UNL A   1      37.204  34.308  31.993  1.00  0.00     0.261 C 
BRANCH  39  40
ATOM     40  O   UNL A   1      38.198  33.309  32.135  1.00  0.00    -0.460 OA
BRANCH  40  41
ATOM     41  C   UNL A   1      38.659  32.810  30.976  1.00  0.00     0.338 C 
ATOM     42  O   UNL A   1      38.515  33.282  29.860  1.00  0.00    -0.246 OA
BRANCH  41  43
ATOM     43  C   UNL A   1      39.280  31.512  31.221  1.00  0.00     0.060 A 
ATOM     44  C   UNL A   1      40.114  31.453  32.338  1.00  0.00     0.016 A 
ATOM     45  C   UNL A   1      39.372  30.611  30.152  1.00  0.00     0.016 A 
ATOM     46  C   UNL A   1      41.246  30.685  32.239  1.00  0.00     0.010 A 
ATOM     47  C   UNL A   1      40.514  29.862  30.046  1.00  0.00     0.010 A 
ATOM     48  C   UNL A   1      41.477  30.000  31.042  1.00  0.00    -0.014 A 
BRANCH  48  49
ATOM     49  C   UNL A   1      42.781  29.416  30.861  1.00  0.00     0.031 A 
ATOM     50  C   UNL A   1      43.609  30.154  29.902  1.00  0.00     0.074 A 
ATOM     51  C   UNL A   1      43.195  28.334  31.541  1.00  0.00     0.049 A 
ATOM     52  N   UNL A   1      43.903  29.808  28.696  1.00  0.00    -0.248 NA
ATOM     53  C   UNL A   1      43.996  31.523  30.268  1.00  0.00     0.031 C 
ATOM     54  C   UNL A   1      42.550  27.698  32.695  1.00  0.00     0.029 A 
ATOM     55  N   UNL A   1      44.348  27.630  31.393  1.00  0.00    -0.354 N 
ATOM     56  C   UNL A   1      44.716  30.826  28.225  1.00  0.00     0.074 A 
ATOM     57  C   UNL A   1      44.557  31.935  29.132  1.00  0.00     0.031 C 
ATOM     58  C   UNL A   1      43.425  26.841  33.269  1.00  0.00     0.029 A 
ATOM     59  C   UNL A   1      44.615  26.762  32.439  1.00  0.00     0.049 A 
ATOM     60  H   UNL A   1      44.939  27.728  30.612  1.00  0.00     0.167 HD
ATOM     61  C   UNL A   1      45.691  30.576  27.314  1.00  0.00     0.031 A 
ATOM     62  C   UNL A   1      45.758  26.062  32.625  1.00  0.00     0.031 A 
ATOM     63  C   UNL A   1      45.537  29.286  26.694  1.00  0.00     0.049 A 
ATOM     64  C   UNL A   1      46.436  25.942  31.313  1.00  0.00     0.074 A 
ATOM     65  C   UNL A   1      44.679  28.727  25.773  1.00  0.00     0.029 A 
ATOM     66  N   UNL A   1      46.172  28.253  27.343  1.00  0.00    -0.354 N 
ATOM     67  N   UNL A   1      45.946  25.254  30.320  1.00  0.00    -0.248 NA
ATOM     68  C   UNL A   1      47.511  26.861  30.956  1.00  0.00     0.031 C 
ATOM     69  C   UNL A   1      44.651  27.329  26.056  1.00  0.00     0.029 A 
ATOM     70  C   UNL A   1      45.498  27.075  27.135  1.00  0.00     0.049 A 
ATOM     71  H   UNL A   1      46.993  28.346  27.878  1.00  0.00     0.167 HD
ATOM     72  C   UNL A   1      46.340  25.941  29.188  1.00  0.00     0.074 A 
ATOM     73  C   UNL A   1      47.431  26.801  29.623  1.00  0.00     0.031 C 
ATOM     74  C   UNL A   1      45.550  25.972  28.076  1.00  0.00     0.031 A 
BRANCH  61  75
ATOM     75  C   UNL A   1      47.022  31.282  27.346  1.00  0.00    -0.014 A 
ATOM     76  C   UNL A   1      47.134  32.548  26.744  1.00  0.00     0.010 A 
ATOM     77  C   UNL A   1      48.224  30.627  27.694  1.00  0.00     0.010 A 
ATOM     78  C   UNL A   1      48.388  33.104  26.461  1.00  0.00     0.020 A 
ATOM     79  C   UNL A   1      49.475  31.191  27.458  1.00  0.00     0.020 A 
ATOM     80  C   UNL A   1      49.549  32.413  26.810  1.00  0.00     0.054 A 
BRANCH  80  81
ATOM     81  S   UNL A   1      51.162  33.079  26.337  1.00  0.00     0.124 S 
ATOM     82  O   UNL A   1      51.153  32.886  24.890  1.00  0.00    -0.237 OA
ATOM     83  O   UNL A   1      51.074  34.463  26.795  1.00  0.00    -0.237 OA
ATOM     84  O   UNL A   1      52.107  32.243  27.074  1.00  0.00    -0.744 OA
ENDBRANCH  80  81
ENDBRANCH  61  75
BRANCH  62  85
ATOM     85  C   UNL A   1      46.398  25.669  33.897  1.00  0.00    -0.014 A 
ATOM     86  C   UNL A   1      47.119  24.467  33.998  1.00  0.00     0.010 A 
ATOM     87  C   UNL A   1      46.534  26.615  34.933  1.00  0.00     0.010 A 
ATOM     88  C   UNL A   1      48.005  24.250  35.063  1.00  0.00     0.020 A 
ATOM     89  C   UNL A   1      47.411  26.402  36.002  1.00  0.00     0.020 A 
ATOM     90  C   UNL A   1      48.164  25.230  36.046  1.00  0.00     0.054 A 
BRANCH  90  91
ATOM     91  S   UNL A   1      49.455  25.021  37.306  1.00  0.00     0.124 S 
ATOM     92  O   UNL A   1      48.822  25.581  38.496  1.00  0.00    -0.237 OA
ATOM     93  O   UNL A   1      49.655  23.574  37.317  1.00  0.00    -0.237 OA
ATOM     94  O   UNL A   1      50.579  25.793  36.780  1.00  0.00    -0.744 OA
ENDBRANCH  90  91
ENDBRANCH  62  85
BRANCH  74  95
ATOM     95  C   UNL A   1      44.516  24.885  27.936  1.00  0.00    -0.014 A 
ATOM     96  C   UNL A   1      43.142  25.082  28.175  1.00  0.00     0.010 A 
ATOM     97  C   UNL A   1      44.945  23.634  27.461  1.00  0.00     0.010 A 
ATOM     98  C   UNL A   1      42.224  24.044  27.960  1.00  0.00     0.020 A 
ATOM     99  C   UNL A   1      44.033  22.602  27.229  1.00  0.00     0.020 A 
ATOM    100  C   UNL A   1      42.677  22.809  27.487  1.00  0.00     0.054 A 
BRANCH 100 101
ATOM    101  S   UNL A   1      41.479  21.486  27.154  1.00  0.00     0.124 S 
ATOM    102  O   UNL A   1      42.171  20.299  27.646  1.00  0.00    -0.237 OA
ATOM    103  O   UNL A   1      40.311  21.901  27.931  1.00  0.00    -0.237 OA
ATOM    104  O   UNL A   1      41.296  21.539  25.704  1.00  0.00    -0.744 OA
ENDBRANCH 100 101
ENDBRANCH  74  95
ENDBRANCH  48  49
ENDBRANCH  41  43
ENDBRANCH  40  41
ENDBRANCH  39  40
ENDBRANCH  38  39
ENDBRANCH  37  38
ENDBRANCH  36  37
ENDBRANCH  35  36
ENDBRANCH  34  35
ENDBRANCH   1  34
TORSDOF 28
ENDMDL
MODEL 3
REMARK VINA RESULT:      -8.5      4.287      9.791
REMARK SMILES CCOC(=O)c1c(NC(=O)[C@@H]2[C@@H](C(=O)OCCOCCOCCOCCOC(=O)c3ccc(-c4c5nc(c(-c6ccc(S(=O)(=O)[O-])cc6)c6ccc([nH]6)c(-c6ccc(S(=O)(=O)[O-])cc6)c6nc(c(-c7ccc(S(=O)(=O)[O-])cc7)c7ccc4[nH]7)C=C6)C=C5)cc3)[C@@H]3C=C[C@H]2CC3)sc2c1CCC2
REMARK SMILES IDX 20 1 19 2 18 3 17 4 16 5 15 6 13 7 14 8 12 9 11 10 93 11
REMARK SMILES IDX 90 12 92 13 94 14 91 15 95 16 9 17 8 18 10 20 7 21 6 22
REMARK SMILES IDX 98 23 96 24 97 25 99 26 101 27 100 28 4 29 5 30 3 31 2 32
REMARK SMILES IDX 1 33 21 34 22 35 23 36 24 37 25 38 26 39 27 40 28 41 29 42
REMARK SMILES IDX 30 43 31 44 89 45 32 46 88 47 33 48 34 49 35 50 82 51 36 52
REMARK SMILES IDX 87 53 81 54 83 55 37 56 86 57 80 58 79 59 38 61 68 62 49 63
REMARK SMILES IDX 67 64 50 65 53 66 66 67 84 68 51 69 52 70 65 72 85 73 54 74
REMARK SMILES IDX 39 75 40 76 48 77 41 78 47 79 42 80 43 81 44 82 45 83 46 84
REMARK SMILES IDX 69 85 70 86 78 87 71 88 77 89 72 90 73 91 74 92 75 93 76 94
REMARK SMILES IDX 55 95 56 96 64 97 57 98 63 99 58 100 59 101 60 102 61 103
REMARK SMILES IDX 62 104
REMARK H PARENT 8 19 83 60 53 71
REMARK Flexibility Score: inf
ROOT
ATOM      1  C   UNL A   1      34.764  29.922  27.572  1.00  0.00     0.188 C 
ENDROOT
BRANCH   1   2
ATOM      2  C   UNL A   1      33.569  30.673  26.937  1.00  0.00     0.188 C 
BRANCH   2   3
ATOM      3  O   UNL A   1      32.633  29.812  26.310  1.00  0.00    -0.376 OA
BRANCH   3   4
ATOM      4  C   UNL A   1      32.796  29.559  24.924  1.00  0.00     0.202 C 
BRANCH   4   5
ATOM      5  C   UNL A   1      31.557  29.104  24.147  1.00  0.00     0.261 C 
BRANCH   5   6
ATOM      6  O   UNL A   1      31.636  27.766  23.606  1.00  0.00    -0.463 OA
BRANCH   6   7
ATOM      7  C   UNL A   1      32.814  27.089  23.664  1.00  0.00     0.310 C 
ATOM      8  O   UNL A   1      33.843  27.448  23.109  1.00  0.00    -0.252 OA
BRANCH   7   9
ATOM      9  C   UNL A   1      32.656  25.786  24.447  1.00  0.00     0.119 C 
ATOM     10  C   UNL A   1      31.263  25.113  24.353  1.00  0.00     0.100 C 
ATOM     11  C   UNL A   1      30.853  24.642  25.792  1.00  0.00     0.025 C 
ATOM     12  C   UNL A   1      33.097  25.939  25.925  1.00  0.00     0.026 C 
ATOM     13  C   UNL A   1      32.003  23.839  26.369  1.00  0.00    -0.027 C 
ATOM     14  C   UNL A   1      30.699  25.903  26.687  1.00  0.00     0.009 C 
ATOM     15  C   UNL A   1      33.160  24.515  26.459  1.00  0.00    -0.027 C 
ATOM     16  C   UNL A   1      32.023  26.695  26.723  1.00  0.00     0.009 C 
BRANCH  10  17
ATOM     17  C   UNL A   1      30.892  24.016  23.319  1.00  0.00     0.229 C 
ATOM     18  N   UNL A   1      31.613  22.944  22.884  1.00  0.00    -0.317 N 
ATOM     19  H   UNL A   1      31.160  22.388  22.209  1.00  0.00     0.170 HD
ATOM     20  O   UNL A   1      29.732  24.067  22.871  1.00  0.00    -0.274 OA
BRANCH  18  21
ATOM     21  C   UNL A   1      32.865  22.517  23.236  1.00  0.00     0.110 A 
ATOM     22  C   UNL A   1      33.283  21.339  23.854  1.00  0.00     0.098 A 
ATOM     23  C   UNL A   1      34.538  21.647  24.454  1.00  0.00    -0.017 A 
ATOM     24  S   UNL A   1      34.257  23.247  22.524  1.00  0.00    -0.122 S 
ATOM     25  C   UNL A   1      35.085  22.776  23.902  1.00  0.00     0.011 A 
ATOM     26  C   UNL A   1      35.432  21.123  25.513  1.00  0.00     0.038 C 
ATOM     27  C   UNL A   1      36.269  23.317  24.593  1.00  0.00     0.047 C 
ATOM     28  C   UNL A   1      36.326  22.372  25.835  1.00  0.00     0.010 C 
BRANCH  22  29
ATOM     29  C   UNL A   1      32.451  20.144  23.911  1.00  0.00     0.341 C 
ATOM     30  O   UNL A   1      32.044  19.600  22.914  1.00  0.00    -0.246 OA
BRANCH  29  31
ATOM     31  O   UNL A   1      32.316  19.658  25.184  1.00  0.00    -0.462 OA
BRANCH  31  32
ATOM     32  C   UNL A   1      32.740  18.301  25.392  1.00  0.00     0.230 C 
ATOM     33  C   UNL A   1      34.042  17.911  24.712  1.00  0.00     0.049 C 
ENDBRANCH  31  32
ENDBRANCH  29  31
ENDBRANCH  22  29
ENDBRANCH  18  21
ENDBRANCH  10  17
ENDBRANCH   7   9
ENDBRANCH   6   7
ENDBRANCH   5   6
ENDBRANCH   4   5
ENDBRANCH   3   4
ENDBRANCH   2   3
ENDBRANCH   1   2
BRANCH   1  34
ATOM     34  O   UNL A   1      35.567  30.501  28.598  1.00  0.00    -0.377 OA
BRANCH  34  35
ATOM     35  C   UNL A   1      35.415  31.872  28.913  1.00  0.00     0.188 C 
BRANCH  35  36
ATOM     36  C   UNL A   1      34.801  32.179  30.295  1.00  0.00     0.188 C 
BRANCH  36  37
ATOM     37  O   UNL A   1      35.501  33.151  31.063  1.00  0.00    -0.376 OA
BRANCH  37  38
ATOM     38  C   UNL A   1      36.121  32.758  32.279  1.00  0.00     0.202 C 
BRANCH  38  39
ATOM     39  C   UNL A   1      37.430  33.478  32.615  1.00  0.00     0.261 C 
BRANCH  39  40
ATOM     40  O   UNL A   1      38.519  32.608  32.872  1.00  0.00    -0.460 OA
BRANCH  40  41
ATOM     41  C   UNL A   1      38.415  31.398  32.296  1.00  0.00     0.338 C 
ATOM     42  O   UNL A   1      37.606  31.049  31.452  1.00  0.00    -0.246 OA
BRANCH  41  43
ATOM     43  C   UNL A   1      39.361  30.481  32.925  1.00  0.00     0.060 A 
ATOM     44  C   UNL A   1      40.609  31.026  33.226  1.00  0.00     0.016 A 
ATOM     45  C   UNL A   1      39.146  29.105  32.773  1.00  0.00     0.016 A 
ATOM     46  C   UNL A   1      41.705  30.219  33.064  1.00  0.00     0.010 A 
ATOM     47  C   UNL A   1      40.244  28.305  32.591  1.00  0.00     0.010 A 
ATOM     48  C   UNL A   1      41.499  28.904  32.632  1.00  0.00    -0.014 A 
BRANCH  48  49
ATOM     49  C   UNL A   1      42.661  28.159  32.221  1.00  0.00     0.031 A 
ATOM     50  C   UNL A   1      43.481  27.711  33.352  1.00  0.00     0.074 A 
ATOM     51  C   UNL A   1      42.927  27.876  30.936  1.00  0.00     0.049 A 
ATOM     52  N   UNL A   1      44.614  28.192  33.732  1.00  0.00    -0.248 NA
ATOM     53  C   UNL A   1      42.875  26.742  34.274  1.00  0.00     0.031 C 
ATOM     54  C   UNL A   1      42.043  28.046  29.777  1.00  0.00     0.029 A 
ATOM     55  N   UNL A   1      44.029  27.278  30.410  1.00  0.00    -0.354 N 
ATOM     56  C   UNL A   1      44.977  27.418  34.823  1.00  0.00     0.074 A 
ATOM     57  C   UNL A   1      43.793  26.708  35.238  1.00  0.00     0.031 C 
ATOM     58  C   UNL A   1      42.561  27.368  28.727  1.00  0.00     0.029 A 
ATOM     59  C   UNL A   1      43.869  26.856  29.101  1.00  0.00     0.049 A 
ATOM     60  H   UNL A   1      44.865  27.156  30.916  1.00  0.00     0.167 HD
ATOM     61  C   UNL A   1      46.284  27.177  35.104  1.00  0.00     0.031 A 
ATOM     62  C   UNL A   1      44.740  26.100  28.392  1.00  0.00     0.031 A 
ATOM     63  C   UNL A   1      47.165  28.059  34.384  1.00  0.00     0.049 A 
ATOM     64  C   UNL A   1      46.078  26.248  29.012  1.00  0.00     0.074 A 
ATOM     65  C   UNL A   1      47.505  29.391  34.453  1.00  0.00     0.029 A 
ATOM     66  N   UNL A   1      47.565  27.597  33.152  1.00  0.00    -0.354 N 
ATOM     67  N   UNL A   1      46.744  27.368  29.007  1.00  0.00    -0.248 NA
ATOM     68  C   UNL A   1      46.566  25.244  29.950  1.00  0.00     0.031 C 
ATOM     69  C   UNL A   1      47.907  29.766  33.138  1.00  0.00     0.029 A 
ATOM     70  C   UNL A   1      47.808  28.650  32.306  1.00  0.00     0.049 A 
ATOM     71  H   UNL A   1      47.663  26.647  32.913  1.00  0.00     0.167 HD
ATOM     72  C   UNL A   1      47.440  27.369  30.201  1.00  0.00     0.074 A 
ATOM     73  C   UNL A   1      47.434  25.983  30.647  1.00  0.00     0.031 C 
ATOM     74  C   UNL A   1      47.691  28.534  30.864  1.00  0.00     0.031 A 
BRANCH  61  75
ATOM     75  C   UNL A   1      46.759  25.853  35.644  1.00  0.00    -0.014 A 
ATOM     76  C   UNL A   1      46.654  24.711  34.830  1.00  0.00     0.010 A 
ATOM     77  C   UNL A   1      47.040  25.644  37.012  1.00  0.00     0.010 A 
ATOM     78  C   UNL A   1      46.774  23.425  35.372  1.00  0.00     0.020 A 
ATOM     79  C   UNL A   1      47.206  24.372  37.553  1.00  0.00     0.020 A 
ATOM     80  C   UNL A   1      47.037  23.267  36.734  1.00  0.00     0.054 A 
BRANCH  80  81
ATOM     81  S   UNL A   1      47.073  21.608  37.451  1.00  0.00     0.124 S 
ATOM     82  O   UNL A   1      46.926  21.894  38.875  1.00  0.00    -0.237 OA
ATOM     83  O   UNL A   1      45.929  20.967  36.809  1.00  0.00    -0.237 OA
ATOM     84  O   UNL A   1      48.379  21.089  37.048  1.00  0.00    -0.744 OA
ENDBRANCH  80  81
ENDBRANCH  61  75
BRANCH  62  85
ATOM     85  C   UNL A   1      44.448  25.103  27.342  1.00  0.00    -0.014 A 
ATOM     86  C   UNL A   1      44.841  25.325  26.011  1.00  0.00     0.010 A 
ATOM     87  C   UNL A   1      44.032  23.806  27.705  1.00  0.00     0.010 A 
ATOM     88  C   UNL A   1      44.885  24.267  25.091  1.00  0.00     0.020 A 
ATOM     89  C   UNL A   1      44.068  22.748  26.791  1.00  0.00     0.020 A 
ATOM     90  C   UNL A   1      44.522  22.980  25.494  1.00  0.00     0.054 A 
BRANCH  90  91
ATOM     91  S   UNL A   1      44.774  21.589  24.353  1.00  0.00     0.124 S 
ATOM     92  O   UNL A   1      46.179  21.261  24.567  1.00  0.00    -0.237 OA
ATOM     93  O   UNL A   1      43.812  20.603  24.840  1.00  0.00    -0.237 OA
ATOM     94  O   UNL A   1      44.461  22.158  23.043  1.00  0.00    -0.744 OA
ENDBRANCH  90  91
ENDBRANCH  62  85
BRANCH  74  95
ATOM     95  C   UNL A   1      47.633  29.809  30.063  1.00  0.00    -0.014 A 
ATOM     96  C   UNL A   1      48.675  30.250  29.225  1.00  0.00     0.010 A 
ATOM     97  C   UNL A   1      46.437  30.546  30.097  1.00  0.00     0.010 A 
ATOM     98  C   UNL A   1      48.527  31.413  28.454  1.00  0.00     0.020 A 
ATOM     99  C   UNL A   1      46.278  31.695  29.319  1.00  0.00     0.020 A 
ATOM    100  C   UNL A   1      47.327  32.127  28.507  1.00  0.00     0.054 A 
BRANCH 100 101
ATOM    101  S   UNL A   1      47.118  33.599  27.464  1.00  0.00     0.124 S 
ATOM    102  O   UNL A   1      47.069  33.033  26.120  1.00  0.00    -0.237 OA
ATOM    103  O   UNL A   1      45.863  34.169  27.952  1.00  0.00    -0.237 OA
ATOM    104  O   UNL A   1      48.306  34.402  27.754  1.00  0.00    -0.744 OA
ENDBRANCH 100 101
ENDBRANCH  74  95
ENDBRANCH  48  49
ENDBRANCH  41  43
ENDBRANCH  40  41
ENDBRANCH  39  40
ENDBRANCH  38  39
ENDBRANCH  37  38
ENDBRANCH  36  37
ENDBRANCH  35  36
ENDBRANCH  34  35
ENDBRANCH   1  34
TORSDOF 28
ENDMDL
