MODEL 1
REMARK VINA RESULT:      -8.7      0.000      0.000
REMARK SMILES O=C(CSc1nc2cnccc2n1CCC1CC1)OCCOCCOCCOCCOC(=O)c1ccc(-c2c3nc(c(-c4ccc(S(=O)(=O)[O-])cc4)c4ccc([nH]4)c(-c4ccc(S(=O)(=O)[O-])cc4)c4nc(c(-c5ccc(S(=O)(=O)[O-])cc5)c5ccc2[nH]5)C=C4)C=C3)cc1
REMARK SMILES IDX 24 1 23 2 22 3 21 4 20 5 19 6 2 7 1 8 3 9 4 10 5 11 6 12
REMARK SMILES IDX 13 13 7 14 12 15 8 16 11 17 9 18 10 19 14 20 15 21 16 22
REMARK SMILES IDX 17 23 18 24 25 25 26 26 27 27 28 28 29 29 30 30 31 31 32 32
REMARK SMILES IDX 33 33 34 34 35 35 93 36 36 37 92 38 37 39 38 40 39 41 86 42
REMARK SMILES IDX 40 43 91 44 85 45 87 46 41 47 90 48 84 49 83 50 42 52 72 53
REMARK SMILES IDX 53 54 71 55 54 56 57 57 70 58 88 59 55 60 56 61 69 63 89 64
REMARK SMILES IDX 58 65 43 66 44 67 52 68 45 69 51 70 46 71 47 72 48 73 49 74
REMARK SMILES IDX 50 75 73 76 74 77 82 78 75 79 81 80 76 81 77 82 78 83 79 84
REMARK SMILES IDX 80 85 59 86 60 87 68 88 61 89 67 90 62 91 63 92 64 93 65 94
REMARK SMILES IDX 66 95
REMARK H PARENT 87 51 57 62
REMARK Flexibility Score: inf
ROOT
ATOM      1  C   UNL A   1      30.781  25.976  23.342  1.00  0.00     0.188 C 
ENDROOT
BRANCH   1   2
ATOM      2  C   UNL A   1      30.776  24.452  23.317  1.00  0.00     0.188 C 
BRANCH   2   3
ATOM      3  O   UNL A   1      32.114  23.974  23.227  1.00  0.00    -0.376 OA
BRANCH   3   4
ATOM      4  C   UNL A   1      32.626  23.020  24.154  1.00  0.00     0.202 C 
BRANCH   4   5
ATOM      5  C   UNL A   1      32.447  23.258  25.656  1.00  0.00     0.261 C 
BRANCH   5   6
ATOM      6  O   UNL A   1      33.675  23.070  26.378  1.00  0.00    -0.463 OA
BRANCH   6   7
ATOM      7  C   UNL A   1      34.817  23.141  25.642  1.00  0.00     0.316 C 
ATOM      8  O   UNL A   1      35.049  24.095  24.905  1.00  0.00    -0.251 OA
BRANCH   7   9
ATOM      9  C   UNL A   1      35.760  21.987  25.790  1.00  0.00     0.200 C 
BRANCH   9  10
ATOM     10  S   UNL A   1      37.249  22.243  24.804  1.00  0.00    -0.076 SA
BRANCH  10  11
ATOM     11  C   UNL A   1      38.285  22.893  26.025  1.00  0.00     0.169 A 
ATOM     12  N   UNL A   1      38.025  24.030  26.626  1.00  0.00    -0.221 NA
ATOM     13  N   UNL A   1      39.484  22.347  26.427  1.00  0.00    -0.319 N 
ATOM     14  C   UNL A   1      39.201  24.361  27.248  1.00  0.00     0.108 A 
ATOM     15  C   UNL A   1      40.149  23.350  27.099  1.00  0.00     0.072 A 
ATOM     16  C   UNL A   1      39.548  25.524  27.939  1.00  0.00     0.141 A 
ATOM     17  C   UNL A   1      41.453  23.506  27.564  1.00  0.00     0.049 A 
ATOM     18  N   UNL A   1      40.796  25.681  28.452  1.00  0.00    -0.262 NA
ATOM     19  C   UNL A   1      41.705  24.703  28.220  1.00  0.00     0.113 A 
BRANCH  13  20
ATOM     20  C   UNL A   1      39.969  21.004  26.160  1.00  0.00     0.125 C 
BRANCH  20  21
ATOM     21  C   UNL A   1      40.772  20.271  27.249  1.00  0.00     0.025 C 
BRANCH  21  22
ATOM     22  C   UNL A   1      42.211  19.897  26.990  1.00  0.00    -0.009 C 
ATOM     23  C   UNL A   1      42.647  18.535  26.495  1.00  0.00     0.004 C 
ATOM     24  C   UNL A   1      42.766  19.735  25.609  1.00  0.00     0.004 C 
ENDBRANCH  21  22
ENDBRANCH  20  21
ENDBRANCH  13  20
ENDBRANCH  10  11
ENDBRANCH   9  10
ENDBRANCH   7   9
ENDBRANCH   6   7
ENDBRANCH   5   6
ENDBRANCH   4   5
ENDBRANCH   3   4
ENDBRANCH   2   3
ENDBRANCH   1   2
BRANCH   1  25
ATOM     25  O   UNL A   1      31.556  26.511  24.408  1.00  0.00    -0.377 OA
BRANCH  25  26
ATOM     26  C   UNL A   1      30.932  26.504  25.684  1.00  0.00     0.188 C 
BRANCH  26  27
ATOM     27  C   UNL A   1      31.673  27.181  26.864  1.00  0.00     0.188 C 
BRANCH  27  28
ATOM     28  O   UNL A   1      31.450  28.547  27.180  1.00  0.00    -0.376 OA
BRANCH  28  29
ATOM     29  C   UNL A   1      32.234  29.521  26.519  1.00  0.00     0.202 C 
BRANCH  29  30
ATOM     30  C   UNL A   1      32.155  30.978  27.015  1.00  0.00     0.261 C 
BRANCH  30  31
ATOM     31  O   UNL A   1      33.409  31.520  27.465  1.00  0.00    -0.460 OA
BRANCH  31  32
ATOM     32  C   UNL A   1      33.445  32.821  27.854  1.00  0.00     0.338 C 
ATOM     33  O   UNL A   1      32.537  33.633  27.760  1.00  0.00    -0.246 OA
BRANCH  32  34
ATOM     34  C   UNL A   1      34.659  33.018  28.699  1.00  0.00     0.060 A 
ATOM     35  C   UNL A   1      35.782  32.195  28.587  1.00  0.00     0.016 A 
ATOM     36  C   UNL A   1      34.550  33.899  29.789  1.00  0.00     0.016 A 
ATOM     37  C   UNL A   1      36.740  32.203  29.607  1.00  0.00     0.010 A 
ATOM     38  C   UNL A   1      35.503  33.893  30.815  1.00  0.00     0.010 A 
ATOM     39  C   UNL A   1      36.600  33.032  30.740  1.00  0.00    -0.014 A 
BRANCH  39  40
ATOM     40  C   UNL A   1      37.766  33.134  31.644  1.00  0.00     0.031 A 
ATOM     41  C   UNL A   1      39.007  33.563  30.930  1.00  0.00     0.074 A 
ATOM     42  C   UNL A   1      37.835  33.108  32.994  1.00  0.00     0.049 A 
ATOM     43  N   UNL A   1      40.146  32.960  30.821  1.00  0.00    -0.248 NA
ATOM     44  C   UNL A   1      38.897  34.811  30.157  1.00  0.00     0.031 C 
ATOM     45  C   UNL A   1      36.739  33.195  33.958  1.00  0.00     0.029 A 
ATOM     46  N   UNL A   1      38.954  33.101  33.794  1.00  0.00    -0.354 N 
ATOM     47  C   UNL A   1      40.951  33.817  30.072  1.00  0.00     0.074 A 
ATOM     48  C   UNL A   1      40.095  34.871  29.584  1.00  0.00     0.031 C 
ATOM     49  C   UNL A   1      37.249  33.406  35.194  1.00  0.00     0.029 A 
ATOM     50  C   UNL A   1      38.703  33.398  35.128  1.00  0.00     0.049 A 
ATOM     51  H   UNL A   1      39.855  32.903  33.451  1.00  0.00     0.167 HD
ATOM     52  C   UNL A   1      42.305  33.721  30.000  1.00  0.00     0.031 A 
ATOM     53  C   UNL A   1      39.610  33.729  36.086  1.00  0.00     0.031 A 
ATOM     54  C   UNL A   1      42.802  32.465  30.469  1.00  0.00     0.049 A 
ATOM     55  C   UNL A   1      40.975  33.388  35.612  1.00  0.00     0.074 A 
ATOM     56  C   UNL A   1      42.616  31.150  30.098  1.00  0.00     0.029 A 
ATOM     57  N   UNL A   1      43.435  32.440  31.686  1.00  0.00    -0.354 N 
ATOM     58  N   UNL A   1      41.480  32.191  35.517  1.00  0.00    -0.248 NA
ATOM     59  C   UNL A   1      41.730  34.443  34.949  1.00  0.00     0.031 C 
ATOM     60  C   UNL A   1      42.737  30.404  31.299  1.00  0.00     0.029 A 
ATOM     61  C   UNL A   1      43.023  31.303  32.330  1.00  0.00     0.049 A 
ATOM     62  H   UNL A   1      44.066  33.112  32.033  1.00  0.00     0.167 HD
ATOM     63  C   UNL A   1      42.423  32.276  34.502  1.00  0.00     0.074 A 
ATOM     64  C   UNL A   1      42.585  33.702  34.247  1.00  0.00     0.031 C 
ATOM     65  C   UNL A   1      42.808  31.196  33.762  1.00  0.00     0.031 A 
BRANCH  52  66
ATOM     66  C   UNL A   1      43.205  34.898  29.738  1.00  0.00    -0.014 A 
ATOM     67  C   UNL A   1      43.698  35.193  28.450  1.00  0.00     0.010 A 
ATOM     68  C   UNL A   1      43.391  35.873  30.737  1.00  0.00     0.010 A 
ATOM     69  C   UNL A   1      44.389  36.372  28.174  1.00  0.00     0.020 A 
ATOM     70  C   UNL A   1      44.036  37.087  30.457  1.00  0.00     0.020 A 
ATOM     71  C   UNL A   1      44.542  37.320  29.178  1.00  0.00     0.054 A 
BRANCH  71  72
ATOM     72  S   UNL A   1      45.316  38.897  28.743  1.00  0.00     0.124 S 
ATOM     73  O   UNL A   1      46.123  39.170  29.929  1.00  0.00    -0.237 OA
ATOM     74  O   UNL A   1      46.063  38.558  27.536  1.00  0.00    -0.237 OA
ATOM     75  O   UNL A   1      44.178  39.790  28.539  1.00  0.00    -0.744 OA
ENDBRANCH  71  72
ENDBRANCH  52  66
BRANCH  53  76
ATOM     76  C   UNL A   1      39.420  34.668  37.230  1.00  0.00    -0.014 A 
ATOM     77  C   UNL A   1      39.833  36.011  37.115  1.00  0.00     0.010 A 
ATOM     78  C   UNL A   1      39.117  34.189  38.521  1.00  0.00     0.010 A 
ATOM     79  C   UNL A   1      40.000  36.824  38.238  1.00  0.00     0.020 A 
ATOM     80  C   UNL A   1      39.296  34.998  39.659  1.00  0.00     0.020 A 
ATOM     81  C   UNL A   1      39.773  36.301  39.508  1.00  0.00     0.054 A 
BRANCH  81  82
ATOM     82  S   UNL A   1      40.216  37.328  40.937  1.00  0.00     0.124 S 
ATOM     83  O   UNL A   1      40.329  38.652  40.333  1.00  0.00    -0.237 OA
ATOM     84  O   UNL A   1      39.070  37.142  41.824  1.00  0.00    -0.237 OA
ATOM     85  O   UNL A   1      41.469  36.745  41.411  1.00  0.00    -0.744 OA
ENDBRANCH  81  82
ENDBRANCH  53  76
BRANCH  65  86
ATOM     86  C   UNL A   1      42.700  29.789  34.296  1.00  0.00    -0.014 A 
ATOM     87  C   UNL A   1      41.451  29.153  34.120  1.00  0.00     0.010 A 
ATOM     88  C   UNL A   1      43.665  29.146  35.083  1.00  0.00     0.010 A 
ATOM     89  C   UNL A   1      41.137  27.962  34.774  1.00  0.00     0.020 A 
ATOM     90  C   UNL A   1      43.372  27.920  35.700  1.00  0.00     0.020 A 
ATOM     91  C   UNL A   1      42.094  27.363  35.585  1.00  0.00     0.054 A 
BRANCH  91  92
ATOM     92  S   UNL A   1      41.660  25.859  36.494  1.00  0.00     0.124 S 
ATOM     93  O   UNL A   1      42.912  25.528  37.172  1.00  0.00    -0.237 OA
ATOM     94  O   UNL A   1      40.573  26.280  37.373  1.00  0.00    -0.237 OA
ATOM     95  O   UNL A   1      41.272  24.933  35.437  1.00  0.00    -0.744 OA
ENDBRANCH  91  92
ENDBRANCH  65  86
ENDBRANCH  39  40
ENDBRANCH  32  34
ENDBRANCH  31  32
ENDBRANCH  30  31
ENDBRANCH  29  30
ENDBRANCH  28  29
ENDBRANCH  27  28
ENDBRANCH  26  27
ENDBRANCH  25  26
ENDBRANCH   1  25
TORSDOF 28
ENDMDL
MODEL 2
REMARK VINA RESULT:      -8.5      3.554      8.990
REMARK SMILES O=C(CSc1nc2cnccc2n1CCC1CC1)OCCOCCOCCOCCOC(=O)c1ccc(-c2c3nc(c(-c4ccc(S(=O)(=O)[O-])cc4)c4ccc([nH]4)c(-c4ccc(S(=O)(=O)[O-])cc4)c4nc(c(-c5ccc(S(=O)(=O)[O-])cc5)c5ccc2[nH]5)C=C4)C=C3)cc1
REMARK SMILES IDX 24 1 23 2 22 3 21 4 20 5 19 6 2 7 1 8 3 9 4 10 5 11 6 12
REMARK SMILES IDX 13 13 7 14 12 15 8 16 11 17 9 18 10 19 14 20 15 21 16 22
REMARK SMILES IDX 17 23 18 24 25 25 26 26 27 27 28 28 29 29 30 30 31 31 32 32
REMARK SMILES IDX 33 33 34 34 35 35 93 36 36 37 92 38 37 39 38 40 39 41 86 42
REMARK SMILES IDX 40 43 91 44 85 45 87 46 41 47 90 48 84 49 83 50 42 52 72 53
REMARK SMILES IDX 53 54 71 55 54 56 57 57 70 58 88 59 55 60 56 61 69 63 89 64
REMARK SMILES IDX 58 65 43 66 44 67 52 68 45 69 51 70 46 71 47 72 48 73 49 74
REMARK SMILES IDX 50 75 73 76 74 77 82 78 75 79 81 80 76 81 77 82 78 83 79 84
REMARK SMILES IDX 80 85 59 86 60 87 68 88 61 89 67 90 62 91 63 92 64 93 65 94
REMARK SMILES IDX 66 95
REMARK H PARENT 87 51 57 62
REMARK Flexibility Score: inf
ROOT
ATOM      1  C   UNL A   1      33.653  29.027  27.234  1.00  0.00     0.188 C 
ENDROOT
BRANCH   1   2
ATOM      2  C   UNL A   1      33.944  28.080  26.076  1.00  0.00     0.188 C 
BRANCH   2   3
ATOM      3  O   UNL A   1      34.266  28.837  24.913  1.00  0.00    -0.376 OA
BRANCH   3   4
ATOM      4  C   UNL A   1      33.911  28.383  23.609  1.00  0.00     0.202 C 
BRANCH   4   5
ATOM      5  C   UNL A   1      32.572  28.810  23.003  1.00  0.00     0.261 C 
BRANCH   5   6
ATOM      6  O   UNL A   1      31.458  28.293  23.750  1.00  0.00    -0.463 OA
BRANCH   6   7
ATOM      7  C   UNL A   1      30.487  27.675  23.024  1.00  0.00     0.316 C 
ATOM      8  O   UNL A   1      30.025  28.181  22.006  1.00  0.00    -0.251 OA
BRANCH   7   9
ATOM      9  C   UNL A   1      30.025  26.350  23.548  1.00  0.00     0.200 C 
BRANCH   9  10
ATOM     10  S   UNL A   1      30.984  25.861  24.996  1.00  0.00    -0.076 SA
BRANCH  10  11
ATOM     11  C   UNL A   1      31.675  24.396  24.391  1.00  0.00     0.169 A 
ATOM     12  N   UNL A   1      31.228  23.812  23.305  1.00  0.00    -0.221 NA
ATOM     13  N   UNL A   1      32.676  23.675  25.004  1.00  0.00    -0.319 N 
ATOM     14  C   UNL A   1      31.775  22.556  23.346  1.00  0.00     0.108 A 
ATOM     15  C   UNL A   1      32.647  22.424  24.426  1.00  0.00     0.072 A 
ATOM     16  C   UNL A   1      31.554  21.459  22.511  1.00  0.00     0.141 A 
ATOM     17  C   UNL A   1      33.246  21.203  24.727  1.00  0.00     0.049 A 
ATOM     18  N   UNL A   1      32.168  20.271  22.748  1.00  0.00    -0.262 NA
ATOM     19  C   UNL A   1      32.951  20.169  23.850  1.00  0.00     0.113 A 
BRANCH  13  20
ATOM     20  C   UNL A   1      33.554  24.125  26.070  1.00  0.00     0.125 C 
BRANCH  20  21
ATOM     21  C   UNL A   1      35.019  24.460  25.738  1.00  0.00     0.025 C 
BRANCH  21  22
ATOM     22  C   UNL A   1      36.079  23.396  25.882  1.00  0.00    -0.009 C 
ATOM     23  C   UNL A   1      36.938  22.907  24.736  1.00  0.00     0.004 C 
ATOM     24  C   UNL A   1      37.543  23.705  25.848  1.00  0.00     0.004 C 
ENDBRANCH  21  22
ENDBRANCH  20  21
ENDBRANCH  13  20
ENDBRANCH  10  11
ENDBRANCH   9  10
ENDBRANCH   7   9
ENDBRANCH   6   7
ENDBRANCH   5   6
ENDBRANCH   4   5
ENDBRANCH   3   4
ENDBRANCH   2   3
ENDBRANCH   1   2
BRANCH   1  25
ATOM     25  O   UNL A   1      32.866  30.148  26.850  1.00  0.00    -0.377 OA
BRANCH  25  26
ATOM     26  C   UNL A   1      33.298  31.404  27.353  1.00  0.00     0.188 C 
BRANCH  26  27
ATOM     27  C   UNL A   1      34.678  31.476  28.052  1.00  0.00     0.188 C 
BRANCH  27  28
ATOM     28  O   UNL A   1      35.210  32.717  28.493  1.00  0.00    -0.376 OA
BRANCH  28  29
ATOM     29  C   UNL A   1      34.648  33.906  27.974  1.00  0.00     0.202 C 
BRANCH  29  30
ATOM     30  C   UNL A   1      33.773  34.765  28.907  1.00  0.00     0.261 C 
BRANCH  30  31
ATOM     31  O   UNL A   1      33.312  34.079  30.085  1.00  0.00    -0.460 OA
BRANCH  31  32
ATOM     32  C   UNL A   1      33.452  34.699  31.285  1.00  0.00     0.338 C 
ATOM     33  O   UNL A   1      32.577  35.277  31.912  1.00  0.00    -0.246 OA
BRANCH  32  34
ATOM     34  C   UNL A   1      34.766  34.293  31.864  1.00  0.00     0.060 A 
ATOM     35  C   UNL A   1      35.132  32.952  32.005  1.00  0.00     0.016 A 
ATOM     36  C   UNL A   1      35.527  35.290  32.499  1.00  0.00     0.016 A 
ATOM     37  C   UNL A   1      36.201  32.620  32.844  1.00  0.00     0.010 A 
ATOM     38  C   UNL A   1      36.587  34.953  33.350  1.00  0.00     0.010 A 
ATOM     39  C   UNL A   1      36.924  33.612  33.542  1.00  0.00    -0.014 A 
BRANCH  39  40
ATOM     40  C   UNL A   1      38.167  33.184  34.219  1.00  0.00     0.031 A 
ATOM     41  C   UNL A   1      38.163  33.505  35.678  1.00  0.00     0.074 A 
ATOM     42  C   UNL A   1      39.174  32.392  33.787  1.00  0.00     0.049 A 
ATOM     43  N   UNL A   1      38.980  34.236  36.365  1.00  0.00    -0.248 NA
ATOM     44  C   UNL A   1      37.010  32.994  36.439  1.00  0.00     0.031 C 
ATOM     45  C   UNL A   1      39.212  31.546  32.595  1.00  0.00     0.029 A 
ATOM     46  N   UNL A   1      40.365  32.103  34.412  1.00  0.00    -0.354 N 
ATOM     47  C   UNL A   1      38.522  34.171  37.680  1.00  0.00     0.074 A 
ATOM     48  C   UNL A   1      37.243  33.506  37.643  1.00  0.00     0.031 C 
ATOM     49  C   UNL A   1      40.279  30.717  32.672  1.00  0.00     0.029 A 
ATOM     50  C   UNL A   1      41.042  31.016  33.875  1.00  0.00     0.049 A 
ATOM     51  H   UNL A   1      40.708  32.624  35.174  1.00  0.00     0.167 HD
ATOM     52  C   UNL A   1      39.264  34.525  38.763  1.00  0.00     0.031 A 
ATOM     53  C   UNL A   1      42.080  30.333  34.427  1.00  0.00     0.031 A 
ATOM     54  C   UNL A   1      40.419  35.296  38.422  1.00  0.00     0.049 A 
ATOM     55  C   UNL A   1      42.650  31.124  35.548  1.00  0.00     0.074 A 
ATOM     56  C   UNL A   1      40.625  36.505  37.794  1.00  0.00     0.029 A 
ATOM     57  N   UNL A   1      41.644  34.682  38.496  1.00  0.00    -0.354 N 
ATOM     58  N   UNL A   1      43.384  32.195  35.439  1.00  0.00    -0.248 NA
ATOM     59  C   UNL A   1      42.140  30.845  36.883  1.00  0.00     0.031 C 
ATOM     60  C   UNL A   1      41.869  36.369  37.124  1.00  0.00     0.029 A 
ATOM     61  C   UNL A   1      42.367  35.095  37.409  1.00  0.00     0.049 A 
ATOM     62  H   UNL A   1      41.947  34.060  39.197  1.00  0.00     0.167 HD
ATOM     63  C   UNL A   1      43.150  32.913  36.604  1.00  0.00     0.074 A 
ATOM     64  C   UNL A   1      42.439  31.995  37.484  1.00  0.00     0.031 C 
ATOM     65  C   UNL A   1      43.310  34.266  36.678  1.00  0.00     0.031 A 
BRANCH  52  66
ATOM     66  C   UNL A   1      39.065  33.932  40.132  1.00  0.00    -0.014 A 
ATOM     67  C   UNL A   1      38.299  34.578  41.125  1.00  0.00     0.010 A 
ATOM     68  C   UNL A   1      39.448  32.600  40.381  1.00  0.00     0.010 A 
ATOM     69  C   UNL A   1      37.973  33.956  42.329  1.00  0.00     0.020 A 
ATOM     70  C   UNL A   1      39.079  31.947  41.565  1.00  0.00     0.020 A 
ATOM     71  C   UNL A   1      38.354  32.636  42.537  1.00  0.00     0.054 A 
BRANCH  71  72
ATOM     72  S   UNL A   1      37.788  31.820  44.049  1.00  0.00     0.124 S 
ATOM     73  O   UNL A   1      39.007  31.805  44.854  1.00  0.00    -0.237 OA
ATOM     74  O   UNL A   1      36.735  32.717  44.515  1.00  0.00    -0.237 OA
ATOM     75  O   UNL A   1      37.329  30.515  43.580  1.00  0.00    -0.744 OA
ENDBRANCH  71  72
ENDBRANCH  52  66
BRANCH  53  76
ATOM     76  C   UNL A   1      42.377  28.876  34.303  1.00  0.00    -0.014 A 
ATOM     77  C   UNL A   1      41.471  27.927  34.816  1.00  0.00     0.010 A 
ATOM     78  C   UNL A   1      43.668  28.424  33.959  1.00  0.00     0.010 A 
ATOM     79  C   UNL A   1      41.848  26.600  35.039  1.00  0.00     0.020 A 
ATOM     80  C   UNL A   1      44.060  27.092  34.194  1.00  0.00     0.020 A 
ATOM     81  C   UNL A   1      43.153  26.200  34.767  1.00  0.00     0.054 A 
BRANCH  81  82
ATOM     82  S   UNL A   1      43.651  24.531  35.279  1.00  0.00     0.124 S 
ATOM     83  O   UNL A   1      44.838  24.307  34.460  1.00  0.00    -0.237 OA
ATOM     84  O   UNL A   1      43.901  24.704  36.708  1.00  0.00    -0.237 OA
ATOM     85  O   UNL A   1      42.494  23.704  34.946  1.00  0.00    -0.744 OA
ENDBRANCH  81  82
ENDBRANCH  53  76
BRANCH  65  86
ATOM     86  C   UNL A   1      44.241  35.008  35.752  1.00  0.00    -0.014 A 
ATOM     87  C   UNL A   1      43.678  35.460  34.538  1.00  0.00     0.010 A 
ATOM     88  C   UNL A   1      45.626  35.130  35.925  1.00  0.00     0.010 A 
ATOM     89  C   UNL A   1      44.472  35.936  33.495  1.00  0.00     0.020 A 
ATOM     90  C   UNL A   1      46.424  35.658  34.898  1.00  0.00     0.020 A 
ATOM     91  C   UNL A   1      45.849  36.008  33.671  1.00  0.00     0.054 A 
BRANCH  91  92
ATOM     92  S   UNL A   1      46.885  36.553  32.291  1.00  0.00     0.124 S 
ATOM     93  O   UNL A   1      47.925  37.328  32.965  1.00  0.00    -0.237 OA
ATOM     94  O   UNL A   1      47.339  35.308  31.679  1.00  0.00    -0.237 OA
ATOM     95  O   UNL A   1      45.966  37.339  31.476  1.00  0.00    -0.744 OA
ENDBRANCH  91  92
ENDBRANCH  65  86
ENDBRANCH  39  40
ENDBRANCH  32  34
ENDBRANCH  31  32
ENDBRANCH  30  31
ENDBRANCH  29  30
ENDBRANCH  28  29
ENDBRANCH  27  28
ENDBRANCH  26  27
ENDBRANCH  25  26
ENDBRANCH   1  25
TORSDOF 28
ENDMDL
MODEL 3
REMARK VINA RESULT:      -7.6      4.099      8.745
REMARK SMILES O=C(CSc1nc2cnccc2n1CCC1CC1)OCCOCCOCCOCCOC(=O)c1ccc(-c2c3nc(c(-c4ccc(S(=O)(=O)[O-])cc4)c4ccc([nH]4)c(-c4ccc(S(=O)(=O)[O-])cc4)c4nc(c(-c5ccc(S(=O)(=O)[O-])cc5)c5ccc2[nH]5)C=C4)C=C3)cc1
REMARK SMILES IDX 24 1 23 2 22 3 21 4 20 5 19 6 2 7 1 8 3 9 4 10 5 11 6 12
REMARK SMILES IDX 13 13 7 14 12 15 8 16 11 17 9 18 10 19 14 20 15 21 16 22
REMARK SMILES IDX 17 23 18 24 25 25 26 26 27 27 28 28 29 29 30 30 31 31 32 32
REMARK SMILES IDX 33 33 34 34 35 35 93 36 36 37 92 38 37 39 38 40 39 41 86 42
REMARK SMILES IDX 40 43 91 44 85 45 87 46 41 47 90 48 84 49 83 50 42 52 72 53
REMARK SMILES IDX 53 54 71 55 54 56 57 57 70 58 88 59 55 60 56 61 69 63 89 64
REMARK SMILES IDX 58 65 43 66 44 67 52 68 45 69 51 70 46 71 47 72 48 73 49 74
REMARK SMILES IDX 50 75 73 76 74 77 82 78 75 79 81 80 76 81 77 82 78 83 79 84
REMARK SMILES IDX 80 85 59 86 60 87 68 88 61 89 67 90 62 91 63 92 64 93 65 94
REMARK SMILES IDX 66 95
REMARK H PARENT 87 51 57 62
REMARK Flexibility Score: inf
ROOT
ATOM      1  C   UNL A   1      39.676  29.100  27.754  1.00  0.00     0.188 C 
ENDROOT
BRANCH   1   2
ATOM      2  C   UNL A   1      39.557  29.201  29.270  1.00  0.00     0.188 C 
BRANCH   2   3
ATOM      3  O   UNL A   1      38.359  29.893  29.607  1.00  0.00    -0.376 OA
BRANCH   3   4
ATOM      4  C   UNL A   1      38.044  31.158  29.029  1.00  0.00     0.202 C 
BRANCH   4   5
ATOM      5  C   UNL A   1      36.580  31.595  28.926  1.00  0.00     0.261 C 
BRANCH   5   6
ATOM      6  O   UNL A   1      36.071  31.445  27.591  1.00  0.00    -0.463 OA
BRANCH   6   7
ATOM      7  C   UNL A   1      34.864  30.828  27.477  1.00  0.00     0.316 C 
ATOM      8  O   UNL A   1      33.829  31.364  27.860  1.00  0.00    -0.251 OA
BRANCH   7   9
ATOM      9  C   UNL A   1      34.886  29.462  26.862  1.00  0.00     0.200 C 
BRANCH   9  10
ATOM     10  S   UNL A   1      33.403  28.534  27.302  1.00  0.00    -0.076 SA
BRANCH  10  11
ATOM     11  C   UNL A   1      32.559  28.625  25.797  1.00  0.00     0.169 A 
ATOM     12  N   UNL A   1      31.842  29.672  25.462  1.00  0.00    -0.221 NA
ATOM     13  N   UNL A   1      32.490  27.618  24.860  1.00  0.00    -0.319 N 
ATOM     14  C   UNL A   1      31.087  29.241  24.404  1.00  0.00     0.108 A 
ATOM     15  C   UNL A   1      31.434  27.942  24.035  1.00  0.00     0.072 A 
ATOM     16  C   UNL A   1      30.058  29.891  23.718  1.00  0.00     0.141 A 
ATOM     17  C   UNL A   1      30.732  27.258  23.046  1.00  0.00     0.049 A 
ATOM     18  N   UNL A   1      29.392  29.269  22.711  1.00  0.00    -0.262 NA
ATOM     19  C   UNL A   1      29.717  27.982  22.436  1.00  0.00     0.113 A 
BRANCH  13  20
ATOM     20  C   UNL A   1      33.330  26.435  24.781  1.00  0.00     0.125 C 
BRANCH  20  21
ATOM     21  C   UNL A   1      33.110  25.440  23.627  1.00  0.00     0.025 C 
BRANCH  21  22
ATOM     22  C   UNL A   1      33.660  24.039  23.737  1.00  0.00    -0.009 C 
ATOM     23  C   UNL A   1      35.117  23.691  23.524  1.00  0.00     0.004 C 
ATOM     24  C   UNL A   1      34.507  23.592  24.887  1.00  0.00     0.004 C 
ENDBRANCH  21  22
ENDBRANCH  20  21
ENDBRANCH  13  20
ENDBRANCH  10  11
ENDBRANCH   9  10
ENDBRANCH   7   9
ENDBRANCH   6   7
ENDBRANCH   5   6
ENDBRANCH   4   5
ENDBRANCH   3   4
ENDBRANCH   2   3
ENDBRANCH   1   2
BRANCH   1  25
ATOM     25  O   UNL A   1      40.547  28.056  27.334  1.00  0.00    -0.377 OA
BRANCH  25  26
ATOM     26  C   UNL A   1      40.267  26.770  27.870  1.00  0.00     0.188 C 
BRANCH  26  27
ATOM     27  C   UNL A   1      41.441  25.956  28.468  1.00  0.00     0.188 C 
BRANCH  27  28
ATOM     28  O   UNL A   1      42.214  26.470  29.543  1.00  0.00    -0.376 OA
BRANCH  28  29
ATOM     29  C   UNL A   1      43.611  26.591  29.362  1.00  0.00     0.202 C 
BRANCH  29  30
ATOM     30  C   UNL A   1      44.539  25.822  30.321  1.00  0.00     0.261 C 
BRANCH  30  31
ATOM     31  O   UNL A   1      43.953  25.522  31.601  1.00  0.00    -0.460 OA
BRANCH  31  32
ATOM     32  C   UNL A   1      44.591  25.959  32.718  1.00  0.00     0.338 C 
ATOM     33  O   UNL A   1      45.695  25.612  33.107  1.00  0.00    -0.246 OA
BRANCH  32  34
ATOM     34  C   UNL A   1      43.864  27.159  33.226  1.00  0.00     0.060 A 
ATOM     35  C   UNL A   1      42.650  27.057  33.909  1.00  0.00     0.016 A 
ATOM     36  C   UNL A   1      44.306  28.418  32.781  1.00  0.00     0.016 A 
ATOM     37  C   UNL A   1      41.854  28.197  34.064  1.00  0.00     0.010 A 
ATOM     38  C   UNL A   1      43.500  29.554  32.924  1.00  0.00     0.010 A 
ATOM     39  C   UNL A   1      42.258  29.450  33.555  1.00  0.00    -0.014 A 
BRANCH  39  40
ATOM     40  C   UNL A   1      41.463  30.628  33.963  1.00  0.00     0.031 A 
ATOM     41  C   UNL A   1      42.301  31.855  34.126  1.00  0.00     0.074 A 
ATOM     42  C   UNL A   1      40.125  30.812  34.006  1.00  0.00     0.049 A 
ATOM     43  N   UNL A   1      42.476  32.603  35.167  1.00  0.00    -0.248 NA
ATOM     44  C   UNL A   1      43.125  32.222  32.962  1.00  0.00     0.031 C 
ATOM     45  C   UNL A   1      39.077  29.964  33.440  1.00  0.00     0.029 A 
ATOM     46  N   UNL A   1      39.423  31.891  34.492  1.00  0.00    -0.354 N 
ATOM     47  C   UNL A   1      43.334  33.622  34.753  1.00  0.00     0.074 A 
ATOM     48  C   UNL A   1      43.800  33.264  33.436  1.00  0.00     0.031 C 
ATOM     49  C   UNL A   1      37.901  30.634  33.462  1.00  0.00     0.029 A 
ATOM     50  C   UNL A   1      38.090  31.927  34.104  1.00  0.00     0.049 A 
ATOM     51  H   UNL A   1      39.832  32.578  35.067  1.00  0.00     0.167 HD
ATOM     52  C   UNL A   1      43.515  34.786  35.431  1.00  0.00     0.031 A 
ATOM     53  C   UNL A   1      37.231  32.977  34.193  1.00  0.00     0.031 A 
ATOM     54  C   UNL A   1      43.027  34.733  36.774  1.00  0.00     0.049 A 
ATOM     55  C   UNL A   1      37.801  34.005  35.100  1.00  0.00     0.074 A 
ATOM     56  C   UNL A   1      43.313  33.960  37.879  1.00  0.00     0.029 A 
ATOM     57  N   UNL A   1      41.868  35.410  37.062  1.00  0.00    -0.354 N 
ATOM     58  N   UNL A   1      37.877  33.930  36.398  1.00  0.00    -0.248 NA
ATOM     59  C   UNL A   1      38.579  35.073  34.486  1.00  0.00     0.031 C 
ATOM     60  C   UNL A   1      42.090  33.864  38.592  1.00  0.00     0.029 A 
ATOM     61  C   UNL A   1      41.134  34.612  37.899  1.00  0.00     0.049 A 
ATOM     62  H   UNL A   1      41.611  36.300  36.729  1.00  0.00     0.167 HD
ATOM     63  C   UNL A   1      38.972  34.711  36.742  1.00  0.00     0.074 A 
ATOM     64  C   UNL A   1      39.312  35.448  35.533  1.00  0.00     0.031 C 
ATOM     65  C   UNL A   1      39.686  34.514  37.889  1.00  0.00     0.031 A 
BRANCH  52  66
ATOM     66  C   UNL A   1      43.913  36.076  34.767  1.00  0.00    -0.014 A 
ATOM     67  C   UNL A   1      43.050  36.768  33.892  1.00  0.00     0.010 A 
ATOM     68  C   UNL A   1      45.077  36.749  35.186  1.00  0.00     0.010 A 
ATOM     69  C   UNL A   1      43.348  38.042  33.412  1.00  0.00     0.020 A 
ATOM     70  C   UNL A   1      45.360  38.053  34.752  1.00  0.00     0.020 A 
ATOM     71  C   UNL A   1      44.497  38.684  33.857  1.00  0.00     0.054 A 
BRANCH  71  72
ATOM     72  S   UNL A   1      44.773  40.391  33.324  1.00  0.00     0.124 S 
ATOM     73  O   UNL A   1      43.414  40.925  33.319  1.00  0.00    -0.237 OA
ATOM     74  O   UNL A   1      45.650  40.909  34.370  1.00  0.00    -0.237 OA
ATOM     75  O   UNL A   1      45.393  40.241  32.010  1.00  0.00    -0.744 OA
ENDBRANCH  71  72
ENDBRANCH  52  66
BRANCH  53  76
ATOM     76  C   UNL A   1      36.124  33.327  33.255  1.00  0.00    -0.014 A 
ATOM     77  C   UNL A   1      36.406  33.582  31.898  1.00  0.00     0.010 A 
ATOM     78  C   UNL A   1      34.854  33.703  33.737  1.00  0.00     0.010 A 
ATOM     79  C   UNL A   1      35.492  34.239  31.071  1.00  0.00     0.020 A 
ATOM     80  C   UNL A   1      33.932  34.378  32.915  1.00  0.00     0.020 A 
ATOM     81  C   UNL A   1      34.277  34.672  31.595  1.00  0.00     0.054 A 
BRANCH  81  82
ATOM     82  S   UNL A   1      33.224  35.711  30.543  1.00  0.00     0.124 S 
ATOM     83  O   UNL A   1      31.888  35.243  30.899  1.00  0.00    -0.237 OA
ATOM     84  O   UNL A   1      33.557  37.058  30.999  1.00  0.00    -0.237 OA
ATOM     85  O   UNL A   1      33.659  35.388  29.186  1.00  0.00    -0.744 OA
ENDBRANCH  81  82
ENDBRANCH  53  76
BRANCH  65  86
ATOM     86  C   UNL A   1      39.073  33.861  39.103  1.00  0.00    -0.014 A 
ATOM     87  C   UNL A   1      38.704  32.505  38.958  1.00  0.00     0.010 A 
ATOM     88  C   UNL A   1      38.696  34.526  40.276  1.00  0.00     0.010 A 
ATOM     89  C   UNL A   1      37.912  31.856  39.904  1.00  0.00     0.020 A 
ATOM     90  C   UNL A   1      37.944  33.861  41.257  1.00  0.00     0.020 A 
ATOM     91  C   UNL A   1      37.513  32.548  41.041  1.00  0.00     0.054 A 
BRANCH  91  92
ATOM     92  S   UNL A   1      36.422  31.730  42.231  1.00  0.00     0.124 S 
ATOM     93  O   UNL A   1      36.340  32.713  43.311  1.00  0.00    -0.237 OA
ATOM     94  O   UNL A   1      35.183  31.522  41.488  1.00  0.00    -0.237 OA
ATOM     95  O   UNL A   1      37.150  30.512  42.566  1.00  0.00    -0.744 OA
ENDBRANCH  91  92
ENDBRANCH  65  86
ENDBRANCH  39  40
ENDBRANCH  32  34
ENDBRANCH  31  32
ENDBRANCH  30  31
ENDBRANCH  29  30
ENDBRANCH  28  29
ENDBRANCH  27  28
ENDBRANCH  26  27
ENDBRANCH  25  26
ENDBRANCH   1  25
TORSDOF 28
ENDMDL
