MODEL 1
REMARK VINA RESULT:      -9.1      0.000      0.000
REMARK SMILES COc1cc(OC(F)(F)F)cc2c1O[C@@H](C(F)(F)F)C(C(=O)OCCOCCOCCOCCOC(=O)c1ccc(-c3c4nc(c(-c5ccc(S(=O)(=O)[O-])cc5)c5ccc([nH]5)c(-c5ccc(S(=O)(=O)[O-])cc5)c5nc(c(-c6ccc(S(=O)(=O)[O-])cc6)c6ccc3[nH]6)C=C5)C=C4)cc1)=C2
REMARK SMILES IDX 30 1 29 2 28 3 27 4 26 5 25 6 24 7 23 8 21 9 22 10 20 11
REMARK SMILES IDX 3 12 4 13 13 14 5 15 12 16 14 17 11 18 98 19 15 20 2 21 1 22
REMARK SMILES IDX 6 23 7 24 8 25 9 26 10 27 16 28 17 29 18 30 19 31 31 32
REMARK SMILES IDX 32 33 33 34 34 35 35 36 36 37 37 38 38 39 39 40 97 41 40 42
REMARK SMILES IDX 96 43 41 44 42 45 43 46 90 47 44 48 95 49 89 50 91 51 45 52
REMARK SMILES IDX 94 53 88 54 87 55 46 57 76 58 57 59 75 60 58 61 61 62 74 63
REMARK SMILES IDX 92 64 59 65 60 66 73 68 93 69 62 70 47 71 48 72 56 73 49 74
REMARK SMILES IDX 55 75 50 76 51 77 52 78 53 79 54 80 77 81 78 82 86 83 79 84
REMARK SMILES IDX 85 85 80 86 81 87 82 88 83 89 84 90 63 91 64 92 72 93 65 94
REMARK SMILES IDX 71 95 66 96 67 97 68 98 69 99 70 100
REMARK H PARENT 91 56 61 67
REMARK Flexibility Score: inf
ROOT
ATOM      1  C   UNL A   1      44.829  22.520  25.559  1.00  0.00     0.188 C 
ENDROOT
BRANCH   1   2
ATOM      2  O   UNL A   1      43.814  21.583  25.901  1.00  0.00    -0.377 OA
BRANCH   2   3
ATOM      3  C   UNL A   1      42.459  21.890  25.623  1.00  0.00     0.188 C 
BRANCH   3   4
ATOM      4  C   UNL A   1      41.435  21.874  26.774  1.00  0.00     0.188 C 
BRANCH   4   5
ATOM      5  O   UNL A   1      40.512  22.952  26.764  1.00  0.00    -0.376 OA
BRANCH   5   6
ATOM      6  C   UNL A   1      39.138  22.634  26.613  1.00  0.00     0.202 C 
BRANCH   6   7
ATOM      7  C   UNL A   1      38.226  23.786  26.169  1.00  0.00     0.261 C 
BRANCH   7   8
ATOM      8  O   UNL A   1      37.183  23.409  25.255  1.00  0.00    -0.460 OA
BRANCH   8   9
ATOM      9  C   UNL A   1      35.955  23.197  25.776  1.00  0.00     0.338 C 
ATOM     10  O   UNL A   1      35.667  22.391  26.641  1.00  0.00    -0.246 OA
BRANCH   9  11
ATOM     11  C   UNL A   1      35.027  24.228  25.271  1.00  0.00     0.087 C 
ATOM     12  C   UNL A   1      32.799  27.175  23.329  1.00  0.00     0.165 A 
ATOM     13  C   UNL A   1      32.692  28.452  23.884  1.00  0.00     0.097 A 
ATOM     14  C   UNL A   1      33.538  26.187  23.984  1.00  0.00     0.170 A 
ATOM     15  C   UNL A   1      33.283  28.735  25.117  1.00  0.00     0.134 A 
ATOM     16  C   UNL A   1      34.145  26.462  25.217  1.00  0.00     0.025 A 
ATOM     17  O   UNL A   1      33.744  24.995  23.339  1.00  0.00    -0.471 OA
ATOM     18  C   UNL A   1      33.986  27.727  25.793  1.00  0.00     0.059 A 
ATOM     19  C   UNL A   1      35.040  25.463  25.804  1.00  0.00     0.027 C 
ATOM     20  C   UNL A   1      34.005  23.871  24.218  1.00  0.00     0.316 C 
BRANCH  12  21
ATOM     21  O   UNL A   1      32.240  27.003  22.087  1.00  0.00    -0.493 OA
ATOM     22  C   UNL A   1      31.167  26.064  22.096  1.00  0.00     0.278 C 
ENDBRANCH  12  21
BRANCH  15  23
ATOM     23  O   UNL A   1      33.260  29.945  25.753  1.00  0.00    -0.406 OA
BRANCH  23  24
ATOM     24  C   UNL A   1      32.111  30.249  26.530  1.00  0.00     0.573 C 
ATOM     25  F   UNL A   1      31.500  29.127  26.970  1.00  0.00    -0.132 F 
ATOM     26  F   UNL A   1      32.436  31.026  27.587  1.00  0.00    -0.132 F 
ATOM     27  F   UNL A   1      31.232  30.933  25.766  1.00  0.00    -0.132 F 
ENDBRANCH  23  24
ENDBRANCH  15  23
BRANCH  20  28
ATOM     28  C   UNL A   1      34.217  22.632  23.332  1.00  0.00     0.430 C 
ATOM     29  F   UNL A   1      33.057  22.175  22.808  1.00  0.00    -0.167 F 
ATOM     30  F   UNL A   1      34.988  22.965  22.258  1.00  0.00    -0.167 F 
ATOM     31  F   UNL A   1      34.839  21.618  23.963  1.00  0.00    -0.167 F 
ENDBRANCH  20  28
ENDBRANCH   9  11
ENDBRANCH   8   9
ENDBRANCH   7   8
ENDBRANCH   6   7
ENDBRANCH   5   6
ENDBRANCH   4   5
ENDBRANCH   3   4
ENDBRANCH   2   3
ENDBRANCH   1   2
BRANCH   1  32
ATOM     32  C   UNL A   1      44.605  23.574  24.446  1.00  0.00     0.188 C 
BRANCH  32  33
ATOM     33  O   UNL A   1      44.907  24.911  24.821  1.00  0.00    -0.376 OA
BRANCH  33  34
ATOM     34  C   UNL A   1      45.103  25.158  26.203  1.00  0.00     0.202 C 
BRANCH  34  35
ATOM     35  C   UNL A   1      44.001  25.973  26.891  1.00  0.00     0.261 C 
BRANCH  35  36
ATOM     36  O   UNL A   1      42.660  25.498  26.698  1.00  0.00    -0.460 OA
BRANCH  36  37
ATOM     37  C   UNL A   1      41.735  26.389  26.278  1.00  0.00     0.338 C 
ATOM     38  O   UNL A   1      41.101  26.359  25.238  1.00  0.00    -0.246 OA
BRANCH  37  39
ATOM     39  C   UNL A   1      41.483  27.313  27.402  1.00  0.00     0.060 A 
ATOM     40  C   UNL A   1      42.126  28.559  27.433  1.00  0.00     0.016 A 
ATOM     41  C   UNL A   1      40.570  26.958  28.397  1.00  0.00     0.016 A 
ATOM     42  C   UNL A   1      41.866  29.450  28.477  1.00  0.00     0.010 A 
ATOM     43  C   UNL A   1      40.331  27.838  29.451  1.00  0.00     0.010 A 
ATOM     44  C   UNL A   1      40.999  29.076  29.510  1.00  0.00    -0.014 A 
BRANCH  44  45
ATOM     45  C   UNL A   1      40.930  29.867  30.761  1.00  0.00     0.031 A 
ATOM     46  C   UNL A   1      41.965  29.602  31.817  1.00  0.00     0.074 A 
ATOM     47  C   UNL A   1      39.954  30.767  30.974  1.00  0.00     0.049 A 
ATOM     48  N   UNL A   1      42.049  30.070  33.034  1.00  0.00    -0.248 NA
ATOM     49  C   UNL A   1      43.045  28.669  31.451  1.00  0.00     0.031 C 
ATOM     50  C   UNL A   1      38.917  31.137  30.014  1.00  0.00     0.029 A 
ATOM     51  N   UNL A   1      39.669  31.517  32.089  1.00  0.00    -0.354 N 
ATOM     52  C   UNL A   1      43.181  29.480  33.584  1.00  0.00     0.074 A 
ATOM     53  C   UNL A   1      43.734  28.599  32.579  1.00  0.00     0.031 C 
ATOM     54  C   UNL A   1      38.088  32.027  30.593  1.00  0.00     0.029 A 
ATOM     55  C   UNL A   1      38.516  32.255  31.973  1.00  0.00     0.049 A 
ATOM     56  H   UNL A   1      40.236  31.524  32.893  1.00  0.00     0.167 HD
ATOM     57  C   UNL A   1      43.712  29.654  34.817  1.00  0.00     0.031 A 
ATOM     58  C   UNL A   1      37.862  33.000  32.887  1.00  0.00     0.031 A 
ATOM     59  C   UNL A   1      43.139  30.508  35.823  1.00  0.00     0.049 A 
ATOM     60  C   UNL A   1      38.426  33.125  34.279  1.00  0.00     0.074 A 
ATOM     61  C   UNL A   1      43.605  30.763  37.100  1.00  0.00     0.029 A 
ATOM     62  N   UNL A   1      41.967  31.233  35.669  1.00  0.00    -0.354 N 
ATOM     63  N   UNL A   1      39.514  32.586  34.780  1.00  0.00    -0.248 NA
ATOM     64  C   UNL A   1      37.682  33.966  35.227  1.00  0.00     0.031 C 
ATOM     65  C   UNL A   1      42.680  31.593  37.740  1.00  0.00     0.029 A 
ATOM     66  C   UNL A   1      41.677  31.915  36.838  1.00  0.00     0.049 A 
ATOM     67  H   UNL A   1      41.423  31.259  34.850  1.00  0.00     0.167 HD
ATOM     68  C   UNL A   1      39.598  33.046  36.092  1.00  0.00     0.074 A 
ATOM     69  C   UNL A   1      38.458  33.914  36.303  1.00  0.00     0.031 C 
ATOM     70  C   UNL A   1      40.538  32.778  37.033  1.00  0.00     0.031 A 
BRANCH  57  71
ATOM     71  C   UNL A   1      44.948  28.863  35.152  1.00  0.00    -0.014 A 
ATOM     72  C   UNL A   1      44.865  27.598  35.765  1.00  0.00     0.010 A 
ATOM     73  C   UNL A   1      46.216  29.393  34.850  1.00  0.00     0.010 A 
ATOM     74  C   UNL A   1      46.025  26.904  36.114  1.00  0.00     0.020 A 
ATOM     75  C   UNL A   1      47.378  28.687  35.169  1.00  0.00     0.020 A 
ATOM     76  C   UNL A   1      47.275  27.456  35.820  1.00  0.00     0.054 A 
BRANCH  76  77
ATOM     77  S   UNL A   1      48.765  26.534  36.287  1.00  0.00     0.124 S 
ATOM     78  O   UNL A   1      49.707  26.939  35.246  1.00  0.00    -0.237 OA
ATOM     79  O   UNL A   1      49.052  27.047  37.625  1.00  0.00    -0.237 OA
ATOM     80  O   UNL A   1      48.341  25.138  36.235  1.00  0.00    -0.744 OA
ENDBRANCH  76  77
ENDBRANCH  57  71
BRANCH  58  81
ATOM     81  C   UNL A   1      36.578  33.660  32.521  1.00  0.00    -0.014 A 
ATOM     82  C   UNL A   1      35.795  34.308  33.492  1.00  0.00     0.010 A 
ATOM     83  C   UNL A   1      36.140  33.658  31.182  1.00  0.00     0.010 A 
ATOM     84  C   UNL A   1      34.598  34.937  33.134  1.00  0.00     0.020 A 
ATOM     85  C   UNL A   1      34.959  34.310  30.815  1.00  0.00     0.020 A 
ATOM     86  C   UNL A   1      34.192  34.940  31.796  1.00  0.00     0.054 A 
BRANCH  86  87
ATOM     87  S   UNL A   1      32.675  35.828  31.344  1.00  0.00     0.124 S 
ATOM     88  O   UNL A   1      33.090  37.221  31.459  1.00  0.00    -0.237 OA
ATOM     89  O   UNL A   1      32.425  35.351  29.987  1.00  0.00    -0.237 OA
ATOM     90  O   UNL A   1      31.706  35.378  32.342  1.00  0.00    -0.744 OA
ENDBRANCH  86  87
ENDBRANCH  58  81
BRANCH  70  91
ATOM     91  C   UNL A   1      40.408  33.462  38.370  1.00  0.00    -0.014 A 
ATOM     92  C   UNL A   1      41.229  34.548  38.725  1.00  0.00     0.010 A 
ATOM     93  C   UNL A   1      39.392  33.055  39.255  1.00  0.00     0.010 A 
ATOM     94  C   UNL A   1      41.051  35.197  39.951  1.00  0.00     0.020 A 
ATOM     95  C   UNL A   1      39.192  33.720  40.467  1.00  0.00     0.020 A 
ATOM     96  C   UNL A   1      40.031  34.780  40.813  1.00  0.00     0.054 A 
BRANCH  96  97
ATOM     97  S   UNL A   1      39.786  35.674  42.373  1.00  0.00     0.124 S 
ATOM     98  O   UNL A   1      40.300  34.722  43.353  1.00  0.00    -0.237 OA
ATOM     99  O   UNL A   1      40.592  36.877  42.181  1.00  0.00    -0.237 OA
ATOM    100  O   UNL A   1      38.343  35.899  42.421  1.00  0.00    -0.744 OA
ENDBRANCH  96  97
ENDBRANCH  70  91
ENDBRANCH  44  45
ENDBRANCH  37  39
ENDBRANCH  36  37
ENDBRANCH  35  36
ENDBRANCH  34  35
ENDBRANCH  33  34
ENDBRANCH  32  33
ENDBRANCH   1  32
TORSDOF 27
ENDMDL
MODEL 2
REMARK VINA RESULT:      -9.0      7.266     14.776
REMARK SMILES COc1cc(OC(F)(F)F)cc2c1O[C@@H](C(F)(F)F)C(C(=O)OCCOCCOCCOCCOC(=O)c1ccc(-c3c4nc(c(-c5ccc(S(=O)(=O)[O-])cc5)c5ccc([nH]5)c(-c5ccc(S(=O)(=O)[O-])cc5)c5nc(c(-c6ccc(S(=O)(=O)[O-])cc6)c6ccc3[nH]6)C=C5)C=C4)cc1)=C2
REMARK SMILES IDX 30 1 29 2 28 3 27 4 26 5 25 6 24 7 23 8 21 9 22 10 20 11
REMARK SMILES IDX 3 12 4 13 13 14 5 15 12 16 14 17 11 18 98 19 15 20 2 21 1 22
REMARK SMILES IDX 6 23 7 24 8 25 9 26 10 27 16 28 17 29 18 30 19 31 31 32
REMARK SMILES IDX 32 33 33 34 34 35 35 36 36 37 37 38 38 39 39 40 97 41 40 42
REMARK SMILES IDX 96 43 41 44 42 45 43 46 90 47 44 48 95 49 89 50 91 51 45 52
REMARK SMILES IDX 94 53 88 54 87 55 46 57 76 58 57 59 75 60 58 61 61 62 74 63
REMARK SMILES IDX 92 64 59 65 60 66 73 68 93 69 62 70 47 71 48 72 56 73 49 74
REMARK SMILES IDX 55 75 50 76 51 77 52 78 53 79 54 80 77 81 78 82 86 83 79 84
REMARK SMILES IDX 85 85 80 86 81 87 82 88 83 89 84 90 63 91 64 92 72 93 65 94
REMARK SMILES IDX 71 95 66 96 67 97 68 98 69 99 70 100
REMARK H PARENT 91 56 61 67
REMARK Flexibility Score: inf
ROOT
ATOM      1  C   UNL A   1      39.955  32.956  37.507  1.00  0.00     0.188 C 
ENDROOT
BRANCH   1   2
ATOM      2  O   UNL A   1      40.426  34.297  37.451  1.00  0.00    -0.377 OA
BRANCH   2   3
ATOM      3  C   UNL A   1      41.217  34.714  36.352  1.00  0.00     0.188 C 
BRANCH   3   4
ATOM      4  C   UNL A   1      42.331  35.754  36.582  1.00  0.00     0.188 C 
BRANCH   4   5
ATOM      5  O   UNL A   1      43.154  36.003  35.454  1.00  0.00    -0.376 OA
BRANCH   5   6
ATOM      6  C   UNL A   1      42.875  37.161  34.683  1.00  0.00     0.202 C 
BRANCH   6   7
ATOM      7  C   UNL A   1      43.949  38.257  34.701  1.00  0.00     0.261 C 
BRANCH   7   8
ATOM      8  O   UNL A   1      43.743  39.315  33.751  1.00  0.00    -0.460 OA
BRANCH   8   9
ATOM      9  C   UNL A   1      44.746  39.565  32.881  1.00  0.00     0.338 C 
ATOM     10  O   UNL A   1      45.899  39.830  33.166  1.00  0.00    -0.246 OA
BRANCH   9  11
ATOM     11  C   UNL A   1      44.281  39.284  31.509  1.00  0.00     0.087 C 
ATOM     12  C   UNL A   1      42.379  38.651  27.847  1.00  0.00     0.165 A 
ATOM     13  C   UNL A   1      42.311  37.365  27.307  1.00  0.00     0.097 A 
ATOM     14  C   UNL A   1      43.023  38.863  29.069  1.00  0.00     0.170 A 
ATOM     15  C   UNL A   1      42.925  36.294  27.959  1.00  0.00     0.134 A 
ATOM     16  C   UNL A   1      43.634  37.794  29.738  1.00  0.00     0.025 A 
ATOM     17  O   UNL A   1      42.942  40.106  29.639  1.00  0.00    -0.471 OA
ATOM     18  C   UNL A   1      43.609  36.519  29.162  1.00  0.00     0.059 A 
ATOM     19  C   UNL A   1      44.164  38.012  31.086  1.00  0.00     0.027 C 
ATOM     20  C   UNL A   1      44.023  40.424  30.552  1.00  0.00     0.316 C 
BRANCH  12  21
ATOM     21  O   UNL A   1      41.697  39.631  27.172  1.00  0.00    -0.493 OA
ATOM     22  C   UNL A   1      42.494  40.264  26.174  1.00  0.00     0.278 C 
ENDBRANCH  12  21
BRANCH  15  23
ATOM     23  O   UNL A   1      42.916  34.993  27.539  1.00  0.00    -0.406 OA
BRANCH  23  24
ATOM     24  C   UNL A   1      43.537  34.708  26.295  1.00  0.00     0.573 C 
ATOM     25  F   UNL A   1      43.987  33.434  26.248  1.00  0.00    -0.132 F 
ATOM     26  F   UNL A   1      42.683  34.919  25.270  1.00  0.00    -0.132 F 
ATOM     27  F   UNL A   1      44.594  35.532  26.132  1.00  0.00    -0.132 F 
ENDBRANCH  23  24
ENDBRANCH  15  23
BRANCH  20  28
ATOM     28  C   UNL A   1      43.767  41.840  31.097  1.00  0.00     0.430 C 
ATOM     29  F   UNL A   1      42.895  41.838  32.130  1.00  0.00    -0.167 F 
ATOM     30  F   UNL A   1      44.925  42.348  31.605  1.00  0.00    -0.167 F 
ATOM     31  F   UNL A   1      43.334  42.706  30.162  1.00  0.00    -0.167 F 
ENDBRANCH  20  28
ENDBRANCH   9  11
ENDBRANCH   8   9
ENDBRANCH   7   8
ENDBRANCH   6   7
ENDBRANCH   5   6
ENDBRANCH   4   5
ENDBRANCH   3   4
ENDBRANCH   2   3
ENDBRANCH   1   2
BRANCH   1  32
ATOM     32  C   UNL A   1      38.439  32.637  37.490  1.00  0.00     0.188 C 
BRANCH  32  33
ATOM     33  O   UNL A   1      37.646  33.548  36.741  1.00  0.00    -0.376 OA
BRANCH  33  34
ATOM     34  C   UNL A   1      37.843  33.561  35.338  1.00  0.00     0.202 C 
BRANCH  34  35
ATOM     35  C   UNL A   1      37.485  32.260  34.608  1.00  0.00     0.261 C 
BRANCH  35  36
ATOM     36  O   UNL A   1      38.033  32.112  33.290  1.00  0.00    -0.460 OA
BRANCH  36  37
ATOM     37  C   UNL A   1      37.581  31.086  32.536  1.00  0.00     0.338 C 
ATOM     38  O   UNL A   1      36.426  30.719  32.405  1.00  0.00    -0.246 OA
BRANCH  37  39
ATOM     39  C   UNL A   1      38.723  30.602  31.735  1.00  0.00     0.060 A 
ATOM     40  C   UNL A   1      39.759  29.894  32.360  1.00  0.00     0.016 A 
ATOM     41  C   UNL A   1      38.737  30.812  30.354  1.00  0.00     0.016 A 
ATOM     42  C   UNL A   1      40.825  29.405  31.602  1.00  0.00     0.010 A 
ATOM     43  C   UNL A   1      39.815  30.346  29.603  1.00  0.00     0.010 A 
ATOM     44  C   UNL A   1      40.876  29.665  30.227  1.00  0.00    -0.014 A 
BRANCH  44  45
ATOM     45  C   UNL A   1      42.118  29.418  29.459  1.00  0.00     0.031 A 
ATOM     46  C   UNL A   1      42.318  28.051  28.868  1.00  0.00     0.074 A 
ATOM     47  C   UNL A   1      43.064  30.365  29.320  1.00  0.00     0.049 A 
ATOM     48  N   UNL A   1      43.363  27.553  28.262  1.00  0.00    -0.248 NA
ATOM     49  C   UNL A   1      41.187  27.116  28.992  1.00  0.00     0.031 C 
ATOM     50  C   UNL A   1      42.969  31.737  29.815  1.00  0.00     0.029 A 
ATOM     51  N   UNL A   1      44.305  30.298  28.737  1.00  0.00    -0.354 N 
ATOM     52  C   UNL A   1      43.022  26.243  27.945  1.00  0.00     0.074 A 
ATOM     53  C   UNL A   1      41.686  26.017  28.450  1.00  0.00     0.031 C 
ATOM     54  C   UNL A   1      44.120  32.377  29.539  1.00  0.00     0.029 A 
ATOM     55  C   UNL A   1      45.042  31.449  28.885  1.00  0.00     0.049 A 
ATOM     56  H   UNL A   1      44.634  29.503  28.261  1.00  0.00     0.167 HD
ATOM     57  C   UNL A   1      43.756  25.311  27.293  1.00  0.00     0.031 A 
ATOM     58  C   UNL A   1      46.325  31.710  28.562  1.00  0.00     0.031 A 
ATOM     59  C   UNL A   1      45.097  25.534  26.822  1.00  0.00     0.049 A 
ATOM     60  C   UNL A   1      47.154  30.637  27.902  1.00  0.00     0.074 A 
ATOM     61  C   UNL A   1      45.924  24.660  26.140  1.00  0.00     0.029 A 
ATOM     62  N   UNL A   1      45.811  26.710  26.997  1.00  0.00    -0.354 N 
ATOM     63  N   UNL A   1      46.812  29.411  27.580  1.00  0.00    -0.248 NA
ATOM     64  C   UNL A   1      48.539  30.984  27.555  1.00  0.00     0.031 C 
ATOM     65  C   UNL A   1      47.161  25.285  25.958  1.00  0.00     0.029 A 
ATOM     66  C   UNL A   1      47.080  26.575  26.460  1.00  0.00     0.049 A 
ATOM     67  H   UNL A   1      45.466  27.520  27.437  1.00  0.00     0.167 HD
ATOM     68  C   UNL A   1      47.929  28.852  26.966  1.00  0.00     0.074 A 
ATOM     69  C   UNL A   1      48.954  29.876  26.954  1.00  0.00     0.031 C 
ATOM     70  C   UNL A   1      48.090  27.606  26.454  1.00  0.00     0.031 A 
BRANCH  57  71
ATOM     71  C   UNL A   1      43.134  23.954  27.102  1.00  0.00    -0.014 A 
ATOM     72  C   UNL A   1      43.231  22.958  28.091  1.00  0.00     0.010 A 
ATOM     73  C   UNL A   1      42.438  23.671  25.912  1.00  0.00     0.010 A 
ATOM     74  C   UNL A   1      42.690  21.688  27.872  1.00  0.00     0.020 A 
ATOM     75  C   UNL A   1      41.869  22.412  25.703  1.00  0.00     0.020 A 
ATOM     76  C   UNL A   1      42.018  21.422  26.676  1.00  0.00     0.054 A 
BRANCH  76  77
ATOM     77  S   UNL A   1      41.328  19.765  26.416  1.00  0.00     0.124 S 
ATOM     78  O   UNL A   1      42.218  19.227  25.388  1.00  0.00    -0.237 OA
ATOM     79  O   UNL A   1      41.455  19.155  27.737  1.00  0.00    -0.237 OA
ATOM     80  O   UNL A   1      39.958  20.023  25.981  1.00  0.00    -0.744 OA
ENDBRANCH  76  77
ENDBRANCH  57  71
BRANCH  58  81
ATOM     81  C   UNL A   1      46.914  33.038  28.889  1.00  0.00    -0.014 A 
ATOM     82  C   UNL A   1      47.587  33.251  30.105  1.00  0.00     0.010 A 
ATOM     83  C   UNL A   1      46.819  34.098  27.968  1.00  0.00     0.010 A 
ATOM     84  C   UNL A   1      48.149  34.499  30.395  1.00  0.00     0.020 A 
ATOM     85  C   UNL A   1      47.404  35.338  28.241  1.00  0.00     0.020 A 
ATOM     86  C   UNL A   1      48.060  35.532  29.457  1.00  0.00     0.054 A 
BRANCH  86  87
ATOM     87  S   UNL A   1      48.863  37.118  29.824  1.00  0.00     0.124 S 
ATOM     88  O   UNL A   1      47.836  38.077  29.436  1.00  0.00    -0.237 OA
ATOM     89  O   UNL A   1      49.124  37.012  31.257  1.00  0.00    -0.237 OA
ATOM     90  O   UNL A   1      50.056  37.100  28.980  1.00  0.00    -0.744 OA
ENDBRANCH  86  87
ENDBRANCH  58  81
BRANCH  70  91
ATOM     91  C   UNL A   1      49.405  27.282  25.793  1.00  0.00    -0.014 A 
ATOM     92  C   UNL A   1      49.603  27.474  24.414  1.00  0.00     0.010 A 
ATOM     93  C   UNL A   1      50.485  26.847  26.585  1.00  0.00     0.010 A 
ATOM     94  C   UNL A   1      50.850  27.215  23.836  1.00  0.00     0.020 A 
ATOM     95  C   UNL A   1      51.740  26.616  26.017  1.00  0.00     0.020 A 
ATOM     96  C   UNL A   1      51.912  26.791  24.643  1.00  0.00     0.054 A 
BRANCH  96  97
ATOM     97  S   UNL A   1      53.534  26.514  23.878  1.00  0.00     0.124 S 
ATOM     98  O   UNL A   1      54.328  27.599  24.446  1.00  0.00    -0.237 OA
ATOM     99  O   UNL A   1      53.880  25.172  24.340  1.00  0.00    -0.237 OA
ATOM    100  O   UNL A   1      53.264  26.623  22.445  1.00  0.00    -0.744 OA
ENDBRANCH  96  97
ENDBRANCH  70  91
ENDBRANCH  44  45
ENDBRANCH  37  39
ENDBRANCH  36  37
ENDBRANCH  35  36
ENDBRANCH  34  35
ENDBRANCH  33  34
ENDBRANCH  32  33
ENDBRANCH   1  32
TORSDOF 27
ENDMDL
MODEL 3
REMARK VINA RESULT:      -8.6      8.695     16.376
REMARK SMILES COc1cc(OC(F)(F)F)cc2c1O[C@@H](C(F)(F)F)C(C(=O)OCCOCCOCCOCCOC(=O)c1ccc(-c3c4nc(c(-c5ccc(S(=O)(=O)[O-])cc5)c5ccc([nH]5)c(-c5ccc(S(=O)(=O)[O-])cc5)c5nc(c(-c6ccc(S(=O)(=O)[O-])cc6)c6ccc3[nH]6)C=C5)C=C4)cc1)=C2
REMARK SMILES IDX 30 1 29 2 28 3 27 4 26 5 25 6 24 7 23 8 21 9 22 10 20 11
REMARK SMILES IDX 3 12 4 13 13 14 5 15 12 16 14 17 11 18 98 19 15 20 2 21 1 22
REMARK SMILES IDX 6 23 7 24 8 25 9 26 10 27 16 28 17 29 18 30 19 31 31 32
REMARK SMILES IDX 32 33 33 34 34 35 35 36 36 37 37 38 38 39 39 40 97 41 40 42
REMARK SMILES IDX 96 43 41 44 42 45 43 46 90 47 44 48 95 49 89 50 91 51 45 52
REMARK SMILES IDX 94 53 88 54 87 55 46 57 76 58 57 59 75 60 58 61 61 62 74 63
REMARK SMILES IDX 92 64 59 65 60 66 73 68 93 69 62 70 47 71 48 72 56 73 49 74
REMARK SMILES IDX 55 75 50 76 51 77 52 78 53 79 54 80 77 81 78 82 86 83 79 84
REMARK SMILES IDX 85 85 80 86 81 87 82 88 83 89 84 90 63 91 64 92 72 93 65 94
REMARK SMILES IDX 71 95 66 96 67 97 68 98 69 99 70 100
REMARK H PARENT 91 56 61 67
REMARK Flexibility Score: inf
ROOT
ATOM      1  C   UNL A   1      51.092  42.364  29.228  1.00  0.00     0.188 C 
ENDROOT
BRANCH   1   2
ATOM      2  O   UNL A   1      50.085  43.087  28.530  1.00  0.00    -0.377 OA
BRANCH   2   3
ATOM      3  C   UNL A   1      50.175  44.498  28.441  1.00  0.00     0.188 C 
BRANCH   3   4
ATOM      4  C   UNL A   1      48.918  45.307  28.068  1.00  0.00     0.188 C 
BRANCH   4   5
ATOM      5  O   UNL A   1      47.692  44.736  28.499  1.00  0.00    -0.376 OA
BRANCH   5   6
ATOM      6  C   UNL A   1      46.668  44.580  27.532  1.00  0.00     0.202 C 
BRANCH   6   7
ATOM      7  C   UNL A   1      45.328  44.041  28.051  1.00  0.00     0.261 C 
BRANCH   7   8
ATOM      8  O   UNL A   1      45.439  43.064  29.100  1.00  0.00    -0.460 OA
BRANCH   8   9
ATOM      9  C   UNL A   1      44.341  42.844  29.855  1.00  0.00     0.338 C 
ATOM     10  O   UNL A   1      43.603  43.693  30.320  1.00  0.00    -0.246 OA
BRANCH   9  11
ATOM     11  C   UNL A   1      44.051  41.397  29.882  1.00  0.00     0.087 C 
ATOM     12  C   UNL A   1      43.791  37.250  30.278  1.00  0.00     0.165 A 
ATOM     13  C   UNL A   1      43.845  36.433  29.146  1.00  0.00     0.097 A 
ATOM     14  C   UNL A   1      43.870  38.638  30.143  1.00  0.00     0.170 A 
ATOM     15  C   UNL A   1      43.932  37.000  27.873  1.00  0.00     0.134 A 
ATOM     16  C   UNL A   1      43.967  39.219  28.871  1.00  0.00     0.025 A 
ATOM     17  O   UNL A   1      43.963  39.397  31.280  1.00  0.00    -0.471 OA
ATOM     18  C   UNL A   1      43.965  38.396  27.739  1.00  0.00     0.059 A 
ATOM     19  C   UNL A   1      44.205  40.660  28.767  1.00  0.00     0.027 C 
ATOM     20  C   UNL A   1      43.497  40.762  31.136  1.00  0.00     0.316 C 
BRANCH  12  21
ATOM     21  O   UNL A   1      43.769  36.608  31.490  1.00  0.00    -0.493 OA
ATOM     22  C   UNL A   1      43.796  35.188  31.358  1.00  0.00     0.278 C 
ENDBRANCH  12  21
BRANCH  15  23
ATOM     23  O   UNL A   1      44.005  36.310  26.695  1.00  0.00    -0.406 OA
BRANCH  23  24
ATOM     24  C   UNL A   1      43.028  35.305  26.469  1.00  0.00     0.573 C 
ATOM     25  F   UNL A   1      43.375  34.137  27.053  1.00  0.00    -0.132 F 
ATOM     26  F   UNL A   1      41.820  35.695  26.932  1.00  0.00    -0.132 F 
ATOM     27  F   UNL A   1      42.915  35.093  25.140  1.00  0.00    -0.132 F 
ENDBRANCH  23  24
ENDBRANCH  15  23
BRANCH  20  28
ATOM     28  C   UNL A   1      43.680  41.460  32.494  1.00  0.00     0.430 C 
ATOM     29  F   UNL A   1      43.436  40.628  33.532  1.00  0.00    -0.167 F 
ATOM     30  F   UNL A   1      44.981  41.842  32.638  1.00  0.00    -0.167 F 
ATOM     31  F   UNL A   1      42.927  42.567  32.637  1.00  0.00    -0.167 F 
ENDBRANCH  20  28
ENDBRANCH   9  11
ENDBRANCH   8   9
ENDBRANCH   7   8
ENDBRANCH   6   7
ENDBRANCH   5   6
ENDBRANCH   4   5
ENDBRANCH   3   4
ENDBRANCH   2   3
ENDBRANCH   1   2
BRANCH   1  32
ATOM     32  C   UNL A   1      50.882  40.882  29.628  1.00  0.00     0.188 C 
BRANCH  32  33
ATOM     33  O   UNL A   1      49.762  40.642  30.467  1.00  0.00    -0.376 OA
BRANCH  33  34
ATOM     34  C   UNL A   1      48.895  39.586  30.089  1.00  0.00     0.202 C 
BRANCH  34  35
ATOM     35  C   UNL A   1      49.405  38.172  30.392  1.00  0.00     0.261 C 
BRANCH  35  36
ATOM     36  O   UNL A   1      48.633  37.097  29.837  1.00  0.00    -0.460 OA
BRANCH  36  37
ATOM     37  C   UNL A   1      47.681  36.542  30.619  1.00  0.00     0.338 C 
ATOM     38  O   UNL A   1      47.041  37.087  31.501  1.00  0.00    -0.246 OA
BRANCH  37  39
ATOM     39  C   UNL A   1      47.411  35.194  30.080  1.00  0.00     0.060 A 
ATOM     40  C   UNL A   1      47.075  35.042  28.728  1.00  0.00     0.016 A 
ATOM     41  C   UNL A   1      47.541  34.079  30.911  1.00  0.00     0.016 A 
ATOM     42  C   UNL A   1      46.851  33.766  28.205  1.00  0.00     0.010 A 
ATOM     43  C   UNL A   1      47.292  32.809  30.394  1.00  0.00     0.010 A 
ATOM     44  C   UNL A   1      46.919  32.649  29.047  1.00  0.00    -0.014 A 
BRANCH  44  45
ATOM     45  C   UNL A   1      46.408  31.333  28.597  1.00  0.00     0.031 A 
ATOM     46  C   UNL A   1      44.970  31.004  28.883  1.00  0.00     0.074 A 
ATOM     47  C   UNL A   1      47.204  30.437  27.988  1.00  0.00     0.049 A 
ATOM     48  N   UNL A   1      44.323  29.884  28.701  1.00  0.00    -0.248 NA
ATOM     49  C   UNL A   1      44.158  32.085  29.466  1.00  0.00     0.031 C 
ATOM     50  C   UNL A   1      48.603  30.654  27.624  1.00  0.00     0.029 A 
ATOM     51  N   UNL A   1      46.945  29.149  27.590  1.00  0.00    -0.354 N 
ATOM     52  C   UNL A   1      43.032  30.119  29.160  1.00  0.00     0.074 A 
ATOM     53  C   UNL A   1      42.997  31.478  29.653  1.00  0.00     0.031 C 
ATOM     54  C   UNL A   1      49.090  29.523  27.080  1.00  0.00     0.029 A 
ATOM     55  C   UNL A   1      48.048  28.495  27.094  1.00  0.00     0.049 A 
ATOM     56  H   UNL A   1      46.055  28.734  27.654  1.00  0.00     0.167 HD
ATOM     57  C   UNL A   1      41.971  29.279  29.170  1.00  0.00     0.031 A 
ATOM     58  C   UNL A   1      48.208  27.207  26.730  1.00  0.00     0.031 A 
ATOM     59  C   UNL A   1      42.022  27.918  28.707  1.00  0.00     0.049 A 
ATOM     60  C   UNL A   1      47.035  26.263  26.817  1.00  0.00     0.074 A 
ATOM     61  C   UNL A   1      41.001  26.987  28.664  1.00  0.00     0.029 A 
ATOM     62  N   UNL A   1      43.159  27.292  28.219  1.00  0.00    -0.354 N 
ATOM     63  N   UNL A   1      45.811  26.505  27.225  1.00  0.00    -0.248 NA
ATOM     64  C   UNL A   1      47.262  24.877  26.387  1.00  0.00     0.031 C 
ATOM     65  C   UNL A   1      41.536  25.777  28.210  1.00  0.00     0.029 A 
ATOM     66  C   UNL A   1      42.872  25.976  27.899  1.00  0.00     0.049 A 
ATOM     67  H   UNL A   1      44.039  27.720  28.116  1.00  0.00     0.167 HD
ATOM     68  C   UNL A   1      45.115  25.308  27.073  1.00  0.00     0.074 A 
ATOM     69  C   UNL A   1      46.053  24.348  26.527  1.00  0.00     0.031 C 
ATOM     70  C   UNL A   1      43.817  25.031  27.355  1.00  0.00     0.031 A 
BRANCH  57  71
ATOM     71  C   UNL A   1      40.684  29.802  29.750  1.00  0.00    -0.014 A 
ATOM     72  C   UNL A   1      39.647  30.275  28.925  1.00  0.00     0.010 A 
ATOM     73  C   UNL A   1      40.509  29.822  31.146  1.00  0.00     0.010 A 
ATOM     74  C   UNL A   1      38.482  30.804  29.486  1.00  0.00     0.020 A 
ATOM     75  C   UNL A   1      39.332  30.321  31.710  1.00  0.00     0.020 A 
ATOM     76  C   UNL A   1      38.335  30.830  30.876  1.00  0.00     0.054 A 
BRANCH  76  77
ATOM     77  S   UNL A   1      36.814  31.525  31.577  1.00  0.00     0.124 S 
ATOM     78  O   UNL A   1      37.322  32.240  32.746  1.00  0.00    -0.237 OA
ATOM     79  O   UNL A   1      36.318  32.368  30.492  1.00  0.00    -0.237 OA
ATOM     80  O   UNL A   1      35.999  30.350  31.872  1.00  0.00    -0.744 OA
ENDBRANCH  76  77
ENDBRANCH  57  71
BRANCH  58  81
ATOM     81  C   UNL A   1      49.543  26.727  26.278  1.00  0.00    -0.014 A 
ATOM     82  C   UNL A   1      49.913  26.789  24.923  1.00  0.00     0.010 A 
ATOM     83  C   UNL A   1      50.464  26.219  27.214  1.00  0.00     0.010 A 
ATOM     84  C   UNL A   1      51.176  26.347  24.513  1.00  0.00     0.020 A 
ATOM     85  C   UNL A   1      51.737  25.804  26.813  1.00  0.00     0.020 A 
ATOM     86  C   UNL A   1      52.083  25.866  25.462  1.00  0.00     0.054 A 
BRANCH  86  87
ATOM     87  S   UNL A   1      53.741  25.371  24.915  1.00  0.00     0.124 S 
ATOM     88  O   UNL A   1      53.623  23.918  24.858  1.00  0.00    -0.237 OA
ATOM     89  O   UNL A   1      53.861  26.049  23.627  1.00  0.00    -0.237 OA
ATOM     90  O   UNL A   1      54.615  25.889  25.966  1.00  0.00    -0.744 OA
ENDBRANCH  86  87
ENDBRANCH  58  81
BRANCH  70  91
ATOM     91  C   UNL A   1      43.309  23.648  27.039  1.00  0.00    -0.014 A 
ATOM     92  C   UNL A   1      43.071  23.235  25.716  1.00  0.00     0.010 A 
ATOM     93  C   UNL A   1      43.139  22.722  28.086  1.00  0.00     0.010 A 
ATOM     94  C   UNL A   1      42.650  21.928  25.448  1.00  0.00     0.020 A 
ATOM     95  C   UNL A   1      42.747  21.408  27.820  1.00  0.00     0.020 A 
ATOM     96  C   UNL A   1      42.494  21.022  26.503  1.00  0.00     0.054 A 
BRANCH  96  97
ATOM     97  S   UNL A   1      41.999  19.318  26.124  1.00  0.00     0.124 S 
ATOM     98  O   UNL A   1      42.740  19.052  24.894  1.00  0.00    -0.237 OA
ATOM     99  O   UNL A   1      42.453  18.584  27.303  1.00  0.00    -0.237 OA
ATOM    100  O   UNL A   1      40.548  19.404  25.971  1.00  0.00    -0.744 OA
ENDBRANCH  96  97
ENDBRANCH  70  91
ENDBRANCH  44  45
ENDBRANCH  37  39
ENDBRANCH  36  37
ENDBRANCH  35  36
ENDBRANCH  34  35
ENDBRANCH  33  34
ENDBRANCH  32  33
ENDBRANCH   1  32
TORSDOF 27
ENDMDL
