MODEL 1
REMARK VINA RESULT:      -9.5      0.000      0.000
REMARK SMILES C[C@@H]1CN(C(=O)c2c(F)cc(Br)cc2F)C[C@H]1C(=O)OCCOCCOCCOCCOC(=O)c1ccc(-c2c3nc(c(-c4ccc(S(=O)(=O)[O-])cc4)c4ccc([nH]4)c(-c4ccc(S(=O)(=O)[O-])cc4)c4nc(c(-c5ccc(S(=O)(=O)[O-])cc5)c5ccc2[nH]5)C=C4)C=C3)cc1
REMARK SMILES IDX 27 1 26 2 25 3 24 4 23 5 22 6 21 7 20 8 18 9 19 10 17 11
REMARK SMILES IDX 1 12 2 13 3 14 4 15 16 16 5 17 6 18 7 19 8 20 14 21 9 22
REMARK SMILES IDX 10 23 13 24 15 25 11 26 12 27 28 28 29 29 30 30 31 31 32 32
REMARK SMILES IDX 33 33 34 34 35 35 36 36 94 37 37 38 93 39 38 40 39 41 40 42
REMARK SMILES IDX 87 43 41 44 92 45 86 46 88 47 42 48 91 49 85 50 84 51 43 53
REMARK SMILES IDX 73 54 54 55 72 56 55 57 58 58 71 59 89 60 56 61 57 62 70 64
REMARK SMILES IDX 90 65 59 66 44 67 45 68 53 69 46 70 52 71 47 72 48 73 49 74
REMARK SMILES IDX 50 75 51 76 74 77 75 78 83 79 76 80 82 81 77 82 78 83 79 84
REMARK SMILES IDX 80 85 81 86 60 87 61 88 69 89 62 90 68 91 63 92 64 93 65 94
REMARK SMILES IDX 66 95 67 96
REMARK H PARENT 88 52 58 63
REMARK Flexibility Score: inf
ROOT
ATOM      1  C   UNL A   1      39.540  21.932  26.477  1.00  0.00     0.188 C 
ENDROOT
BRANCH   1   2
ATOM      2  O   UNL A   1      38.419  21.435  25.758  1.00  0.00    -0.377 OA
BRANCH   2   3
ATOM      3  C   UNL A   1      37.372  22.324  25.440  1.00  0.00     0.188 C 
BRANCH   3   4
ATOM      4  C   UNL A   1      36.111  21.684  24.847  1.00  0.00     0.188 C 
BRANCH   4   5
ATOM      5  O   UNL A   1      35.017  21.327  25.672  1.00  0.00    -0.376 OA
BRANCH   5   6
ATOM      6  C   UNL A   1      33.677  21.419  25.210  1.00  0.00     0.202 C 
BRANCH   6   7
ATOM      7  C   UNL A   1      33.272  22.064  23.870  1.00  0.00     0.261 C 
BRANCH   7   8
ATOM      8  O   UNL A   1      33.409  23.489  23.753  1.00  0.00    -0.463 OA
BRANCH   8   9
ATOM      9  C   UNL A   1      32.363  24.142  23.201  1.00  0.00     0.311 C 
ATOM     10  O   UNL A   1      32.364  24.622  22.069  1.00  0.00    -0.252 OA
BRANCH   9  11
ATOM     11  C   UNL A   1      31.147  24.279  24.103  1.00  0.00     0.123 C 
ATOM     12  C   UNL A   1      30.687  23.635  26.543  1.00  0.00     0.010 C 
ATOM     13  C   UNL A   1      31.306  24.671  25.604  1.00  0.00     0.021 C 
ATOM     14  C   UNL A   1      30.602  26.026  25.745  1.00  0.00     0.124 C 
ATOM     15  N   UNL A   1      30.623  26.514  24.387  1.00  0.00    -0.337 N 
ATOM     16  C   UNL A   1      30.321  25.408  23.504  1.00  0.00     0.135 C 
BRANCH  15  17
ATOM     17  C   UNL A   1      31.334  27.605  23.915  1.00  0.00     0.259 C 
ATOM     18  O   UNL A   1      31.248  28.016  22.762  1.00  0.00    -0.269 OA
BRANCH  17  19
ATOM     19  C   UNL A   1      32.210  28.322  24.839  1.00  0.00     0.111 A 
ATOM     20  C   UNL A   1      31.840  29.537  25.407  1.00  0.00     0.140 A 
ATOM     21  C   UNL A   1      33.428  27.744  25.175  1.00  0.00     0.140 A 
ATOM     22  F   UNL A   1      30.681  30.125  25.079  1.00  0.00    -0.206 F 
ATOM     23  C   UNL A   1      32.698  30.195  26.286  1.00  0.00     0.056 A 
ATOM     24  C   UNL A   1      34.289  28.378  26.066  1.00  0.00     0.056 A 
ATOM     25  F   UNL A   1      33.813  26.588  24.616  1.00  0.00    -0.206 F 
ATOM     26  C   UNL A   1      33.921  29.608  26.612  1.00  0.00     0.023 A 
ATOM     27  Br  UNL A   1      35.106  30.501  27.781  1.00  0.00    -0.051 Br
ENDBRANCH  17  19
ENDBRANCH  15  17
ENDBRANCH   9  11
ENDBRANCH   8   9
ENDBRANCH   7   8
ENDBRANCH   6   7
ENDBRANCH   5   6
ENDBRANCH   4   5
ENDBRANCH   3   4
ENDBRANCH   2   3
ENDBRANCH   1   2
BRANCH   1  28
ATOM     28  C   UNL A   1      40.785  21.038  26.633  1.00  0.00     0.188 C 
BRANCH  28  29
ATOM     29  O   UNL A   1      41.942  21.723  27.091  1.00  0.00    -0.376 OA
BRANCH  29  30
ATOM     30  C   UNL A   1      42.872  22.207  26.132  1.00  0.00     0.202 C 
BRANCH  30  31
ATOM     31  C   UNL A   1      42.726  23.660  25.646  1.00  0.00     0.261 C 
BRANCH  31  32
ATOM     32  O   UNL A   1      41.754  24.479  26.316  1.00  0.00    -0.460 OA
BRANCH  32  33
ATOM     33  C   UNL A   1      41.719  25.803  26.037  1.00  0.00     0.338 C 
ATOM     34  O   UNL A   1      41.615  26.317  24.948  1.00  0.00    -0.246 OA
BRANCH  33  35
ATOM     35  C   UNL A   1      41.624  26.520  27.331  1.00  0.00     0.060 A 
ATOM     36  C   UNL A   1      40.695  26.084  28.286  1.00  0.00     0.016 A 
ATOM     37  C   UNL A   1      42.459  27.605  27.608  1.00  0.00     0.016 A 
ATOM     38  C   UNL A   1      40.591  26.740  29.515  1.00  0.00     0.010 A 
ATOM     39  C   UNL A   1      42.336  28.276  28.828  1.00  0.00     0.010 A 
ATOM     40  C   UNL A   1      41.387  27.861  29.780  1.00  0.00    -0.014 A 
BRANCH  40  41
ATOM     41  C   UNL A   1      41.138  28.687  30.988  1.00  0.00     0.031 A 
ATOM     42  C   UNL A   1      40.037  29.713  30.948  1.00  0.00     0.074 A 
ATOM     43  C   UNL A   1      41.878  28.534  32.102  1.00  0.00     0.049 A 
ATOM     44  N   UNL A   1      39.692  30.593  31.852  1.00  0.00    -0.248 NA
ATOM     45  C   UNL A   1      39.218  29.750  29.726  1.00  0.00     0.031 C 
ATOM     46  C   UNL A   1      42.937  27.544  32.287  1.00  0.00     0.029 A 
ATOM     47  N   UNL A   1      41.852  29.226  33.288  1.00  0.00    -0.354 N 
ATOM     48  C   UNL A   1      38.626  31.298  31.303  1.00  0.00     0.074 A 
ATOM     49  C   UNL A   1      38.395  30.757  29.982  1.00  0.00     0.031 C 
ATOM     50  C   UNL A   1      43.472  27.702  33.512  1.00  0.00     0.029 A 
ATOM     51  C   UNL A   1      42.821  28.828  34.180  1.00  0.00     0.049 A 
ATOM     52  H   UNL A   1      41.201  29.939  33.482  1.00  0.00     0.167 HD
ATOM     53  C   UNL A   1      37.905  32.306  31.851  1.00  0.00     0.031 A 
ATOM     54  C   UNL A   1      43.163  29.335  35.382  1.00  0.00     0.031 A 
ATOM     55  C   UNL A   1      38.146  32.853  33.161  1.00  0.00     0.049 A 
ATOM     56  C   UNL A   1      42.404  30.517  35.933  1.00  0.00     0.074 A 
ATOM     57  C   UNL A   1      37.456  33.861  33.810  1.00  0.00     0.029 A 
ATOM     58  N   UNL A   1      39.162  32.450  34.015  1.00  0.00    -0.354 N 
ATOM     59  N   UNL A   1      41.377  31.151  35.418  1.00  0.00    -0.248 NA
ATOM     60  C   UNL A   1      42.849  31.049  37.229  1.00  0.00     0.031 C 
ATOM     61  C   UNL A   1      38.098  34.118  35.025  1.00  0.00     0.029 A 
ATOM     62  C   UNL A   1      39.142  33.218  35.167  1.00  0.00     0.049 A 
ATOM     63  H   UNL A   1      39.802  31.725  33.829  1.00  0.00     0.167 HD
ATOM     64  C   UNL A   1      41.041  32.141  36.339  1.00  0.00     0.074 A 
ATOM     65  C   UNL A   1      41.957  32.006  37.451  1.00  0.00     0.031 C 
ATOM     66  C   UNL A   1      40.063  33.078  36.268  1.00  0.00     0.031 A 
BRANCH  53  67
ATOM     67  C   UNL A   1      36.808  32.916  31.018  1.00  0.00    -0.014 A 
ATOM     68  C   UNL A   1      37.092  33.814  29.974  1.00  0.00     0.010 A 
ATOM     69  C   UNL A   1      35.472  32.536  31.248  1.00  0.00     0.010 A 
ATOM     70  C   UNL A   1      36.059  34.341  29.195  1.00  0.00     0.020 A 
ATOM     71  C   UNL A   1      34.439  33.038  30.453  1.00  0.00     0.020 A 
ATOM     72  C   UNL A   1      34.739  33.948  29.437  1.00  0.00     0.054 A 
BRANCH  72  73
ATOM     73  S   UNL A   1      33.424  34.621  28.384  1.00  0.00     0.124 S 
ATOM     74  O   UNL A   1      32.712  35.495  29.314  1.00  0.00    -0.237 OA
ATOM     75  O   UNL A   1      34.176  35.302  27.334  1.00  0.00    -0.237 OA
ATOM     76  O   UNL A   1      32.684  33.438  27.952  1.00  0.00    -0.744 OA
ENDBRANCH  72  73
ENDBRANCH  53  67
BRANCH  54  77
ATOM     77  C   UNL A   1      44.313  28.759  36.134  1.00  0.00    -0.014 A 
ATOM     78  C   UNL A   1      44.127  27.706  37.047  1.00  0.00     0.010 A 
ATOM     79  C   UNL A   1      45.607  29.284  35.956  1.00  0.00     0.010 A 
ATOM     80  C   UNL A   1      45.206  27.206  37.782  1.00  0.00     0.020 A 
ATOM     81  C   UNL A   1      46.694  28.765  36.662  1.00  0.00     0.020 A 
ATOM     82  C   UNL A   1      46.483  27.737  37.583  1.00  0.00     0.054 A 
BRANCH  82  83
ATOM     83  S   UNL A   1      47.873  27.053  38.526  1.00  0.00     0.124 S 
ATOM     84  O   UNL A   1      48.759  28.207  38.640  1.00  0.00    -0.237 OA
ATOM     85  O   UNL A   1      47.229  26.623  39.764  1.00  0.00    -0.237 OA
ATOM     86  O   UNL A   1      48.362  25.972  37.673  1.00  0.00    -0.744 OA
ENDBRANCH  82  83
ENDBRANCH  54  77
BRANCH  66  87
ATOM     87  C   UNL A   1      39.908  34.021  37.435  1.00  0.00    -0.014 A 
ATOM     88  C   UNL A   1      40.577  35.258  37.468  1.00  0.00     0.010 A 
ATOM     89  C   UNL A   1      39.032  33.691  38.486  1.00  0.00     0.010 A 
ATOM     90  C   UNL A   1      40.394  36.133  38.543  1.00  0.00     0.020 A 
ATOM     91  C   UNL A   1      38.820  34.577  39.545  1.00  0.00     0.020 A 
ATOM     92  C   UNL A   1      39.513  35.789  39.574  1.00  0.00     0.054 A 
BRANCH  92  93
ATOM     93  S   UNL A   1      39.257  36.965  40.930  1.00  0.00     0.124 S 
ATOM     94  O   UNL A   1      38.477  38.016  40.280  1.00  0.00    -0.237 OA
ATOM     95  O   UNL A   1      38.533  36.164  41.914  1.00  0.00    -0.237 OA
ATOM     96  O   UNL A   1      40.612  37.347  41.320  1.00  0.00    -0.744 OA
ENDBRANCH  92  93
ENDBRANCH  66  87
ENDBRANCH  40  41
ENDBRANCH  33  35
ENDBRANCH  32  33
ENDBRANCH  31  32
ENDBRANCH  30  31
ENDBRANCH  29  30
ENDBRANCH  28  29
ENDBRANCH   1  28
TORSDOF 25
ENDMDL
MODEL 2
REMARK VINA RESULT:      -9.5      2.132      8.087
REMARK SMILES C[C@@H]1CN(C(=O)c2c(F)cc(Br)cc2F)C[C@H]1C(=O)OCCOCCOCCOCCOC(=O)c1ccc(-c2c3nc(c(-c4ccc(S(=O)(=O)[O-])cc4)c4ccc([nH]4)c(-c4ccc(S(=O)(=O)[O-])cc4)c4nc(c(-c5ccc(S(=O)(=O)[O-])cc5)c5ccc2[nH]5)C=C4)C=C3)cc1
REMARK SMILES IDX 27 1 26 2 25 3 24 4 23 5 22 6 21 7 20 8 18 9 19 10 17 11
REMARK SMILES IDX 1 12 2 13 3 14 4 15 16 16 5 17 6 18 7 19 8 20 14 21 9 22
REMARK SMILES IDX 10 23 13 24 15 25 11 26 12 27 28 28 29 29 30 30 31 31 32 32
REMARK SMILES IDX 33 33 34 34 35 35 36 36 94 37 37 38 93 39 38 40 39 41 40 42
REMARK SMILES IDX 87 43 41 44 92 45 86 46 88 47 42 48 91 49 85 50 84 51 43 53
REMARK SMILES IDX 73 54 54 55 72 56 55 57 58 58 71 59 89 60 56 61 57 62 70 64
REMARK SMILES IDX 90 65 59 66 44 67 45 68 53 69 46 70 52 71 47 72 48 73 49 74
REMARK SMILES IDX 50 75 51 76 74 77 75 78 83 79 76 80 82 81 77 82 78 83 79 84
REMARK SMILES IDX 80 85 81 86 60 87 61 88 69 89 62 90 68 91 63 92 64 93 65 94
REMARK SMILES IDX 66 95 67 96
REMARK H PARENT 88 52 58 63
REMARK Flexibility Score: inf
ROOT
ATOM      1  C   UNL A   1      40.889  19.962  26.787  1.00  0.00     0.188 C 
ENDROOT
BRANCH   1   2
ATOM      2  O   UNL A   1      40.239  19.414  25.649  1.00  0.00    -0.377 OA
BRANCH   2   3
ATOM      3  C   UNL A   1      38.896  19.768  25.403  1.00  0.00     0.188 C 
BRANCH   3   4
ATOM      4  C   UNL A   1      38.598  21.271  25.369  1.00  0.00     0.188 C 
BRANCH   4   5
ATOM      5  O   UNL A   1      37.269  21.750  25.277  1.00  0.00    -0.376 OA
BRANCH   5   6
ATOM      6  C   UNL A   1      36.979  23.047  24.775  1.00  0.00     0.202 C 
BRANCH   6   7
ATOM      7  C   UNL A   1      35.712  23.395  23.969  1.00  0.00     0.261 C 
BRANCH   7   8
ATOM      8  O   UNL A   1      34.713  24.195  24.620  1.00  0.00    -0.463 OA
BRANCH   8   9
ATOM      9  C   UNL A   1      33.993  25.010  23.819  1.00  0.00     0.311 C 
ATOM     10  O   UNL A   1      34.106  26.234  23.791  1.00  0.00    -0.252 OA
BRANCH   9  11
ATOM     11  C   UNL A   1      32.975  24.305  22.937  1.00  0.00     0.123 C 
ATOM     12  C   UNL A   1      32.220  21.861  22.735  1.00  0.00     0.010 C 
ATOM     13  C   UNL A   1      32.072  23.170  23.511  1.00  0.00     0.021 C 
ATOM     14  C   UNL A   1      30.638  23.705  23.412  1.00  0.00     0.124 C 
ATOM     15  N   UNL A   1      30.856  25.130  23.360  1.00  0.00    -0.337 N 
ATOM     16  C   UNL A   1      31.994  25.384  22.502  1.00  0.00     0.135 C 
BRANCH  15  17
ATOM     17  C   UNL A   1      30.498  26.054  24.329  1.00  0.00     0.259 C 
ATOM     18  O   UNL A   1      30.678  25.873  25.530  1.00  0.00    -0.269 OA
BRANCH  17  19
ATOM     19  C   UNL A   1      29.903  27.319  23.904  1.00  0.00     0.111 A 
ATOM     20  C   UNL A   1      30.655  28.485  23.800  1.00  0.00     0.140 A 
ATOM     21  C   UNL A   1      28.556  27.332  23.564  1.00  0.00     0.140 A 
ATOM     22  F   UNL A   1      31.950  28.502  24.145  1.00  0.00    -0.206 F 
ATOM     23  C   UNL A   1      30.058  29.675  23.390  1.00  0.00     0.056 A 
ATOM     24  C   UNL A   1      27.948  28.508  23.134  1.00  0.00     0.056 A 
ATOM     25  F   UNL A   1      27.810  26.225  23.686  1.00  0.00    -0.206 F 
ATOM     26  C   UNL A   1      28.703  29.678  23.057  1.00  0.00     0.023 A 
ATOM     27  Br  UNL A   1      27.873  31.289  22.526  1.00  0.00    -0.051 Br
ENDBRANCH  17  19
ENDBRANCH  15  17
ENDBRANCH   9  11
ENDBRANCH   8   9
ENDBRANCH   7   8
ENDBRANCH   6   7
ENDBRANCH   5   6
ENDBRANCH   4   5
ENDBRANCH   3   4
ENDBRANCH   2   3
ENDBRANCH   1   2
BRANCH   1  28
ATOM     28  C   UNL A   1      42.166  20.801  26.587  1.00  0.00     0.188 C 
BRANCH  28  29
ATOM     29  O   UNL A   1      42.122  21.673  25.467  1.00  0.00    -0.376 OA
BRANCH  29  30
ATOM     30  C   UNL A   1      42.333  23.063  25.676  1.00  0.00     0.202 C 
BRANCH  30  31
ATOM     31  C   UNL A   1      41.707  23.714  26.922  1.00  0.00     0.261 C 
BRANCH  31  32
ATOM     32  O   UNL A   1      41.330  25.096  26.818  1.00  0.00    -0.460 OA
BRANCH  32  33
ATOM     33  C   UNL A   1      40.032  25.431  27.001  1.00  0.00     0.338 C 
ATOM     34  O   UNL A   1      39.065  24.912  26.491  1.00  0.00    -0.246 OA
BRANCH  33  35
ATOM     35  C   UNL A   1      39.985  26.420  28.104  1.00  0.00     0.060 A 
ATOM     36  C   UNL A   1      40.773  27.575  28.016  1.00  0.00     0.016 A 
ATOM     37  C   UNL A   1      39.154  26.219  29.208  1.00  0.00     0.016 A 
ATOM     38  C   UNL A   1      40.742  28.525  29.040  1.00  0.00     0.010 A 
ATOM     39  C   UNL A   1      39.144  27.157  30.243  1.00  0.00     0.010 A 
ATOM     40  C   UNL A   1      39.953  28.306  30.176  1.00  0.00    -0.014 A 
BRANCH  40  41
ATOM     41  C   UNL A   1      40.073  29.200  31.354  1.00  0.00     0.031 A 
ATOM     42  C   UNL A   1      41.202  28.969  32.324  1.00  0.00     0.074 A 
ATOM     43  C   UNL A   1      39.195  30.197  31.566  1.00  0.00     0.049 A 
ATOM     44  N   UNL A   1      41.457  29.572  33.456  1.00  0.00    -0.248 NA
ATOM     45  C   UNL A   1      42.169  27.918  31.969  1.00  0.00     0.031 C 
ATOM     46  C   UNL A   1      38.091  30.557  30.678  1.00  0.00     0.029 A 
ATOM     47  N   UNL A   1      39.092  31.085  32.608  1.00  0.00    -0.354 N 
ATOM     48  C   UNL A   1      42.605  28.966  33.956  1.00  0.00     0.074 A 
ATOM     49  C   UNL A   1      42.983  27.935  33.015  1.00  0.00     0.031 C 
ATOM     50  C   UNL A   1      37.412  31.583  31.222  1.00  0.00     0.029 A 
ATOM     51  C   UNL A   1      38.007  31.925  32.513  1.00  0.00     0.049 A 
ATOM     52  H   UNL A   1      39.735  31.118  33.354  1.00  0.00     0.167 HD
ATOM     53  C   UNL A   1      43.281  29.243  35.096  1.00  0.00     0.031 A 
ATOM     54  C   UNL A   1      37.532  32.841  33.382  1.00  0.00     0.031 A 
ATOM     55  C   UNL A   1      42.894  30.259  36.040  1.00  0.00     0.049 A 
ATOM     56  C   UNL A   1      38.252  33.069  34.688  1.00  0.00     0.074 A 
ATOM     57  C   UNL A   1      43.528  30.627  37.213  1.00  0.00     0.029 A 
ATOM     58  N   UNL A   1      41.767  31.060  35.926  1.00  0.00    -0.354 N 
ATOM     59  N   UNL A   1      39.354  32.512  35.131  1.00  0.00    -0.248 NA
ATOM     60  C   UNL A   1      37.664  34.052  35.610  1.00  0.00     0.031 C 
ATOM     61  C   UNL A   1      42.745  31.599  37.846  1.00  0.00     0.029 A 
ATOM     62  C   UNL A   1      41.665  31.890  37.030  1.00  0.00     0.049 A 
ATOM     63  H   UNL A   1      41.134  31.040  35.173  1.00  0.00     0.167 HD
ATOM     64  C   UNL A   1      39.601  33.094  36.372  1.00  0.00     0.074 A 
ATOM     65  C   UNL A   1      38.549  34.062  36.598  1.00  0.00     0.031 C 
ATOM     66  C   UNL A   1      40.609  32.848  37.246  1.00  0.00     0.031 A 
BRANCH  53  67
ATOM     67  C   UNL A   1      44.493  28.405  35.414  1.00  0.00    -0.014 A 
ATOM     68  C   UNL A   1      45.795  28.872  35.161  1.00  0.00     0.010 A 
ATOM     69  C   UNL A   1      44.324  27.151  36.032  1.00  0.00     0.010 A 
ATOM     70  C   UNL A   1      46.903  28.089  35.495  1.00  0.00     0.020 A 
ATOM     71  C   UNL A   1      45.430  26.378  36.394  1.00  0.00     0.020 A 
ATOM     72  C   UNL A   1      46.714  26.848  36.111  1.00  0.00     0.054 A 
BRANCH  72  73
ATOM     73  S   UNL A   1      48.173  25.871  36.567  1.00  0.00     0.124 S 
ATOM     74  O   UNL A   1      47.941  25.629  37.989  1.00  0.00    -0.237 OA
ATOM     75  O   UNL A   1      48.053  24.700  35.703  1.00  0.00    -0.237 OA
ATOM     76  O   UNL A   1      49.294  26.756  36.261  1.00  0.00    -0.744 OA
ENDBRANCH  72  73
ENDBRANCH  53  67
BRANCH  54  77
ATOM     77  C   UNL A   1      36.279  33.585  33.070  1.00  0.00    -0.014 A 
ATOM     78  C   UNL A   1      36.322  34.846  32.449  1.00  0.00     0.010 A 
ATOM     79  C   UNL A   1      35.030  33.040  33.418  1.00  0.00     0.010 A 
ATOM     80  C   UNL A   1      35.142  35.556  32.205  1.00  0.00     0.020 A 
ATOM     81  C   UNL A   1      33.846  33.729  33.145  1.00  0.00     0.020 A 
ATOM     82  C   UNL A   1      33.911  34.992  32.553  1.00  0.00     0.054 A 
BRANCH  82  83
ATOM     83  S   UNL A   1      32.393  35.917  32.199  1.00  0.00     0.124 S 
ATOM     84  O   UNL A   1      32.569  37.113  33.017  1.00  0.00    -0.237 OA
ATOM     85  O   UNL A   1      32.478  36.119  30.756  1.00  0.00    -0.237 OA
ATOM     86  O   UNL A   1      31.333  35.011  32.638  1.00  0.00    -0.744 OA
ENDBRANCH  82  83
ENDBRANCH  54  77
BRANCH  66  87
ATOM     87  C   UNL A   1      40.644  33.653  38.522  1.00  0.00    -0.014 A 
ATOM     88  C   UNL A   1      41.092  34.986  38.532  1.00  0.00     0.010 A 
ATOM     89  C   UNL A   1      40.163  33.086  39.717  1.00  0.00     0.010 A 
ATOM     90  C   UNL A   1      41.085  35.727  39.718  1.00  0.00     0.020 A 
ATOM     91  C   UNL A   1      40.122  33.833  40.896  1.00  0.00     0.020 A 
ATOM     92  C   UNL A   1      40.596  35.147  40.893  1.00  0.00     0.054 A 
BRANCH  92  93
ATOM     93  S   UNL A   1      40.551  36.146  42.405  1.00  0.00     0.124 S 
ATOM     94  O   UNL A   1      41.913  36.671  42.465  1.00  0.00    -0.237 OA
ATOM     95  O   UNL A   1      39.512  37.128  42.107  1.00  0.00    -0.237 OA
ATOM     96  O   UNL A   1      40.209  35.183  43.449  1.00  0.00    -0.744 OA
ENDBRANCH  92  93
ENDBRANCH  66  87
ENDBRANCH  40  41
ENDBRANCH  33  35
ENDBRANCH  32  33
ENDBRANCH  31  32
ENDBRANCH  30  31
ENDBRANCH  29  30
ENDBRANCH  28  29
ENDBRANCH   1  28
TORSDOF 25
ENDMDL
MODEL 3
REMARK VINA RESULT:      -9.0      1.167      7.950
REMARK SMILES C[C@@H]1CN(C(=O)c2c(F)cc(Br)cc2F)C[C@H]1C(=O)OCCOCCOCCOCCOC(=O)c1ccc(-c2c3nc(c(-c4ccc(S(=O)(=O)[O-])cc4)c4ccc([nH]4)c(-c4ccc(S(=O)(=O)[O-])cc4)c4nc(c(-c5ccc(S(=O)(=O)[O-])cc5)c5ccc2[nH]5)C=C4)C=C3)cc1
REMARK SMILES IDX 27 1 26 2 25 3 24 4 23 5 22 6 21 7 20 8 18 9 19 10 17 11
REMARK SMILES IDX 1 12 2 13 3 14 4 15 16 16 5 17 6 18 7 19 8 20 14 21 9 22
REMARK SMILES IDX 10 23 13 24 15 25 11 26 12 27 28 28 29 29 30 30 31 31 32 32
REMARK SMILES IDX 33 33 34 34 35 35 36 36 94 37 37 38 93 39 38 40 39 41 40 42
REMARK SMILES IDX 87 43 41 44 92 45 86 46 88 47 42 48 91 49 85 50 84 51 43 53
REMARK SMILES IDX 73 54 54 55 72 56 55 57 58 58 71 59 89 60 56 61 57 62 70 64
REMARK SMILES IDX 90 65 59 66 44 67 45 68 53 69 46 70 52 71 47 72 48 73 49 74
REMARK SMILES IDX 50 75 51 76 74 77 75 78 83 79 76 80 82 81 77 82 78 83 79 84
REMARK SMILES IDX 80 85 81 86 60 87 61 88 69 89 62 90 68 91 63 92 64 93 65 94
REMARK SMILES IDX 66 95 67 96
REMARK H PARENT 88 52 58 63
REMARK Flexibility Score: inf
ROOT
ATOM      1  C   UNL A   1      38.865  22.676  26.198  1.00  0.00     0.188 C 
ENDROOT
BRANCH   1   2
ATOM      2  O   UNL A   1      37.536  22.366  25.802  1.00  0.00    -0.377 OA
BRANCH   2   3
ATOM      3  C   UNL A   1      37.326  21.270  24.940  1.00  0.00     0.188 C 
BRANCH   3   4
ATOM      4  C   UNL A   1      35.979  20.554  25.086  1.00  0.00     0.188 C 
BRANCH   4   5
ATOM      5  O   UNL A   1      34.801  21.273  25.402  1.00  0.00    -0.376 OA
BRANCH   5   6
ATOM      6  C   UNL A   1      34.156  21.128  26.659  1.00  0.00     0.202 C 
BRANCH   6   7
ATOM      7  C   UNL A   1      33.663  22.312  27.515  1.00  0.00     0.261 C 
BRANCH   7   8
ATOM      8  O   UNL A   1      33.556  23.592  26.873  1.00  0.00    -0.463 OA
BRANCH   8   9
ATOM      9  C   UNL A   1      32.427  23.806  26.163  1.00  0.00     0.311 C 
ATOM     10  O   UNL A   1      31.313  23.963  26.660  1.00  0.00    -0.252 OA
BRANCH   9  11
ATOM     11  C   UNL A   1      32.612  23.818  24.654  1.00  0.00     0.123 C 
ATOM     12  C   UNL A   1      31.798  22.276  22.772  1.00  0.00     0.010 C 
ATOM     13  C   UNL A   1      31.437  23.435  23.703  1.00  0.00     0.021 C 
ATOM     14  C   UNL A   1      31.134  24.706  22.901  1.00  0.00     0.124 C 
ATOM     15  N   UNL A   1      31.673  25.733  23.759  1.00  0.00    -0.337 N 
ATOM     16  C   UNL A   1      32.933  25.261  24.294  1.00  0.00     0.135 C 
BRANCH  15  17
ATOM     17  C   UNL A   1      30.952  26.704  24.435  1.00  0.00     0.259 C 
ATOM     18  O   UNL A   1      29.726  26.724  24.477  1.00  0.00    -0.269 OA
BRANCH  17  19
ATOM     19  C   UNL A   1      31.683  27.742  25.159  1.00  0.00     0.111 A 
ATOM     20  C   UNL A   1      32.371  28.753  24.496  1.00  0.00     0.140 A 
ATOM     21  C   UNL A   1      31.651  27.723  26.547  1.00  0.00     0.140 A 
ATOM     22  F   UNL A   1      32.436  28.779  23.157  1.00  0.00    -0.206 F 
ATOM     23  C   UNL A   1      33.058  29.729  25.216  1.00  0.00     0.056 A 
ATOM     24  C   UNL A   1      32.315  28.701  27.283  1.00  0.00     0.056 A 
ATOM     25  F   UNL A   1      31.017  26.740  27.203  1.00  0.00    -0.206 F 
ATOM     26  C   UNL A   1      33.023  29.696  26.611  1.00  0.00     0.023 A 
ATOM     27  Br  UNL A   1      33.971  30.997  27.600  1.00  0.00    -0.051 Br
ENDBRANCH  17  19
ENDBRANCH  15  17
ENDBRANCH   9  11
ENDBRANCH   8   9
ENDBRANCH   7   8
ENDBRANCH   6   7
ENDBRANCH   5   6
ENDBRANCH   4   5
ENDBRANCH   3   4
ENDBRANCH   2   3
ENDBRANCH   1   2
BRANCH   1  28
ATOM     28  C   UNL A   1      39.885  21.533  26.354  1.00  0.00     0.188 C 
BRANCH  28  29
ATOM     29  O   UNL A   1      41.181  21.834  25.857  1.00  0.00    -0.376 OA
BRANCH  29  30
ATOM     30  C   UNL A   1      42.240  22.030  26.784  1.00  0.00     0.202 C 
BRANCH  30  31
ATOM     31  C   UNL A   1      42.548  23.466  27.243  1.00  0.00     0.261 C 
BRANCH  31  32
ATOM     32  O   UNL A   1      42.707  24.460  26.218  1.00  0.00    -0.460 OA
BRANCH  32  33
ATOM     33  C   UNL A   1      41.706  25.347  26.014  1.00  0.00     0.338 C 
ATOM     34  O   UNL A   1      40.909  25.352  25.104  1.00  0.00    -0.246 OA
BRANCH  33  35
ATOM     35  C   UNL A   1      41.626  26.203  27.222  1.00  0.00     0.060 A 
ATOM     36  C   UNL A   1      40.521  26.079  28.073  1.00  0.00     0.016 A 
ATOM     37  C   UNL A   1      42.646  27.109  27.522  1.00  0.00     0.016 A 
ATOM     38  C   UNL A   1      40.426  26.870  29.221  1.00  0.00     0.010 A 
ATOM     39  C   UNL A   1      42.537  27.918  28.657  1.00  0.00     0.010 A 
ATOM     40  C   UNL A   1      41.417  27.818  29.502  1.00  0.00    -0.014 A 
BRANCH  40  41
ATOM     41  C   UNL A   1      41.223  28.803  30.595  1.00  0.00     0.031 A 
ATOM     42  C   UNL A   1      42.109  28.720  31.809  1.00  0.00     0.074 A 
ATOM     43  C   UNL A   1      40.272  29.752  30.517  1.00  0.00     0.049 A 
ATOM     44  N   UNL A   1      42.070  29.421  32.912  1.00  0.00    -0.248 NA
ATOM     45  C   UNL A   1      43.181  27.712  31.772  1.00  0.00     0.031 C 
ATOM     46  C   UNL A   1      39.384  29.971  29.377  1.00  0.00     0.029 A 
ATOM     47  N   UNL A   1      39.892  30.706  31.428  1.00  0.00    -0.354 N 
ATOM     48  C   UNL A   1      43.101  28.930  33.707  1.00  0.00     0.074 A 
ATOM     49  C   UNL A   1      43.733  27.860  32.968  1.00  0.00     0.031 C 
ATOM     50  C   UNL A   1      38.551  30.988  29.663  1.00  0.00     0.029 A 
ATOM     51  C   UNL A   1      38.818  31.463  31.020  1.00  0.00     0.049 A 
ATOM     52  H   UNL A   1      40.345  30.837  32.293  1.00  0.00     0.167 HD
ATOM     53  C   UNL A   1      43.485  29.336  34.941  1.00  0.00     0.031 A 
ATOM     54  C   UNL A   1      38.114  32.408  31.677  1.00  0.00     0.031 A 
ATOM     55  C   UNL A   1      42.845  30.391  35.682  1.00  0.00     0.049 A 
ATOM     56  C   UNL A   1      38.505  32.779  33.086  1.00  0.00     0.074 A 
ATOM     57  C   UNL A   1      43.175  30.886  36.931  1.00  0.00     0.029 A 
ATOM     58  N   UNL A   1      41.737  31.104  35.250  1.00  0.00    -0.354 N 
ATOM     59  N   UNL A   1      39.503  32.330  33.812  1.00  0.00    -0.248 NA
ATOM     60  C   UNL A   1      37.676  33.786  33.764  1.00  0.00     0.031 C 
ATOM     61  C   UNL A   1      42.224  31.847  37.285  1.00  0.00     0.029 A 
ATOM     62  C   UNL A   1      41.345  32.006  36.226  1.00  0.00     0.049 A 
ATOM     63  H   UNL A   1      41.294  30.987  34.378  1.00  0.00     0.167 HD
ATOM     64  C   UNL A   1      39.432  33.018  35.021  1.00  0.00     0.074 A 
ATOM     65  C   UNL A   1      38.311  33.928  34.920  1.00  0.00     0.031 C 
ATOM     66  C   UNL A   1      40.224  32.905  36.117  1.00  0.00     0.031 A 
BRANCH  53  67
ATOM     67  C   UNL A   1      44.631  28.606  35.594  1.00  0.00    -0.014 A 
ATOM     68  C   UNL A   1      44.418  27.456  36.376  1.00  0.00     0.010 A 
ATOM     69  C   UNL A   1      45.949  29.045  35.368  1.00  0.00     0.010 A 
ATOM     70  C   UNL A   1      45.501  26.778  36.943  1.00  0.00     0.020 A 
ATOM     71  C   UNL A   1      47.036  28.353  35.910  1.00  0.00     0.020 A 
ATOM     72  C   UNL A   1      46.803  27.230  36.705  1.00  0.00     0.054 A 
BRANCH  72  73
ATOM     73  S   UNL A   1      48.189  26.306  37.423  1.00  0.00     0.124 S 
ATOM     74  O   UNL A   1      49.341  27.005  36.857  1.00  0.00    -0.237 OA
ATOM     75  O   UNL A   1      47.985  26.493  38.858  1.00  0.00    -0.237 OA
ATOM     76  O   UNL A   1      47.988  24.943  36.939  1.00  0.00    -0.744 OA
ENDBRANCH  72  73
ENDBRANCH  53  67
BRANCH  54  77
ATOM     77  C   UNL A   1      36.932  33.042  31.029  1.00  0.00    -0.014 A 
ATOM     78  C   UNL A   1      37.086  33.919  29.942  1.00  0.00     0.010 A 
ATOM     79  C   UNL A   1      35.638  32.786  31.519  1.00  0.00     0.010 A 
ATOM     80  C   UNL A   1      35.973  34.546  29.373  1.00  0.00     0.020 A 
ATOM     81  C   UNL A   1      34.519  33.382  30.932  1.00  0.00     0.020 A 
ATOM     82  C   UNL A   1      34.696  34.271  29.870  1.00  0.00     0.054 A 
BRANCH  82  83
ATOM     83  S   UNL A   1      33.264  35.072  29.097  1.00  0.00     0.124 S 
ATOM     84  O   UNL A   1      33.858  36.285  28.544  1.00  0.00    -0.237 OA
ATOM     85  O   UNL A   1      32.837  34.073  28.122  1.00  0.00    -0.237 OA
ATOM     86  O   UNL A   1      32.347  35.279  30.215  1.00  0.00    -0.744 OA
ENDBRANCH  82  83
ENDBRANCH  54  77
BRANCH  66  87
ATOM     87  C   UNL A   1      39.928  33.802  37.292  1.00  0.00    -0.014 A 
ATOM     88  C   UNL A   1      40.616  35.015  37.477  1.00  0.00     0.010 A 
ATOM     89  C   UNL A   1      38.903  33.457  38.192  1.00  0.00     0.010 A 
ATOM     90  C   UNL A   1      40.304  35.850  38.554  1.00  0.00     0.020 A 
ATOM     91  C   UNL A   1      38.564  34.304  39.250  1.00  0.00     0.020 A 
ATOM     92  C   UNL A   1      39.276  35.491  39.432  1.00  0.00     0.054 A 
BRANCH  92  93
ATOM     93  S   UNL A   1      38.859  36.617  40.791  1.00  0.00     0.124 S 
ATOM     94  O   UNL A   1      40.175  36.939  41.337  1.00  0.00    -0.237 OA
ATOM     95  O   UNL A   1      38.180  37.711  40.102  1.00  0.00    -0.237 OA
ATOM     96  O   UNL A   1      38.005  35.811  41.661  1.00  0.00    -0.744 OA
ENDBRANCH  92  93
ENDBRANCH  66  87
ENDBRANCH  40  41
ENDBRANCH  33  35
ENDBRANCH  32  33
ENDBRANCH  31  32
ENDBRANCH  30  31
ENDBRANCH  29  30
ENDBRANCH  28  29
ENDBRANCH   1  28
TORSDOF 25
ENDMDL
