MODEL 1
REMARK VINA RESULT:      -9.0      0.000      0.000
REMARK SMILES Cc1nn(C)c(C)c1CCC(=O)Nc1sccc1C(=O)OCCOCCOCCOCCOC(=O)c1ccc(-c2c3nc(c(-c4ccc(S(=O)(=O)[O-])cc4)c4ccc([nH]4)c(-c4ccc(S(=O)(=O)[O-])cc4)c4nc(c(-c5ccc(S(=O)(=O)[O-])cc5)c5ccc2[nH]5)C=C4)C=C3)cc1
REMARK SMILES IDX 26 1 25 2 24 3 23 4 22 5 21 6 19 7 20 8 18 9 14 10 15 11
REMARK SMILES IDX 16 12 17 13 13 14 11 15 12 16 10 18 9 19 8 20 1 21 2 22 3 23
REMARK SMILES IDX 4 24 6 25 5 26 7 27 27 28 28 29 29 30 30 31 31 32 32 33
REMARK SMILES IDX 33 34 34 35 35 36 36 37 37 38 95 39 38 40 94 41 39 42 40 43
REMARK SMILES IDX 41 44 88 45 42 46 93 47 87 48 89 49 43 50 92 51 86 52 85 53
REMARK SMILES IDX 44 55 74 56 55 57 73 58 56 59 59 60 72 61 90 62 57 63 58 64
REMARK SMILES IDX 71 66 91 67 60 68 45 69 46 70 54 71 47 72 53 73 48 74 49 75
REMARK SMILES IDX 50 76 51 77 52 78 75 79 76 80 84 81 77 82 83 83 78 84 79 85
REMARK SMILES IDX 80 86 81 87 82 88 61 89 62 90 70 91 63 92 69 93 64 94 65 95
REMARK SMILES IDX 66 96 67 97 68 98
REMARK H PARENT 13 17 89 54 59 65
REMARK Flexibility Score: inf
ROOT
ATOM      1  C   UNL A   1      41.891  22.694  28.240  1.00  0.00     0.188 C 
ENDROOT
BRANCH   1   2
ATOM      2  C   UNL A   1      40.765  21.905  27.557  1.00  0.00     0.188 C 
BRANCH   2   3
ATOM      3  O   UNL A   1      39.457  22.421  27.364  1.00  0.00    -0.376 OA
BRANCH   3   4
ATOM      4  C   UNL A   1      39.181  23.525  26.532  1.00  0.00     0.202 C 
BRANCH   4   5
ATOM      5  C   UNL A   1      37.893  23.640  25.717  1.00  0.00     0.261 C 
BRANCH   5   6
ATOM      6  O   UNL A   1      36.626  23.807  26.374  1.00  0.00    -0.460 OA
BRANCH   6   7
ATOM      7  C   UNL A   1      35.356  23.894  25.487  1.00  0.00     0.341 C 
ATOM      8  O   UNL A   1      35.326  22.704  25.003  1.00  0.00    -0.246 OA
BRANCH   7   9
ATOM      9  C   UNL A   1      34.213  25.684  25.038  1.00  0.00     0.094 A 
ATOM     10  C   UNL A   1      33.436  26.210  23.825  1.00  0.00     0.110 A 
ATOM     11  S   UNL A   1      33.220  27.918  23.763  1.00  0.00    -0.126 S 
ATOM     12  C   UNL A   1      33.496  28.155  25.391  1.00  0.00     0.068 A 
ATOM     13  C   UNL A   1      33.881  27.000  26.007  1.00  0.00     0.029 A 
BRANCH  10  14
ATOM     14  N   UNL A   1      33.002  25.772  22.566  1.00  0.00    -0.317 N 
ATOM     15  C   UNL A   1      32.815  24.540  22.008  1.00  0.00     0.225 C 
ATOM     16  O   UNL A   1      32.946  24.426  20.787  1.00  0.00    -0.275 OA
ATOM     17  H   UNL A   1      32.784  26.511  21.953  1.00  0.00     0.170 HD
BRANCH  15  18
ATOM     18  C   UNL A   1      32.265  23.399  22.828  1.00  0.00     0.105 C 
BRANCH  18  19
ATOM     19  C   UNL A   1      32.491  22.034  22.251  1.00  0.00     0.049 C 
BRANCH  19  20
ATOM     20  C   UNL A   1      32.539  21.019  23.315  1.00  0.00    -0.004 A 
ATOM     21  C   UNL A   1      32.037  22.616  25.984  1.00  0.00     0.069 C 
ATOM     22  C   UNL A   1      32.450  21.378  25.261  1.00  0.00     0.063 A 
ATOM     23  N   UNL A   1      32.255  19.811  26.077  1.00  0.00    -0.178 NA
ATOM     24  N   UNL A   1      32.318  18.458  24.803  1.00  0.00    -0.272 N 
ATOM     25  C   UNL A   1      32.485  19.171  23.110  1.00  0.00     0.038 A 
ATOM     26  C   UNL A   1      32.673  17.093  25.137  1.00  0.00     0.174 C 
ATOM     27  C   UNL A   1      32.404  18.236  21.935  1.00  0.00     0.066 C 
ENDBRANCH  19  20
ENDBRANCH  18  19
ENDBRANCH  15  18
ENDBRANCH  10  14
ENDBRANCH   7   9
ENDBRANCH   6   7
ENDBRANCH   5   6
ENDBRANCH   4   5
ENDBRANCH   3   4
ENDBRANCH   2   3
ENDBRANCH   1   2
BRANCH   1  28
ATOM     28  O   UNL A   1      42.737  23.485  27.446  1.00  0.00    -0.377 OA
BRANCH  28  29
ATOM     29  C   UNL A   1      42.397  23.715  26.100  1.00  0.00     0.188 C 
BRANCH  29  30
ATOM     30  C   UNL A   1      43.416  23.420  24.985  1.00  0.00     0.188 C 
BRANCH  30  31
ATOM     31  O   UNL A   1      44.313  24.447  24.624  1.00  0.00    -0.376 OA
BRANCH  31  32
ATOM     32  C   UNL A   1      45.191  25.138  25.485  1.00  0.00     0.202 C 
BRANCH  32  33
ATOM     33  C   UNL A   1      45.174  26.657  25.727  1.00  0.00     0.261 C 
BRANCH  33  34
ATOM     34  O   UNL A   1      44.231  27.442  25.007  1.00  0.00    -0.460 OA
BRANCH  34  35
ATOM     35  C   UNL A   1      42.955  27.397  25.452  1.00  0.00     0.338 C 
ATOM     36  O   UNL A   1      42.001  26.907  24.878  1.00  0.00    -0.246 OA
BRANCH  35  37
ATOM     37  C   UNL A   1      42.951  27.874  26.852  1.00  0.00     0.060 A 
ATOM     38  C   UNL A   1      42.379  27.065  27.846  1.00  0.00     0.016 A 
ATOM     39  C   UNL A   1      43.542  29.094  27.183  1.00  0.00     0.016 A 
ATOM     40  C   UNL A   1      42.363  27.488  29.169  1.00  0.00     0.010 A 
ATOM     41  C   UNL A   1      43.471  29.546  28.502  1.00  0.00     0.010 A 
ATOM     42  C   UNL A   1      42.844  28.760  29.486  1.00  0.00    -0.014 A 
BRANCH  42  43
ATOM     43  C   UNL A   1      42.434  29.372  30.767  1.00  0.00     0.031 A 
ATOM     44  C   UNL A   1      41.168  30.185  30.772  1.00  0.00     0.074 A 
ATOM     45  C   UNL A   1      43.132  29.175  31.897  1.00  0.00     0.049 A 
ATOM     46  N   UNL A   1      40.631  30.876  31.739  1.00  0.00    -0.248 NA
ATOM     47  C   UNL A   1      40.406  30.223  29.508  1.00  0.00     0.031 C 
ATOM     48  C   UNL A   1      44.325  28.340  32.024  1.00  0.00     0.029 A 
ATOM     49  N   UNL A   1      42.933  29.676  33.157  1.00  0.00    -0.354 N 
ATOM     50  C   UNL A   1      39.482  31.444  31.201  1.00  0.00     0.074 A 
ATOM     51  C   UNL A   1      39.411  31.040  29.816  1.00  0.00     0.031 C 
ATOM     52  C   UNL A   1      44.764  28.402  33.295  1.00  0.00     0.029 A 
ATOM     53  C   UNL A   1      43.909  29.313  34.053  1.00  0.00     0.049 A 
ATOM     54  H   UNL A   1      42.164  30.242  33.398  1.00  0.00     0.167 HD
ATOM     55  C   UNL A   1      38.566  32.229  31.812  1.00  0.00     0.031 A 
ATOM     56  C   UNL A   1      44.102  29.702  35.330  1.00  0.00     0.031 A 
ATOM     57  C   UNL A   1      38.655  32.635  33.187  1.00  0.00     0.049 A 
ATOM     58  C   UNL A   1      43.122  30.665  35.956  1.00  0.00     0.074 A 
ATOM     59  C   UNL A   1      37.781  33.430  33.905  1.00  0.00     0.029 A 
ATOM     60  N   UNL A   1      39.684  32.287  34.051  1.00  0.00    -0.354 N 
ATOM     61  N   UNL A   1      42.032  31.188  35.442  1.00  0.00    -0.248 NA
ATOM     62  C   UNL A   1      43.395  31.084  37.337  1.00  0.00     0.031 C 
ATOM     63  C   UNL A   1      38.317  33.622  35.181  1.00  0.00     0.029 A 
ATOM     64  C   UNL A   1      39.481  32.876  35.286  1.00  0.00     0.049 A 
ATOM     65  H   UNL A   1      40.444  31.705  33.820  1.00  0.00     0.167 HD
ATOM     66  C   UNL A   1      41.470  31.964  36.453  1.00  0.00     0.074 A 
ATOM     67  C   UNL A   1      42.332  31.827  37.609  1.00  0.00     0.031 C 
ATOM     68  C   UNL A   1      40.345  32.721  36.429  1.00  0.00     0.031 A 
BRANCH  55  69
ATOM     69  C   UNL A   1      37.412  32.733  30.986  1.00  0.00    -0.014 A 
ATOM     70  C   UNL A   1      36.080  32.450  31.338  1.00  0.00     0.010 A 
ATOM     71  C   UNL A   1      37.667  33.551  29.870  1.00  0.00     0.010 A 
ATOM     72  C   UNL A   1      35.025  32.960  30.576  1.00  0.00     0.020 A 
ATOM     73  C   UNL A   1      36.614  34.091  29.127  1.00  0.00     0.020 A 
ATOM     74  C   UNL A   1      35.299  33.783  29.480  1.00  0.00     0.054 A 
BRANCH  74  75
ATOM     75  S   UNL A   1      33.908  34.478  28.548  1.00  0.00     0.124 S 
ATOM     76  O   UNL A   1      34.427  35.790  28.165  1.00  0.00    -0.237 OA
ATOM     77  O   UNL A   1      33.750  33.522  27.456  1.00  0.00    -0.237 OA
ATOM     78  O   UNL A   1      32.816  34.502  29.517  1.00  0.00    -0.744 OA
ENDBRANCH  74  75
ENDBRANCH  55  69
BRANCH  56  79
ATOM     79  C   UNL A   1      45.285  29.217  36.096  1.00  0.00    -0.014 A 
ATOM     80  C   UNL A   1      46.568  29.735  35.845  1.00  0.00     0.010 A 
ATOM     81  C   UNL A   1      45.139  28.203  37.061  1.00  0.00     0.010 A 
ATOM     82  C   UNL A   1      47.684  29.226  36.515  1.00  0.00     0.020 A 
ATOM     83  C   UNL A   1      46.247  27.718  37.763  1.00  0.00     0.020 A 
ATOM     84  C   UNL A   1      47.515  28.221  37.472  1.00  0.00     0.054 A 
BRANCH  84  85
ATOM     85  S   UNL A   1      48.977  27.594  38.344  1.00  0.00     0.124 S 
ATOM     86  O   UNL A   1      49.986  27.599  37.288  1.00  0.00    -0.237 OA
ATOM     87  O   UNL A   1      49.161  28.587  39.398  1.00  0.00    -0.237 OA
ATOM     88  O   UNL A   1      48.562  26.271  38.806  1.00  0.00    -0.744 OA
ENDBRANCH  84  85
ENDBRANCH  56  79
BRANCH  68  89
ATOM     89  C   UNL A   1      39.943  33.418  37.705  1.00  0.00    -0.014 A 
ATOM     90  C   UNL A   1      40.408  34.707  38.021  1.00  0.00     0.010 A 
ATOM     91  C   UNL A   1      39.029  32.791  38.573  1.00  0.00     0.010 A 
ATOM     92  C   UNL A   1      39.998  35.337  39.199  1.00  0.00     0.020 A 
ATOM     93  C   UNL A   1      38.586  33.433  39.732  1.00  0.00     0.020 A 
ATOM     94  C   UNL A   1      39.086  34.698  40.045  1.00  0.00     0.054 A 
BRANCH  94  95
ATOM     95  S   UNL A   1      38.535  35.560  41.542  1.00  0.00     0.124 S 
ATOM     96  O   UNL A   1      38.562  36.956  41.117  1.00  0.00    -0.237 OA
ATOM     97  O   UNL A   1      37.207  34.994  41.764  1.00  0.00    -0.237 OA
ATOM     98  O   UNL A   1      39.538  35.195  42.542  1.00  0.00    -0.744 OA
ENDBRANCH  94  95
ENDBRANCH  68  89
ENDBRANCH  42  43
ENDBRANCH  35  37
ENDBRANCH  34  35
ENDBRANCH  33  34
ENDBRANCH  32  33
ENDBRANCH  31  32
ENDBRANCH  30  31
ENDBRANCH  29  30
ENDBRANCH  28  29
ENDBRANCH   1  28
TORSDOF 27
ENDMDL
MODEL 2
REMARK VINA RESULT:      -8.8      6.047      8.738
REMARK SMILES Cc1nn(C)c(C)c1CCC(=O)Nc1sccc1C(=O)OCCOCCOCCOCCOC(=O)c1ccc(-c2c3nc(c(-c4ccc(S(=O)(=O)[O-])cc4)c4ccc([nH]4)c(-c4ccc(S(=O)(=O)[O-])cc4)c4nc(c(-c5ccc(S(=O)(=O)[O-])cc5)c5ccc2[nH]5)C=C4)C=C3)cc1
REMARK SMILES IDX 26 1 25 2 24 3 23 4 22 5 21 6 19 7 20 8 18 9 14 10 15 11
REMARK SMILES IDX 16 12 17 13 13 14 11 15 12 16 10 18 9 19 8 20 1 21 2 22 3 23
REMARK SMILES IDX 4 24 6 25 5 26 7 27 27 28 28 29 29 30 30 31 31 32 32 33
REMARK SMILES IDX 33 34 34 35 35 36 36 37 37 38 95 39 38 40 94 41 39 42 40 43
REMARK SMILES IDX 41 44 88 45 42 46 93 47 87 48 89 49 43 50 92 51 86 52 85 53
REMARK SMILES IDX 44 55 74 56 55 57 73 58 56 59 59 60 72 61 90 62 57 63 58 64
REMARK SMILES IDX 71 66 91 67 60 68 45 69 46 70 54 71 47 72 53 73 48 74 49 75
REMARK SMILES IDX 50 76 51 77 52 78 75 79 76 80 84 81 77 82 83 83 78 84 79 85
REMARK SMILES IDX 80 86 81 87 82 88 61 89 62 90 70 91 63 92 69 93 64 94 65 95
REMARK SMILES IDX 66 96 67 97 68 98
REMARK H PARENT 13 17 89 54 59 65
REMARK Flexibility Score: inf
ROOT
ATOM      1  C   UNL A   1      37.058  23.237  25.309  1.00  0.00     0.188 C 
ENDROOT
BRANCH   1   2
ATOM      2  C   UNL A   1      35.876  22.909  26.233  1.00  0.00     0.188 C 
BRANCH   2   3
ATOM      3  O   UNL A   1      34.548  23.343  25.982  1.00  0.00    -0.376 OA
BRANCH   3   4
ATOM      4  C   UNL A   1      33.427  22.497  26.102  1.00  0.00     0.202 C 
BRANCH   4   5
ATOM      5  C   UNL A   1      31.991  23.012  26.002  1.00  0.00     0.261 C 
BRANCH   5   6
ATOM      6  O   UNL A   1      31.613  24.245  26.635  1.00  0.00    -0.460 OA
BRANCH   6   7
ATOM      7  C   UNL A   1      30.248  24.872  26.242  1.00  0.00     0.341 C 
ATOM      8  O   UNL A   1      29.453  24.188  26.984  1.00  0.00    -0.246 OA
BRANCH   7   9
ATOM      9  C   UNL A   1      29.893  26.292  24.640  1.00  0.00     0.094 A 
ATOM     10  C   UNL A   1      30.763  27.235  23.801  1.00  0.00     0.110 A 
ATOM     11  S   UNL A   1      29.941  28.570  23.087  1.00  0.00    -0.126 S 
ATOM     12  C   UNL A   1      28.427  27.880  23.199  1.00  0.00     0.068 A 
ATOM     13  C   UNL A   1      28.464  26.699  23.882  1.00  0.00     0.029 A 
BRANCH  10  14
ATOM     14  N   UNL A   1      32.118  27.520  23.579  1.00  0.00    -0.317 N 
ATOM     15  C   UNL A   1      33.125  27.992  24.371  1.00  0.00     0.225 C 
ATOM     16  O   UNL A   1      34.032  28.637  23.841  1.00  0.00    -0.275 OA
ATOM     17  H   UNL A   1      32.405  27.339  22.655  1.00  0.00     0.170 HD
BRANCH  15  18
ATOM     18  C   UNL A   1      33.233  27.565  25.815  1.00  0.00     0.105 C 
BRANCH  18  19
ATOM     19  C   UNL A   1      34.552  27.855  26.466  1.00  0.00     0.049 C 
BRANCH  19  20
ATOM     20  C   UNL A   1      34.632  29.267  26.876  1.00  0.00    -0.004 A 
ATOM     21  C   UNL A   1      31.650  30.282  26.878  1.00  0.00     0.069 C 
ATOM     22  C   UNL A   1      33.118  30.542  26.933  1.00  0.00     0.063 A 
ATOM     23  N   UNL A   1      33.693  32.004  27.765  1.00  0.00    -0.178 NA
ATOM     24  N   UNL A   1      35.500  31.803  28.154  1.00  0.00    -0.272 N 
ATOM     25  C   UNL A   1      36.094  30.139  27.625  1.00  0.00     0.038 A 
ATOM     26  C   UNL A   1      36.377  32.936  28.373  1.00  0.00     0.174 C 
ATOM     27  C   UNL A   1      37.496  29.737  27.992  1.00  0.00     0.066 C 
ENDBRANCH  19  20
ENDBRANCH  18  19
ENDBRANCH  15  18
ENDBRANCH  10  14
ENDBRANCH   7   9
ENDBRANCH   6   7
ENDBRANCH   5   6
ENDBRANCH   4   5
ENDBRANCH   3   4
ENDBRANCH   2   3
ENDBRANCH   1   2
BRANCH   1  28
ATOM     28  O   UNL A   1      37.857  22.182  24.838  1.00  0.00    -0.377 OA
BRANCH  28  29
ATOM     29  C   UNL A   1      38.672  21.481  25.746  1.00  0.00     0.188 C 
BRANCH  29  30
ATOM     30  C   UNL A   1      39.809  22.212  26.484  1.00  0.00     0.188 C 
BRANCH  30  31
ATOM     31  O   UNL A   1      41.108  22.125  25.941  1.00  0.00    -0.376 OA
BRANCH  31  32
ATOM     32  C   UNL A   1      42.307  21.931  26.658  1.00  0.00     0.202 C 
BRANCH  32  33
ATOM     33  C   UNL A   1      43.697  22.397  26.192  1.00  0.00     0.261 C 
BRANCH  33  34
ATOM     34  O   UNL A   1      44.130  23.700  26.565  1.00  0.00    -0.460 OA
BRANCH  34  35
ATOM     35  C   UNL A   1      45.467  23.901  26.583  1.00  0.00     0.338 C 
ATOM     36  O   UNL A   1      46.329  23.082  26.326  1.00  0.00    -0.246 OA
BRANCH  35  37
ATOM     37  C   UNL A   1      45.700  25.348  26.780  1.00  0.00     0.060 A 
ATOM     38  C   UNL A   1      46.246  25.791  27.995  1.00  0.00     0.016 A 
ATOM     39  C   UNL A   1      45.416  26.254  25.758  1.00  0.00     0.016 A 
ATOM     40  C   UNL A   1      46.477  27.145  28.206  1.00  0.00     0.010 A 
ATOM     41  C   UNL A   1      45.589  27.619  25.994  1.00  0.00     0.010 A 
ATOM     42  C   UNL A   1      46.081  28.065  27.233  1.00  0.00    -0.014 A 
BRANCH  42  43
ATOM     43  C   UNL A   1      45.916  29.480  27.626  1.00  0.00     0.031 A 
ATOM     44  C   UNL A   1      44.647  29.857  28.340  1.00  0.00     0.074 A 
ATOM     45  C   UNL A   1      46.877  30.391  27.400  1.00  0.00     0.049 A 
ATOM     46  N   UNL A   1      44.232  31.031  28.727  1.00  0.00    -0.248 NA
ATOM     47  C   UNL A   1      43.720  28.754  28.660  1.00  0.00     0.031 C 
ATOM     48  C   UNL A   1      48.178  30.120  26.790  1.00  0.00     0.029 A 
ATOM     49  N   UNL A   1      46.897  31.737  27.656  1.00  0.00    -0.354 N 
ATOM     50  C   UNL A   1      42.992  30.814  29.318  1.00  0.00     0.074 A 
ATOM     51  C   UNL A   1      42.709  29.402  29.217  1.00  0.00     0.031 C 
ATOM     52  C   UNL A   1      48.864  31.274  26.703  1.00  0.00     0.029 A 
ATOM     53  C   UNL A   1      48.034  32.365  27.210  1.00  0.00     0.049 A 
ATOM     54  H   UNL A   1      46.166  32.210  28.117  1.00  0.00     0.167 HD
ATOM     55  C   UNL A   1      42.166  31.715  29.897  1.00  0.00     0.031 A 
ATOM     56  C   UNL A   1      48.349  33.676  27.186  1.00  0.00     0.031 A 
ATOM     57  C   UNL A   1      42.453  33.121  29.979  1.00  0.00     0.049 A 
ATOM     58  C   UNL A   1      47.361  34.674  27.743  1.00  0.00     0.074 A 
ATOM     59  C   UNL A   1      41.685  34.122  30.545  1.00  0.00     0.029 A 
ATOM     60  N   UNL A   1      43.594  33.728  29.472  1.00  0.00    -0.354 N 
ATOM     61  N   UNL A   1      46.196  34.458  28.310  1.00  0.00    -0.248 NA
ATOM     62  C   UNL A   1      47.736  36.092  27.663  1.00  0.00     0.031 C 
ATOM     63  C   UNL A   1      42.325  35.342  30.316  1.00  0.00     0.029 A 
ATOM     64  C   UNL A   1      43.535  35.093  29.685  1.00  0.00     0.049 A 
ATOM     65  H   UNL A   1      44.336  33.256  29.029  1.00  0.00     0.167 HD
ATOM     66  C   UNL A   1      45.721  35.710  28.689  1.00  0.00     0.074 A 
ATOM     67  C   UNL A   1      46.731  36.673  28.302  1.00  0.00     0.031 C 
ATOM     68  C   UNL A   1      44.555  36.036  29.302  1.00  0.00     0.031 A 
BRANCH  55  69
ATOM     69  C   UNL A   1      40.858  31.215  30.449  1.00  0.00    -0.014 A 
ATOM     70  C   UNL A   1      40.797  30.073  31.269  1.00  0.00     0.010 A 
ATOM     71  C   UNL A   1      39.678  31.933  30.187  1.00  0.00     0.010 A 
ATOM     72  C   UNL A   1      39.576  29.650  31.799  1.00  0.00     0.020 A 
ATOM     73  C   UNL A   1      38.460  31.533  30.744  1.00  0.00     0.020 A 
ATOM     74  C   UNL A   1      38.417  30.387  31.539  1.00  0.00     0.054 A 
BRANCH  74  75
ATOM     75  S   UNL A   1      36.858  29.845  32.290  1.00  0.00     0.124 S 
ATOM     76  O   UNL A   1      36.362  31.086  32.882  1.00  0.00    -0.237 OA
ATOM     77  O   UNL A   1      36.106  29.354  31.140  1.00  0.00    -0.237 OA
ATOM     78  O   UNL A   1      37.269  28.822  33.248  1.00  0.00    -0.744 OA
ENDBRANCH  74  75
ENDBRANCH  55  69
BRANCH  56  79
ATOM     79  C   UNL A   1      49.634  34.134  26.585  1.00  0.00    -0.014 A 
ATOM     80  C   UNL A   1      49.669  34.673  25.287  1.00  0.00     0.010 A 
ATOM     81  C   UNL A   1      50.839  33.998  27.298  1.00  0.00     0.010 A 
ATOM     82  C   UNL A   1      50.887  35.034  24.701  1.00  0.00     0.020 A 
ATOM     83  C   UNL A   1      52.054  34.394  26.731  1.00  0.00     0.020 A 
ATOM     84  C   UNL A   1      52.072  34.893  25.429  1.00  0.00     0.054 A 
BRANCH  84  85
ATOM     85  S   UNL A   1      53.634  35.390  24.653  1.00  0.00     0.124 S 
ATOM     86  O   UNL A   1      53.194  36.420  23.717  1.00  0.00    -0.237 OA
ATOM     87  O   UNL A   1      54.412  35.864  25.795  1.00  0.00    -0.237 OA
ATOM     88  O   UNL A   1      54.124  34.157  24.041  1.00  0.00    -0.744 OA
ENDBRANCH  84  85
ENDBRANCH  56  79
BRANCH  68  89
ATOM     89  C   UNL A   1      44.328  37.487  29.647  1.00  0.00    -0.014 A 
ATOM     90  C   UNL A   1      43.532  38.322  28.842  1.00  0.00     0.010 A 
ATOM     91  C   UNL A   1      44.872  38.005  30.838  1.00  0.00     0.010 A 
ATOM     92  C   UNL A   1      43.320  39.655  29.202  1.00  0.00     0.020 A 
ATOM     93  C   UNL A   1      44.630  39.325  31.221  1.00  0.00     0.020 A 
ATOM     94  C   UNL A   1      43.866  40.148  30.392  1.00  0.00     0.054 A 
BRANCH  94  95
ATOM     95  S   UNL A   1      43.534  41.868  30.856  1.00  0.00     0.124 S 
ATOM     96  O   UNL A   1      42.074  41.904  30.872  1.00  0.00    -0.237 OA
ATOM     97  O   UNL A   1      44.181  41.977  32.160  1.00  0.00    -0.237 OA
ATOM     98  O   UNL A   1      44.161  42.645  29.787  1.00  0.00    -0.744 OA
ENDBRANCH  94  95
ENDBRANCH  68  89
ENDBRANCH  42  43
ENDBRANCH  35  37
ENDBRANCH  34  35
ENDBRANCH  33  34
ENDBRANCH  32  33
ENDBRANCH  31  32
ENDBRANCH  30  31
ENDBRANCH  29  30
ENDBRANCH  28  29
ENDBRANCH   1  28
TORSDOF 27
ENDMDL
MODEL 3
REMARK VINA RESULT:      -8.6      2.112      3.840
REMARK SMILES Cc1nn(C)c(C)c1CCC(=O)Nc1sccc1C(=O)OCCOCCOCCOCCOC(=O)c1ccc(-c2c3nc(c(-c4ccc(S(=O)(=O)[O-])cc4)c4ccc([nH]4)c(-c4ccc(S(=O)(=O)[O-])cc4)c4nc(c(-c5ccc(S(=O)(=O)[O-])cc5)c5ccc2[nH]5)C=C4)C=C3)cc1
REMARK SMILES IDX 26 1 25 2 24 3 23 4 22 5 21 6 19 7 20 8 18 9 14 10 15 11
REMARK SMILES IDX 16 12 17 13 13 14 11 15 12 16 10 18 9 19 8 20 1 21 2 22 3 23
REMARK SMILES IDX 4 24 6 25 5 26 7 27 27 28 28 29 29 30 30 31 31 32 32 33
REMARK SMILES IDX 33 34 34 35 35 36 36 37 37 38 95 39 38 40 94 41 39 42 40 43
REMARK SMILES IDX 41 44 88 45 42 46 93 47 87 48 89 49 43 50 92 51 86 52 85 53
REMARK SMILES IDX 44 55 74 56 55 57 73 58 56 59 59 60 72 61 90 62 57 63 58 64
REMARK SMILES IDX 71 66 91 67 60 68 45 69 46 70 54 71 47 72 53 73 48 74 49 75
REMARK SMILES IDX 50 76 51 77 52 78 75 79 76 80 84 81 77 82 83 83 78 84 79 85
REMARK SMILES IDX 80 86 81 87 82 88 61 89 62 90 70 91 63 92 69 93 64 94 65 95
REMARK SMILES IDX 66 96 67 97 68 98
REMARK H PARENT 13 17 89 54 59 65
REMARK Flexibility Score: inf
ROOT
ATOM      1  C   UNL A   1      42.335  22.752  28.752  1.00  0.00     0.188 C 
ENDROOT
BRANCH   1   2
ATOM      2  C   UNL A   1      42.012  21.733  27.650  1.00  0.00     0.188 C 
BRANCH   2   3
ATOM      3  O   UNL A   1      40.689  21.348  27.308  1.00  0.00    -0.376 OA
BRANCH   3   4
ATOM      4  C   UNL A   1      40.060  21.742  26.110  1.00  0.00     0.202 C 
BRANCH   4   5
ATOM      5  C   UNL A   1      38.797  21.063  25.581  1.00  0.00     0.261 C 
BRANCH   5   6
ATOM      6  O   UNL A   1      37.504  21.427  26.092  1.00  0.00    -0.460 OA
BRANCH   6   7
ATOM      7  C   UNL A   1      36.322  21.498  25.089  1.00  0.00     0.341 C 
ATOM      8  O   UNL A   1      36.416  22.719  24.700  1.00  0.00    -0.246 OA
BRANCH   7   9
ATOM      9  C   UNL A   1      34.815  19.971  24.758  1.00  0.00     0.094 A 
ATOM     10  C   UNL A   1      33.285  19.946  24.664  1.00  0.00     0.110 A 
ATOM     11  S   UNL A   1      32.544  18.425  24.989  1.00  0.00    -0.126 S 
ATOM     12  C   UNL A   1      33.924  17.532  24.708  1.00  0.00     0.068 A 
ATOM     13  C   UNL A   1      35.005  18.335  24.491  1.00  0.00     0.029 A 
BRANCH  10  14
ATOM     14  N   UNL A   1      32.206  20.839  24.612  1.00  0.00    -0.317 N 
ATOM     15  C   UNL A   1      32.030  22.074  24.058  1.00  0.00     0.225 C 
ATOM     16  O   UNL A   1      31.221  22.842  24.585  1.00  0.00    -0.275 OA
ATOM     17  H   UNL A   1      31.403  20.504  25.072  1.00  0.00     0.170 HD
BRANCH  15  18
ATOM     18  C   UNL A   1      32.650  22.416  22.724  1.00  0.00     0.105 C 
BRANCH  18  19
ATOM     19  C   UNL A   1      33.886  23.261  22.796  1.00  0.00     0.049 C 
BRANCH  19  20
ATOM     20  C   UNL A   1      33.537  24.682  22.955  1.00  0.00    -0.004 A 
ATOM     21  C   UNL A   1      32.402  25.559  20.151  1.00  0.00     0.069 C 
ATOM     22  C   UNL A   1      32.909  25.888  21.515  1.00  0.00     0.063 A 
ATOM     23  N   UNL A   1      32.358  27.390  22.290  1.00  0.00    -0.178 NA
ATOM     24  N   UNL A   1      32.684  27.279  24.117  1.00  0.00    -0.272 N 
ATOM     25  C   UNL A   1      33.399  25.634  24.547  1.00  0.00     0.038 A 
ATOM     26  C   UNL A   1      32.815  28.455  24.955  1.00  0.00     0.174 C 
ATOM     27  C   UNL A   1      33.592  25.303  26.002  1.00  0.00     0.066 C 
ENDBRANCH  19  20
ENDBRANCH  18  19
ENDBRANCH  15  18
ENDBRANCH  10  14
ENDBRANCH   7   9
ENDBRANCH   6   7
ENDBRANCH   5   6
ENDBRANCH   4   5
ENDBRANCH   3   4
ENDBRANCH   2   3
ENDBRANCH   1   2
BRANCH   1  28
ATOM     28  O   UNL A   1      42.341  24.118  28.425  1.00  0.00    -0.377 OA
BRANCH  28  29
ATOM     29  C   UNL A   1      41.134  24.739  28.053  1.00  0.00     0.188 C 
BRANCH  29  30
ATOM     30  C   UNL A   1      40.922  25.205  26.601  1.00  0.00     0.188 C 
BRANCH  30  31
ATOM     31  O   UNL A   1      41.831  26.146  26.072  1.00  0.00    -0.376 OA
BRANCH  31  32
ATOM     32  C   UNL A   1      43.116  26.447  26.571  1.00  0.00     0.202 C 
BRANCH  32  33
ATOM     33  C   UNL A   1      43.601  27.852  26.963  1.00  0.00     0.261 C 
BRANCH  33  34
ATOM     34  O   UNL A   1      42.840  28.973  26.529  1.00  0.00    -0.460 OA
BRANCH  34  35
ATOM     35  C   UNL A   1      41.598  29.089  27.052  1.00  0.00     0.338 C 
ATOM     36  O   UNL A   1      40.548  28.840  26.492  1.00  0.00    -0.246 OA
BRANCH  35  37
ATOM     37  C   UNL A   1      41.745  29.383  28.494  1.00  0.00     0.060 A 
ATOM     38  C   UNL A   1      41.097  28.559  29.427  1.00  0.00     0.016 A 
ATOM     39  C   UNL A   1      42.546  30.443  28.920  1.00  0.00     0.016 A 
ATOM     40  C   UNL A   1      41.219  28.812  30.788  1.00  0.00     0.010 A 
ATOM     41  C   UNL A   1      42.618  30.735  30.283  1.00  0.00     0.010 A 
ATOM     42  C   UNL A   1      41.921  29.942  31.213  1.00  0.00    -0.014 A 
BRANCH  42  43
ATOM     43  C   UNL A   1      41.683  30.448  32.580  1.00  0.00     0.031 A 
ATOM     44  C   UNL A   1      40.437  31.259  32.812  1.00  0.00     0.074 A 
ATOM     45  C   UNL A   1      42.516  30.159  33.593  1.00  0.00     0.049 A 
ATOM     46  N   UNL A   1      40.035  31.869  33.892  1.00  0.00    -0.248 NA
ATOM     47  C   UNL A   1      39.521  31.401  31.663  1.00  0.00     0.031 C 
ATOM     48  C   UNL A   1      43.707  29.316  33.500  1.00  0.00     0.029 A 
ATOM     49  N   UNL A   1      42.485  30.557  34.905  1.00  0.00    -0.354 N 
ATOM     50  C   UNL A   1      38.833  32.480  33.552  1.00  0.00     0.074 A 
ATOM     51  C   UNL A   1      38.583  32.190  32.160  1.00  0.00     0.031 C 
ATOM     52  C   UNL A   1      44.304  29.274  34.704  1.00  0.00     0.029 A 
ATOM     53  C   UNL A   1      43.562  30.121  35.637  1.00  0.00     0.049 A 
ATOM     54  H   UNL A   1      41.759  31.102  35.286  1.00  0.00     0.167 HD
ATOM     55  C   UNL A   1      38.011  33.214  34.336  1.00  0.00     0.031 A 
ATOM     56  C   UNL A   1      43.921  30.405  36.905  1.00  0.00     0.031 A 
ATOM     57  C   UNL A   1      38.279  33.507  35.718  1.00  0.00     0.049 A 
ATOM     58  C   UNL A   1      43.038  31.314  37.727  1.00  0.00     0.074 A 
ATOM     59  C   UNL A   1      37.511  34.241  36.603  1.00  0.00     0.029 A 
ATOM     60  N   UNL A   1      39.404  33.088  36.412  1.00  0.00    -0.354 N 
ATOM     61  N   UNL A   1      41.898  31.878  37.400  1.00  0.00    -0.248 NA
ATOM     62  C   UNL A   1      43.489  31.620  39.091  1.00  0.00     0.031 C 
ATOM     63  C   UNL A   1      38.208  34.329  37.811  1.00  0.00     0.029 A 
ATOM     64  C   UNL A   1      39.367  33.576  37.706  1.00  0.00     0.049 A 
ATOM     65  H   UNL A   1      40.122  32.526  36.040  1.00  0.00     0.167 HD
ATOM     66  C   UNL A   1      41.478  32.570  38.534  1.00  0.00     0.074 A 
ATOM     67  C   UNL A   1      42.478  32.339  39.556  1.00  0.00     0.031 C 
ATOM     68  C   UNL A   1      40.367  33.327  38.714  1.00  0.00     0.031 A 
BRANCH  55  69
ATOM     69  C   UNL A   1      36.767  33.784  33.708  1.00  0.00    -0.014 A 
ATOM     70  C   UNL A   1      36.825  34.895  32.847  1.00  0.00     0.010 A 
ATOM     71  C   UNL A   1      35.527  33.162  33.941  1.00  0.00     0.010 A 
ATOM     72  C   UNL A   1      35.661  35.383  32.247  1.00  0.00     0.020 A 
ATOM     73  C   UNL A   1      34.368  33.626  33.316  1.00  0.00     0.020 A 
ATOM     74  C   UNL A   1      34.441  34.741  32.479  1.00  0.00     0.054 A 
BRANCH  74  75
ATOM     75  S   UNL A   1      32.960  35.363  31.639  1.00  0.00     0.124 S 
ATOM     76  O   UNL A   1      33.215  36.801  31.604  1.00  0.00    -0.237 OA
ATOM     77  O   UNL A   1      33.019  34.683  30.349  1.00  0.00    -0.237 OA
ATOM     78  O   UNL A   1      31.864  34.949  32.511  1.00  0.00    -0.744 OA
ENDBRANCH  74  75
ENDBRANCH  55  69
BRANCH  56  79
ATOM     79  C   UNL A   1      45.186  29.858  37.473  1.00  0.00    -0.014 A 
ATOM     80  C   UNL A   1      46.382  30.594  37.405  1.00  0.00     0.010 A 
ATOM     81  C   UNL A   1      45.208  28.577  38.055  1.00  0.00     0.010 A 
ATOM     82  C   UNL A   1      47.580  30.047  37.875  1.00  0.00     0.020 A 
ATOM     83  C   UNL A   1      46.396  28.042  38.562  1.00  0.00     0.020 A 
ATOM     84  C   UNL A   1      47.578  28.774  38.451  1.00  0.00     0.054 A 
BRANCH  84  85
ATOM     85  S   UNL A   1      49.142  28.097  39.073  1.00  0.00     0.124 S 
ATOM     86  O   UNL A   1      49.096  28.472  40.484  1.00  0.00    -0.237 OA
ATOM     87  O   UNL A   1      48.999  26.671  38.793  1.00  0.00    -0.237 OA
ATOM     88  O   UNL A   1      50.156  28.784  38.276  1.00  0.00    -0.744 OA
ENDBRANCH  84  85
ENDBRANCH  56  79
BRANCH  68  89
ATOM     89  C   UNL A   1      40.138  33.919  40.083  1.00  0.00    -0.014 A 
ATOM     90  C   UNL A   1      40.645  35.182  40.437  1.00  0.00     0.010 A 
ATOM     91  C   UNL A   1      39.344  33.219  41.011  1.00  0.00     0.010 A 
ATOM     92  C   UNL A   1      40.395  35.714  41.704  1.00  0.00     0.020 A 
ATOM     93  C   UNL A   1      39.058  33.764  42.264  1.00  0.00     0.020 A 
ATOM     94  C   UNL A   1      39.599  35.004  42.608  1.00  0.00     0.054 A 
BRANCH  94  95
ATOM     95  S   UNL A   1      39.252  35.741  44.228  1.00  0.00     0.124 S 
ATOM     96  O   UNL A   1      39.669  37.126  44.029  1.00  0.00    -0.237 OA
ATOM     97  O   UNL A   1      37.814  35.530  44.373  1.00  0.00    -0.237 OA
ATOM     98  O   UNL A   1      40.087  34.969  45.148  1.00  0.00    -0.744 OA
ENDBRANCH  94  95
ENDBRANCH  68  89
ENDBRANCH  42  43
ENDBRANCH  35  37
ENDBRANCH  34  35
ENDBRANCH  33  34
ENDBRANCH  32  33
ENDBRANCH  31  32
ENDBRANCH  30  31
ENDBRANCH  29  30
ENDBRANCH  28  29
ENDBRANCH   1  28
TORSDOF 27
ENDMDL
