MODEL 1
REMARK VINA RESULT:      -7.1      0.000      0.000
REMARK SMILES C[C@H](C(=O)OCCOCCOCCOCCOC(=O)c1ccc(-c2c3nc(c(-c4ccc(S(=O)(=O)[O-])cc4)c4ccc([nH]4)c(-c4ccc(S(=O)(=O)[O-])cc4)c4nc(c(-c5ccc(S(=O)(=O)[O-])cc5)c5ccc2[nH]5)C=C4)C=C3)cc1)c1cccc(C(=O)c2ccccc2)c1
REMARK SMILES IDX 11 1 10 2 9 3 8 4 7 5 6 6 5 7 3 8 4 9 2 10 1 11 80 12 81 13
REMARK SMILES IDX 93 14 82 15 84 16 83 17 85 18 86 19 87 20 88 21 92 22 89 23
REMARK SMILES IDX 91 24 90 25 12 26 13 27 14 28 15 29 16 30 17 31 18 32 19 33
REMARK SMILES IDX 20 34 21 35 79 36 22 37 78 38 23 39 24 40 25 41 72 42 26 43
REMARK SMILES IDX 77 44 71 45 73 46 27 47 76 48 70 49 69 50 28 52 58 53 39 54
REMARK SMILES IDX 57 55 40 56 43 57 56 58 74 59 41 60 42 61 55 63 75 64 44 65
REMARK SMILES IDX 29 66 30 67 38 68 31 69 37 70 32 71 33 72 34 73 35 74 36 75
REMARK SMILES IDX 59 76 60 77 68 78 61 79 67 80 62 81 63 82 64 83 65 84 66 85
REMARK SMILES IDX 45 86 46 87 54 88 47 89 53 90 48 91 49 92 50 93 51 94 52 95
REMARK H PARENT 73 51 43 62
REMARK Flexibility Score: inf
ROOT
ATOM      1  O   UNL A   1      45.053  24.904  28.698  1.00  0.00    -0.377 OA
ENDROOT
BRANCH   1   2
ATOM      2  C   UNL A   1      43.949  25.742  28.967  1.00  0.00     0.188 C 
BRANCH   2   3
ATOM      3  C   UNL A   1      43.880  27.030  28.124  1.00  0.00     0.188 C 
BRANCH   3   4
ATOM      4  O   UNL A   1      42.945  27.190  27.059  1.00  0.00    -0.376 OA
BRANCH   4   5
ATOM      5  C   UNL A   1      41.788  27.989  27.248  1.00  0.00     0.202 C 
BRANCH   5   6
ATOM      6  C   UNL A   1      40.734  27.514  28.268  1.00  0.00     0.261 C 
BRANCH   6   7
ATOM      7  O   UNL A   1      40.074  28.554  29.029  1.00  0.00    -0.463 OA
BRANCH   7   8
ATOM      8  C   UNL A   1      38.957  29.089  28.488  1.00  0.00     0.313 C 
ATOM      9  O   UNL A   1      38.906  29.499  27.328  1.00  0.00    -0.252 OA
BRANCH   8  10
ATOM     10  C   UNL A   1      37.717  29.151  29.399  1.00  0.00     0.126 C 
ATOM     11  C   UNL A   1      38.220  29.374  30.838  1.00  0.00     0.025 C 
BRANCH  10  12
ATOM     12  C   UNL A   1      36.495  30.027  29.054  1.00  0.00    -0.033 A 
ATOM     13  C   UNL A   1      35.744  29.878  27.866  1.00  0.00     0.004 A 
ATOM     14  C   UNL A   1      36.130  31.086  29.904  1.00  0.00     0.016 A 
ATOM     15  C   UNL A   1      34.677  30.728  27.550  1.00  0.00     0.001 A 
ATOM     16  C   UNL A   1      35.112  32.000  29.547  1.00  0.00     0.023 A 
ATOM     17  C   UNL A   1      34.367  31.795  28.383  1.00  0.00     0.012 A 
BRANCH  16  18
ATOM     18  C   UNL A   1      34.809  33.223  30.348  1.00  0.00     0.193 C 
ATOM     19  O   UNL A   1      33.796  33.878  30.121  1.00  0.00    -0.289 OA
BRANCH  18  20
ATOM     20  C   UNL A   1      35.736  33.679  31.407  1.00  0.00     0.022 A 
ATOM     21  C   UNL A   1      35.199  34.231  32.572  1.00  0.00     0.012 A 
ATOM     22  C   UNL A   1      37.122  33.537  31.263  1.00  0.00     0.012 A 
ATOM     23  C   UNL A   1      36.047  34.560  33.628  1.00  0.00     0.001 A 
ATOM     24  C   UNL A   1      37.963  33.856  32.327  1.00  0.00     0.001 A 
ATOM     25  C   UNL A   1      37.423  34.353  33.513  1.00  0.00     0.000 A 
ENDBRANCH  18  20
ENDBRANCH  16  18
ENDBRANCH  10  12
ENDBRANCH   8  10
ENDBRANCH   7   8
ENDBRANCH   6   7
ENDBRANCH   5   6
ENDBRANCH   4   5
ENDBRANCH   3   4
ENDBRANCH   2   3
ENDBRANCH   1   2
BRANCH   1  26
ATOM     26  C   UNL A   1      45.945  25.373  27.708  1.00  0.00     0.188 C 
BRANCH  26  27
ATOM     27  C   UNL A   1      47.261  24.589  27.611  1.00  0.00     0.188 C 
BRANCH  27  28
ATOM     28  O   UNL A   1      48.231  25.227  26.786  1.00  0.00    -0.376 OA
BRANCH  28  29
ATOM     29  C   UNL A   1      49.598  25.177  27.169  1.00  0.00     0.202 C 
BRANCH  29  30
ATOM     30  C   UNL A   1      50.663  25.651  26.163  1.00  0.00     0.261 C 
BRANCH  30  31
ATOM     31  O   UNL A   1      51.099  27.015  26.255  1.00  0.00    -0.460 OA
BRANCH  31  32
ATOM     32  C   UNL A   1      50.487  27.940  25.486  1.00  0.00     0.338 C 
ATOM     33  O   UNL A   1      50.624  28.094  24.284  1.00  0.00    -0.246 OA
BRANCH  32  34
ATOM     34  C   UNL A   1      49.439  28.586  26.309  1.00  0.00     0.060 A 
ATOM     35  C   UNL A   1      49.828  29.342  27.423  1.00  0.00     0.016 A 
ATOM     36  C   UNL A   1      48.087  28.482  25.969  1.00  0.00     0.016 A 
ATOM     37  C   UNL A   1      48.867  29.970  28.217  1.00  0.00     0.010 A 
ATOM     38  C   UNL A   1      47.123  29.084  26.783  1.00  0.00     0.010 A 
ATOM     39  C   UNL A   1      47.507  29.802  27.931  1.00  0.00    -0.014 A 
BRANCH  39  40
ATOM     40  C   UNL A   1      46.496  30.178  28.949  1.00  0.00     0.031 A 
ATOM     41  C   UNL A   1      46.202  29.189  30.046  1.00  0.00     0.074 A 
ATOM     42  C   UNL A   1      45.880  31.373  28.931  1.00  0.00     0.049 A 
ATOM     43  N   UNL A   1      45.348  29.270  31.032  1.00  0.00    -0.248 NA
ATOM     44  C   UNL A   1      46.981  27.938  30.027  1.00  0.00     0.031 C 
ATOM     45  C   UNL A   1      46.122  32.438  27.960  1.00  0.00     0.029 A 
ATOM     46  N   UNL A   1      44.917  31.889  29.764  1.00  0.00    -0.354 N 
ATOM     47  C   UNL A   1      45.475  28.079  31.740  1.00  0.00     0.074 A 
ATOM     48  C   UNL A   1      46.470  27.284  31.058  1.00  0.00     0.031 C 
ATOM     49  C   UNL A   1      45.322  33.481  28.250  1.00  0.00     0.029 A 
ATOM     50  C   UNL A   1      44.485  33.143  29.400  1.00  0.00     0.049 A 
ATOM     51  H   UNL A   1      44.567  31.406  30.547  1.00  0.00     0.167 HD
ATOM     52  C   UNL A   1      44.822  27.684  32.858  1.00  0.00     0.031 A 
ATOM     53  C   UNL A   1      43.513  33.918  29.925  1.00  0.00     0.031 A 
ATOM     54  C   UNL A   1      43.820  28.473  33.522  1.00  0.00     0.049 A 
ATOM     55  C   UNL A   1      42.737  33.417  31.118  1.00  0.00     0.074 A 
ATOM     56  C   UNL A   1      43.110  28.168  34.670  1.00  0.00     0.029 A 
ATOM     57  N   UNL A   1      43.378  29.715  33.095  1.00  0.00    -0.354 N 
ATOM     58  N   UNL A   1      42.885  32.301  31.792  1.00  0.00    -0.248 NA
ATOM     59  C   UNL A   1      41.666  34.287  31.628  1.00  0.00     0.031 C 
ATOM     60  C   UNL A   1      42.189  29.195  34.896  1.00  0.00     0.029 A 
ATOM     61  C   UNL A   1      42.380  30.177  33.935  1.00  0.00     0.049 A 
ATOM     62  H   UNL A   1      43.724  30.199  32.309  1.00  0.00     0.167 HD
ATOM     63  C   UNL A   1      41.950  32.351  32.823  1.00  0.00     0.074 A 
ATOM     64  C   UNL A   1      41.252  33.613  32.692  1.00  0.00     0.031 C 
ATOM     65  C   UNL A   1      41.695  31.437  33.793  1.00  0.00     0.031 A 
BRANCH  52  66
ATOM     66  C   UNL A   1      45.137  26.316  33.402  1.00  0.00    -0.014 A 
ATOM     67  C   UNL A   1      46.188  26.110  34.314  1.00  0.00     0.010 A 
ATOM     68  C   UNL A   1      44.341  25.221  33.019  1.00  0.00     0.010 A 
ATOM     69  C   UNL A   1      46.458  24.830  34.806  1.00  0.00     0.020 A 
ATOM     70  C   UNL A   1      44.587  23.945  33.532  1.00  0.00     0.020 A 
ATOM     71  C   UNL A   1      45.655  23.756  34.411  1.00  0.00     0.054 A 
BRANCH  71  72
ATOM     72  S   UNL A   1      46.009  22.111  35.089  1.00  0.00     0.124 S 
ATOM     73  O   UNL A   1      45.137  21.259  34.284  1.00  0.00    -0.237 OA
ATOM     74  O   UNL A   1      47.440  21.963  34.834  1.00  0.00    -0.237 OA
ATOM     75  O   UNL A   1      45.638  22.227  36.497  1.00  0.00    -0.744 OA
ENDBRANCH  71  72
ENDBRANCH  52  66
BRANCH  53  76
ATOM     76  C   UNL A   1      43.196  35.240  29.314  1.00  0.00    -0.014 A 
ATOM     77  C   UNL A   1      43.788  36.420  29.800  1.00  0.00     0.010 A 
ATOM     78  C   UNL A   1      42.282  35.328  28.247  1.00  0.00     0.010 A 
ATOM     79  C   UNL A   1      43.459  37.661  29.246  1.00  0.00     0.020 A 
ATOM     80  C   UNL A   1      41.974  36.563  27.669  1.00  0.00     0.020 A 
ATOM     81  C   UNL A   1      42.558  37.724  28.178  1.00  0.00     0.054 A 
BRANCH  81  82
ATOM     82  S   UNL A   1      42.184  39.340  27.442  1.00  0.00     0.124 S 
ATOM     83  O   UNL A   1      43.505  39.799  27.027  1.00  0.00    -0.237 OA
ATOM     84  O   UNL A   1      41.268  38.987  26.361  1.00  0.00    -0.237 OA
ATOM     85  O   UNL A   1      41.578  40.085  28.543  1.00  0.00    -0.744 OA
ENDBRANCH  81  82
ENDBRANCH  53  76
BRANCH  65  86
ATOM     86  C   UNL A   1      40.649  31.782  34.823  1.00  0.00    -0.014 A 
ATOM     87  C   UNL A   1      40.868  32.778  35.790  1.00  0.00     0.010 A 
ATOM     88  C   UNL A   1      39.398  31.139  34.777  1.00  0.00     0.010 A 
ATOM     89  C   UNL A   1      39.869  33.101  36.712  1.00  0.00     0.020 A 
ATOM     90  C   UNL A   1      38.384  31.482  35.675  1.00  0.00     0.020 A 
ATOM     91  C   UNL A   1      38.631  32.451  36.648  1.00  0.00     0.054 A 
BRANCH  91  92
ATOM     92  S   UNL A   1      37.337  32.919  37.828  1.00  0.00     0.124 S 
ATOM     93  O   UNL A   1      36.332  33.520  36.955  1.00  0.00    -0.237 OA
ATOM     94  O   UNL A   1      36.967  31.636  38.422  1.00  0.00    -0.237 OA
ATOM     95  O   UNL A   1      38.011  33.847  38.733  1.00  0.00    -0.744 OA
ENDBRANCH  91  92
ENDBRANCH  65  86
ENDBRANCH  39  40
ENDBRANCH  32  34
ENDBRANCH  31  32
ENDBRANCH  30  31
ENDBRANCH  29  30
ENDBRANCH  28  29
ENDBRANCH  27  28
ENDBRANCH  26  27
ENDBRANCH   1  26
TORSDOF 26
ENDMDL
MODEL 2
REMARK VINA RESULT:      -7.0      4.896     11.912
REMARK SMILES C[C@H](C(=O)OCCOCCOCCOCCOC(=O)c1ccc(-c2c3nc(c(-c4ccc(S(=O)(=O)[O-])cc4)c4ccc([nH]4)c(-c4ccc(S(=O)(=O)[O-])cc4)c4nc(c(-c5ccc(S(=O)(=O)[O-])cc5)c5ccc2[nH]5)C=C4)C=C3)cc1)c1cccc(C(=O)c2ccccc2)c1
REMARK SMILES IDX 11 1 10 2 9 3 8 4 7 5 6 6 5 7 3 8 4 9 2 10 1 11 80 12 81 13
REMARK SMILES IDX 93 14 82 15 84 16 83 17 85 18 86 19 87 20 88 21 92 22 89 23
REMARK SMILES IDX 91 24 90 25 12 26 13 27 14 28 15 29 16 30 17 31 18 32 19 33
REMARK SMILES IDX 20 34 21 35 79 36 22 37 78 38 23 39 24 40 25 41 72 42 26 43
REMARK SMILES IDX 77 44 71 45 73 46 27 47 76 48 70 49 69 50 28 52 58 53 39 54
REMARK SMILES IDX 57 55 40 56 43 57 56 58 74 59 41 60 42 61 55 63 75 64 44 65
REMARK SMILES IDX 29 66 30 67 38 68 31 69 37 70 32 71 33 72 34 73 35 74 36 75
REMARK SMILES IDX 59 76 60 77 68 78 61 79 67 80 62 81 63 82 64 83 65 84 66 85
REMARK SMILES IDX 45 86 46 87 54 88 47 89 53 90 48 91 49 92 50 93 51 94 52 95
REMARK H PARENT 73 51 43 62
REMARK Flexibility Score: inf
ROOT
ATOM      1  O   UNL A   1      34.839  32.183  30.352  1.00  0.00    -0.377 OA
ENDROOT
BRANCH   1   2
ATOM      2  C   UNL A   1      36.013  31.474  30.687  1.00  0.00     0.188 C 
BRANCH   2   3
ATOM      3  C   UNL A   1      36.317  30.249  29.802  1.00  0.00     0.188 C 
BRANCH   3   4
ATOM      4  O   UNL A   1      36.935  30.374  28.523  1.00  0.00    -0.376 OA
BRANCH   4   5
ATOM      5  C   UNL A   1      36.149  30.279  27.346  1.00  0.00     0.202 C 
BRANCH   5   6
ATOM      6  C   UNL A   1      34.657  29.918  27.494  1.00  0.00     0.261 C 
BRANCH   6   7
ATOM      7  O   UNL A   1      34.350  28.504  27.553  1.00  0.00    -0.463 OA
BRANCH   7   8
ATOM      8  C   UNL A   1      33.637  27.992  26.525  1.00  0.00     0.313 C 
ATOM      9  O   UNL A   1      34.063  27.954  25.371  1.00  0.00    -0.252 OA
BRANCH   8  10
ATOM     10  C   UNL A   1      32.244  27.433  26.869  1.00  0.00     0.126 C 
ATOM     11  C   UNL A   1      31.733  28.209  28.098  1.00  0.00     0.025 C 
BRANCH  10  12
ATOM     12  C   UNL A   1      31.156  27.239  25.794  1.00  0.00    -0.033 A 
ATOM     13  C   UNL A   1      30.295  26.118  25.756  1.00  0.00     0.004 A 
ATOM     14  C   UNL A   1      31.037  28.163  24.741  1.00  0.00     0.016 A 
ATOM     15  C   UNL A   1      29.357  25.936  24.732  1.00  0.00     0.001 A 
ATOM     16  C   UNL A   1      30.155  27.939  23.660  1.00  0.00     0.023 A 
ATOM     17  C   UNL A   1      29.293  26.839  23.680  1.00  0.00     0.012 A 
BRANCH  16  18
ATOM     18  C   UNL A   1      30.120  28.815  22.452  1.00  0.00     0.193 C 
ATOM     19  O   UNL A   1      30.755  28.511  21.446  1.00  0.00    -0.289 OA
BRANCH  18  20
ATOM     20  C   UNL A   1      29.343  30.074  22.456  1.00  0.00     0.022 A 
ATOM     21  C   UNL A   1      29.292  30.823  23.634  1.00  0.00     0.012 A 
ATOM     22  C   UNL A   1      28.695  30.527  21.300  1.00  0.00     0.012 A 
ATOM     23  C   UNL A   1      28.664  32.068  23.628  1.00  0.00     0.001 A 
ATOM     24  C   UNL A   1      28.080  31.776  21.296  1.00  0.00     0.001 A 
ATOM     25  C   UNL A   1      28.077  32.551  22.456  1.00  0.00     0.000 A 
ENDBRANCH  18  20
ENDBRANCH  16  18
ENDBRANCH  10  12
ENDBRANCH   8  10
ENDBRANCH   7   8
ENDBRANCH   6   7
ENDBRANCH   5   6
ENDBRANCH   4   5
ENDBRANCH   3   4
ENDBRANCH   2   3
ENDBRANCH   1   2
BRANCH   1  26
ATOM     26  C   UNL A   1      34.990  33.581  30.218  1.00  0.00     0.188 C 
BRANCH  26  27
ATOM     27  C   UNL A   1      34.364  34.403  31.354  1.00  0.00     0.188 C 
BRANCH  27  28
ATOM     28  O   UNL A   1      34.009  33.613  32.485  1.00  0.00    -0.376 OA
BRANCH  28  29
ATOM     29  C   UNL A   1      34.949  33.461  33.538  1.00  0.00     0.202 C 
BRANCH  29  30
ATOM     30  C   UNL A   1      36.258  34.270  33.481  1.00  0.00     0.261 C 
BRANCH  30  31
ATOM     31  O   UNL A   1      37.481  33.571  33.756  1.00  0.00    -0.460 OA
BRANCH  31  32
ATOM     32  C   UNL A   1      38.499  34.252  34.321  1.00  0.00     0.338 C 
ATOM     33  O   UNL A   1      38.467  35.398  34.736  1.00  0.00    -0.246 OA
BRANCH  32  34
ATOM     34  C   UNL A   1      39.599  33.292  34.569  1.00  0.00     0.060 A 
ATOM     35  C   UNL A   1      40.915  33.689  34.293  1.00  0.00     0.016 A 
ATOM     36  C   UNL A   1      39.346  32.025  35.104  1.00  0.00     0.016 A 
ATOM     37  C   UNL A   1      41.977  32.812  34.521  1.00  0.00     0.010 A 
ATOM     38  C   UNL A   1      40.407  31.135  35.301  1.00  0.00     0.010 A 
ATOM     39  C   UNL A   1      41.723  31.513  34.978  1.00  0.00    -0.014 A 
BRANCH  39  40
ATOM     40  C   UNL A   1      42.795  30.491  34.898  1.00  0.00     0.031 A 
ATOM     41  C   UNL A   1      43.006  29.797  33.577  1.00  0.00     0.074 A 
ATOM     42  C   UNL A   1      43.585  30.206  35.948  1.00  0.00     0.049 A 
ATOM     43  N   UNL A   1      43.854  28.854  33.260  1.00  0.00    -0.248 NA
ATOM     44  C   UNL A   1      42.143  30.228  32.464  1.00  0.00     0.031 C 
ATOM     45  C   UNL A   1      43.521  30.850  37.258  1.00  0.00     0.029 A 
ATOM     46  N   UNL A   1      44.603  29.292  36.071  1.00  0.00    -0.354 N 
ATOM     47  C   UNL A   1      43.617  28.570  31.919  1.00  0.00     0.074 A 
ATOM     48  C   UNL A   1      42.532  29.422  31.490  1.00  0.00     0.031 C 
ATOM     49  C   UNL A   1      44.458  30.306  38.057  1.00  0.00     0.029 A 
ATOM     50  C   UNL A   1      45.159  29.250  37.328  1.00  0.00     0.049 A 
ATOM     51  H   UNL A   1      44.905  28.719  35.330  1.00  0.00     0.167 HD
ATOM     52  C   UNL A   1      44.248  27.680  31.118  1.00  0.00     0.031 A 
ATOM     53  C   UNL A   1      46.110  28.438  37.835  1.00  0.00     0.031 A 
ATOM     54  C   UNL A   1      45.316  26.823  31.555  1.00  0.00     0.049 A 
ATOM     55  C   UNL A   1      46.736  27.392  36.945  1.00  0.00     0.074 A 
ATOM     56  C   UNL A   1      46.030  25.897  30.816  1.00  0.00     0.029 A 
ATOM     57  N   UNL A   1      45.816  26.777  32.847  1.00  0.00    -0.354 N 
ATOM     58  N   UNL A   1      46.520  27.152  35.674  1.00  0.00    -0.248 NA
ATOM     59  C   UNL A   1      47.742  26.512  37.559  1.00  0.00     0.031 C 
ATOM     60  C   UNL A   1      46.914  25.242  31.679  1.00  0.00     0.029 A 
ATOM     61  C   UNL A   1      46.806  25.814  32.937  1.00  0.00     0.049 A 
ATOM     62  H   UNL A   1      45.512  27.346  33.592  1.00  0.00     0.167 HD
ATOM     63  C   UNL A   1      47.386  26.117  35.329  1.00  0.00     0.074 A 
ATOM     64  C   UNL A   1      48.138  25.788  36.522  1.00  0.00     0.031 C 
ATOM     65  C   UNL A   1      47.548  25.499  34.132  1.00  0.00     0.031 A 
BRANCH  52  66
ATOM     66  C   UNL A   1      43.761  27.554  29.697  1.00  0.00    -0.014 A 
ATOM     67  C   UNL A   1      44.355  28.281  28.650  1.00  0.00     0.010 A 
ATOM     68  C   UNL A   1      42.713  26.664  29.403  1.00  0.00     0.010 A 
ATOM     69  C   UNL A   1      43.887  28.145  27.340  1.00  0.00     0.020 A 
ATOM     70  C   UNL A   1      42.261  26.501  28.091  1.00  0.00     0.020 A 
ATOM     71  C   UNL A   1      42.842  27.255  27.069  1.00  0.00     0.054 A 
BRANCH  71  72
ATOM     72  S   UNL A   1      42.275  27.076  25.356  1.00  0.00     0.124 S 
ATOM     73  O   UNL A   1      42.104  28.467  24.947  1.00  0.00    -0.237 OA
ATOM     74  O   UNL A   1      43.387  26.368  24.725  1.00  0.00    -0.237 OA
ATOM     75  O   UNL A   1      41.039  26.307  25.477  1.00  0.00    -0.744 OA
ENDBRANCH  71  72
ENDBRANCH  52  66
BRANCH  53  76
ATOM     76  C   UNL A   1      46.516  28.559  39.264  1.00  0.00    -0.014 A 
ATOM     77  C   UNL A   1      45.827  27.859  40.272  1.00  0.00     0.010 A 
ATOM     78  C   UNL A   1      47.590  29.392  39.630  1.00  0.00     0.010 A 
ATOM     79  C   UNL A   1      46.191  28.003  41.615  1.00  0.00     0.020 A 
ATOM     80  C   UNL A   1      47.978  29.515  40.967  1.00  0.00     0.020 A 
ATOM     81  C   UNL A   1      47.269  28.827  41.953  1.00  0.00     0.054 A 
BRANCH  81  82
ATOM     82  S   UNL A   1      47.756  28.961  43.696  1.00  0.00     0.124 S 
ATOM     83  O   UNL A   1      48.918  28.081  43.757  1.00  0.00    -0.237 OA
ATOM     84  O   UNL A   1      48.033  30.387  43.835  1.00  0.00    -0.237 OA
ATOM     85  O   UNL A   1      46.575  28.490  44.417  1.00  0.00    -0.744 OA
ENDBRANCH  81  82
ENDBRANCH  53  76
BRANCH  65  86
ATOM     86  C   UNL A   1      48.610  24.433  34.032  1.00  0.00    -0.014 A 
ATOM     87  C   UNL A   1      48.382  23.122  34.481  1.00  0.00     0.010 A 
ATOM     88  C   UNL A   1      49.838  24.740  33.414  1.00  0.00     0.010 A 
ATOM     89  C   UNL A   1      49.374  22.145  34.347  1.00  0.00     0.020 A 
ATOM     90  C   UNL A   1      50.818  23.759  33.247  1.00  0.00     0.020 A 
ATOM     91  C   UNL A   1      50.586  22.470  33.728  1.00  0.00     0.054 A 
BRANCH  91  92
ATOM     92  S   UNL A   1      51.838  21.174  33.526  1.00  0.00     0.124 S 
ATOM     93  O   UNL A   1      51.149  20.000  34.056  1.00  0.00    -0.237 OA
ATOM     94  O   UNL A   1      52.065  21.172  32.083  1.00  0.00    -0.237 OA
ATOM     95  O   UNL A   1      52.963  21.650  34.328  1.00  0.00    -0.744 OA
ENDBRANCH  91  92
ENDBRANCH  65  86
ENDBRANCH  39  40
ENDBRANCH  32  34
ENDBRANCH  31  32
ENDBRANCH  30  31
ENDBRANCH  29  30
ENDBRANCH  28  29
ENDBRANCH  27  28
ENDBRANCH  26  27
ENDBRANCH   1  26
TORSDOF 26
ENDMDL
MODEL 3
REMARK VINA RESULT:      -6.9      1.461      3.181
REMARK SMILES C[C@H](C(=O)OCCOCCOCCOCCOC(=O)c1ccc(-c2c3nc(c(-c4ccc(S(=O)(=O)[O-])cc4)c4ccc([nH]4)c(-c4ccc(S(=O)(=O)[O-])cc4)c4nc(c(-c5ccc(S(=O)(=O)[O-])cc5)c5ccc2[nH]5)C=C4)C=C3)cc1)c1cccc(C(=O)c2ccccc2)c1
REMARK SMILES IDX 11 1 10 2 9 3 8 4 7 5 6 6 5 7 3 8 4 9 2 10 1 11 80 12 81 13
REMARK SMILES IDX 93 14 82 15 84 16 83 17 85 18 86 19 87 20 88 21 92 22 89 23
REMARK SMILES IDX 91 24 90 25 12 26 13 27 14 28 15 29 16 30 17 31 18 32 19 33
REMARK SMILES IDX 20 34 21 35 79 36 22 37 78 38 23 39 24 40 25 41 72 42 26 43
REMARK SMILES IDX 77 44 71 45 73 46 27 47 76 48 70 49 69 50 28 52 58 53 39 54
REMARK SMILES IDX 57 55 40 56 43 57 56 58 74 59 41 60 42 61 55 63 75 64 44 65
REMARK SMILES IDX 29 66 30 67 38 68 31 69 37 70 32 71 33 72 34 73 35 74 36 75
REMARK SMILES IDX 59 76 60 77 68 78 61 79 67 80 62 81 63 82 64 83 65 84 66 85
REMARK SMILES IDX 45 86 46 87 54 88 47 89 53 90 48 91 49 92 50 93 51 94 52 95
REMARK H PARENT 73 51 43 62
REMARK Flexibility Score: inf
ROOT
ATOM      1  O   UNL A   1      45.209  25.185  28.698  1.00  0.00    -0.377 OA
ENDROOT
BRANCH   1   2
ATOM      2  C   UNL A   1      44.161  26.105  28.918  1.00  0.00     0.188 C 
BRANCH   2   3
ATOM      3  C   UNL A   1      44.207  27.375  28.045  1.00  0.00     0.188 C 
BRANCH   3   4
ATOM      4  O   UNL A   1      43.407  27.517  26.873  1.00  0.00    -0.376 OA
BRANCH   4   5
ATOM      5  C   UNL A   1      42.188  28.240  26.932  1.00  0.00     0.202 C 
BRANCH   5   6
ATOM      6  C   UNL A   1      41.261  28.006  28.142  1.00  0.00     0.261 C 
BRANCH   6   7
ATOM      7  O   UNL A   1      40.501  29.154  28.588  1.00  0.00    -0.463 OA
BRANCH   7   8
ATOM      8  C   UNL A   1      39.322  29.384  27.968  1.00  0.00     0.313 C 
ATOM      9  O   UNL A   1      39.197  29.360  26.743  1.00  0.00    -0.252 OA
BRANCH   8  10
ATOM     10  C   UNL A   1      38.113  29.667  28.877  1.00  0.00     0.126 C 
ATOM     11  C   UNL A   1      38.627  30.485  30.078  1.00  0.00     0.025 C 
BRANCH  10  12
ATOM     12  C   UNL A   1      36.781  30.208  28.318  1.00  0.00    -0.033 A 
ATOM     13  C   UNL A   1      36.408  31.570  28.383  1.00  0.00     0.004 A 
ATOM     14  C   UNL A   1      35.834  29.318  27.780  1.00  0.00     0.016 A 
ATOM     15  C   UNL A   1      35.166  32.023  27.923  1.00  0.00     0.001 A 
ATOM     16  C   UNL A   1      34.546  29.757  27.397  1.00  0.00     0.023 A 
ATOM     17  C   UNL A   1      34.231  31.117  27.440  1.00  0.00     0.012 A 
BRANCH  16  18
ATOM     18  C   UNL A   1      33.467  28.816  26.974  1.00  0.00     0.193 C 
ATOM     19  O   UNL A   1      32.442  28.707  27.642  1.00  0.00    -0.289 OA
BRANCH  18  20
ATOM     20  C   UNL A   1      33.624  27.984  25.761  1.00  0.00     0.022 A 
ATOM     21  C   UNL A   1      33.797  26.607  25.913  1.00  0.00     0.012 A 
ATOM     22  C   UNL A   1      33.573  28.555  24.483  1.00  0.00     0.012 A 
ATOM     23  C   UNL A   1      33.832  25.791  24.784  1.00  0.00     0.001 A 
ATOM     24  C   UNL A   1      33.596  27.733  23.358  1.00  0.00     0.001 A 
ATOM     25  C   UNL A   1      33.711  26.352  23.511  1.00  0.00     0.000 A 
ENDBRANCH  18  20
ENDBRANCH  16  18
ENDBRANCH  10  12
ENDBRANCH   8  10
ENDBRANCH   7   8
ENDBRANCH   6   7
ENDBRANCH   5   6
ENDBRANCH   4   5
ENDBRANCH   3   4
ENDBRANCH   2   3
ENDBRANCH   1   2
BRANCH   1  26
ATOM     26  C   UNL A   1      46.175  25.580  27.746  1.00  0.00     0.188 C 
BRANCH  26  27
ATOM     27  C   UNL A   1      47.427  24.693  27.700  1.00  0.00     0.188 C 
BRANCH  27  28
ATOM     28  O   UNL A   1      48.492  25.269  26.951  1.00  0.00    -0.376 OA
BRANCH  28  29
ATOM     29  C   UNL A   1      49.826  25.092  27.406  1.00  0.00     0.202 C 
BRANCH  29  30
ATOM     30  C   UNL A   1      50.982  25.539  26.492  1.00  0.00     0.261 C 
BRANCH  30  31
ATOM     31  O   UNL A   1      51.438  26.894  26.618  1.00  0.00    -0.460 OA
BRANCH  31  32
ATOM     32  C   UNL A   1      50.880  27.838  25.831  1.00  0.00     0.338 C 
ATOM     33  O   UNL A   1      51.080  28.004  24.640  1.00  0.00    -0.246 OA
BRANCH  32  34
ATOM     34  C   UNL A   1      49.803  28.491  26.608  1.00  0.00     0.060 A 
ATOM     35  C   UNL A   1      50.149  29.244  27.739  1.00  0.00     0.016 A 
ATOM     36  C   UNL A   1      48.466  28.397  26.210  1.00  0.00     0.016 A 
ATOM     37  C   UNL A   1      49.160  29.880  28.491  1.00  0.00     0.010 A 
ATOM     38  C   UNL A   1      47.472  29.006  26.983  1.00  0.00     0.010 A 
ATOM     39  C   UNL A   1      47.812  29.721  28.146  1.00  0.00    -0.014 A 
BRANCH  39  40
ATOM     40  C   UNL A   1      46.761  30.105  29.120  1.00  0.00     0.031 A 
ATOM     41  C   UNL A   1      46.427  29.126  30.215  1.00  0.00     0.074 A 
ATOM     42  C   UNL A   1      46.143  31.298  29.065  1.00  0.00     0.049 A 
ATOM     43  N   UNL A   1      45.535  29.215  31.166  1.00  0.00    -0.248 NA
ATOM     44  C   UNL A   1      47.209  27.877  30.239  1.00  0.00     0.031 C 
ATOM     45  C   UNL A   1      46.419  32.353  28.093  1.00  0.00     0.029 A 
ATOM     46  N   UNL A   1      45.146  31.819  29.854  1.00  0.00    -0.354 N 
ATOM     47  C   UNL A   1      45.637  28.032  31.891  1.00  0.00     0.074 A 
ATOM     48  C   UNL A   1      46.661  27.232  31.256  1.00  0.00     0.031 C 
ATOM     49  C   UNL A   1      45.606  33.397  28.341  1.00  0.00     0.029 A 
ATOM     50  C   UNL A   1      44.726  33.068  29.462  1.00  0.00     0.049 A 
ATOM     51  H   UNL A   1      44.767  31.343  30.628  1.00  0.00     0.167 HD
ATOM     52  C   UNL A   1      44.942  27.647  32.986  1.00  0.00     0.031 A 
ATOM     53  C   UNL A   1      43.732  33.845  29.939  1.00  0.00     0.031 A 
ATOM     54  C   UNL A   1      43.913  28.439  33.603  1.00  0.00     0.049 A 
ATOM     55  C   UNL A   1      42.911  33.354  31.107  1.00  0.00     0.074 A 
ATOM     56  C   UNL A   1      43.160  28.144  34.725  1.00  0.00     0.029 A 
ATOM     57  N   UNL A   1      43.485  29.675  33.145  1.00  0.00    -0.354 N 
ATOM     58  N   UNL A   1      43.035  32.245  31.797  1.00  0.00    -0.248 NA
ATOM     59  C   UNL A   1      41.819  34.227  31.565  1.00  0.00     0.031 C 
ATOM     60  C   UNL A   1      42.228  29.170  34.904  1.00  0.00     0.029 A 
ATOM     61  C   UNL A   1      42.453  30.142  33.942  1.00  0.00     0.049 A 
ATOM     62  H   UNL A   1      43.859  30.152  32.369  1.00  0.00     0.167 HD
ATOM     63  C   UNL A   1      42.061  32.303  32.790  1.00  0.00     0.074 A 
ATOM     64  C   UNL A   1      41.365  33.562  32.619  1.00  0.00     0.031 C 
ATOM     65  C   UNL A   1      41.771  31.399  33.759  1.00  0.00     0.031 A 
BRANCH  52  66
ATOM     66  C   UNL A   1      45.239  26.284  33.557  1.00  0.00    -0.014 A 
ATOM     67  C   UNL A   1      44.556  25.137  33.113  1.00  0.00     0.010 A 
ATOM     68  C   UNL A   1      46.245  26.147  34.530  1.00  0.00     0.010 A 
ATOM     69  C   UNL A   1      44.852  23.884  33.657  1.00  0.00     0.020 A 
ATOM     70  C   UNL A   1      46.565  24.892  35.055  1.00  0.00     0.020 A 
ATOM     71  C   UNL A   1      45.855  23.770  34.625  1.00  0.00     0.054 A 
BRANCH  71  72
ATOM     72  S   UNL A   1      46.238  22.127  35.291  1.00  0.00     0.124 S 
ATOM     73  O   UNL A   1      47.641  21.970  34.919  1.00  0.00    -0.237 OA
ATOM     74  O   UNL A   1      45.983  22.296  36.721  1.00  0.00    -0.237 OA
ATOM     75  O   UNL A   1      45.307  21.243  34.595  1.00  0.00    -0.744 OA
ENDBRANCH  71  72
ENDBRANCH  52  66
BRANCH  53  76
ATOM     76  C   UNL A   1      43.435  35.160  29.303  1.00  0.00    -0.014 A 
ATOM     77  C   UNL A   1      42.524  35.255  28.235  1.00  0.00     0.010 A 
ATOM     78  C   UNL A   1      44.077  36.328  29.755  1.00  0.00     0.010 A 
ATOM     79  C   UNL A   1      42.276  36.487  27.620  1.00  0.00     0.020 A 
ATOM     80  C   UNL A   1      43.808  37.566  29.164  1.00  0.00     0.020 A 
ATOM     81  C   UNL A   1      42.916  37.636  28.093  1.00  0.00     0.054 A 
BRANCH  81  82
ATOM     82  S   UNL A   1      42.541  39.231  27.313  1.00  0.00     0.124 S 
ATOM     83  O   UNL A   1      41.339  38.921  26.547  1.00  0.00    -0.237 OA
ATOM     84  O   UNL A   1      42.349  40.107  28.466  1.00  0.00    -0.237 OA
ATOM     85  O   UNL A   1      43.735  39.512  26.519  1.00  0.00    -0.744 OA
ENDBRANCH  81  82
ENDBRANCH  53  76
BRANCH  65  86
ATOM     86  C   UNL A   1      40.685  31.751  34.744  1.00  0.00    -0.014 A 
ATOM     87  C   UNL A   1      40.978  32.353  35.980  1.00  0.00     0.010 A 
ATOM     88  C   UNL A   1      39.338  31.534  34.392  1.00  0.00     0.010 A 
ATOM     89  C   UNL A   1      39.948  32.699  36.860  1.00  0.00     0.020 A 
ATOM     90  C   UNL A   1      38.305  31.909  35.254  1.00  0.00     0.020 A 
ATOM     91  C   UNL A   1      38.617  32.476  36.490  1.00  0.00     0.054 A 
BRANCH  91  92
ATOM     92  S   UNL A   1      37.299  32.975  37.631  1.00  0.00     0.124 S 
ATOM     93  O   UNL A   1      36.936  31.703  38.252  1.00  0.00    -0.237 OA
ATOM     94  O   UNL A   1      37.977  33.930  38.505  1.00  0.00    -0.237 OA
ATOM     95  O   UNL A   1      36.282  33.553  36.756  1.00  0.00    -0.744 OA
ENDBRANCH  91  92
ENDBRANCH  65  86
ENDBRANCH  39  40
ENDBRANCH  32  34
ENDBRANCH  31  32
ENDBRANCH  30  31
ENDBRANCH  29  30
ENDBRANCH  28  29
ENDBRANCH  27  28
ENDBRANCH  26  27
ENDBRANCH   1  26
TORSDOF 26
ENDMDL
