MODEL 1
REMARK VINA RESULT:      -8.5      0.000      0.000
REMARK SMILES CCc1ccc(N2C(=O)/C(=C/c3cc(Cl)c(OCC(=O)OCCOCCOCCOCCOC(=O)c4ccc(-c5c6nc(c(-c7ccc(S(=O)(=O)[O-])cc7)c7ccc([nH]7)c(-c7ccc(S(=O)(=O)[O-])cc7)c7nc(c(-c8ccc(S(=O)(=O)[O-])cc8)c8ccc5[nH]8)C=C7)C=C6)cc4)c(Cl)c3)C(=O)NC2=S)cc1
REMARK SMILES IDX 26 1 25 2 24 3 23 4 22 5 21 6 19 7 20 8 18 9 17 10 16 11
REMARK SMILES IDX 12 12 13 13 98 14 14 15 96 16 15 17 97 18 11 19 7 20 8 21
REMARK SMILES IDX 102 22 9 23 10 24 101 25 103 26 99 27 100 29 6 30 3 31 4 32
REMARK SMILES IDX 105 33 5 34 104 35 2 36 1 37 27 38 28 39 29 40 30 41 31 42
REMARK SMILES IDX 32 43 33 44 34 45 35 46 36 47 37 48 95 49 38 50 94 51 39 52
REMARK SMILES IDX 40 53 41 54 88 55 42 56 93 57 87 58 89 59 43 60 92 61 86 62
REMARK SMILES IDX 85 63 44 65 74 66 55 67 73 68 56 69 59 70 72 71 90 72 57 73
REMARK SMILES IDX 58 74 71 76 91 77 60 78 45 79 46 80 54 81 47 82 53 83 48 84
REMARK SMILES IDX 49 85 50 86 51 87 52 88 75 89 76 90 84 91 77 92 83 93 78 94
REMARK SMILES IDX 79 95 80 96 81 97 82 98 61 99 62 100 70 101 63 102 69 103
REMARK SMILES IDX 64 104 65 105 66 106 67 107 68 108
REMARK H PARENT 101 28 89 64 59 75
REMARK Flexibility Score: inf
ROOT
ATOM      1  C   UNL A   1      33.573  21.332  24.659  1.00  0.00     0.188 C 
ENDROOT
BRANCH   1   2
ATOM      2  C   UNL A   1      32.171  21.781  25.148  1.00  0.00     0.188 C 
BRANCH   2   3
ATOM      3  O   UNL A   1      31.379  22.682  24.381  1.00  0.00    -0.376 OA
BRANCH   3   4
ATOM      4  C   UNL A   1      31.564  24.064  24.610  1.00  0.00     0.202 C 
BRANCH   4   5
ATOM      5  C   UNL A   1      30.780  24.992  23.668  1.00  0.00     0.261 C 
BRANCH   5   6
ATOM      6  O   UNL A   1      30.770  26.394  24.044  1.00  0.00    -0.461 OA
BRANCH   6   7
ATOM      7  C   UNL A   1      31.027  27.331  23.088  1.00  0.00     0.344 C 
ATOM      8  O   UNL A   1      30.814  27.171  21.893  1.00  0.00    -0.248 OA
BRANCH   7   9
ATOM      9  C   UNL A   1      31.686  28.611  23.686  1.00  0.00     0.352 C 
BRANCH   9  10
ATOM     10  O   UNL A   1      31.413  29.078  25.002  1.00  0.00    -0.479 OA
BRANCH  10  11
ATOM     11  C   UNL A   1      32.317  29.409  25.985  1.00  0.00     0.157 A 
ATOM     12  C   UNL A   1      34.458  30.691  27.473  1.00  0.00    -0.021 A 
ATOM     13  C   UNL A   1      33.246  31.346  27.198  1.00  0.00     0.032 A 
ATOM     14  C   UNL A   1      34.492  29.331  27.165  1.00  0.00     0.032 A 
ATOM     15  C   UNL A   1      32.229  30.740  26.432  1.00  0.00     0.085 A 
ATOM     16  C   UNL A   1      33.417  28.684  26.468  1.00  0.00     0.085 A 
ATOM     17  Cl  UNL A   1      30.890  31.751  25.985  1.00  0.00    -0.080 Cl
ATOM     18  Cl  UNL A   1      33.598  26.983  26.227  1.00  0.00    -0.080 Cl
BRANCH  12  19
ATOM     19  C   UNL A   1      35.560  31.554  28.013  1.00  0.00     0.028 C 
ATOM     20  N   UNL A   1      36.692  33.359  30.881  1.00  0.00    -0.253 N 
ATOM     21  C   UNL A   1      36.856  32.887  29.565  1.00  0.00     0.270 C 
ATOM     22  C   UNL A   1      35.534  34.001  31.333  1.00  0.00     0.187 C 
ATOM     23  O   UNL A   1      37.935  32.610  29.042  1.00  0.00    -0.268 OA
ATOM     24  C   UNL A   1      35.580  32.665  28.802  1.00  0.00     0.106 C 
ATOM     25  N   UNL A   1      34.487  34.037  30.436  1.00  0.00    -0.298 N 
ATOM     26  S   UNL A   1      35.313  34.825  32.783  1.00  0.00    -0.040 S 
ATOM     27  C   UNL A   1      34.436  33.522  29.166  1.00  0.00     0.263 C 
ATOM     28  H   UNL A   1      33.670  34.490  30.749  1.00  0.00     0.172 HD
ATOM     29  O   UNL A   1      33.509  33.758  28.401  1.00  0.00    -0.269 OA
BRANCH  20  30
ATOM     30  C   UNL A   1      37.831  33.239  31.742  1.00  0.00     0.052 A 
ATOM     31  C   UNL A   1      40.227  32.948  33.208  1.00  0.00    -0.048 A 
ATOM     32  C   UNL A   1      39.863  34.186  32.661  1.00  0.00     0.006 A 
ATOM     33  C   UNL A   1      39.329  31.877  33.081  1.00  0.00     0.006 A 
ATOM     34  C   UNL A   1      38.686  34.327  31.919  1.00  0.00     0.027 A 
ATOM     35  C   UNL A   1      38.138  32.018  32.357  1.00  0.00     0.027 A 
BRANCH  31  36
ATOM     36  C   UNL A   1      41.534  32.733  33.942  1.00  0.00     0.032 C 
ATOM     37  C   UNL A   1      41.727  31.344  34.545  1.00  0.00     0.009 C 
ENDBRANCH  31  36
ENDBRANCH  20  30
ENDBRANCH  12  19
ENDBRANCH  10  11
ENDBRANCH   9  10
ENDBRANCH   7   9
ENDBRANCH   6   7
ENDBRANCH   5   6
ENDBRANCH   4   5
ENDBRANCH   3   4
ENDBRANCH   2   3
ENDBRANCH   1   2
BRANCH   1  38
ATOM     38  O   UNL A   1      34.614  21.796  25.499  1.00  0.00    -0.377 OA
BRANCH  38  39
ATOM     39  C   UNL A   1      35.927  21.569  25.010  1.00  0.00     0.188 C 
BRANCH  39  40
ATOM     40  C   UNL A   1      37.015  22.249  25.851  1.00  0.00     0.188 C 
BRANCH  40  41
ATOM     41  O   UNL A   1      38.369  22.186  25.394  1.00  0.00    -0.376 OA
BRANCH  41  42
ATOM     42  C   UNL A   1      39.133  21.023  25.634  1.00  0.00     0.202 C 
BRANCH  42  43
ATOM     43  C   UNL A   1      40.414  21.264  26.423  1.00  0.00     0.261 C 
BRANCH  43  44
ATOM     44  O   UNL A   1      40.717  22.631  26.542  1.00  0.00    -0.460 OA
BRANCH  44  45
ATOM     45  C   UNL A   1      41.977  22.926  26.154  1.00  0.00     0.338 C 
ATOM     46  O   UNL A   1      42.551  22.623  25.136  1.00  0.00    -0.246 OA
BRANCH  45  47
ATOM     47  C   UNL A   1      42.454  23.823  27.187  1.00  0.00     0.060 A 
ATOM     48  C   UNL A   1      43.817  24.113  27.239  1.00  0.00     0.016 A 
ATOM     49  C   UNL A   1      41.502  24.438  28.007  1.00  0.00     0.016 A 
ATOM     50  C   UNL A   1      44.248  25.040  28.163  1.00  0.00     0.010 A 
ATOM     51  C   UNL A   1      41.933  25.354  28.934  1.00  0.00     0.010 A 
ATOM     52  C   UNL A   1      43.305  25.617  29.024  1.00  0.00    -0.014 A 
BRANCH  52  53
ATOM     53  C   UNL A   1      43.782  26.339  30.196  1.00  0.00     0.031 A 
ATOM     54  C   UNL A   1      43.737  27.829  30.125  1.00  0.00     0.074 A 
ATOM     55  C   UNL A   1      44.231  25.633  31.241  1.00  0.00     0.049 A 
ATOM     56  N   UNL A   1      44.134  28.703  31.002  1.00  0.00    -0.248 NA
ATOM     57  C   UNL A   1      43.178  28.420  28.892  1.00  0.00     0.031 C 
ATOM     58  C   UNL A   1      44.258  24.170  31.325  1.00  0.00     0.029 A 
ATOM     59  N   UNL A   1      44.750  26.054  32.426  1.00  0.00    -0.354 N 
ATOM     60  C   UNL A   1      43.877  29.941  30.429  1.00  0.00     0.074 A 
ATOM     61  C   UNL A   1      43.322  29.715  29.118  1.00  0.00     0.031 C 
ATOM     62  C   UNL A   1      44.771  23.814  32.513  1.00  0.00     0.029 A 
ATOM     63  C   UNL A   1      45.137  25.022  33.244  1.00  0.00     0.049 A 
ATOM     64  H   UNL A   1      44.840  27.003  32.673  1.00  0.00     0.167 HD
ATOM     65  C   UNL A   1      44.095  31.158  30.973  1.00  0.00     0.031 A 
ATOM     66  C   UNL A   1      45.738  25.078  34.444  1.00  0.00     0.031 A 
ATOM     67  C   UNL A   1      44.684  31.314  32.273  1.00  0.00     0.049 A 
ATOM     68  C   UNL A   1      46.007  26.446  35.008  1.00  0.00     0.074 A 
ATOM     69  C   UNL A   1      44.977  32.475  32.959  1.00  0.00     0.029 A 
ATOM     70  N   UNL A   1      45.076  30.251  33.081  1.00  0.00    -0.354 N 
ATOM     71  N   UNL A   1      45.745  27.620  34.474  1.00  0.00    -0.248 NA
ATOM     72  C   UNL A   1      46.637  26.505  36.327  1.00  0.00     0.031 C 
ATOM     73  C   UNL A   1      45.595  32.113  34.161  1.00  0.00     0.029 A 
ATOM     74  C   UNL A   1      45.630  30.726  34.252  1.00  0.00     0.049 A 
ATOM     75  H   UNL A   1      44.975  29.300  32.851  1.00  0.00     0.167 HD
ATOM     76  C   UNL A   1      46.162  28.562  35.403  1.00  0.00     0.074 A 
ATOM     77  C   UNL A   1      46.675  27.814  36.539  1.00  0.00     0.031 C 
ATOM     78  C   UNL A   1      46.130  29.917  35.338  1.00  0.00     0.031 A 
BRANCH  65  79
ATOM     79  C   UNL A   1      43.745  32.363  30.144  1.00  0.00    -0.014 A 
ATOM     80  C   UNL A   1      42.526  33.045  30.318  1.00  0.00     0.010 A 
ATOM     81  C   UNL A   1      44.641  32.811  29.158  1.00  0.00     0.010 A 
ATOM     82  C   UNL A   1      42.196  34.131  29.501  1.00  0.00     0.020 A 
ATOM     83  C   UNL A   1      44.328  33.913  28.356  1.00  0.00     0.020 A 
ATOM     84  C   UNL A   1      43.100  34.557  28.524  1.00  0.00     0.054 A 
BRANCH  84  85
ATOM     85  S   UNL A   1      42.660  35.984  27.492  1.00  0.00     0.124 S 
ATOM     86  O   UNL A   1      41.227  35.780  27.291  1.00  0.00    -0.237 OA
ATOM     87  O   UNL A   1      43.019  37.115  28.342  1.00  0.00    -0.237 OA
ATOM     88  O   UNL A   1      43.484  35.817  26.298  1.00  0.00    -0.744 OA
ENDBRANCH  84  85
ENDBRANCH  65  79
BRANCH  66  89
ATOM     89  C   UNL A   1      46.107  23.825  35.149  1.00  0.00    -0.014 A 
ATOM     90  C   UNL A   1      47.322  23.174  34.873  1.00  0.00     0.010 A 
ATOM     91  C   UNL A   1      45.267  23.304  36.151  1.00  0.00     0.010 A 
ATOM     92  C   UNL A   1      47.681  22.018  35.575  1.00  0.00     0.020 A 
ATOM     93  C   UNL A   1      45.635  22.165  36.873  1.00  0.00     0.020 A 
ATOM     94  C   UNL A   1      46.836  21.522  36.572  1.00  0.00     0.054 A 
BRANCH  94  95
ATOM     95  S   UNL A   1      47.347  20.050  37.503  1.00  0.00     0.124 S 
ATOM     96  O   UNL A   1      46.348  19.070  37.090  1.00  0.00    -0.237 OA
ATOM     97  O   UNL A   1      48.703  19.821  37.008  1.00  0.00    -0.237 OA
ATOM     98  O   UNL A   1      47.266  20.481  38.897  1.00  0.00    -0.744 OA
ENDBRANCH  94  95
ENDBRANCH  66  89
BRANCH  78  99
ATOM     99  C   UNL A   1      46.645  30.654  36.539  1.00  0.00    -0.014 A 
ATOM    100  C   UNL A   1      48.004  30.989  36.652  1.00  0.00     0.010 A 
ATOM    101  C   UNL A   1      45.738  31.068  37.531  1.00  0.00     0.010 A 
ATOM    102  C   UNL A   1      48.456  31.703  37.762  1.00  0.00     0.020 A 
ATOM    103  C   UNL A   1      46.182  31.808  38.624  1.00  0.00     0.020 A 
ATOM    104  C   UNL A   1      47.541  32.108  38.739  1.00  0.00     0.054 A 
BRANCH 104 105
ATOM    105  S   UNL A   1      48.146  33.074  40.146  1.00  0.00     0.124 S 
ATOM    106  O   UNL A   1      49.447  32.461  40.396  1.00  0.00    -0.237 OA
ATOM    107  O   UNL A   1      48.183  34.432  39.609  1.00  0.00    -0.237 OA
ATOM    108  O   UNL A   1      47.139  32.847  41.180  1.00  0.00    -0.744 OA
ENDBRANCH 104 105
ENDBRANCH  78  99
ENDBRANCH  52  53
ENDBRANCH  45  47
ENDBRANCH  44  45
ENDBRANCH  43  44
ENDBRANCH  42  43
ENDBRANCH  41  42
ENDBRANCH  40  41
ENDBRANCH  39  40
ENDBRANCH  38  39
ENDBRANCH   1  38
TORSDOF 28
ENDMDL
MODEL 2
REMARK VINA RESULT:      -8.1      0.828      7.515
REMARK SMILES CCc1ccc(N2C(=O)/C(=C/c3cc(Cl)c(OCC(=O)OCCOCCOCCOCCOC(=O)c4ccc(-c5c6nc(c(-c7ccc(S(=O)(=O)[O-])cc7)c7ccc([nH]7)c(-c7ccc(S(=O)(=O)[O-])cc7)c7nc(c(-c8ccc(S(=O)(=O)[O-])cc8)c8ccc5[nH]8)C=C7)C=C6)cc4)c(Cl)c3)C(=O)NC2=S)cc1
REMARK SMILES IDX 26 1 25 2 24 3 23 4 22 5 21 6 19 7 20 8 18 9 17 10 16 11
REMARK SMILES IDX 12 12 13 13 98 14 14 15 96 16 15 17 97 18 11 19 7 20 8 21
REMARK SMILES IDX 102 22 9 23 10 24 101 25 103 26 99 27 100 29 6 30 3 31 4 32
REMARK SMILES IDX 105 33 5 34 104 35 2 36 1 37 27 38 28 39 29 40 30 41 31 42
REMARK SMILES IDX 32 43 33 44 34 45 35 46 36 47 37 48 95 49 38 50 94 51 39 52
REMARK SMILES IDX 40 53 41 54 88 55 42 56 93 57 87 58 89 59 43 60 92 61 86 62
REMARK SMILES IDX 85 63 44 65 74 66 55 67 73 68 56 69 59 70 72 71 90 72 57 73
REMARK SMILES IDX 58 74 71 76 91 77 60 78 45 79 46 80 54 81 47 82 53 83 48 84
REMARK SMILES IDX 49 85 50 86 51 87 52 88 75 89 76 90 84 91 77 92 83 93 78 94
REMARK SMILES IDX 79 95 80 96 81 97 82 98 61 99 62 100 70 101 63 102 69 103
REMARK SMILES IDX 64 104 65 105 66 106 67 107 68 108
REMARK H PARENT 101 28 89 64 59 75
REMARK Flexibility Score: inf
ROOT
ATOM      1  C   UNL A   1      34.077  20.812  24.736  1.00  0.00     0.188 C 
ENDROOT
BRANCH   1   2
ATOM      2  C   UNL A   1      32.674  21.149  25.304  1.00  0.00     0.188 C 
BRANCH   2   3
ATOM      3  O   UNL A   1      31.780  22.002  24.597  1.00  0.00    -0.376 OA
BRANCH   3   4
ATOM      4  C   UNL A   1      31.796  23.375  24.931  1.00  0.00     0.202 C 
BRANCH   4   5
ATOM      5  C   UNL A   1      30.900  24.269  24.056  1.00  0.00     0.261 C 
BRANCH   5   6
ATOM      6  O   UNL A   1      31.100  25.697  24.219  1.00  0.00    -0.461 OA
BRANCH   6   7
ATOM      7  C   UNL A   1      31.332  26.457  23.112  1.00  0.00     0.344 C 
ATOM      8  O   UNL A   1      31.391  26.013  21.973  1.00  0.00    -0.248 OA
BRANCH   7   9
ATOM      9  C   UNL A   1      31.577  27.955  23.470  1.00  0.00     0.352 C 
BRANCH   9  10
ATOM     10  O   UNL A   1      31.165  28.532  24.703  1.00  0.00    -0.479 OA
BRANCH  10  11
ATOM     11  C   UNL A   1      31.958  29.044  25.704  1.00  0.00     0.157 A 
ATOM     12  C   UNL A   1      33.914  30.616  27.167  1.00  0.00    -0.021 A 
ATOM     13  C   UNL A   1      32.725  31.178  26.676  1.00  0.00     0.032 A 
ATOM     14  C   UNL A   1      34.004  29.226  27.086  1.00  0.00     0.032 A 
ATOM     15  C   UNL A   1      31.801  30.425  25.922  1.00  0.00     0.085 A 
ATOM     16  C   UNL A   1      33.017  28.441  26.400  1.00  0.00     0.085 A 
ATOM     17  Cl  UNL A   1      30.496  31.307  25.192  1.00  0.00    -0.080 Cl
ATOM     18  Cl  UNL A   1      33.253  26.731  26.452  1.00  0.00    -0.080 Cl
BRANCH  12  19
ATOM     19  C   UNL A   1      34.940  31.590  27.667  1.00  0.00     0.028 C 
ATOM     20  N   UNL A   1      35.891  33.641  30.435  1.00  0.00    -0.253 N 
ATOM     21  C   UNL A   1      36.110  33.106  29.151  1.00  0.00     0.270 C 
ATOM     22  C   UNL A   1      34.681  34.218  30.835  1.00  0.00     0.187 C 
ATOM     23  O   UNL A   1      37.214  32.882  28.657  1.00  0.00    -0.268 OA
ATOM     24  C   UNL A   1      34.865  32.743  28.389  1.00  0.00     0.106 C 
ATOM     25  N   UNL A   1      33.648  34.123  29.926  1.00  0.00    -0.298 N 
ATOM     26  S   UNL A   1      34.377  35.106  32.231  1.00  0.00    -0.040 S 
ATOM     27  C   UNL A   1      33.655  33.531  28.689  1.00  0.00     0.263 C 
ATOM     28  H   UNL A   1      32.795  34.530  30.203  1.00  0.00     0.172 HD
ATOM     29  O   UNL A   1      32.725  33.651  27.901  1.00  0.00    -0.269 OA
BRANCH  20  30
ATOM     30  C   UNL A   1      37.022  33.658  31.313  1.00  0.00     0.052 A 
ATOM     31  C   UNL A   1      39.357  33.480  32.892  1.00  0.00    -0.048 A 
ATOM     32  C   UNL A   1      39.325  34.277  31.739  1.00  0.00     0.006 A 
ATOM     33  C   UNL A   1      38.173  32.838  33.287  1.00  0.00     0.006 A 
ATOM     34  C   UNL A   1      38.176  34.351  30.947  1.00  0.00     0.027 A 
ATOM     35  C   UNL A   1      37.012  32.927  32.508  1.00  0.00     0.027 A 
BRANCH  31  36
ATOM     36  C   UNL A   1      40.607  33.304  33.728  1.00  0.00     0.032 C 
ATOM     37  C   UNL A   1      41.591  32.251  33.222  1.00  0.00     0.009 C 
ENDBRANCH  31  36
ENDBRANCH  20  30
ENDBRANCH  12  19
ENDBRANCH  10  11
ENDBRANCH   9  10
ENDBRANCH   7   9
ENDBRANCH   6   7
ENDBRANCH   5   6
ENDBRANCH   4   5
ENDBRANCH   3   4
ENDBRANCH   2   3
ENDBRANCH   1   2
BRANCH   1  38
ATOM     38  O   UNL A   1      35.123  21.377  25.505  1.00  0.00    -0.377 OA
BRANCH  38  39
ATOM     39  C   UNL A   1      36.424  21.218  24.961  1.00  0.00     0.188 C 
BRANCH  39  40
ATOM     40  C   UNL A   1      37.539  21.691  25.901  1.00  0.00     0.188 C 
BRANCH  40  41
ATOM     41  O   UNL A   1      38.891  21.640  25.436  1.00  0.00    -0.376 OA
BRANCH  41  42
ATOM     42  C   UNL A   1      39.746  20.610  25.887  1.00  0.00     0.202 C 
BRANCH  42  43
ATOM     43  C   UNL A   1      40.899  21.087  26.761  1.00  0.00     0.261 C 
BRANCH  43  44
ATOM     44  O   UNL A   1      41.008  22.488  26.779  1.00  0.00    -0.460 OA
BRANCH  44  45
ATOM     45  C   UNL A   1      42.138  22.935  26.190  1.00  0.00     0.338 C 
ATOM     46  O   UNL A   1      42.589  22.663  25.103  1.00  0.00    -0.246 OA
BRANCH  45  47
ATOM     47  C   UNL A   1      42.632  23.940  27.110  1.00  0.00     0.060 A 
ATOM     48  C   UNL A   1      43.990  24.256  27.084  1.00  0.00     0.016 A 
ATOM     49  C   UNL A   1      41.696  24.620  27.896  1.00  0.00     0.016 A 
ATOM     50  C   UNL A   1      44.433  25.279  27.894  1.00  0.00     0.010 A 
ATOM     51  C   UNL A   1      42.139  25.634  28.709  1.00  0.00     0.010 A 
ATOM     52  C   UNL A   1      43.508  25.925  28.725  1.00  0.00    -0.014 A 
BRANCH  52  53
ATOM     53  C   UNL A   1      44.010  26.771  29.799  1.00  0.00     0.031 A 
ATOM     54  C   UNL A   1      44.486  26.074  31.030  1.00  0.00     0.074 A 
ATOM     55  C   UNL A   1      44.005  28.098  29.622  1.00  0.00     0.049 A 
ATOM     56  N   UNL A   1      44.939  26.584  32.137  1.00  0.00    -0.248 NA
ATOM     57  C   UNL A   1      44.438  24.597  31.019  1.00  0.00     0.031 C 
ATOM     58  C   UNL A   1      43.558  28.788  28.409  1.00  0.00     0.029 A 
ATOM     59  N   UNL A   1      44.384  29.097  30.464  1.00  0.00    -0.354 N 
ATOM     60  C   UNL A   1      45.224  25.497  32.953  1.00  0.00     0.074 A 
ATOM     61  C   UNL A   1      44.866  24.300  32.234  1.00  0.00     0.031 C 
ATOM     62  C   UNL A   1      43.693  30.111  28.588  1.00  0.00     0.029 A 
ATOM     63  C   UNL A   1      44.197  30.350  29.935  1.00  0.00     0.049 A 
ATOM     64  H   UNL A   1      44.755  28.939  31.362  1.00  0.00     0.167 HD
ATOM     65  C   UNL A   1      45.743  25.520  34.199  1.00  0.00     0.031 A 
ATOM     66  C   UNL A   1      44.404  31.546  30.510  1.00  0.00     0.031 A 
ATOM     67  C   UNL A   1      46.047  26.752  34.872  1.00  0.00     0.049 A 
ATOM     68  C   UNL A   1      44.944  31.543  31.914  1.00  0.00     0.074 A 
ATOM     69  C   UNL A   1      46.568  26.944  36.135  1.00  0.00     0.029 A 
ATOM     70  N   UNL A   1      45.840  28.012  34.317  1.00  0.00    -0.354 N 
ATOM     71  N   UNL A   1      45.234  30.514  32.679  1.00  0.00    -0.248 NA
ATOM     72  C   UNL A   1      45.194  32.848  32.528  1.00  0.00     0.031 C 
ATOM     73  C   UNL A   1      46.627  28.324  36.363  1.00  0.00     0.029 A 
ATOM     74  C   UNL A   1      46.203  28.990  35.220  1.00  0.00     0.049 A 
ATOM     75  H   UNL A   1      45.487  28.180  33.415  1.00  0.00     0.167 HD
ATOM     76  C   UNL A   1      45.721  31.045  33.864  1.00  0.00     0.074 A 
ATOM     77  C   UNL A   1      45.701  32.489  33.700  1.00  0.00     0.031 C 
ATOM     78  C   UNL A   1      46.147  30.414  34.988  1.00  0.00     0.031 A 
BRANCH  65  79
ATOM     79  C   UNL A   1      45.951  24.201  34.890  1.00  0.00    -0.014 A 
ATOM     80  C   UNL A   1      47.235  23.640  35.031  1.00  0.00     0.010 A 
ATOM     81  C   UNL A   1      44.842  23.499  35.393  1.00  0.00     0.010 A 
ATOM     82  C   UNL A   1      47.401  22.387  35.631  1.00  0.00     0.020 A 
ATOM     83  C   UNL A   1      45.005  22.258  36.017  1.00  0.00     0.020 A 
ATOM     84  C   UNL A   1      46.283  21.704  36.118  1.00  0.00     0.054 A 
BRANCH  84  85
ATOM     85  S   UNL A   1      46.527  20.091  36.913  1.00  0.00     0.124 S 
ATOM     86  O   UNL A   1      45.681  19.221  36.098  1.00  0.00    -0.237 OA
ATOM     87  O   UNL A   1      47.965  19.879  36.771  1.00  0.00    -0.237 OA
ATOM     88  O   UNL A   1      46.063  20.304  38.281  1.00  0.00    -0.744 OA
ENDBRANCH  84  85
ENDBRANCH  65  79
BRANCH  66  89
ATOM     89  C   UNL A   1      44.098  32.792  29.763  1.00  0.00    -0.014 A 
ATOM     90  C   UNL A   1      45.042  33.358  28.888  1.00  0.00     0.010 A 
ATOM     91  C   UNL A   1      42.829  33.391  29.876  1.00  0.00     0.010 A 
ATOM     92  C   UNL A   1      44.727  34.507  28.155  1.00  0.00     0.020 A 
ATOM     93  C   UNL A   1      42.501  34.523  29.124  1.00  0.00     0.020 A 
ATOM     94  C   UNL A   1      43.458  35.081  28.276  1.00  0.00     0.054 A 
BRANCH  94  95
ATOM     95  S   UNL A   1      43.057  36.542  27.277  1.00  0.00     0.124 S 
ATOM     96  O   UNL A   1      42.102  37.240  28.131  1.00  0.00    -0.237 OA
ATOM     97  O   UNL A   1      44.361  37.186  27.124  1.00  0.00    -0.237 OA
ATOM     98  O   UNL A   1      42.505  35.975  26.048  1.00  0.00    -0.744 OA
ENDBRANCH  94  95
ENDBRANCH  66  89
BRANCH  78  99
ATOM     99  C   UNL A   1      46.640  31.293  36.099  1.00  0.00    -0.014 A 
ATOM    100  C   UNL A   1      48.016  31.484  36.311  1.00  0.00     0.010 A 
ATOM    101  C   UNL A   1      45.708  31.981  36.894  1.00  0.00     0.010 A 
ATOM    102  C   UNL A   1      48.453  32.331  37.330  1.00  0.00     0.020 A 
ATOM    103  C   UNL A   1      46.141  32.852  37.892  1.00  0.00     0.020 A 
ATOM    104  C   UNL A   1      47.512  33.010  38.112  1.00  0.00     0.054 A 
BRANCH 104 105
ATOM    105  S   UNL A   1      48.106  34.139  39.396  1.00  0.00     0.124 S 
ATOM    106  O   UNL A   1      49.066  33.304  40.112  1.00  0.00    -0.237 OA
ATOM    107  O   UNL A   1      48.681  35.234  38.618  1.00  0.00    -0.237 OA
ATOM    108  O   UNL A   1      46.896  34.481  40.142  1.00  0.00    -0.744 OA
ENDBRANCH 104 105
ENDBRANCH  78  99
ENDBRANCH  52  53
ENDBRANCH  45  47
ENDBRANCH  44  45
ENDBRANCH  43  44
ENDBRANCH  42  43
ENDBRANCH  41  42
ENDBRANCH  40  41
ENDBRANCH  39  40
ENDBRANCH  38  39
ENDBRANCH   1  38
TORSDOF 28
ENDMDL
MODEL 3
REMARK VINA RESULT:      -7.8      4.044      9.106
REMARK SMILES CCc1ccc(N2C(=O)/C(=C/c3cc(Cl)c(OCC(=O)OCCOCCOCCOCCOC(=O)c4ccc(-c5c6nc(c(-c7ccc(S(=O)(=O)[O-])cc7)c7ccc([nH]7)c(-c7ccc(S(=O)(=O)[O-])cc7)c7nc(c(-c8ccc(S(=O)(=O)[O-])cc8)c8ccc5[nH]8)C=C7)C=C6)cc4)c(Cl)c3)C(=O)NC2=S)cc1
REMARK SMILES IDX 26 1 25 2 24 3 23 4 22 5 21 6 19 7 20 8 18 9 17 10 16 11
REMARK SMILES IDX 12 12 13 13 98 14 14 15 96 16 15 17 97 18 11 19 7 20 8 21
REMARK SMILES IDX 102 22 9 23 10 24 101 25 103 26 99 27 100 29 6 30 3 31 4 32
REMARK SMILES IDX 105 33 5 34 104 35 2 36 1 37 27 38 28 39 29 40 30 41 31 42
REMARK SMILES IDX 32 43 33 44 34 45 35 46 36 47 37 48 95 49 38 50 94 51 39 52
REMARK SMILES IDX 40 53 41 54 88 55 42 56 93 57 87 58 89 59 43 60 92 61 86 62
REMARK SMILES IDX 85 63 44 65 74 66 55 67 73 68 56 69 59 70 72 71 90 72 57 73
REMARK SMILES IDX 58 74 71 76 91 77 60 78 45 79 46 80 54 81 47 82 53 83 48 84
REMARK SMILES IDX 49 85 50 86 51 87 52 88 75 89 76 90 84 91 77 92 83 93 78 94
REMARK SMILES IDX 79 95 80 96 81 97 82 98 61 99 62 100 70 101 63 102 69 103
REMARK SMILES IDX 64 104 65 105 66 106 67 107 68 108
REMARK H PARENT 101 28 89 64 59 75
REMARK Flexibility Score: inf
ROOT
ATOM      1  C   UNL A   1      34.311  21.715  26.799  1.00  0.00     0.188 C 
ENDROOT
BRANCH   1   2
ATOM      2  C   UNL A   1      33.345  22.075  27.958  1.00  0.00     0.188 C 
BRANCH   2   3
ATOM      3  O   UNL A   1      32.137  22.787  27.713  1.00  0.00    -0.376 OA
BRANCH   3   4
ATOM      4  C   UNL A   1      32.014  23.446  26.469  1.00  0.00     0.202 C 
BRANCH   4   5
ATOM      5  C   UNL A   1      31.075  22.763  25.459  1.00  0.00     0.261 C 
BRANCH   5   6
ATOM      6  O   UNL A   1      31.344  23.058  24.064  1.00  0.00    -0.461 OA
BRANCH   6   7
ATOM      7  C   UNL A   1      32.179  22.236  23.370  1.00  0.00     0.344 C 
ATOM      8  O   UNL A   1      32.677  21.215  23.827  1.00  0.00    -0.248 OA
BRANCH   7   9
ATOM      9  C   UNL A   1      32.479  22.778  21.939  1.00  0.00     0.352 C 
BRANCH   9  10
ATOM     10  O   UNL A   1      33.392  23.841  21.691  1.00  0.00    -0.479 OA
BRANCH  10  11
ATOM     11  C   UNL A   1      33.257  25.167  22.030  1.00  0.00     0.157 A 
ATOM     12  C   UNL A   1      32.693  27.619  23.483  1.00  0.00    -0.021 A 
ATOM     13  C   UNL A   1      33.754  26.770  23.838  1.00  0.00     0.032 A 
ATOM     14  C   UNL A   1      32.057  27.318  22.277  1.00  0.00     0.032 A 
ATOM     15  C   UNL A   1      33.994  25.555  23.164  1.00  0.00     0.085 A 
ATOM     16  C   UNL A   1      32.364  26.130  21.534  1.00  0.00     0.085 A 
ATOM     17  Cl  UNL A   1      35.193  24.508  23.857  1.00  0.00    -0.080 Cl
ATOM     18  Cl  UNL A   1      31.529  25.949  20.034  1.00  0.00    -0.080 Cl
BRANCH  12  19
ATOM     19  C   UNL A   1      32.360  28.699  24.469  1.00  0.00     0.028 C 
ATOM     20  N   UNL A   1      33.583  30.548  27.272  1.00  0.00    -0.253 N 
ATOM     21  C   UNL A   1      32.606  30.270  26.297  1.00  0.00     0.270 C 
ATOM     22  C   UNL A   1      34.185  29.566  28.065  1.00  0.00     0.187 C 
ATOM     23  O   UNL A   1      31.838  31.097  25.808  1.00  0.00    -0.268 OA
ATOM     24  C   UNL A   1      32.581  28.849  25.806  1.00  0.00     0.106 C 
ATOM     25  N   UNL A   1      33.855  28.264  27.750  1.00  0.00    -0.298 N 
ATOM     26  S   UNL A   1      35.161  29.790  29.417  1.00  0.00    -0.040 S 
ATOM     27  C   UNL A   1      33.021  27.813  26.759  1.00  0.00     0.263 C 
ATOM     28  H   UNL A   1      34.275  27.569  28.308  1.00  0.00     0.172 HD
ATOM     29  O   UNL A   1      32.676  26.641  26.678  1.00  0.00    -0.269 OA
BRANCH  20  30
ATOM     30  C   UNL A   1      33.877  31.933  27.494  1.00  0.00     0.052 A 
ATOM     31  C   UNL A   1      34.479  34.599  28.205  1.00  0.00    -0.048 A 
ATOM     32  C   UNL A   1      35.499  33.679  27.924  1.00  0.00     0.006 A 
ATOM     33  C   UNL A   1      33.148  34.183  28.041  1.00  0.00     0.006 A 
ATOM     34  C   UNL A   1      35.203  32.354  27.590  1.00  0.00     0.027 A 
ATOM     35  C   UNL A   1      32.846  32.861  27.686  1.00  0.00     0.027 A 
BRANCH  31  36
ATOM     36  C   UNL A   1      34.760  36.017  28.655  1.00  0.00     0.032 C 
ATOM     37  C   UNL A   1      33.652  37.027  28.367  1.00  0.00     0.009 C 
ENDBRANCH  31  36
ENDBRANCH  20  30
ENDBRANCH  12  19
ENDBRANCH  10  11
ENDBRANCH   9  10
ENDBRANCH   7   9
ENDBRANCH   6   7
ENDBRANCH   5   6
ENDBRANCH   4   5
ENDBRANCH   3   4
ENDBRANCH   2   3
ENDBRANCH   1   2
BRANCH   1  38
ATOM     38  O   UNL A   1      35.250  22.742  26.536  1.00  0.00    -0.377 OA
BRANCH  38  39
ATOM     39  C   UNL A   1      36.519  22.296  26.085  1.00  0.00     0.188 C 
BRANCH  39  40
ATOM     40  C   UNL A   1      37.644  23.307  26.338  1.00  0.00     0.188 C 
BRANCH  40  41
ATOM     41  O   UNL A   1      38.954  23.007  25.846  1.00  0.00    -0.376 OA
BRANCH  41  42
ATOM     42  C   UNL A   1      39.993  22.721  26.758  1.00  0.00     0.202 C 
BRANCH  42  43
ATOM     43  C   UNL A   1      40.483  23.926  27.552  1.00  0.00     0.261 C 
BRANCH  43  44
ATOM     44  O   UNL A   1      39.733  25.082  27.281  1.00  0.00    -0.460 OA
BRANCH  44  45
ATOM     45  C   UNL A   1      40.499  26.132  26.913  1.00  0.00     0.338 C 
ATOM     46  O   UNL A   1      41.045  26.343  25.857  1.00  0.00    -0.246 OA
BRANCH  45  47
ATOM     47  C   UNL A   1      40.407  27.037  28.041  1.00  0.00     0.060 A 
ATOM     48  C   UNL A   1      41.132  28.228  27.999  1.00  0.00     0.016 A 
ATOM     49  C   UNL A   1      39.506  26.717  29.062  1.00  0.00     0.016 A 
ATOM     50  C   UNL A   1      40.964  29.125  29.031  1.00  0.00     0.010 A 
ATOM     51  C   UNL A   1      39.346  27.607  30.095  1.00  0.00     0.010 A 
ATOM     52  C   UNL A   1      40.105  28.784  30.084  1.00  0.00    -0.014 A 
BRANCH  52  53
ATOM     53  C   UNL A   1      40.167  29.563  31.314  1.00  0.00     0.031 A 
ATOM     54  C   UNL A   1      41.309  29.274  32.230  1.00  0.00     0.074 A 
ATOM     55  C   UNL A   1      39.207  30.467  31.544  1.00  0.00     0.049 A 
ATOM     56  N   UNL A   1      41.575  29.790  33.393  1.00  0.00    -0.248 NA
ATOM     57  C   UNL A   1      42.282  28.257  31.780  1.00  0.00     0.031 C 
ATOM     58  C   UNL A   1      38.094  30.770  30.639  1.00  0.00     0.029 A 
ATOM     59  N   UNL A   1      39.016  31.292  32.609  1.00  0.00    -0.354 N 
ATOM     60  C   UNL A   1      42.739  29.161  33.816  1.00  0.00     0.074 A 
ATOM     61  C   UNL A   1      43.114  28.203  32.806  1.00  0.00     0.031 C 
ATOM     62  C   UNL A   1      37.332  31.724  31.194  1.00  0.00     0.029 A 
ATOM     63  C   UNL A   1      37.886  32.063  32.500  1.00  0.00     0.049 A 
ATOM     64  H   UNL A   1      39.625  31.331  33.381  1.00  0.00     0.167 HD
ATOM     65  C   UNL A   1      43.422  29.381  34.959  1.00  0.00     0.031 A 
ATOM     66  C   UNL A   1      37.369  32.930  33.386  1.00  0.00     0.031 A 
ATOM     67  C   UNL A   1      42.973  30.328  35.941  1.00  0.00     0.049 A 
ATOM     68  C   UNL A   1      38.128  33.126  34.670  1.00  0.00     0.074 A 
ATOM     69  C   UNL A   1      43.547  30.660  37.151  1.00  0.00     0.029 A 
ATOM     70  N   UNL A   1      41.818  31.094  35.811  1.00  0.00    -0.354 N 
ATOM     71  N   UNL A   1      39.241  32.545  35.061  1.00  0.00    -0.248 NA
ATOM     72  C   UNL A   1      37.577  34.091  35.622  1.00  0.00     0.031 C 
ATOM     73  C   UNL A   1      42.709  31.590  37.777  1.00  0.00     0.029 A 
ATOM     74  C   UNL A   1      41.647  31.884  36.929  1.00  0.00     0.049 A 
ATOM     75  H   UNL A   1      41.212  31.074  35.037  1.00  0.00     0.167 HD
ATOM     76  C   UNL A   1      39.538  33.089  36.302  1.00  0.00     0.074 A 
ATOM     77  C   UNL A   1      38.492  34.059  36.582  1.00  0.00     0.031 C 
ATOM     78  C   UNL A   1      40.571  32.823  37.142  1.00  0.00     0.031 A 
BRANCH  65  79
ATOM     79  C   UNL A   1      44.657  28.558  35.202  1.00  0.00    -0.014 A 
ATOM     80  C   UNL A   1      45.886  28.881  34.594  1.00  0.00     0.010 A 
ATOM     81  C   UNL A   1      44.586  27.429  36.036  1.00  0.00     0.010 A 
ATOM     82  C   UNL A   1      47.009  28.071  34.790  1.00  0.00     0.020 A 
ATOM     83  C   UNL A   1      45.714  26.632  36.257  1.00  0.00     0.020 A 
ATOM     84  C   UNL A   1      46.915  26.951  35.620  1.00  0.00     0.054 A 
BRANCH  84  85
ATOM     85  S   UNL A   1      48.393  25.930  35.877  1.00  0.00     0.124 S 
ATOM     86  O   UNL A   1      48.721  26.219  37.272  1.00  0.00    -0.237 OA
ATOM     87  O   UNL A   1      47.899  24.581  35.616  1.00  0.00    -0.237 OA
ATOM     88  O   UNL A   1      49.345  26.444  34.896  1.00  0.00    -0.744 OA
ENDBRANCH  84  85
ENDBRANCH  65  79
BRANCH  66  89
ATOM     89  C   UNL A   1      36.102  33.640  33.078  1.00  0.00    -0.014 A 
ATOM     90  C   UNL A   1      34.861  33.088  33.436  1.00  0.00     0.010 A 
ATOM     91  C   UNL A   1      36.134  34.912  32.474  1.00  0.00     0.010 A 
ATOM     92  C   UNL A   1      33.675  33.786  33.180  1.00  0.00     0.020 A 
ATOM     93  C   UNL A   1      34.953  35.625  32.243  1.00  0.00     0.020 A 
ATOM     94  C   UNL A   1      33.730  35.051  32.588  1.00  0.00     0.054 A 
BRANCH  94  95
ATOM     95  S   UNL A   1      32.182  35.958  32.313  1.00  0.00     0.124 S 
ATOM     96  O   UNL A   1      31.179  34.963  32.679  1.00  0.00    -0.237 OA
ATOM     97  O   UNL A   1      32.314  37.091  33.227  1.00  0.00    -0.237 OA
ATOM     98  O   UNL A   1      32.235  36.304  30.894  1.00  0.00    -0.744 OA
ENDBRANCH  94  95
ENDBRANCH  66  89
BRANCH  78  99
ATOM     99  C   UNL A   1      40.615  33.613  38.416  1.00  0.00    -0.014 A 
ATOM    100  C   UNL A   1      40.216  33.039  39.635  1.00  0.00     0.010 A 
ATOM    101  C   UNL A   1      41.123  34.924  38.394  1.00  0.00     0.010 A 
ATOM    102  C   UNL A   1      40.295  33.781  40.813  1.00  0.00     0.020 A 
ATOM    103  C   UNL A   1      41.233  35.656  39.574  1.00  0.00     0.020 A 
ATOM    104  C   UNL A   1      40.804  35.084  40.774  1.00  0.00     0.054 A 
BRANCH 104 105
ATOM    105  S   UNL A   1      40.940  36.008  42.325  1.00  0.00     0.124 S 
ATOM    106  O   UNL A   1      41.203  34.943  43.289  1.00  0.00    -0.237 OA
ATOM    107  O   UNL A   1      42.058  36.910  42.063  1.00  0.00    -0.237 OA
ATOM    108  O   UNL A   1      39.638  36.659  42.454  1.00  0.00    -0.744 OA
ENDBRANCH 104 105
ENDBRANCH  78  99
ENDBRANCH  52  53
ENDBRANCH  45  47
ENDBRANCH  44  45
ENDBRANCH  43  44
ENDBRANCH  42  43
ENDBRANCH  41  42
ENDBRANCH  40  41
ENDBRANCH  39  40
ENDBRANCH  38  39
ENDBRANCH   1  38
TORSDOF 28
ENDMDL
