MODEL 1
REMARK VINA RESULT:      -9.0      0.000      0.000
REMARK SMILES Cc1cccc(-c2ncc(C[NH+]3CCC4(CC3)NC(=O)C[C@H]4C(=O)OCCOCCOCCOCCOC(=O)c3ccc(-c4c5nc(c(-c6ccc(S(=O)(=O)[O-])cc6)c6ccc([nH]6)c(-c6ccc(S(=O)(=O)[O-])cc6)c6nc(c(-c7ccc(S(=O)(=O)[O-])cc7)c7ccc4[nH]7)C=C6)C=C5)cc3)cn2)c1
REMARK SMILES IDX 31 1 30 2 29 3 28 4 27 5 26 6 25 7 23 8 24 9 22 10 12 11
REMARK SMILES IDX 13 12 17 13 14 15 16 16 15 17 18 18 19 19 21 21 20 22 11 23
REMARK SMILES IDX 10 24 7 25 8 26 101 27 9 28 100 29 6 30 1 31 2 32 3 33
REMARK SMILES IDX 102 34 4 35 5 36 32 37 33 38 34 39 35 40 36 41 37 42 38 43
REMARK SMILES IDX 39 44 40 45 41 46 99 47 42 48 98 49 43 50 44 51 45 52 92 53
REMARK SMILES IDX 46 54 97 55 91 56 93 57 47 58 96 59 90 60 89 61 48 63 78 64
REMARK SMILES IDX 59 65 77 66 60 67 63 68 76 69 94 70 61 71 62 72 75 74 95 75
REMARK SMILES IDX 64 76 49 77 50 78 58 79 51 80 57 81 52 82 53 83 54 84 55 85
REMARK SMILES IDX 56 86 79 87 80 88 88 89 81 90 87 91 82 92 83 93 84 94 85 95
REMARK SMILES IDX 86 96 65 97 66 98 74 99 67 100 73 101 68 102 69 103 70 104
REMARK SMILES IDX 71 105 72 106
REMARK H PARENT 12 14 18 20 93 62 63 73
REMARK Flexibility Score: inf
ROOT
ATOM      1  O   UNL A   1      37.554  29.663  29.890  1.00  0.00    -0.377 OA
ENDROOT
BRANCH   1   2
ATOM      2  C   UNL A   1      37.677  29.630  28.483  1.00  0.00     0.188 C 
BRANCH   2   3
ATOM      3  C   UNL A   1      36.524  30.141  27.627  1.00  0.00     0.188 C 
BRANCH   3   4
ATOM      4  O   UNL A   1      35.243  29.614  27.935  1.00  0.00    -0.376 OA
BRANCH   4   5
ATOM      5  C   UNL A   1      34.192  30.119  27.144  1.00  0.00     0.202 C 
BRANCH   5   6
ATOM      6  C   UNL A   1      33.770  29.082  26.113  1.00  0.00     0.261 C 
BRANCH   6   7
ATOM      7  O   UNL A   1      33.339  27.808  26.633  1.00  0.00    -0.463 OA
BRANCH   7   8
ATOM      8  C   UNL A   1      32.030  27.517  26.523  1.00  0.00     0.311 C 
ATOM      9  O   UNL A   1      31.231  27.491  27.461  1.00  0.00    -0.252 OA
BRANCH   8  10
ATOM     10  C   UNL A   1      31.609  27.156  25.109  1.00  0.00     0.134 C 
ATOM     11  N   UNL A   1      34.596  24.374  25.141  1.00  0.00    -0.331 N 
ATOM     12  C   UNL A   1      34.544  25.455  24.183  1.00  0.00     0.264 C 
ATOM     13  C   UNL A   1      33.545  24.516  26.114  1.00  0.00     0.264 C 
ATOM     14  H   UNL A   1      35.520  24.541  25.541  1.00  0.00     0.348 HD
ATOM     15  C   UNL A   1      33.159  25.716  23.581  1.00  0.00     0.091 C 
ATOM     16  C   UNL A   1      32.113  24.656  25.619  1.00  0.00     0.091 C 
ATOM     17  C   UNL A   1      31.960  25.743  24.567  1.00  0.00     0.064 C 
ATOM     18  N   UNL A   1      30.770  25.406  23.798  1.00  0.00    -0.349 N 
ATOM     19  C   UNL A   1      29.682  26.197  24.024  1.00  0.00     0.221 C 
ATOM     20  H   UNL A   1      30.752  24.657  23.158  1.00  0.00     0.164 HD
ATOM     21  C   UNL A   1      30.094  27.356  24.876  1.00  0.00     0.117 C 
ATOM     22  O   UNL A   1      28.574  25.990  23.558  1.00  0.00    -0.275 OA
BRANCH  11  23
ATOM     23  C   UNL A   1      34.946  22.998  24.789  1.00  0.00     0.302 C 
BRANCH  23  24
ATOM     24  C   UNL A   1      36.206  22.484  25.416  1.00  0.00     0.043 A 
ATOM     25  C   UNL A   1      38.754  21.805  25.998  1.00  0.00     0.159 A 
ATOM     26  N   UNL A   1      38.318  23.010  26.420  1.00  0.00    -0.236 NA
ATOM     27  N   UNL A   1      37.992  20.872  25.419  1.00  0.00    -0.236 NA
ATOM     28  C   UNL A   1      37.036  23.304  26.141  1.00  0.00     0.124 A 
ATOM     29  C   UNL A   1      36.726  21.230  25.150  1.00  0.00     0.124 A 
BRANCH  25  30
ATOM     30  C   UNL A   1      40.187  21.546  26.087  1.00  0.00     0.019 A 
ATOM     31  C   UNL A   1      42.560  18.550  26.173  1.00  0.00     0.044 C 
ATOM     32  C   UNL A   1      42.053  19.963  26.153  1.00  0.00    -0.050 A 
ATOM     33  C   UNL A   1      42.947  21.036  26.092  1.00  0.00     0.003 A 
ATOM     34  C   UNL A   1      40.679  20.229  26.147  1.00  0.00     0.015 A 
ATOM     35  C   UNL A   1      42.475  22.349  26.080  1.00  0.00     0.001 A 
ATOM     36  C   UNL A   1      41.103  22.603  26.091  1.00  0.00     0.012 A 
ENDBRANCH  25  30
ENDBRANCH  23  24
ENDBRANCH  11  23
ENDBRANCH   8  10
ENDBRANCH   7   8
ENDBRANCH   6   7
ENDBRANCH   5   6
ENDBRANCH   4   5
ENDBRANCH   3   4
ENDBRANCH   2   3
ENDBRANCH   1   2
BRANCH   1  37
ATOM     37  C   UNL A   1      38.158  28.539  30.562  1.00  0.00     0.188 C 
BRANCH  37  38
ATOM     38  C   UNL A   1      37.874  28.532  32.057  1.00  0.00     0.188 C 
BRANCH  38  39
ATOM     39  O   UNL A   1      36.830  29.465  32.295  1.00  0.00    -0.376 OA
BRANCH  39  40
ATOM     40  C   UNL A   1      37.193  30.662  32.928  1.00  0.00     0.202 C 
BRANCH  40  41
ATOM     41  C   UNL A   1      36.081  31.699  32.830  1.00  0.00     0.261 C 
BRANCH  41  42
ATOM     42  O   UNL A   1      35.939  32.073  31.441  1.00  0.00    -0.460 OA
BRANCH  42  43
ATOM     43  C   UNL A   1      35.864  33.416  31.212  1.00  0.00     0.338 C 
ATOM     44  O   UNL A   1      34.848  34.075  31.361  1.00  0.00    -0.246 OA
BRANCH  43  45
ATOM     45  C   UNL A   1      37.167  33.944  30.696  1.00  0.00     0.060 A 
ATOM     46  C   UNL A   1      37.547  33.737  29.356  1.00  0.00     0.016 A 
ATOM     47  C   UNL A   1      38.096  34.478  31.577  1.00  0.00     0.016 A 
ATOM     48  C   UNL A   1      38.885  33.921  28.933  1.00  0.00     0.010 A 
ATOM     49  C   UNL A   1      39.404  34.674  31.148  1.00  0.00     0.010 A 
ATOM     50  C   UNL A   1      39.849  34.333  29.848  1.00  0.00    -0.014 A 
BRANCH  50  51
ATOM     51  C   UNL A   1      41.337  34.264  29.699  1.00  0.00     0.031 A 
ATOM     52  C   UNL A   1      42.021  35.399  28.970  1.00  0.00     0.074 A 
ATOM     53  C   UNL A   1      42.055  33.481  30.551  1.00  0.00     0.049 A 
ATOM     54  N   UNL A   1      43.285  35.673  28.964  1.00  0.00    -0.248 NA
ATOM     55  C   UNL A   1      41.266  36.360  28.159  1.00  0.00     0.031 C 
ATOM     56  C   UNL A   1      43.315  33.833  31.211  1.00  0.00     0.029 A 
ATOM     57  N   UNL A   1      41.804  32.264  31.139  1.00  0.00    -0.354 N 
ATOM     58  C   UNL A   1      43.463  36.958  28.456  1.00  0.00     0.074 A 
ATOM     59  C   UNL A   1      42.176  37.309  27.910  1.00  0.00     0.031 C 
ATOM     60  C   UNL A   1      43.753  32.847  32.007  1.00  0.00     0.029 A 
ATOM     61  C   UNL A   1      42.970  31.699  31.667  1.00  0.00     0.049 A 
ATOM     62  H   UNL A   1      40.915  31.842  31.183  1.00  0.00     0.167 HD
ATOM     63  C   UNL A   1      44.632  37.635  28.695  1.00  0.00     0.031 A 
ATOM     64  C   UNL A   1      43.522  30.603  31.068  1.00  0.00     0.031 A 
ATOM     65  C   UNL A   1      45.711  36.732  29.173  1.00  0.00     0.049 A 
ATOM     66  C   UNL A   1      44.777  30.955  30.224  1.00  0.00     0.074 A 
ATOM     67  C   UNL A   1      46.734  36.785  30.111  1.00  0.00     0.029 A 
ATOM     68  N   UNL A   1      45.736  35.414  28.704  1.00  0.00    -0.354 N 
ATOM     69  N   UNL A   1      45.211  32.182  29.993  1.00  0.00    -0.248 NA
ATOM     70  C   UNL A   1      45.680  29.977  29.626  1.00  0.00     0.031 C 
ATOM     71  C   UNL A   1      47.252  35.462  30.295  1.00  0.00     0.029 A 
ATOM     72  C   UNL A   1      46.640  34.624  29.377  1.00  0.00     0.049 A 
ATOM     73  H   UNL A   1      45.166  35.086  27.971  1.00  0.00     0.167 HD
ATOM     74  C   UNL A   1      46.357  32.186  29.233  1.00  0.00     0.074 A 
ATOM     75  C   UNL A   1      46.610  30.765  29.047  1.00  0.00     0.031 C 
ATOM     76  C   UNL A   1      47.003  33.328  28.801  1.00  0.00     0.031 A 
BRANCH  63  77
ATOM     77  C   UNL A   1      44.765  39.182  28.683  1.00  0.00    -0.014 A 
ATOM     78  C   UNL A   1      45.649  39.808  27.773  1.00  0.00     0.010 A 
ATOM     79  C   UNL A   1      44.151  40.073  29.596  1.00  0.00     0.010 A 
ATOM     80  C   UNL A   1      45.919  41.194  27.776  1.00  0.00     0.020 A 
ATOM     81  C   UNL A   1      44.370  41.474  29.581  1.00  0.00     0.020 A 
ATOM     82  C   UNL A   1      45.264  42.029  28.672  1.00  0.00     0.054 A 
BRANCH  82  83
ATOM     83  S   UNL A   1      45.557  43.822  28.586  1.00  0.00     0.124 S 
ATOM     84  O   UNL A   1      44.672  44.343  29.624  1.00  0.00    -0.237 OA
ATOM     85  O   UNL A   1      46.985  43.925  28.872  1.00  0.00    -0.237 OA
ATOM     86  O   UNL A   1      45.180  44.173  27.217  1.00  0.00    -0.744 OA
ENDBRANCH  82  83
ENDBRANCH  63  77
BRANCH  64  87
ATOM     87  C   UNL A   1      42.480  29.494  31.061  1.00  0.00    -0.014 A 
ATOM     88  C   UNL A   1      41.614  29.571  29.930  1.00  0.00     0.010 A 
ATOM     89  C   UNL A   1      42.866  28.196  31.473  1.00  0.00     0.010 A 
ATOM     90  C   UNL A   1      41.461  28.478  29.055  1.00  0.00     0.020 A 
ATOM     91  C   UNL A   1      42.693  27.088  30.601  1.00  0.00     0.020 A 
ATOM     92  C   UNL A   1      42.066  27.261  29.360  1.00  0.00     0.054 A 
BRANCH  92  93
ATOM     93  S   UNL A   1      42.296  26.034  28.017  1.00  0.00     0.124 S 
ATOM     94  O   UNL A   1      43.198  26.727  27.104  1.00  0.00    -0.237 OA
ATOM     95  O   UNL A   1      42.857  24.876  28.714  1.00  0.00    -0.237 OA
ATOM     96  O   UNL A   1      40.938  25.825  27.525  1.00  0.00    -0.744 OA
ENDBRANCH  92  93
ENDBRANCH  64  87
BRANCH  76  97
ATOM     97  C   UNL A   1      48.035  33.435  27.670  1.00  0.00    -0.014 A 
ATOM     98  C   UNL A   1      47.941  34.266  26.554  1.00  0.00     0.010 A 
ATOM     99  C   UNL A   1      49.247  32.686  27.775  1.00  0.00     0.010 A 
ATOM    100  C   UNL A   1      49.022  34.431  25.673  1.00  0.00     0.020 A 
ATOM    101  C   UNL A   1      50.332  32.840  26.914  1.00  0.00     0.020 A 
ATOM    102  C   UNL A   1      50.220  33.744  25.878  1.00  0.00     0.054 A 
BRANCH 102 103
ATOM    103  S   UNL A   1      51.616  34.065  24.782  1.00  0.00     0.124 S 
ATOM    104  O   UNL A   1      51.295  35.388  24.255  1.00  0.00    -0.237 OA
ATOM    105  O   UNL A   1      52.745  34.014  25.707  1.00  0.00    -0.237 OA
ATOM    106  O   UNL A   1      51.561  32.977  23.810  1.00  0.00    -0.744 OA
ENDBRANCH 102 103
ENDBRANCH  76  97
ENDBRANCH  50  51
ENDBRANCH  43  45
ENDBRANCH  42  43
ENDBRANCH  41  42
ENDBRANCH  40  41
ENDBRANCH  39  40
ENDBRANCH  38  39
ENDBRANCH  37  38
ENDBRANCH   1  37
TORSDOF 26
ENDMDL
MODEL 2
REMARK VINA RESULT:      -8.8      5.469     10.779
REMARK SMILES Cc1cccc(-c2ncc(C[NH+]3CCC4(CC3)NC(=O)C[C@H]4C(=O)OCCOCCOCCOCCOC(=O)c3ccc(-c4c5nc(c(-c6ccc(S(=O)(=O)[O-])cc6)c6ccc([nH]6)c(-c6ccc(S(=O)(=O)[O-])cc6)c6nc(c(-c7ccc(S(=O)(=O)[O-])cc7)c7ccc4[nH]7)C=C6)C=C5)cc3)cn2)c1
REMARK SMILES IDX 31 1 30 2 29 3 28 4 27 5 26 6 25 7 23 8 24 9 22 10 12 11
REMARK SMILES IDX 13 12 17 13 14 15 16 16 15 17 18 18 19 19 21 21 20 22 11 23
REMARK SMILES IDX 10 24 7 25 8 26 101 27 9 28 100 29 6 30 1 31 2 32 3 33
REMARK SMILES IDX 102 34 4 35 5 36 32 37 33 38 34 39 35 40 36 41 37 42 38 43
REMARK SMILES IDX 39 44 40 45 41 46 99 47 42 48 98 49 43 50 44 51 45 52 92 53
REMARK SMILES IDX 46 54 97 55 91 56 93 57 47 58 96 59 90 60 89 61 48 63 78 64
REMARK SMILES IDX 59 65 77 66 60 67 63 68 76 69 94 70 61 71 62 72 75 74 95 75
REMARK SMILES IDX 64 76 49 77 50 78 58 79 51 80 57 81 52 82 53 83 54 84 55 85
REMARK SMILES IDX 56 86 79 87 80 88 88 89 81 90 87 91 82 92 83 93 84 94 85 95
REMARK SMILES IDX 86 96 65 97 66 98 74 99 67 100 73 101 68 102 69 103 70 104
REMARK SMILES IDX 71 105 72 106
REMARK H PARENT 12 14 18 20 93 62 63 73
REMARK Flexibility Score: inf
ROOT
ATOM      1  O   UNL A   1      42.422  28.469  30.600  1.00  0.00    -0.377 OA
ENDROOT
BRANCH   1   2
ATOM      2  C   UNL A   1      43.624  29.066  30.161  1.00  0.00     0.188 C 
BRANCH   2   3
ATOM      3  C   UNL A   1      44.144  28.744  28.764  1.00  0.00     0.188 C 
BRANCH   3   4
ATOM      4  O   UNL A   1      45.470  28.242  28.697  1.00  0.00    -0.376 OA
BRANCH   4   5
ATOM      5  C   UNL A   1      45.765  27.231  29.634  1.00  0.00     0.202 C 
BRANCH   5   6
ATOM      6  C   UNL A   1      45.914  25.891  28.926  1.00  0.00     0.261 C 
BRANCH   6   7
ATOM      7  O   UNL A   1      46.043  25.943  27.490  1.00  0.00    -0.463 OA
BRANCH   7   8
ATOM      8  C   UNL A   1      45.715  24.828  26.810  1.00  0.00     0.311 C 
ATOM      9  O   UNL A   1      46.203  23.714  27.006  1.00  0.00    -0.252 OA
BRANCH   8  10
ATOM     10  C   UNL A   1      44.703  25.072  25.705  1.00  0.00     0.134 C 
ATOM     11  N   UNL A   1      42.451  22.110  27.384  1.00  0.00    -0.331 N 
ATOM     12  C   UNL A   1      42.943  22.045  26.026  1.00  0.00     0.264 C 
ATOM     13  C   UNL A   1      42.974  23.273  28.051  1.00  0.00     0.264 C 
ATOM     14  H   UNL A   1      42.841  21.242  27.752  1.00  0.00     0.348 HD
ATOM     15  C   UNL A   1      42.805  23.345  25.228  1.00  0.00     0.091 C 
ATOM     16  C   UNL A   1      42.778  24.634  27.398  1.00  0.00     0.091 C 
ATOM     17  C   UNL A   1      43.226  24.656  25.945  1.00  0.00     0.064 C 
ATOM     18  N   UNL A   1      42.494  25.742  25.308  1.00  0.00    -0.349 N 
ATOM     19  C   UNL A   1      43.233  26.851  25.010  1.00  0.00     0.221 C 
ATOM     20  H   UNL A   1      41.532  25.681  25.106  1.00  0.00     0.164 HD
ATOM     21  C   UNL A   1      44.679  26.547  25.243  1.00  0.00     0.117 C 
ATOM     22  O   UNL A   1      42.764  27.893  24.583  1.00  0.00    -0.275 OA
BRANCH  11  23
ATOM     23  C   UNL A   1      41.096  21.719  27.772  1.00  0.00     0.302 C 
BRANCH  23  24
ATOM     24  C   UNL A   1      40.015  22.166  26.836  1.00  0.00     0.043 A 
ATOM     25  C   UNL A   1      37.671  22.794  25.649  1.00  0.00     0.159 A 
ATOM     26  N   UNL A   1      38.284  23.757  26.369  1.00  0.00    -0.236 NA
ATOM     27  N   UNL A   1      38.188  21.591  25.379  1.00  0.00    -0.236 NA
ATOM     28  C   UNL A   1      39.463  23.421  26.921  1.00  0.00     0.124 A 
ATOM     29  C   UNL A   1      39.359  21.307  25.972  1.00  0.00     0.124 A 
BRANCH  25  30
ATOM     30  C   UNL A   1      36.298  23.049  25.227  1.00  0.00     0.019 A 
ATOM     31  C   UNL A   1      33.683  25.824  25.498  1.00  0.00     0.044 C 
ATOM     32  C   UNL A   1      34.352  24.532  25.132  1.00  0.00    -0.050 A 
ATOM     33  C   UNL A   1      33.717  23.621  24.283  1.00  0.00     0.003 A 
ATOM     34  C   UNL A   1      35.640  24.237  25.595  1.00  0.00     0.015 A 
ATOM     35  C   UNL A   1      34.338  22.416  23.948  1.00  0.00     0.001 A 
ATOM     36  C   UNL A   1      35.615  22.126  24.428  1.00  0.00     0.012 A 
ENDBRANCH  25  30
ENDBRANCH  23  24
ENDBRANCH  11  23
ENDBRANCH   8  10
ENDBRANCH   7   8
ENDBRANCH   6   7
ENDBRANCH   5   6
ENDBRANCH   4   5
ENDBRANCH   3   4
ENDBRANCH   2   3
ENDBRANCH   1   2
BRANCH   1  37
ATOM     37  C   UNL A   1      41.238  29.241  30.307  1.00  0.00     0.188 C 
BRANCH  37  38
ATOM     38  C   UNL A   1      40.204  28.447  29.524  1.00  0.00     0.188 C 
BRANCH  38  39
ATOM     39  O   UNL A   1      39.119  29.321  29.247  1.00  0.00    -0.376 OA
BRANCH  39  40
ATOM     40  C   UNL A   1      38.776  29.482  27.897  1.00  0.00     0.202 C 
BRANCH  40  41
ATOM     41  C   UNL A   1      37.263  29.472  27.707  1.00  0.00     0.261 C 
BRANCH  41  42
ATOM     42  O   UNL A   1      36.648  29.531  29.014  1.00  0.00    -0.460 OA
BRANCH  42  43
ATOM     43  C   UNL A   1      35.859  30.624  29.228  1.00  0.00     0.338 C 
ATOM     44  O   UNL A   1      34.981  30.988  28.465  1.00  0.00    -0.246 OA
BRANCH  43  45
ATOM     45  C   UNL A   1      36.265  31.337  30.481  1.00  0.00     0.060 A 
ATOM     46  C   UNL A   1      36.357  32.742  30.511  1.00  0.00     0.016 A 
ATOM     47  C   UNL A   1      36.733  30.615  31.568  1.00  0.00     0.016 A 
ATOM     48  C   UNL A   1      37.046  33.412  31.550  1.00  0.00     0.010 A 
ATOM     49  C   UNL A   1      37.392  31.284  32.594  1.00  0.00     0.010 A 
ATOM     50  C   UNL A   1      37.631  32.679  32.577  1.00  0.00    -0.014 A 
BRANCH  50  51
ATOM     51  C   UNL A   1      38.661  33.145  33.559  1.00  0.00     0.031 A 
ATOM     52  C   UNL A   1      38.184  33.544  34.937  1.00  0.00     0.074 A 
ATOM     53  C   UNL A   1      39.964  32.797  33.371  1.00  0.00     0.049 A 
ATOM     54  N   UNL A   1      38.910  33.711  35.996  1.00  0.00    -0.248 NA
ATOM     55  C   UNL A   1      36.766  33.785  35.223  1.00  0.00     0.031 C 
ATOM     56  C   UNL A   1      40.900  32.328  34.396  1.00  0.00     0.029 A 
ATOM     57  N   UNL A   1      40.739  32.644  32.246  1.00  0.00    -0.354 N 
ATOM     58  C   UNL A   1      38.074  33.752  37.109  1.00  0.00     0.074 A 
ATOM     59  C   UNL A   1      36.747  33.859  36.559  1.00  0.00     0.031 C 
ATOM     60  C   UNL A   1      42.105  32.045  33.879  1.00  0.00     0.029 A 
ATOM     61  C   UNL A   1      42.101  32.605  32.562  1.00  0.00     0.049 A 
ATOM     62  H   UNL A   1      40.380  32.572  31.331  1.00  0.00     0.167 HD
ATOM     63  C   UNL A   1      38.589  33.532  38.363  1.00  0.00     0.031 A 
ATOM     64  C   UNL A   1      42.905  33.655  32.224  1.00  0.00     0.031 A 
ATOM     65  C   UNL A   1      40.071  33.641  38.382  1.00  0.00     0.049 A 
ATOM     66  C   UNL A   1      43.250  34.556  33.442  1.00  0.00     0.074 A 
ATOM     67  C   UNL A   1      41.127  32.976  38.994  1.00  0.00     0.029 A 
ATOM     68  N   UNL A   1      40.687  34.544  37.509  1.00  0.00    -0.354 N 
ATOM     69  N   UNL A   1      42.737  34.417  34.652  1.00  0.00    -0.248 NA
ATOM     70  C   UNL A   1      44.231  35.635  33.428  1.00  0.00     0.031 C 
ATOM     71  C   UNL A   1      42.348  33.389  38.368  1.00  0.00     0.029 A 
ATOM     72  C   UNL A   1      42.055  34.398  37.467  1.00  0.00     0.049 A 
ATOM     73  H   UNL A   1      40.193  35.212  36.980  1.00  0.00     0.167 HD
ATOM     74  C   UNL A   1      43.245  35.344  35.533  1.00  0.00     0.074 A 
ATOM     75  C   UNL A   1      44.193  36.072  34.703  1.00  0.00     0.031 C 
ATOM     76  C   UNL A   1      42.853  35.461  36.852  1.00  0.00     0.031 A 
BRANCH  63  77
ATOM     77  C   UNL A   1      37.761  33.017  39.570  1.00  0.00    -0.014 A 
ATOM     78  C   UNL A   1      37.624  33.821  40.727  1.00  0.00     0.010 A 
ATOM     79  C   UNL A   1      37.188  31.728  39.693  1.00  0.00     0.010 A 
ATOM     80  C   UNL A   1      36.992  33.382  41.910  1.00  0.00     0.020 A 
ATOM     81  C   UNL A   1      36.504  31.288  40.855  1.00  0.00     0.020 A 
ATOM     82  C   UNL A   1      36.417  32.119  41.966  1.00  0.00     0.054 A 
BRANCH  82  83
ATOM     83  S   UNL A   1      35.523  31.621  43.470  1.00  0.00     0.124 S 
ATOM     84  O   UNL A   1      35.502  32.852  44.255  1.00  0.00    -0.237 OA
ATOM     85  O   UNL A   1      34.229  31.192  42.944  1.00  0.00    -0.237 OA
ATOM     86  O   UNL A   1      36.344  30.547  44.026  1.00  0.00    -0.744 OA
ENDBRANCH  82  83
ENDBRANCH  63  77
BRANCH  64  87
ATOM     87  C   UNL A   1      42.827  33.844  30.717  1.00  0.00    -0.014 A 
ATOM     88  C   UNL A   1      43.302  35.124  30.305  1.00  0.00     0.010 A 
ATOM     89  C   UNL A   1      43.149  32.751  29.876  1.00  0.00     0.010 A 
ATOM     90  C   UNL A   1      44.333  35.247  29.353  1.00  0.00     0.020 A 
ATOM     91  C   UNL A   1      44.173  32.878  28.901  1.00  0.00     0.020 A 
ATOM     92  C   UNL A   1      44.814  34.109  28.710  1.00  0.00     0.054 A 
BRANCH  92  93
ATOM     93  S   UNL A   1      46.450  34.194  27.885  1.00  0.00     0.124 S 
ATOM     94  O   UNL A   1      46.728  35.626  27.877  1.00  0.00    -0.237 OA
ATOM     95  O   UNL A   1      47.305  33.382  28.751  1.00  0.00    -0.237 OA
ATOM     96  O   UNL A   1      46.193  33.594  26.580  1.00  0.00    -0.744 OA
ENDBRANCH  92  93
ENDBRANCH  64  87
BRANCH  76  97
ATOM     97  C   UNL A   1      43.073  36.665  37.778  1.00  0.00    -0.014 A 
ATOM     98  C   UNL A   1      44.188  37.502  37.781  1.00  0.00     0.010 A 
ATOM     99  C   UNL A   1      42.028  37.035  38.680  1.00  0.00     0.010 A 
ATOM    100  C   UNL A   1      44.211  38.687  38.534  1.00  0.00     0.020 A 
ATOM    101  C   UNL A   1      42.032  38.209  39.433  1.00  0.00     0.020 A 
ATOM    102  C   UNL A   1      43.121  39.048  39.328  1.00  0.00     0.054 A 
BRANCH 102 103
ATOM    103  S   UNL A   1      43.152  40.628  40.197  1.00  0.00     0.124 S 
ATOM    104  O   UNL A   1      43.985  41.446  39.319  1.00  0.00    -0.237 OA
ATOM    105  O   UNL A   1      41.736  40.984  40.231  1.00  0.00    -0.237 OA
ATOM    106  O   UNL A   1      43.743  40.308  41.494  1.00  0.00    -0.744 OA
ENDBRANCH 102 103
ENDBRANCH  76  97
ENDBRANCH  50  51
ENDBRANCH  43  45
ENDBRANCH  42  43
ENDBRANCH  41  42
ENDBRANCH  40  41
ENDBRANCH  39  40
ENDBRANCH  38  39
ENDBRANCH  37  38
ENDBRANCH   1  37
TORSDOF 26
ENDMDL
MODEL 3
REMARK VINA RESULT:      -8.7      2.563      8.089
REMARK SMILES Cc1cccc(-c2ncc(C[NH+]3CCC4(CC3)NC(=O)C[C@H]4C(=O)OCCOCCOCCOCCOC(=O)c3ccc(-c4c5nc(c(-c6ccc(S(=O)(=O)[O-])cc6)c6ccc([nH]6)c(-c6ccc(S(=O)(=O)[O-])cc6)c6nc(c(-c7ccc(S(=O)(=O)[O-])cc7)c7ccc4[nH]7)C=C6)C=C5)cc3)cn2)c1
REMARK SMILES IDX 31 1 30 2 29 3 28 4 27 5 26 6 25 7 23 8 24 9 22 10 12 11
REMARK SMILES IDX 13 12 17 13 14 15 16 16 15 17 18 18 19 19 21 21 20 22 11 23
REMARK SMILES IDX 10 24 7 25 8 26 101 27 9 28 100 29 6 30 1 31 2 32 3 33
REMARK SMILES IDX 102 34 4 35 5 36 32 37 33 38 34 39 35 40 36 41 37 42 38 43
REMARK SMILES IDX 39 44 40 45 41 46 99 47 42 48 98 49 43 50 44 51 45 52 92 53
REMARK SMILES IDX 46 54 97 55 91 56 93 57 47 58 96 59 90 60 89 61 48 63 78 64
REMARK SMILES IDX 59 65 77 66 60 67 63 68 76 69 94 70 61 71 62 72 75 74 95 75
REMARK SMILES IDX 64 76 49 77 50 78 58 79 51 80 57 81 52 82 53 83 54 84 55 85
REMARK SMILES IDX 56 86 79 87 80 88 88 89 81 90 87 91 82 92 83 93 84 94 85 95
REMARK SMILES IDX 86 96 65 97 66 98 74 99 67 100 73 101 68 102 69 103 70 104
REMARK SMILES IDX 71 105 72 106
REMARK H PARENT 12 14 18 20 93 62 63 73
REMARK Flexibility Score: inf
ROOT
ATOM      1  O   UNL A   1      37.881  29.603  29.949  1.00  0.00    -0.377 OA
ENDROOT
BRANCH   1   2
ATOM      2  C   UNL A   1      37.953  29.515  28.542  1.00  0.00     0.188 C 
BRANCH   2   3
ATOM      3  C   UNL A   1      36.756  29.962  27.709  1.00  0.00     0.188 C 
BRANCH   3   4
ATOM      4  O   UNL A   1      35.561  29.220  27.895  1.00  0.00    -0.376 OA
BRANCH   4   5
ATOM      5  C   UNL A   1      34.407  29.813  27.344  1.00  0.00     0.202 C 
BRANCH   5   6
ATOM      6  C   UNL A   1      34.121  29.221  25.971  1.00  0.00     0.261 C 
BRANCH   6   7
ATOM      7  O   UNL A   1      33.279  28.049  25.948  1.00  0.00    -0.463 OA
BRANCH   7   8
ATOM      8  C   UNL A   1      31.990  28.234  25.607  1.00  0.00     0.311 C 
ATOM      9  O   UNL A   1      31.037  28.155  26.383  1.00  0.00    -0.252 OA
BRANCH   8  10
ATOM     10  C   UNL A   1      31.791  28.500  24.124  1.00  0.00     0.134 C 
ATOM     11  N   UNL A   1      33.628  24.921  23.434  1.00  0.00    -0.331 N 
ATOM     12  C   UNL A   1      34.139  26.174  22.925  1.00  0.00     0.264 C 
ATOM     13  C   UNL A   1      32.496  25.153  24.293  1.00  0.00     0.264 C 
ATOM     14  H   UNL A   1      34.447  24.597  23.949  1.00  0.00     0.348 HD
ATOM     15  C   UNL A   1      33.078  27.108  22.332  1.00  0.00     0.091 C 
ATOM     16  C   UNL A   1      31.330  25.968  23.752  1.00  0.00     0.091 C 
ATOM     17  C   UNL A   1      31.771  27.292  23.148  1.00  0.00     0.064 C 
ATOM     18  N   UNL A   1      30.731  27.678  22.204  1.00  0.00    -0.349 N 
ATOM     19  C   UNL A   1      29.938  28.717  22.598  1.00  0.00     0.221 C 
ATOM     20  H   UNL A   1      30.609  27.221  21.340  1.00  0.00     0.164 HD
ATOM     21  C   UNL A   1      30.511  29.320  23.842  1.00  0.00     0.117 C 
ATOM     22  O   UNL A   1      28.951  29.095  21.989  1.00  0.00    -0.275 OA
BRANCH  11  23
ATOM     23  C   UNL A   1      33.578  23.689  22.647  1.00  0.00     0.302 C 
BRANCH  23  24
ATOM     24  C   UNL A   1      33.346  22.439  23.440  1.00  0.00     0.043 A 
ATOM     25  C   UNL A   1      33.248  19.903  24.364  1.00  0.00     0.159 A 
ATOM     26  N   UNL A   1      34.309  20.657  24.721  1.00  0.00    -0.236 NA
ATOM     27  N   UNL A   1      32.185  20.346  23.688  1.00  0.00    -0.236 NA
ATOM     28  C   UNL A   1      34.312  21.923  24.270  1.00  0.00     0.124 A 
ATOM     29  C   UNL A   1      32.253  21.614  23.249  1.00  0.00     0.124 A 
BRANCH  25  30
ATOM     30  C   UNL A   1      33.321  18.474  24.647  1.00  0.00     0.019 A 
ATOM     31  C   UNL A   1      35.980  15.827  25.378  1.00  0.00     0.044 C 
ATOM     32  C   UNL A   1      34.647  16.481  25.162  1.00  0.00    -0.050 A 
ATOM     33  C   UNL A   1      33.464  15.761  25.352  1.00  0.00     0.003 A 
ATOM     34  C   UNL A   1      34.564  17.834  24.813  1.00  0.00     0.015 A 
ATOM     35  C   UNL A   1      32.225  16.369  25.145  1.00  0.00     0.001 A 
ATOM     36  C   UNL A   1      32.154  17.714  24.782  1.00  0.00     0.012 A 
ENDBRANCH  25  30
ENDBRANCH  23  24
ENDBRANCH  11  23
ENDBRANCH   8  10
ENDBRANCH   7   8
ENDBRANCH   6   7
ENDBRANCH   5   6
ENDBRANCH   4   5
ENDBRANCH   3   4
ENDBRANCH   2   3
ENDBRANCH   1   2
BRANCH   1  37
ATOM     37  C   UNL A   1      38.385  28.442  30.640  1.00  0.00     0.188 C 
BRANCH  37  38
ATOM     38  C   UNL A   1      38.706  28.725  32.100  1.00  0.00     0.188 C 
BRANCH  38  39
ATOM     39  O   UNL A   1      37.686  29.575  32.601  1.00  0.00    -0.376 OA
BRANCH  39  40
ATOM     40  C   UNL A   1      38.102  30.797  33.149  1.00  0.00     0.202 C 
BRANCH  40  41
ATOM     41  C   UNL A   1      36.911  31.682  33.497  1.00  0.00     0.261 C 
BRANCH  41  42
ATOM     42  O   UNL A   1      36.438  32.294  32.276  1.00  0.00    -0.460 OA
BRANCH  42  43
ATOM     43  C   UNL A   1      36.505  33.657  32.253  1.00  0.00     0.338 C 
ATOM     44  O   UNL A   1      35.650  34.387  32.726  1.00  0.00    -0.246 OA
BRANCH  43  45
ATOM     45  C   UNL A   1      37.724  34.119  31.517  1.00  0.00     0.060 A 
ATOM     46  C   UNL A   1      37.797  34.023  30.114  1.00  0.00     0.016 A 
ATOM     47  C   UNL A   1      38.865  34.473  32.221  1.00  0.00     0.016 A 
ATOM     48  C   UNL A   1      39.032  34.133  29.432  1.00  0.00     0.010 A 
ATOM     49  C   UNL A   1      40.072  34.597  31.540  1.00  0.00     0.010 A 
ATOM     50  C   UNL A   1      40.202  34.359  30.151  1.00  0.00    -0.014 A 
BRANCH  50  51
ATOM     51  C   UNL A   1      41.612  34.175  29.682  1.00  0.00     0.031 A 
ATOM     52  C   UNL A   1      42.235  32.808  29.857  1.00  0.00     0.074 A 
ATOM     53  C   UNL A   1      42.123  35.035  28.759  1.00  0.00     0.049 A 
ATOM     54  N   UNL A   1      43.311  32.364  29.292  1.00  0.00    -0.248 NA
ATOM     55  C   UNL A   1      41.635  31.792  30.727  1.00  0.00     0.031 C 
ATOM     56  C   UNL A   1      42.929  34.684  27.587  1.00  0.00     0.029 A 
ATOM     57  N   UNL A   1      41.960  36.384  28.546  1.00  0.00    -0.354 N 
ATOM     58  C   UNL A   1      43.363  30.981  29.452  1.00  0.00     0.074 A 
ATOM     59  C   UNL A   1      42.327  30.691  30.411  1.00  0.00     0.031 C 
ATOM     60  C   UNL A   1      43.256  35.765  26.864  1.00  0.00     0.029 A 
ATOM     61  C   UNL A   1      42.943  36.891  27.690  1.00  0.00     0.049 A 
ATOM     62  H   UNL A   1      41.241  36.926  28.946  1.00  0.00     0.167 HD
ATOM     63  C   UNL A   1      44.170  30.225  28.639  1.00  0.00     0.031 A 
ATOM     64  C   UNL A   1      43.915  37.712  28.186  1.00  0.00     0.031 A 
ATOM     65  C   UNL A   1      45.172  31.056  27.922  1.00  0.00     0.049 A 
ATOM     66  C   UNL A   1      45.276  36.984  28.362  1.00  0.00     0.074 A 
ATOM     67  C   UNL A   1      45.732  31.094  26.650  1.00  0.00     0.029 A 
ATOM     68  N   UNL A   1      45.672  32.197  28.557  1.00  0.00    -0.354 N 
ATOM     69  N   UNL A   1      45.468  35.689  28.178  1.00  0.00    -0.248 NA
ATOM     70  C   UNL A   1      46.536  37.642  28.692  1.00  0.00     0.031 C 
ATOM     71  C   UNL A   1      46.435  32.333  26.500  1.00  0.00     0.029 A 
ATOM     72  C   UNL A   1      46.419  32.993  27.718  1.00  0.00     0.049 A 
ATOM     73  H   UNL A   1      45.507  32.409  29.505  1.00  0.00     0.167 HD
ATOM     74  C   UNL A   1      46.781  35.332  28.384  1.00  0.00     0.074 A 
ATOM     75  C   UNL A   1      47.405  36.611  28.690  1.00  0.00     0.031 C 
ATOM     76  C   UNL A   1      47.257  34.038  28.307  1.00  0.00     0.031 A 
BRANCH  63  77
ATOM     77  C   UNL A   1      43.936  28.723  28.328  1.00  0.00    -0.014 A 
ATOM     78  C   UNL A   1      42.738  28.094  28.744  1.00  0.00     0.010 A 
ATOM     79  C   UNL A   1      44.876  27.841  27.742  1.00  0.00     0.010 A 
ATOM     80  C   UNL A   1      42.497  26.709  28.609  1.00  0.00     0.020 A 
ATOM     81  C   UNL A   1      44.631  26.457  27.551  1.00  0.00     0.020 A 
ATOM     82  C   UNL A   1      43.441  25.894  27.996  1.00  0.00     0.054 A 
BRANCH  82  83
ATOM     83  S   UNL A   1      43.059  24.133  27.746  1.00  0.00     0.124 S 
ATOM     84  O   UNL A   1      43.648  23.506  28.927  1.00  0.00    -0.237 OA
ATOM     85  O   UNL A   1      41.599  24.128  27.698  1.00  0.00    -0.237 OA
ATOM     86  O   UNL A   1      43.715  23.808  26.481  1.00  0.00    -0.744 OA
ENDBRANCH  82  83
ENDBRANCH  63  77
BRANCH  64  87
ATOM     87  C   UNL A   1      43.237  38.920  28.813  1.00  0.00    -0.014 A 
ATOM     88  C   UNL A   1      43.613  39.107  30.176  1.00  0.00     0.010 A 
ATOM     89  C   UNL A   1      43.081  40.093  28.035  1.00  0.00     0.010 A 
ATOM     90  C   UNL A   1      44.164  40.326  30.619  1.00  0.00     0.020 A 
ATOM     91  C   UNL A   1      43.616  41.328  28.490  1.00  0.00     0.020 A 
ATOM     92  C   UNL A   1      44.230  41.409  29.746  1.00  0.00     0.054 A 
BRANCH  92  93
ATOM     93  S   UNL A   1      45.377  42.784  30.140  1.00  0.00     0.124 S 
ATOM     94  O   UNL A   1      44.888  43.246  31.434  1.00  0.00    -0.237 OA
ATOM     95  O   UNL A   1      46.689  42.136  30.146  1.00  0.00    -0.237 OA
ATOM     96  O   UNL A   1      45.181  43.707  29.026  1.00  0.00    -0.744 OA
ENDBRANCH  92  93
ENDBRANCH  64  87
BRANCH  76  97
ATOM     97  C   UNL A   1      48.580  33.505  28.874  1.00  0.00    -0.014 A 
ATOM     98  C   UNL A   1      49.746  33.269  28.147  1.00  0.00     0.010 A 
ATOM     99  C   UNL A   1      48.684  33.292  30.283  1.00  0.00     0.010 A 
ATOM    100  C   UNL A   1      50.957  32.961  28.787  1.00  0.00     0.020 A 
ATOM    101  C   UNL A   1      49.878  32.991  30.937  1.00  0.00     0.020 A 
ATOM    102  C   UNL A   1      51.023  32.858  30.178  1.00  0.00     0.054 A 
BRANCH 102 103
ATOM    103  S   UNL A   1      52.619  32.565  30.964  1.00  0.00     0.124 S 
ATOM    104  O   UNL A   1      52.650  33.600  31.993  1.00  0.00    -0.237 OA
ATOM    105  O   UNL A   1      52.470  31.197  31.453  1.00  0.00    -0.237 OA
ATOM    106  O   UNL A   1      53.584  32.735  29.881  1.00  0.00    -0.744 OA
ENDBRANCH 102 103
ENDBRANCH  76  97
ENDBRANCH  50  51
ENDBRANCH  43  45
ENDBRANCH  42  43
ENDBRANCH  41  42
ENDBRANCH  40  41
ENDBRANCH  39  40
ENDBRANCH  38  39
ENDBRANCH  37  38
ENDBRANCH   1  37
TORSDOF 26
ENDMDL
