MODEL 1
REMARK VINA RESULT:      -9.1      0.000      0.000
REMARK SMILES C[C@H]([C@@H]1CCCO1)n1c(SCC(=O)OCCOCCOCCOCCOC(=O)c2ccc(-c3c4nc(c(-c5ccc(S(=O)(=O)[O-])cc5)c5ccc([nH]5)c(-c5ccc(S(=O)(=O)[O-])cc5)c5nc(c(-c6ccc(S(=O)(=O)[O-])cc6)c6ccc3[nH]6)C=C5)C=C4)cc2)nc2cnccc21
REMARK SMILES IDX 19 1 18 2 17 3 16 4 15 5 14 6 12 7 13 8 11 9 10 10 9 11 8 12
REMARK SMILES IDX 95 13 89 14 90 15 94 16 91 17 93 18 92 19 2 20 1 21 3 22
REMARK SMILES IDX 4 23 7 24 5 25 6 26 20 27 21 28 22 29 23 30 24 31 25 32
REMARK SMILES IDX 26 33 27 34 28 35 29 36 30 37 88 38 31 39 87 40 32 41 33 42
REMARK SMILES IDX 34 43 81 44 35 45 86 46 80 47 82 48 36 49 85 50 79 51 78 52
REMARK SMILES IDX 37 54 67 55 48 56 66 57 49 58 52 59 65 60 83 61 50 62 51 63
REMARK SMILES IDX 64 65 84 66 53 67 38 68 39 69 47 70 40 71 46 72 41 73 42 74
REMARK SMILES IDX 43 75 44 76 45 77 68 78 69 79 77 80 70 81 76 82 71 83 72 84
REMARK SMILES IDX 73 85 74 86 75 87 54 88 55 89 63 90 56 91 62 92 57 93 58 94
REMARK SMILES IDX 59 95 60 96 61 97
REMARK H PARENT 82 53 52 64
REMARK Flexibility Score: inf
ROOT
ATOM      1  C   UNL A   1      33.777  28.964  27.003  1.00  0.00     0.188 C 
ENDROOT
BRANCH   1   2
ATOM      2  C   UNL A   1      33.869  29.336  25.529  1.00  0.00     0.188 C 
BRANCH   2   3
ATOM      3  O   UNL A   1      32.666  29.470  24.801  1.00  0.00    -0.376 OA
BRANCH   3   4
ATOM      4  C   UNL A   1      31.451  28.986  25.356  1.00  0.00     0.202 C 
BRANCH   4   5
ATOM      5  C   UNL A   1      30.581  27.963  24.607  1.00  0.00     0.261 C 
BRANCH   5   6
ATOM      6  O   UNL A   1      31.274  26.933  23.870  1.00  0.00    -0.463 OA
BRANCH   6   7
ATOM      7  C   UNL A   1      31.129  26.917  22.524  1.00  0.00     0.316 C 
ATOM      8  O   UNL A   1      30.508  27.754  21.876  1.00  0.00    -0.251 OA
BRANCH   7   9
ATOM      9  C   UNL A   1      31.839  25.765  21.867  1.00  0.00     0.200 C 
BRANCH   9  10
ATOM     10  S   UNL A   1      33.528  25.309  22.253  1.00  0.00    -0.076 SA
BRANCH  10  11
ATOM     11  C   UNL A   1      34.119  23.945  23.181  1.00  0.00     0.170 A 
ATOM     12  N   UNL A   1      33.692  22.712  23.709  1.00  0.00    -0.313 N 
ATOM     13  C   UNL A   1      34.875  22.074  24.184  1.00  0.00     0.072 A 
ATOM     14  N   UNL A   1      35.396  24.137  23.493  1.00  0.00    -0.221 NA
ATOM     15  C   UNL A   1      35.884  23.011  24.070  1.00  0.00     0.108 A 
ATOM     16  C   UNL A   1      35.148  20.796  24.702  1.00  0.00     0.049 A 
ATOM     17  C   UNL A   1      37.180  22.697  24.499  1.00  0.00     0.141 A 
ATOM     18  C   UNL A   1      36.464  20.563  25.086  1.00  0.00     0.113 A 
ATOM     19  N   UNL A   1      37.465  21.465  24.999  1.00  0.00    -0.262 NA
BRANCH  12  20
ATOM     20  C   UNL A   1      32.432  21.975  23.923  1.00  0.00     0.116 C 
ATOM     21  C   UNL A   1      31.776  21.351  22.680  1.00  0.00     0.034 C 
BRANCH  20  22
ATOM     22  C   UNL A   1      31.388  22.390  24.976  1.00  0.00     0.141 C 
ATOM     23  C   UNL A   1      30.890  23.805  24.941  1.00  0.00     0.036 C 
ATOM     24  O   UNL A   1      31.951  22.177  26.292  1.00  0.00    -0.376 OA
ATOM     25  C   UNL A   1      30.884  24.245  26.377  1.00  0.00     0.031 C 
ATOM     26  C   UNL A   1      32.037  23.449  26.936  1.00  0.00     0.160 C 
ENDBRANCH  20  22
ENDBRANCH  12  20
ENDBRANCH  10  11
ENDBRANCH   9  10
ENDBRANCH   7   9
ENDBRANCH   6   7
ENDBRANCH   5   6
ENDBRANCH   4   5
ENDBRANCH   3   4
ENDBRANCH   2   3
ENDBRANCH   1   2
BRANCH   1  27
ATOM     27  O   UNL A   1      34.986  29.076  27.684  1.00  0.00    -0.377 OA
BRANCH  27  28
ATOM     28  C   UNL A   1      35.641  30.318  27.621  1.00  0.00     0.188 C 
BRANCH  28  29
ATOM     29  C   UNL A   1      35.127  31.710  28.005  1.00  0.00     0.188 C 
BRANCH  29  30
ATOM     30  O   UNL A   1      35.734  32.290  29.143  1.00  0.00    -0.376 OA
BRANCH  30  31
ATOM     31  C   UNL A   1      35.050  33.366  29.756  1.00  0.00     0.202 C 
BRANCH  31  32
ATOM     32  C   UNL A   1      35.876  34.270  30.681  1.00  0.00     0.261 C 
BRANCH  32  33
ATOM     33  O   UNL A   1      35.463  34.195  32.050  1.00  0.00    -0.460 OA
BRANCH  33  34
ATOM     34  C   UNL A   1      34.924  33.044  32.535  1.00  0.00     0.338 C 
ATOM     35  O   UNL A   1      33.778  32.691  32.497  1.00  0.00    -0.246 OA
BRANCH  34  36
ATOM     36  C   UNL A   1      36.106  32.172  32.795  1.00  0.00     0.060 A 
ATOM     37  C   UNL A   1      37.351  32.735  33.110  1.00  0.00     0.016 A 
ATOM     38  C   UNL A   1      36.018  30.886  32.232  1.00  0.00     0.016 A 
ATOM     39  C   UNL A   1      38.504  32.076  32.671  1.00  0.00     0.010 A 
ATOM     40  C   UNL A   1      37.171  30.248  31.772  1.00  0.00     0.010 A 
ATOM     41  C   UNL A   1      38.406  30.883  31.906  1.00  0.00    -0.014 A 
BRANCH  41  42
ATOM     42  C   UNL A   1      39.658  30.277  31.416  1.00  0.00     0.031 A 
ATOM     43  C   UNL A   1      40.563  30.075  32.565  1.00  0.00     0.074 A 
ATOM     44  C   UNL A   1      40.004  29.815  30.191  1.00  0.00     0.049 A 
ATOM     45  N   UNL A   1      41.670  30.679  32.836  1.00  0.00    -0.248 NA
ATOM     46  C   UNL A   1      39.995  29.279  33.667  1.00  0.00     0.031 C 
ATOM     47  C   UNL A   1      39.161  29.642  29.007  1.00  0.00     0.029 A 
ATOM     48  N   UNL A   1      41.211  29.303  29.769  1.00  0.00    -0.354 N 
ATOM     49  C   UNL A   1      42.027  30.188  34.083  1.00  0.00     0.074 A 
ATOM     50  C   UNL A   1      40.849  29.575  34.640  1.00  0.00     0.031 C 
ATOM     51  C   UNL A   1      39.820  28.916  28.079  1.00  0.00     0.029 A 
ATOM     52  C   UNL A   1      41.138  28.581  28.579  1.00  0.00     0.049 A 
ATOM     53  H   UNL A   1      42.051  29.435  30.265  1.00  0.00     0.167 HD
ATOM     54  C   UNL A   1      43.324  30.024  34.450  1.00  0.00     0.031 A 
ATOM     55  C   UNL A   1      42.019  27.659  28.101  1.00  0.00     0.031 A 
ATOM     56  C   UNL A   1      44.218  30.825  33.662  1.00  0.00     0.049 A 
ATOM     57  C   UNL A   1      43.315  27.880  28.788  1.00  0.00     0.074 A 
ATOM     58  C   UNL A   1      44.333  32.179  33.416  1.00  0.00     0.029 A 
ATOM     59  N   UNL A   1      44.952  30.194  32.685  1.00  0.00    -0.354 N 
ATOM     60  N   UNL A   1      44.075  28.925  28.600  1.00  0.00    -0.248 NA
ATOM     61  C   UNL A   1      43.560  27.141  30.017  1.00  0.00     0.031 C 
ATOM     62  C   UNL A   1      44.754  32.279  32.062  1.00  0.00     0.029 A 
ATOM     63  C   UNL A   1      44.927  30.986  31.565  1.00  0.00     0.049 A 
ATOM     64  H   UNL A   1      45.411  29.329  32.773  1.00  0.00     0.167 HD
ATOM     65  C   UNL A   1      44.584  29.220  29.857  1.00  0.00     0.074 A 
ATOM     66  C   UNL A   1      44.290  28.045  30.673  1.00  0.00     0.031 C 
ATOM     67  C   UNL A   1      44.956  30.488  30.202  1.00  0.00     0.031 A 
BRANCH  54  68
ATOM     68  C   UNL A   1      43.755  28.835  35.267  1.00  0.00    -0.014 A 
ATOM     69  C   UNL A   1      43.681  27.506  34.789  1.00  0.00     0.010 A 
ATOM     70  C   UNL A   1      44.467  29.039  36.460  1.00  0.00     0.010 A 
ATOM     71  C   UNL A   1      44.230  26.430  35.473  1.00  0.00     0.020 A 
ATOM     72  C   UNL A   1      45.079  27.970  37.128  1.00  0.00     0.020 A 
ATOM     73  C   UNL A   1      44.942  26.671  36.635  1.00  0.00     0.054 A 
BRANCH  73  74
ATOM     74  S   UNL A   1      45.746  25.261  37.424  1.00  0.00     0.124 S 
ATOM     75  O   UNL A   1      46.851  25.906  38.128  1.00  0.00    -0.237 OA
ATOM     76  O   UNL A   1      44.682  24.732  38.273  1.00  0.00    -0.237 OA
ATOM     77  O   UNL A   1      46.125  24.414  36.298  1.00  0.00    -0.744 OA
ENDBRANCH  73  74
ENDBRANCH  54  68
BRANCH  55  78
ATOM     78  C   UNL A   1      41.652  26.340  27.485  1.00  0.00    -0.014 A 
ATOM     79  C   UNL A   1      40.875  25.411  28.209  1.00  0.00     0.010 A 
ATOM     80  C   UNL A   1      42.293  25.865  26.322  1.00  0.00     0.010 A 
ATOM     81  C   UNL A   1      40.817  24.060  27.863  1.00  0.00     0.020 A 
ATOM     82  C   UNL A   1      42.251  24.499  25.970  1.00  0.00     0.020 A 
ATOM     83  C   UNL A   1      41.550  23.600  26.776  1.00  0.00     0.054 A 
BRANCH  83  84
ATOM     84  S   UNL A   1      41.663  21.805  26.543  1.00  0.00     0.124 S 
ATOM     85  O   UNL A   1      42.457  21.711  25.320  1.00  0.00    -0.237 OA
ATOM     86  O   UNL A   1      42.343  21.369  27.761  1.00  0.00    -0.237 OA
ATOM     87  O   UNL A   1      40.272  21.381  26.423  1.00  0.00    -0.744 OA
ENDBRANCH  83  84
ENDBRANCH  55  78
BRANCH  67  88
ATOM     88  C   UNL A   1      45.158  31.537  29.128  1.00  0.00    -0.014 A 
ATOM     89  C   UNL A   1      44.051  32.354  28.823  1.00  0.00     0.010 A 
ATOM     90  C   UNL A   1      46.283  31.600  28.283  1.00  0.00     0.010 A 
ATOM     91  C   UNL A   1      44.032  33.154  27.680  1.00  0.00     0.020 A 
ATOM     92  C   UNL A   1      46.284  32.432  27.150  1.00  0.00     0.020 A 
ATOM     93  C   UNL A   1      45.141  33.173  26.836  1.00  0.00     0.054 A 
BRANCH  93  94
ATOM     94  S   UNL A   1      45.033  34.142  25.306  1.00  0.00     0.124 S 
ATOM     95  O   UNL A   1      44.078  35.188  25.666  1.00  0.00    -0.237 OA
ATOM     96  O   UNL A   1      46.409  34.594  25.113  1.00  0.00    -0.237 OA
ATOM     97  O   UNL A   1      44.550  33.185  24.314  1.00  0.00    -0.744 OA
ENDBRANCH  93  94
ENDBRANCH  67  88
ENDBRANCH  41  42
ENDBRANCH  34  36
ENDBRANCH  33  34
ENDBRANCH  32  33
ENDBRANCH  31  32
ENDBRANCH  30  31
ENDBRANCH  29  30
ENDBRANCH  28  29
ENDBRANCH  27  28
ENDBRANCH   1  27
TORSDOF 27
ENDMDL
MODEL 2
REMARK VINA RESULT:      -9.0      1.637      3.043
REMARK SMILES C[C@H]([C@@H]1CCCO1)n1c(SCC(=O)OCCOCCOCCOCCOC(=O)c2ccc(-c3c4nc(c(-c5ccc(S(=O)(=O)[O-])cc5)c5ccc([nH]5)c(-c5ccc(S(=O)(=O)[O-])cc5)c5nc(c(-c6ccc(S(=O)(=O)[O-])cc6)c6ccc3[nH]6)C=C5)C=C4)cc2)nc2cnccc21
REMARK SMILES IDX 19 1 18 2 17 3 16 4 15 5 14 6 12 7 13 8 11 9 10 10 9 11 8 12
REMARK SMILES IDX 95 13 89 14 90 15 94 16 91 17 93 18 92 19 2 20 1 21 3 22
REMARK SMILES IDX 4 23 7 24 5 25 6 26 20 27 21 28 22 29 23 30 24 31 25 32
REMARK SMILES IDX 26 33 27 34 28 35 29 36 30 37 88 38 31 39 87 40 32 41 33 42
REMARK SMILES IDX 34 43 81 44 35 45 86 46 80 47 82 48 36 49 85 50 79 51 78 52
REMARK SMILES IDX 37 54 67 55 48 56 66 57 49 58 52 59 65 60 83 61 50 62 51 63
REMARK SMILES IDX 64 65 84 66 53 67 38 68 39 69 47 70 40 71 46 72 41 73 42 74
REMARK SMILES IDX 43 75 44 76 45 77 68 78 69 79 77 80 70 81 76 82 71 83 72 84
REMARK SMILES IDX 73 85 74 86 75 87 54 88 55 89 63 90 56 91 62 92 57 93 58 94
REMARK SMILES IDX 59 95 60 96 61 97
REMARK H PARENT 82 53 52 64
REMARK Flexibility Score: inf
ROOT
ATOM      1  C   UNL A   1      31.492  27.410  27.262  1.00  0.00     0.188 C 
ENDROOT
BRANCH   1   2
ATOM      2  C   UNL A   1      30.662  26.782  26.149  1.00  0.00     0.188 C 
BRANCH   2   3
ATOM      3  O   UNL A   1      30.989  25.472  25.734  1.00  0.00    -0.376 OA
BRANCH   3   4
ATOM      4  C   UNL A   1      30.649  24.368  26.561  1.00  0.00     0.202 C 
BRANCH   4   5
ATOM      5  C   UNL A   1      31.728  23.557  27.297  1.00  0.00     0.261 C 
BRANCH   5   6
ATOM      6  O   UNL A   1      32.652  22.808  26.478  1.00  0.00    -0.463 OA
BRANCH   6   7
ATOM      7  C   UNL A   1      33.805  22.391  27.051  1.00  0.00     0.316 C 
ATOM      8  O   UNL A   1      33.912  21.410  27.780  1.00  0.00    -0.251 OA
BRANCH   7   9
ATOM      9  C   UNL A   1      34.988  23.246  26.686  1.00  0.00     0.200 C 
BRANCH   9  10
ATOM     10  S   UNL A   1      35.195  23.990  25.069  1.00  0.00    -0.076 SA
BRANCH  10  11
ATOM     11  C   UNL A   1      34.028  24.868  24.100  1.00  0.00     0.170 A 
ATOM     12  N   UNL A   1      32.875  24.661  23.320  1.00  0.00    -0.313 N 
ATOM     13  C   UNL A   1      32.382  25.964  23.020  1.00  0.00     0.072 A 
ATOM     14  N   UNL A   1      34.332  26.161  24.099  1.00  0.00    -0.221 NA
ATOM     15  C   UNL A   1      33.339  26.848  23.482  1.00  0.00     0.108 A 
ATOM     16  C   UNL A   1      31.218  26.443  22.393  1.00  0.00     0.049 A 
ATOM     17  C   UNL A   1      33.165  28.225  23.297  1.00  0.00     0.141 A 
ATOM     18  C   UNL A   1      31.117  27.824  22.269  1.00  0.00     0.113 A 
ATOM     19  N   UNL A   1      32.044  28.708  22.697  1.00  0.00    -0.262 NA
BRANCH  12  20
ATOM     20  C   UNL A   1      32.118  23.536  22.739  1.00  0.00     0.116 C 
ATOM     21  C   UNL A   1      30.641  23.411  23.147  1.00  0.00     0.034 C 
BRANCH  20  22
ATOM     22  C   UNL A   1      32.752  22.163  22.447  1.00  0.00     0.141 C 
ATOM     23  C   UNL A   1      31.875  21.109  21.837  1.00  0.00     0.036 C 
ATOM     24  O   UNL A   1      33.262  21.618  23.686  1.00  0.00    -0.376 OA
ATOM     25  C   UNL A   1      32.197  19.855  22.600  1.00  0.00     0.031 C 
ATOM     26  C   UNL A   1      32.542  20.415  23.958  1.00  0.00     0.160 C 
ENDBRANCH  20  22
ENDBRANCH  12  20
ENDBRANCH  10  11
ENDBRANCH   9  10
ENDBRANCH   7   9
ENDBRANCH   6   7
ENDBRANCH   5   6
ENDBRANCH   4   5
ENDBRANCH   3   4
ENDBRANCH   2   3
ENDBRANCH   1   2
BRANCH   1  27
ATOM     27  O   UNL A   1      31.796  28.751  27.043  1.00  0.00    -0.377 OA
BRANCH  27  28
ATOM     28  C   UNL A   1      33.116  29.156  27.306  1.00  0.00     0.188 C 
BRANCH  28  29
ATOM     29  C   UNL A   1      33.817  30.473  26.952  1.00  0.00     0.188 C 
BRANCH  29  30
ATOM     30  O   UNL A   1      33.429  31.594  27.723  1.00  0.00    -0.376 OA
BRANCH  30  31
ATOM     31  C   UNL A   1      34.457  32.474  28.135  1.00  0.00     0.202 C 
BRANCH  31  32
ATOM     32  C   UNL A   1      34.203  33.277  29.419  1.00  0.00     0.261 C 
BRANCH  32  33
ATOM     33  O   UNL A   1      35.267  33.160  30.370  1.00  0.00    -0.460 OA
BRANCH  33  34
ATOM     34  C   UNL A   1      35.018  32.656  31.610  1.00  0.00     0.338 C 
ATOM     35  O   UNL A   1      33.983  32.667  32.217  1.00  0.00    -0.246 OA
BRANCH  34  36
ATOM     36  C   UNL A   1      36.195  31.784  31.890  1.00  0.00     0.060 A 
ATOM     37  C   UNL A   1      37.457  32.345  32.128  1.00  0.00     0.016 A 
ATOM     38  C   UNL A   1      36.070  30.466  31.415  1.00  0.00     0.016 A 
ATOM     39  C   UNL A   1      38.586  31.640  31.697  1.00  0.00     0.010 A 
ATOM     40  C   UNL A   1      37.198  29.779  30.962  1.00  0.00     0.010 A 
ATOM     41  C   UNL A   1      38.446  30.401  31.016  1.00  0.00    -0.014 A 
BRANCH  41  42
ATOM     42  C   UNL A   1      39.672  29.744  30.527  1.00  0.00     0.031 A 
ATOM     43  C   UNL A   1      40.605  29.589  31.662  1.00  0.00     0.074 A 
ATOM     44  C   UNL A   1      39.975  29.207  29.322  1.00  0.00     0.049 A 
ATOM     45  N   UNL A   1      41.730  30.185  31.868  1.00  0.00    -0.248 NA
ATOM     46  C   UNL A   1      40.053  28.867  32.822  1.00  0.00     0.031 C 
ATOM     47  C   UNL A   1      39.097  28.985  28.173  1.00  0.00     0.029 A 
ATOM     48  N   UNL A   1      41.161  28.648  28.898  1.00  0.00    -0.354 N 
ATOM     49  C   UNL A   1      42.112  29.758  33.131  1.00  0.00     0.074 A 
ATOM     50  C   UNL A   1      40.939  29.201  33.753  1.00  0.00     0.031 C 
ATOM     51  C   UNL A   1      39.716  28.195  27.269  1.00  0.00     0.029 A 
ATOM     52  C   UNL A   1      41.041  27.862  27.753  1.00  0.00     0.049 A 
ATOM     53  H   UNL A   1      42.017  28.791  29.363  1.00  0.00     0.167 HD
ATOM     54  C   UNL A   1      43.415  29.589  33.472  1.00  0.00     0.031 A 
ATOM     55  C   UNL A   1      41.892  26.897  27.305  1.00  0.00     0.031 A 
ATOM     56  C   UNL A   1      44.302  30.326  32.616  1.00  0.00     0.049 A 
ATOM     57  C   UNL A   1      43.211  27.131  27.943  1.00  0.00     0.074 A 
ATOM     58  C   UNL A   1      44.435  31.662  32.291  1.00  0.00     0.029 A 
ATOM     59  N   UNL A   1      44.997  29.627  31.657  1.00  0.00    -0.354 N 
ATOM     60  N   UNL A   1      43.984  28.148  27.676  1.00  0.00    -0.248 NA
ATOM     61  C   UNL A   1      43.476  26.458  29.205  1.00  0.00     0.031 C 
ATOM     62  C   UNL A   1      44.821  31.677  30.923  1.00  0.00     0.029 A 
ATOM     63  C   UNL A   1      44.955  30.355  30.495  1.00  0.00     0.049 A 
ATOM     64  H   UNL A   1      45.443  28.759  31.782  1.00  0.00     0.167 HD
ATOM     65  C   UNL A   1      44.533  28.503  28.900  1.00  0.00     0.074 A 
ATOM     66  C   UNL A   1      44.240  27.382  29.789  1.00  0.00     0.031 C 
ATOM     67  C   UNL A   1      44.938  29.781  29.162  1.00  0.00     0.031 A 
BRANCH  54  68
ATOM     68  C   UNL A   1      43.848  28.439  34.343  1.00  0.00    -0.014 A 
ATOM     69  C   UNL A   1      43.362  27.122  34.175  1.00  0.00     0.010 A 
ATOM     70  C   UNL A   1      44.935  28.606  35.215  1.00  0.00     0.010 A 
ATOM     71  C   UNL A   1      43.881  26.035  34.866  1.00  0.00     0.020 A 
ATOM     72  C   UNL A   1      45.509  27.508  35.872  1.00  0.00     0.020 A 
ATOM     73  C   UNL A   1      44.966  26.233  35.702  1.00  0.00     0.054 A 
BRANCH  73  74
ATOM     74  S   UNL A   1      45.690  24.776  36.482  1.00  0.00     0.124 S 
ATOM     75  O   UNL A   1      46.592  25.380  37.459  1.00  0.00    -0.237 OA
ATOM     76  O   UNL A   1      44.517  24.106  37.037  1.00  0.00    -0.237 OA
ATOM     77  O   UNL A   1      46.337  24.084  35.372  1.00  0.00    -0.744 OA
ENDBRANCH  73  74
ENDBRANCH  54  68
BRANCH  55  78
ATOM     78  C   UNL A   1      41.484  25.554  26.775  1.00  0.00    -0.014 A 
ATOM     79  C   UNL A   1      40.333  24.912  27.279  1.00  0.00     0.010 A 
ATOM     80  C   UNL A   1      42.362  24.769  25.998  1.00  0.00     0.010 A 
ATOM     81  C   UNL A   1      40.112  23.544  27.115  1.00  0.00     0.020 A 
ATOM     82  C   UNL A   1      42.155  23.383  25.836  1.00  0.00     0.020 A 
ATOM     83  C   UNL A   1      41.053  22.774  26.440  1.00  0.00     0.054 A 
BRANCH  83  84
ATOM     84  S   UNL A   1      40.857  20.972  26.500  1.00  0.00     0.124 S 
ATOM     85  O   UNL A   1      42.057  20.518  25.801  1.00  0.00    -0.237 OA
ATOM     86  O   UNL A   1      40.835  20.703  27.936  1.00  0.00    -0.237 OA
ATOM     87  O   UNL A   1      39.598  20.734  25.804  1.00  0.00    -0.744 OA
ENDBRANCH  83  84
ENDBRANCH  55  78
BRANCH  67  88
ATOM     88  C   UNL A   1      45.129  30.764  28.026  1.00  0.00    -0.014 A 
ATOM     89  C   UNL A   1      46.377  31.415  27.954  1.00  0.00     0.010 A 
ATOM     90  C   UNL A   1      44.092  31.220  27.189  1.00  0.00     0.010 A 
ATOM     91  C   UNL A   1      46.569  32.527  27.133  1.00  0.00     0.020 A 
ATOM     92  C   UNL A   1      44.292  32.316  26.332  1.00  0.00     0.020 A 
ATOM     93  C   UNL A   1      45.518  32.986  26.341  1.00  0.00     0.054 A 
BRANCH  93  94
ATOM     94  S   UNL A   1      45.777  34.497  25.370  1.00  0.00     0.124 S 
ATOM     95  O   UNL A   1      45.263  35.533  26.263  1.00  0.00    -0.237 OA
ATOM     96  O   UNL A   1      47.225  34.508  25.171  1.00  0.00    -0.237 OA
ATOM     97  O   UNL A   1      44.988  34.282  24.160  1.00  0.00    -0.744 OA
ENDBRANCH  93  94
ENDBRANCH  67  88
ENDBRANCH  41  42
ENDBRANCH  34  36
ENDBRANCH  33  34
ENDBRANCH  32  33
ENDBRANCH  31  32
ENDBRANCH  30  31
ENDBRANCH  29  30
ENDBRANCH  28  29
ENDBRANCH  27  28
ENDBRANCH   1  27
TORSDOF 27
ENDMDL
MODEL 3
REMARK VINA RESULT:      -7.7      4.145      8.947
REMARK SMILES C[C@H]([C@@H]1CCCO1)n1c(SCC(=O)OCCOCCOCCOCCOC(=O)c2ccc(-c3c4nc(c(-c5ccc(S(=O)(=O)[O-])cc5)c5ccc([nH]5)c(-c5ccc(S(=O)(=O)[O-])cc5)c5nc(c(-c6ccc(S(=O)(=O)[O-])cc6)c6ccc3[nH]6)C=C5)C=C4)cc2)nc2cnccc21
REMARK SMILES IDX 19 1 18 2 17 3 16 4 15 5 14 6 12 7 13 8 11 9 10 10 9 11 8 12
REMARK SMILES IDX 95 13 89 14 90 15 94 16 91 17 93 18 92 19 2 20 1 21 3 22
REMARK SMILES IDX 4 23 7 24 5 25 6 26 20 27 21 28 22 29 23 30 24 31 25 32
REMARK SMILES IDX 26 33 27 34 28 35 29 36 30 37 88 38 31 39 87 40 32 41 33 42
REMARK SMILES IDX 34 43 81 44 35 45 86 46 80 47 82 48 36 49 85 50 79 51 78 52
REMARK SMILES IDX 37 54 67 55 48 56 66 57 49 58 52 59 65 60 83 61 50 62 51 63
REMARK SMILES IDX 64 65 84 66 53 67 38 68 39 69 47 70 40 71 46 72 41 73 42 74
REMARK SMILES IDX 43 75 44 76 45 77 68 78 69 79 77 80 70 81 76 82 71 83 72 84
REMARK SMILES IDX 73 85 74 86 75 87 54 88 55 89 63 90 56 91 62 92 57 93 58 94
REMARK SMILES IDX 59 95 60 96 61 97
REMARK H PARENT 82 53 52 64
REMARK Flexibility Score: inf
ROOT
ATOM      1  C   UNL A   1      33.200  30.351  26.940  1.00  0.00     0.188 C 
ENDROOT
BRANCH   1   2
ATOM      2  C   UNL A   1      33.401  28.852  26.765  1.00  0.00     0.188 C 
BRANCH   2   3
ATOM      3  O   UNL A   1      32.258  28.047  26.559  1.00  0.00    -0.376 OA
BRANCH   3   4
ATOM      4  C   UNL A   1      32.382  26.817  25.860  1.00  0.00     0.202 C 
BRANCH   4   5
ATOM      5  C   UNL A   1      32.809  26.775  24.383  1.00  0.00     0.261 C 
BRANCH   5   6
ATOM      6  O   UNL A   1      31.766  26.943  23.398  1.00  0.00    -0.463 OA
BRANCH   6   7
ATOM      7  C   UNL A   1      31.740  26.080  22.357  1.00  0.00     0.316 C 
ATOM      8  O   UNL A   1      31.203  26.301  21.275  1.00  0.00    -0.251 OA
BRANCH   7   9
ATOM      9  C   UNL A   1      32.470  24.795  22.636  1.00  0.00     0.200 C 
BRANCH   9  10
ATOM     10  S   UNL A   1      31.670  23.342  23.316  1.00  0.00    -0.076 SA
BRANCH  10  11
ATOM     11  C   UNL A   1      32.360  21.774  23.688  1.00  0.00     0.170 A 
ATOM     12  N   UNL A   1      33.089  21.109  24.691  1.00  0.00    -0.313 N 
ATOM     13  C   UNL A   1      33.082  19.734  24.314  1.00  0.00     0.072 A 
ATOM     14  N   UNL A   1      32.116  20.932  22.690  1.00  0.00    -0.221 NA
ATOM     15  C   UNL A   1      32.513  19.688  23.056  1.00  0.00     0.108 A 
ATOM     16  C   UNL A   1      33.520  18.553  24.939  1.00  0.00     0.049 A 
ATOM     17  C   UNL A   1      32.399  18.463  22.385  1.00  0.00     0.141 A 
ATOM     18  C   UNL A   1      33.352  17.381  24.210  1.00  0.00     0.113 A 
ATOM     19  N   UNL A   1      32.813  17.310  22.974  1.00  0.00    -0.262 NA
BRANCH  12  20
ATOM     20  C   UNL A   1      33.837  21.437  25.920  1.00  0.00     0.116 C 
ATOM     21  C   UNL A   1      33.006  21.796  27.162  1.00  0.00     0.034 C 
BRANCH  20  22
ATOM     22  C   UNL A   1      35.192  22.169  25.903  1.00  0.00     0.141 C 
ATOM     23  C   UNL A   1      35.283  23.446  25.121  1.00  0.00     0.036 C 
ATOM     24  O   UNL A   1      36.193  21.275  25.361  1.00  0.00    -0.376 OA
ATOM     25  C   UNL A   1      36.583  23.347  24.376  1.00  0.00     0.031 C 
ATOM     26  C   UNL A   1      36.687  21.859  24.155  1.00  0.00     0.160 C 
ENDBRANCH  20  22
ENDBRANCH  12  20
ENDBRANCH  10  11
ENDBRANCH   9  10
ENDBRANCH   7   9
ENDBRANCH   6   7
ENDBRANCH   5   6
ENDBRANCH   4   5
ENDBRANCH   3   4
ENDBRANCH   2   3
ENDBRANCH   1   2
BRANCH   1  27
ATOM     27  O   UNL A   1      31.864  30.725  27.059  1.00  0.00    -0.377 OA
BRANCH  27  28
ATOM     28  C   UNL A   1      31.527  32.027  26.652  1.00  0.00     0.188 C 
BRANCH  28  29
ATOM     29  C   UNL A   1      32.161  33.365  27.051  1.00  0.00     0.188 C 
BRANCH  29  30
ATOM     30  O   UNL A   1      32.279  33.591  28.442  1.00  0.00    -0.376 OA
BRANCH  30  31
ATOM     31  C   UNL A   1      33.235  34.548  28.857  1.00  0.00     0.202 C 
BRANCH  31  32
ATOM     32  C   UNL A   1      34.301  34.070  29.852  1.00  0.00     0.261 C 
BRANCH  32  33
ATOM     33  O   UNL A   1      35.090  32.987  29.347  1.00  0.00    -0.460 OA
BRANCH  33  34
ATOM     34  C   UNL A   1      35.923  33.188  28.290  1.00  0.00     0.338 C 
ATOM     35  O   UNL A   1      35.665  33.691  27.232  1.00  0.00    -0.246 OA
BRANCH  34  36
ATOM     36  C   UNL A   1      37.286  32.982  28.859  1.00  0.00     0.060 A 
ATOM     37  C   UNL A   1      37.675  31.724  29.340  1.00  0.00     0.016 A 
ATOM     38  C   UNL A   1      37.908  34.156  29.324  1.00  0.00     0.016 A 
ATOM     39  C   UNL A   1      38.550  31.675  30.431  1.00  0.00     0.010 A 
ATOM     40  C   UNL A   1      38.758  34.102  30.430  1.00  0.00     0.010 A 
ATOM     41  C   UNL A   1      39.007  32.874  31.043  1.00  0.00    -0.014 A 
BRANCH  41  42
ATOM     42  C   UNL A   1      39.871  32.750  32.232  1.00  0.00     0.031 A 
ATOM     43  C   UNL A   1      41.235  33.184  31.867  1.00  0.00     0.074 A 
ATOM     44  C   UNL A   1      39.580  32.439  33.517  1.00  0.00     0.049 A 
ATOM     45  N   UNL A   1      42.307  32.473  31.761  1.00  0.00    -0.248 NA
ATOM     46  C   UNL A   1      41.321  34.540  31.298  1.00  0.00     0.031 C 
ATOM     47  C   UNL A   1      38.267  32.278  34.143  1.00  0.00     0.029 A 
ATOM     48  N   UNL A   1      40.436  32.285  34.585  1.00  0.00    -0.354 N 
ATOM     49  C   UNL A   1      43.254  33.362  31.275  1.00  0.00     0.074 A 
ATOM     50  C   UNL A   1      42.533  34.496  30.759  1.00  0.00     0.031 C 
ATOM     51  C   UNL A   1      38.404  32.228  35.486  1.00  0.00     0.029 A 
ATOM     52  C   UNL A   1      39.808  32.334  35.829  1.00  0.00     0.049 A 
ATOM     53  H   UNL A   1      41.406  32.153  34.479  1.00  0.00     0.167 HD
ATOM     54  C   UNL A   1      44.567  33.270  31.609  1.00  0.00     0.031 A 
ATOM     55  C   UNL A   1      40.369  32.592  37.043  1.00  0.00     0.031 A 
ATOM     56  C   UNL A   1      44.920  31.958  32.076  1.00  0.00     0.049 A 
ATOM     57  C   UNL A   1      41.826  32.336  36.926  1.00  0.00     0.074 A 
ATOM     58  C   UNL A   1      44.846  30.691  31.531  1.00  0.00     0.029 A 
ATOM     59  N   UNL A   1      45.094  31.784  33.428  1.00  0.00    -0.354 N 
ATOM     60  N   UNL A   1      42.351  31.152  36.766  1.00  0.00    -0.248 NA
ATOM     61  C   UNL A   1      42.678  33.454  36.550  1.00  0.00     0.031 C 
ATOM     62  C   UNL A   1      44.534  29.833  32.620  1.00  0.00     0.029 A 
ATOM     63  C   UNL A   1      44.486  30.606  33.781  1.00  0.00     0.049 A 
ATOM     64  H   UNL A   1      45.570  32.395  34.035  1.00  0.00     0.167 HD
ATOM     65  C   UNL A   1      43.406  31.351  35.887  1.00  0.00     0.074 A 
ATOM     66  C   UNL A   1      43.602  32.798  35.847  1.00  0.00     0.031 C 
ATOM     67  C   UNL A   1      43.852  30.357  35.064  1.00  0.00     0.031 A 
BRANCH  54  68
ATOM     68  C   UNL A   1      45.393  34.504  31.860  1.00  0.00    -0.014 A 
ATOM     69  C   UNL A   1      46.346  34.992  30.936  1.00  0.00     0.010 A 
ATOM     70  C   UNL A   1      45.069  35.343  32.938  1.00  0.00     0.010 A 
ATOM     71  C   UNL A   1      46.985  36.215  31.091  1.00  0.00     0.020 A 
ATOM     72  C   UNL A   1      45.661  36.606  33.073  1.00  0.00     0.020 A 
ATOM     73  C   UNL A   1      46.626  37.025  32.155  1.00  0.00     0.054 A 
BRANCH  73  74
ATOM     74  S   UNL A   1      47.388  38.657  32.248  1.00  0.00     0.124 S 
ATOM     75  O   UNL A   1      46.499  39.347  33.180  1.00  0.00    -0.237 OA
ATOM     76  O   UNL A   1      48.721  38.350  32.760  1.00  0.00    -0.237 OA
ATOM     77  O   UNL A   1      47.344  39.132  30.869  1.00  0.00    -0.744 OA
ENDBRANCH  73  74
ENDBRANCH  54  68
BRANCH  55  78
ATOM     78  C   UNL A   1      39.796  33.497  38.094  1.00  0.00    -0.014 A 
ATOM     79  C   UNL A   1      39.624  34.872  37.829  1.00  0.00     0.010 A 
ATOM     80  C   UNL A   1      39.687  33.089  39.440  1.00  0.00     0.010 A 
ATOM     81  C   UNL A   1      39.458  35.811  38.848  1.00  0.00     0.020 A 
ATOM     82  C   UNL A   1      39.533  34.031  40.479  1.00  0.00     0.020 A 
ATOM     83  C   UNL A   1      39.469  35.392  40.173  1.00  0.00     0.054 A 
BRANCH  83  84
ATOM     84  S   UNL A   1      39.533  36.673  41.455  1.00  0.00     0.124 S 
ATOM     85  O   UNL A   1      38.814  37.773  40.816  1.00  0.00    -0.237 OA
ATOM     86  O   UNL A   1      38.835  36.039  42.572  1.00  0.00    -0.237 OA
ATOM     87  O   UNL A   1      40.961  36.891  41.659  1.00  0.00    -0.744 OA
ENDBRANCH  83  84
ENDBRANCH  55  78
BRANCH  67  88
ATOM     88  C   UNL A   1      43.453  28.919  35.326  1.00  0.00    -0.014 A 
ATOM     89  C   UNL A   1      44.439  28.078  35.879  1.00  0.00     0.010 A 
ATOM     90  C   UNL A   1      42.262  28.329  34.860  1.00  0.00     0.010 A 
ATOM     91  C   UNL A   1      44.281  26.692  35.905  1.00  0.00     0.020 A 
ATOM     92  C   UNL A   1      42.081  26.936  34.917  1.00  0.00     0.020 A 
ATOM     93  C   UNL A   1      43.110  26.125  35.404  1.00  0.00     0.054 A 
BRANCH  93  94
ATOM     94  S   UNL A   1      42.990  24.315  35.358  1.00  0.00     0.124 S 
ATOM     95  O   UNL A   1      41.574  24.090  35.640  1.00  0.00    -0.237 OA
ATOM     96  O   UNL A   1      43.412  23.999  33.995  1.00  0.00    -0.237 OA
ATOM     97  O   UNL A   1      43.903  23.872  36.408  1.00  0.00    -0.744 OA
ENDBRANCH  93  94
ENDBRANCH  67  88
ENDBRANCH  41  42
ENDBRANCH  34  36
ENDBRANCH  33  34
ENDBRANCH  32  33
ENDBRANCH  31  32
ENDBRANCH  30  31
ENDBRANCH  29  30
ENDBRANCH  28  29
ENDBRANCH  27  28
ENDBRANCH   1  27
TORSDOF 27
ENDMDL
