MODEL 1
REMARK VINA RESULT:      -9.8      0.000      0.000
REMARK SMILES Cc1ccc(C(=O)c2cccc(C)c2C(=O)OCCOCCOCCOCCOC(=O)c2ccc(-c3c4nc(c(-c5ccc(S(=O)(=O)[O-])cc5)c5ccc([nH]5)c(-c5ccc(S(=O)(=O)[O-])cc5)c5nc(c(-c6ccc(S(=O)(=O)[O-])cc6)c6ccc3[nH]6)C=C5)C=C4)cc2)c(C)c1
REMARK SMILES IDX 24 1 23 2 22 3 21 4 20 5 19 6 18 7 17 8 15 9 16 10 14 11
REMARK SMILES IDX 8 12 9 13 10 14 12 15 11 16 13 17 6 18 7 19 5 20 1 21 2 22
REMARK SMILES IDX 3 23 94 24 4 25 92 26 93 27 25 28 26 29 27 30 28 31 29 32
REMARK SMILES IDX 30 33 31 34 32 35 33 36 91 37 34 38 90 39 35 40 36 41 37 42
REMARK SMILES IDX 84 43 38 44 89 45 83 46 85 47 39 48 88 49 82 50 81 51 40 53
REMARK SMILES IDX 70 54 51 55 69 56 52 57 55 58 68 59 86 60 53 61 54 62 67 64
REMARK SMILES IDX 87 65 56 66 41 67 42 68 50 69 43 70 49 71 44 72 45 73 46 74
REMARK SMILES IDX 47 75 48 76 71 77 72 78 80 79 73 80 79 81 74 82 75 83 76 84
REMARK SMILES IDX 77 85 78 86 57 87 58 88 66 89 59 90 65 91 60 92 61 93 62 94
REMARK SMILES IDX 63 95 64 96
REMARK H PARENT 85 52 55 63
REMARK Flexibility Score: inf
ROOT
ATOM      1  C   UNL A   1      51.663  34.739  26.603  1.00  0.00     0.188 C 
ENDROOT
BRANCH   1   2
ATOM      2  O   UNL A   1      51.186  36.071  26.722  1.00  0.00    -0.377 OA
BRANCH   2   3
ATOM      3  C   UNL A   1      51.000  36.408  28.085  1.00  0.00     0.188 C 
BRANCH   3   4
ATOM      4  C   UNL A   1      49.574  36.869  28.486  1.00  0.00     0.188 C 
BRANCH   4   5
ATOM      5  O   UNL A   1      48.871  38.253  28.026  1.00  0.00    -0.376 OA
BRANCH   5   6
ATOM      6  C   UNL A   1      48.501  38.919  26.485  1.00  0.00     0.202 C 
BRANCH   6   7
ATOM      7  C   UNL A   1      47.020  38.966  25.378  1.00  0.00     0.261 C 
BRANCH   7   8
ATOM      8  O   UNL A   1      46.725  39.892  23.812  1.00  0.00    -0.460 OA
BRANCH   8   9
ATOM      9  C   UNL A   1      46.806  41.305  23.005  1.00  0.00     0.339 C 
ATOM     10  O   UNL A   1      47.620  41.268  22.074  1.00  0.00    -0.246 OA
BRANCH   9  11
ATOM     11  C   UNL A   1      45.909  42.885  23.101  1.00  0.00     0.074 A 
ATOM     12  C   UNL A   1      45.783  44.202  22.285  1.00  0.00     0.037 A 
ATOM     13  C   UNL A   1      44.949  45.262  22.733  1.00  0.00     0.013 A 
ATOM     14  C   UNL A   1      44.181  45.177  23.867  1.00  0.00     0.001 A 
ATOM     15  C   UNL A   1      45.050  42.901  24.265  1.00  0.00    -0.036 A 
ATOM     16  C   UNL A   1      44.213  44.010  24.593  1.00  0.00     0.004 A 
ATOM     17  C   UNL A   1      44.881  41.760  25.245  1.00  0.00     0.045 C 
BRANCH  12  18
ATOM     18  C   UNL A   1      46.075  44.633  20.800  1.00  0.00     0.194 C 
ATOM     19  O   UNL A   1      47.109  44.157  20.324  1.00  0.00    -0.289 OA
BRANCH  18  20
ATOM     20  C   UNL A   1      45.086  45.439  19.784  1.00  0.00     0.025 A 
ATOM     21  C   UNL A   1      42.814  47.661  16.677  1.00  0.00     0.044 C 
ATOM     22  C   UNL A   1      43.514  46.880  17.759  1.00  0.00    -0.051 A 
ATOM     23  C   UNL A   1      43.378  45.507  17.952  1.00  0.00     0.004 A 
ATOM     24  C   UNL A   1      44.353  47.546  18.640  1.00  0.00     0.007 A 
ATOM     25  C   UNL A   1      44.125  44.809  18.957  1.00  0.00     0.013 A 
ATOM     26  C   UNL A   1      45.137  46.866  19.629  1.00  0.00    -0.040 A 
ATOM     27  C   UNL A   1      45.888  47.846  20.496  1.00  0.00     0.045 C 
ENDBRANCH  18  20
ENDBRANCH  12  18
ENDBRANCH   9  11
ENDBRANCH   8   9
ENDBRANCH   7   8
ENDBRANCH   6   7
ENDBRANCH   5   6
ENDBRANCH   4   5
ENDBRANCH   3   4
ENDBRANCH   2   3
ENDBRANCH   1   2
BRANCH   1  28
ATOM     28  C   UNL A   1      50.602  33.758  26.094  1.00  0.00     0.188 C 
BRANCH  28  29
ATOM     29  O   UNL A   1      49.753  33.220  27.089  1.00  0.00    -0.376 OA
BRANCH  29  30
ATOM     30  C   UNL A   1      50.232  32.233  27.974  1.00  0.00     0.202 C 
BRANCH  30  31
ATOM     31  C   UNL A   1      49.018  31.454  28.452  1.00  0.00     0.261 C 
BRANCH  31  32
ATOM     32  O   UNL A   1      49.240  30.017  28.376  1.00  0.00    -0.460 OA
BRANCH  32  33
ATOM     33  C   UNL A   1      49.144  29.446  27.136  1.00  0.00     0.338 C 
ATOM     34  O   UNL A   1      50.107  29.242  26.405  1.00  0.00    -0.246 OA
BRANCH  33  35
ATOM     35  C   UNL A   1      47.713  29.121  26.814  1.00  0.00     0.060 A 
ATOM     36  C   UNL A   1      47.074  29.707  25.732  1.00  0.00     0.016 A 
ATOM     37  C   UNL A   1      46.922  28.424  27.733  1.00  0.00     0.016 A 
ATOM     38  C   UNL A   1      45.663  29.755  25.723  1.00  0.00     0.010 A 
ATOM     39  C   UNL A   1      45.541  28.686  27.823  1.00  0.00     0.010 A 
ATOM     40  C   UNL A   1      44.891  29.520  26.897  1.00  0.00    -0.014 A 
BRANCH  40  41
ATOM     41  C   UNL A   1      43.282  30.019  27.214  1.00  0.00     0.031 A 
ATOM     42  C   UNL A   1      43.863  31.394  28.191  1.00  0.00     0.074 A 
ATOM     43  C   UNL A   1      41.763  29.260  27.091  1.00  0.00     0.049 A 
ATOM     44  N   UNL A   1      43.465  31.699  29.407  1.00  0.00    -0.248 NA
ATOM     45  C   UNL A   1      45.139  32.144  27.994  1.00  0.00     0.031 C 
ATOM     46  C   UNL A   1      40.281  29.548  27.702  1.00  0.00     0.029 A 
ATOM     47  N   UNL A   1      41.230  27.812  26.820  1.00  0.00    -0.354 N 
ATOM     48  C   UNL A   1      43.856  32.956  29.685  1.00  0.00     0.074 A 
ATOM     49  C   UNL A   1      45.123  33.015  29.016  1.00  0.00     0.031 C 
ATOM     50  C   UNL A   1      39.474  28.544  27.936  1.00  0.00     0.029 A 
ATOM     51  C   UNL A   1      40.204  27.401  27.723  1.00  0.00     0.049 A 
ATOM     52  H   UNL A   1      41.570  27.239  26.096  1.00  0.00     0.167 HD
ATOM     53  C   UNL A   1      42.934  33.859  30.139  1.00  0.00     0.031 A 
ATOM     54  C   UNL A   1      40.078  26.443  28.688  1.00  0.00     0.031 A 
ATOM     55  C   UNL A   1      41.563  33.252  30.389  1.00  0.00     0.049 A 
ATOM     56  C   UNL A   1      39.731  27.188  30.058  1.00  0.00     0.074 A 
ATOM     57  C   UNL A   1      40.322  33.489  29.806  1.00  0.00     0.029 A 
ATOM     58  N   UNL A   1      41.371  32.035  31.108  1.00  0.00    -0.354 N 
ATOM     59  N   UNL A   1      40.170  28.399  30.363  1.00  0.00    -0.248 NA
ATOM     60  C   UNL A   1      38.634  26.819  30.937  1.00  0.00     0.031 C 
ATOM     61  C   UNL A   1      39.443  32.393  30.088  1.00  0.00     0.029 A 
ATOM     62  C   UNL A   1      40.090  31.464  30.905  1.00  0.00     0.049 A 
ATOM     63  H   UNL A   1      42.059  31.634  31.687  1.00  0.00     0.167 HD
ATOM     64  C   UNL A   1      39.400  29.032  31.321  1.00  0.00     0.074 A 
ATOM     65  C   UNL A   1      38.452  27.956  31.646  1.00  0.00     0.031 C 
ATOM     66  C   UNL A   1      39.501  30.361  31.745  1.00  0.00     0.031 A 
BRANCH  53  67
ATOM     67  C   UNL A   1      43.237  35.359  29.925  1.00  0.00    -0.014 A 
ATOM     68  C   UNL A   1      44.020  36.101  30.829  1.00  0.00     0.010 A 
ATOM     69  C   UNL A   1      42.718  36.115  28.842  1.00  0.00     0.010 A 
ATOM     70  C   UNL A   1      44.219  37.495  30.693  1.00  0.00     0.020 A 
ATOM     71  C   UNL A   1      42.871  37.505  28.710  1.00  0.00     0.020 A 
ATOM     72  C   UNL A   1      43.633  38.193  29.637  1.00  0.00     0.054 A 
BRANCH  72  73
ATOM     73  S   UNL A   1      43.925  39.973  29.436  1.00  0.00     0.124 S 
ATOM     74  O   UNL A   1      42.724  40.420  28.736  1.00  0.00    -0.237 OA
ATOM     75  O   UNL A   1      44.058  40.429  30.817  1.00  0.00    -0.237 OA
ATOM     76  O   UNL A   1      45.155  40.039  28.647  1.00  0.00    -0.744 OA
ENDBRANCH  72  73
ENDBRANCH  53  67
BRANCH  54  77
ATOM     77  C   UNL A   1      40.805  25.179  28.402  1.00  0.00    -0.014 A 
ATOM     78  C   UNL A   1      40.124  24.229  27.592  1.00  0.00     0.010 A 
ATOM     79  C   UNL A   1      42.185  25.033  28.573  1.00  0.00     0.010 A 
ATOM     80  C   UNL A   1      40.821  23.287  26.827  1.00  0.00     0.020 A 
ATOM     81  C   UNL A   1      42.890  24.107  27.784  1.00  0.00     0.020 A 
ATOM     82  C   UNL A   1      42.212  23.269  26.889  1.00  0.00     0.054 A 
BRANCH  82  83
ATOM     83  S   UNL A   1      43.167  22.304  25.674  1.00  0.00     0.124 S 
ATOM     84  O   UNL A   1      42.428  21.050  25.622  1.00  0.00    -0.237 OA
ATOM     85  O   UNL A   1      43.098  23.117  24.460  1.00  0.00    -0.237 OA
ATOM     86  O   UNL A   1      44.490  22.240  26.288  1.00  0.00    -0.744 OA
ENDBRANCH  82  83
ENDBRANCH  54  77
BRANCH  66  87
ATOM     87  C   UNL A   1      38.903  30.892  33.063  1.00  0.00    -0.014 A 
ATOM     88  C   UNL A   1      39.399  30.634  34.343  1.00  0.00     0.010 A 
ATOM     89  C   UNL A   1      37.822  31.820  33.005  1.00  0.00     0.010 A 
ATOM     90  C   UNL A   1      38.880  31.265  35.482  1.00  0.00     0.020 A 
ATOM     91  C   UNL A   1      37.317  32.486  34.123  1.00  0.00     0.020 A 
ATOM     92  C   UNL A   1      37.862  32.206  35.363  1.00  0.00     0.054 A 
BRANCH  92  93
ATOM     93  S   UNL A   1      37.333  33.096  36.837  1.00  0.00     0.124 S 
ATOM     94  O   UNL A   1      38.422  34.052  37.022  1.00  0.00    -0.237 OA
ATOM     95  O   UNL A   1      36.059  33.672  36.409  1.00  0.00    -0.237 OA
ATOM     96  O   UNL A   1      37.230  32.059  37.860  1.00  0.00    -0.744 OA
ENDBRANCH  92  93
ENDBRANCH  66  87
ENDBRANCH  40  41
ENDBRANCH  33  35
ENDBRANCH  32  33
ENDBRANCH  31  32
ENDBRANCH  30  31
ENDBRANCH  29  30
ENDBRANCH  28  29
ENDBRANCH   1  28
TORSDOF 25
ENDMDL
MODEL 2
REMARK VINA RESULT:      -9.7      3.835     10.402
REMARK SMILES Cc1ccc(C(=O)c2cccc(C)c2C(=O)OCCOCCOCCOCCOC(=O)c2ccc(-c3c4nc(c(-c5ccc(S(=O)(=O)[O-])cc5)c5ccc([nH]5)c(-c5ccc(S(=O)(=O)[O-])cc5)c5nc(c(-c6ccc(S(=O)(=O)[O-])cc6)c6ccc3[nH]6)C=C5)C=C4)cc2)c(C)c1
REMARK SMILES IDX 24 1 23 2 22 3 21 4 20 5 19 6 18 7 17 8 15 9 16 10 14 11
REMARK SMILES IDX 8 12 9 13 10 14 12 15 11 16 13 17 6 18 7 19 5 20 1 21 2 22
REMARK SMILES IDX 3 23 94 24 4 25 92 26 93 27 25 28 26 29 27 30 28 31 29 32
REMARK SMILES IDX 30 33 31 34 32 35 33 36 91 37 34 38 90 39 35 40 36 41 37 42
REMARK SMILES IDX 84 43 38 44 89 45 83 46 85 47 39 48 88 49 82 50 81 51 40 53
REMARK SMILES IDX 70 54 51 55 69 56 52 57 55 58 68 59 86 60 53 61 54 62 67 64
REMARK SMILES IDX 87 65 56 66 41 67 42 68 50 69 43 70 49 71 44 72 45 73 46 74
REMARK SMILES IDX 47 75 48 76 71 77 72 78 80 79 73 80 79 81 74 82 75 83 76 84
REMARK SMILES IDX 77 85 78 86 57 87 58 88 66 89 59 90 65 91 60 92 61 93 62 94
REMARK SMILES IDX 63 95 64 96
REMARK H PARENT 85 52 55 63
REMARK Flexibility Score: inf
ROOT
ATOM      1  C   UNL A   1      46.021  41.227  25.771  1.00  0.00     0.188 C 
ENDROOT
BRANCH   1   2
ATOM      2  O   UNL A   1      46.854  42.366  25.924  1.00  0.00    -0.377 OA
BRANCH   2   3
ATOM      3  C   UNL A   1      46.983  43.052  24.690  1.00  0.00     0.188 C 
BRANCH   3   4
ATOM      4  C   UNL A   1      46.166  44.362  24.548  1.00  0.00     0.188 C 
BRANCH   4   5
ATOM      5  O   UNL A   1      45.934  45.456  25.720  1.00  0.00    -0.376 OA
BRANCH   5   6
ATOM      6  C   UNL A   1      46.232  45.434  27.413  1.00  0.00     0.202 C 
BRANCH   6   7
ATOM      7  C   UNL A   1      46.910  44.216  28.628  1.00  0.00     0.261 C 
BRANCH   7   8
ATOM      8  O   UNL A   1      46.320  43.747  30.310  1.00  0.00    -0.460 OA
BRANCH   8   9
ATOM      9  C   UNL A   1      45.140  43.821  31.432  1.00  0.00     0.339 C 
ATOM     10  O   UNL A   1      44.310  44.703  31.183  1.00  0.00    -0.246 OA
BRANCH   9  11
ATOM     11  C   UNL A   1      44.718  42.844  32.908  1.00  0.00     0.074 A 
ATOM     12  C   UNL A   1      43.837  41.619  33.278  1.00  0.00     0.037 A 
ATOM     13  C   UNL A   1      43.756  41.156  34.620  1.00  0.00     0.013 A 
ATOM     14  C   UNL A   1      44.470  41.720  35.647  1.00  0.00     0.001 A 
ATOM     15  C   UNL A   1      45.432  43.349  34.061  1.00  0.00    -0.036 A 
ATOM     16  C   UNL A   1      45.309  42.771  35.361  1.00  0.00     0.004 A 
ATOM     17  C   UNL A   1      46.421  44.495  34.047  1.00  0.00     0.045 C 
BRANCH  12  18
ATOM     18  C   UNL A   1      43.200  40.416  32.488  1.00  0.00     0.194 C 
ATOM     19  O   UNL A   1      42.846  39.470  33.197  1.00  0.00    -0.289 OA
BRANCH  18  20
ATOM     20  C   UNL A   1      42.775  40.371  30.915  1.00  0.00     0.025 A 
ATOM     21  C   UNL A   1      41.415  39.756  26.728  1.00  0.00     0.044 C 
ATOM     22  C   UNL A   1      41.874  40.045  28.135  1.00  0.00    -0.051 A 
ATOM     23  C   UNL A   1      41.175  40.838  29.043  1.00  0.00     0.004 A 
ATOM     24  C   UNL A   1      43.069  39.502  28.582  1.00  0.00     0.007 A 
ATOM     25  C   UNL A   1      41.630  41.019  30.390  1.00  0.00     0.013 A 
ATOM     26  C   UNL A   1      43.525  39.638  29.934  1.00  0.00    -0.040 A 
ATOM     27  C   UNL A   1      44.889  39.020  30.112  1.00  0.00     0.045 C 
ENDBRANCH  18  20
ENDBRANCH  12  18
ENDBRANCH   9  11
ENDBRANCH   8   9
ENDBRANCH   7   8
ENDBRANCH   6   7
ENDBRANCH   5   6
ENDBRANCH   4   5
ENDBRANCH   3   4
ENDBRANCH   2   3
ENDBRANCH   1   2
BRANCH   1  28
ATOM     28  C   UNL A   1      46.773  39.989  25.272  1.00  0.00     0.188 C 
BRANCH  28  29
ATOM     29  O   UNL A   1      46.191  38.749  25.621  1.00  0.00    -0.376 OA
BRANCH  29  30
ATOM     30  C   UNL A   1      46.909  37.825  26.409  1.00  0.00     0.202 C 
BRANCH  30  31
ATOM     31  C   UNL A   1      45.875  36.976  27.130  1.00  0.00     0.261 C 
BRANCH  31  32
ATOM     32  O   UNL A   1      44.552  37.129  26.543  1.00  0.00    -0.460 OA
BRANCH  32  33
ATOM     33  C   UNL A   1      43.624  36.176  26.862  1.00  0.00     0.338 C 
ATOM     34  O   UNL A   1      42.435  36.415  27.042  1.00  0.00    -0.246 OA
BRANCH  33  35
ATOM     35  C   UNL A   1      44.271  34.823  26.960  1.00  0.00     0.060 A 
ATOM     36  C   UNL A   1      43.850  33.771  26.163  1.00  0.00     0.016 A 
ATOM     37  C   UNL A   1      45.129  34.525  28.024  1.00  0.00     0.016 A 
ATOM     38  C   UNL A   1      44.129  32.450  26.579  1.00  0.00     0.010 A 
ATOM     39  C   UNL A   1      45.193  33.216  28.541  1.00  0.00     0.010 A 
ATOM     40  C   UNL A   1      44.533  32.147  27.911  1.00  0.00    -0.014 A 
BRANCH  40  41
ATOM     41  C   UNL A   1      44.417  30.645  28.728  1.00  0.00     0.031 A 
ATOM     42  C   UNL A   1      45.510  29.876  27.546  1.00  0.00     0.074 A 
ATOM     43  C   UNL A   1      43.334  30.004  29.874  1.00  0.00     0.049 A 
ATOM     44  N   UNL A   1      45.278  28.757  26.896  1.00  0.00    -0.248 NA
ATOM     45  C   UNL A   1      46.617  30.543  26.800  1.00  0.00     0.031 C 
ATOM     46  C   UNL A   1      42.970  28.506  30.400  1.00  0.00     0.029 A 
ATOM     47  N   UNL A   1      41.962  30.420  30.506  1.00  0.00    -0.354 N 
ATOM     48  C   UNL A   1      46.434  28.320  26.364  1.00  0.00     0.074 A 
ATOM     49  C   UNL A   1      47.068  29.556  26.008  1.00  0.00     0.031 C 
ATOM     50  C   UNL A   1      41.756  28.246  30.818  1.00  0.00     0.029 A 
ATOM     51  C   UNL A   1      41.005  29.363  30.545  1.00  0.00     0.049 A 
ATOM     52  H   UNL A   1      41.777  31.326  30.844  1.00  0.00     0.167 HD
ATOM     53  C   UNL A   1      46.836  27.034  26.599  1.00  0.00     0.031 A 
ATOM     54  C   UNL A   1      39.793  29.120  29.962  1.00  0.00     0.031 A 
ATOM     55  C   UNL A   1      45.813  26.210  27.363  1.00  0.00     0.049 A 
ATOM     56  C   UNL A   1      39.923  27.755  29.142  1.00  0.00     0.074 A 
ATOM     57  C   UNL A   1      45.856  25.602  28.613  1.00  0.00     0.029 A 
ATOM     58  N   UNL A   1      44.429  26.177  27.020  1.00  0.00    -0.354 N 
ATOM     59  N   UNL A   1      41.044  27.356  28.560  1.00  0.00    -0.248 NA
ATOM     60  C   UNL A   1      38.991  26.645  29.243  1.00  0.00     0.031 C 
ATOM     61  C   UNL A   1      44.523  25.305  29.049  1.00  0.00     0.029 A 
ATOM     62  C   UNL A   1      43.610  25.665  28.057  1.00  0.00     0.049 A 
ATOM     63  H   UNL A   1      44.079  26.480  26.151  1.00  0.00     0.167 HD
ATOM     64  C   UNL A   1      41.083  25.992  28.334  1.00  0.00     0.074 A 
ATOM     65  C   UNL A   1      39.735  25.614  28.783  1.00  0.00     0.031 C 
ATOM     66  C   UNL A   1      42.174  25.241  27.885  1.00  0.00     0.031 A 
BRANCH  53  67
ATOM     67  C   UNL A   1      48.345  26.724  26.479  1.00  0.00    -0.014 A 
ATOM     68  C   UNL A   1      49.201  26.726  27.596  1.00  0.00     0.010 A 
ATOM     69  C   UNL A   1      48.995  26.465  25.244  1.00  0.00     0.010 A 
ATOM     70  C   UNL A   1      50.599  26.541  27.481  1.00  0.00     0.020 A 
ATOM     71  C   UNL A   1      50.384  26.319  25.104  1.00  0.00     0.020 A 
ATOM     72  C   UNL A   1      51.186  26.349  26.231  1.00  0.00     0.054 A 
BRANCH  72  73
ATOM     73  S   UNL A   1      52.972  26.067  26.086  1.00  0.00     0.124 S 
ATOM     74  O   UNL A   1      53.273  26.576  24.751  1.00  0.00    -0.237 OA
ATOM     75  O   UNL A   1      53.506  26.851  27.196  1.00  0.00    -0.237 OA
ATOM     76  O   UNL A   1      53.112  24.618  26.235  1.00  0.00    -0.744 OA
ENDBRANCH  72  73
ENDBRANCH  53  67
BRANCH  54  77
ATOM     77  C   UNL A   1      38.956  30.329  29.752  1.00  0.00    -0.014 A 
ATOM     78  C   UNL A   1      38.246  30.399  28.522  1.00  0.00     0.010 A 
ATOM     79  C   UNL A   1      38.564  31.180  30.790  1.00  0.00     0.010 A 
ATOM     80  C   UNL A   1      37.071  31.148  28.398  1.00  0.00     0.020 A 
ATOM     81  C   UNL A   1      37.368  31.911  30.677  1.00  0.00     0.020 A 
ATOM     82  C   UNL A   1      36.609  31.860  29.501  1.00  0.00     0.054 A 
BRANCH  82  83
ATOM     83  S   UNL A   1      34.929  32.566  29.495  1.00  0.00     0.124 S 
ATOM     84  O   UNL A   1      35.165  33.927  29.032  1.00  0.00    -0.237 OA
ATOM     85  O   UNL A   1      34.201  31.709  28.560  1.00  0.00    -0.237 OA
ATOM     86  O   UNL A   1      34.521  32.429  30.889  1.00  0.00    -0.744 OA
ENDBRANCH  82  83
ENDBRANCH  54  77
BRANCH  66  87
ATOM     87  C   UNL A   1      42.055  23.827  27.281  1.00  0.00    -0.014 A 
ATOM     88  C   UNL A   1      42.975  23.234  26.414  1.00  0.00     0.010 A 
ATOM     89  C   UNL A   1      40.990  22.982  27.712  1.00  0.00     0.010 A 
ATOM     90  C   UNL A   1      42.863  21.894  26.017  1.00  0.00     0.020 A 
ATOM     91  C   UNL A   1      40.885  21.635  27.358  1.00  0.00     0.020 A 
ATOM     92  C   UNL A   1      41.836  21.096  26.512  1.00  0.00     0.054 A 
BRANCH  92  93
ATOM     93  S   UNL A   1      41.824  19.345  26.089  1.00  0.00     0.124 S 
ATOM     94  O   UNL A   1      42.254  18.727  27.341  1.00  0.00    -0.237 OA
ATOM     95  O   UNL A   1      40.424  19.125  25.731  1.00  0.00    -0.237 OA
ATOM     96  O   UNL A   1      42.770  19.240  24.982  1.00  0.00    -0.744 OA
ENDBRANCH  92  93
ENDBRANCH  66  87
ENDBRANCH  40  41
ENDBRANCH  33  35
ENDBRANCH  32  33
ENDBRANCH  31  32
ENDBRANCH  30  31
ENDBRANCH  29  30
ENDBRANCH  28  29
ENDBRANCH   1  28
TORSDOF 25
ENDMDL
MODEL 3
REMARK VINA RESULT:      -9.3      3.392      9.439
REMARK SMILES Cc1ccc(C(=O)c2cccc(C)c2C(=O)OCCOCCOCCOCCOC(=O)c2ccc(-c3c4nc(c(-c5ccc(S(=O)(=O)[O-])cc5)c5ccc([nH]5)c(-c5ccc(S(=O)(=O)[O-])cc5)c5nc(c(-c6ccc(S(=O)(=O)[O-])cc6)c6ccc3[nH]6)C=C5)C=C4)cc2)c(C)c1
REMARK SMILES IDX 24 1 23 2 22 3 21 4 20 5 19 6 18 7 17 8 15 9 16 10 14 11
REMARK SMILES IDX 8 12 9 13 10 14 12 15 11 16 13 17 6 18 7 19 5 20 1 21 2 22
REMARK SMILES IDX 3 23 94 24 4 25 92 26 93 27 25 28 26 29 27 30 28 31 29 32
REMARK SMILES IDX 30 33 31 34 32 35 33 36 91 37 34 38 90 39 35 40 36 41 37 42
REMARK SMILES IDX 84 43 38 44 89 45 83 46 85 47 39 48 88 49 82 50 81 51 40 53
REMARK SMILES IDX 70 54 51 55 69 56 52 57 55 58 68 59 86 60 53 61 54 62 67 64
REMARK SMILES IDX 87 65 56 66 41 67 42 68 50 69 43 70 49 71 44 72 45 73 46 74
REMARK SMILES IDX 47 75 48 76 71 77 72 78 80 79 73 80 79 81 74 82 75 83 76 84
REMARK SMILES IDX 77 85 78 86 57 87 58 88 66 89 59 90 65 91 60 92 61 93 62 94
REMARK SMILES IDX 63 95 64 96
REMARK H PARENT 85 52 55 63
REMARK Flexibility Score: inf
ROOT
ATOM      1  C   UNL A   1      46.363  40.930  25.882  1.00  0.00     0.188 C 
ENDROOT
BRANCH   1   2
ATOM      2  O   UNL A   1      47.446  41.838  26.014  1.00  0.00    -0.377 OA
BRANCH   2   3
ATOM      3  C   UNL A   1      48.062  41.690  27.282  1.00  0.00     0.188 C 
BRANCH   3   4
ATOM      4  C   UNL A   1      47.573  42.655  28.394  1.00  0.00     0.188 C 
BRANCH   4   5
ATOM      5  O   UNL A   1      47.957  44.223  28.511  1.00  0.00    -0.376 OA
BRANCH   5   6
ATOM      6  C   UNL A   1      47.246  45.651  27.869  1.00  0.00     0.202 C 
BRANCH   6   7
ATOM      7  C   UNL A   1      45.783  46.046  26.809  1.00  0.00     0.261 C 
BRANCH   7   8
ATOM      8  O   UNL A   1      45.020  45.104  25.421  1.00  0.00    -0.460 OA
BRANCH   8   9
ATOM      9  C   UNL A   1      45.212  44.361  23.983  1.00  0.00     0.339 C 
ATOM     10  O   UNL A   1      46.391  44.060  23.764  1.00  0.00    -0.246 OA
BRANCH   9  11
ATOM     11  C   UNL A   1      44.080  43.794  22.676  1.00  0.00     0.074 A 
ATOM     12  C   UNL A   1      43.882  43.985  21.147  1.00  0.00     0.037 A 
ATOM     13  C   UNL A   1      42.805  43.354  20.466  1.00  0.00     0.013 A 
ATOM     14  C   UNL A   1      41.916  42.517  21.091  1.00  0.00     0.001 A 
ATOM     15  C   UNL A   1      43.097  42.886  23.228  1.00  0.00    -0.036 A 
ATOM     16  C   UNL A   1      42.084  42.270  22.434  1.00  0.00     0.004 A 
ATOM     17  C   UNL A   1      43.035  42.432  24.670  1.00  0.00     0.045 C 
BRANCH  12  18
ATOM     18  C   UNL A   1      44.789  44.448  19.948  1.00  0.00     0.194 C 
ATOM     19  O   UNL A   1      45.642  43.624  19.605  1.00  0.00    -0.289 OA
BRANCH  18  20
ATOM     20  C   UNL A   1      44.595  45.761  19.000  1.00  0.00     0.025 A 
ATOM     21  C   UNL A   1      43.547  49.341  16.583  1.00  0.00     0.044 C 
ATOM     22  C   UNL A   1      43.980  48.151  17.401  1.00  0.00    -0.051 A 
ATOM     23  C   UNL A   1      44.673  48.234  18.607  1.00  0.00     0.004 A 
ATOM     24  C   UNL A   1      43.686  46.874  16.946  1.00  0.00     0.007 A 
ATOM     25  C   UNL A   1      44.997  47.067  19.373  1.00  0.00     0.013 A 
ATOM     26  C   UNL A   1      43.966  45.694  17.711  1.00  0.00    -0.040 A 
ATOM     27  C   UNL A   1      43.617  44.449  16.936  1.00  0.00     0.045 C 
ENDBRANCH  18  20
ENDBRANCH  12  18
ENDBRANCH   9  11
ENDBRANCH   8   9
ENDBRANCH   7   8
ENDBRANCH   6   7
ENDBRANCH   5   6
ENDBRANCH   4   5
ENDBRANCH   3   4
ENDBRANCH   2   3
ENDBRANCH   1   2
BRANCH   1  28
ATOM     28  C   UNL A   1      46.714  39.682  25.065  1.00  0.00     0.188 C 
BRANCH  28  29
ATOM     29  O   UNL A   1      46.335  38.452  25.651  1.00  0.00    -0.376 OA
BRANCH  29  30
ATOM     30  C   UNL A   1      47.273  37.407  25.776  1.00  0.00     0.202 C 
BRANCH  30  31
ATOM     31  C   UNL A   1      46.672  36.399  26.742  1.00  0.00     0.261 C 
BRANCH  31  32
ATOM     32  O   UNL A   1      45.252  36.644  26.956  1.00  0.00    -0.460 OA
BRANCH  32  33
ATOM     33  C   UNL A   1      44.573  35.710  27.689  1.00  0.00     0.338 C 
ATOM     34  O   UNL A   1      43.541  35.949  28.307  1.00  0.00    -0.246 OA
BRANCH  33  35
ATOM     35  C   UNL A   1      45.270  34.380  27.628  1.00  0.00     0.060 A 
ATOM     36  C   UNL A   1      44.894  33.420  26.703  1.00  0.00     0.016 A 
ATOM     37  C   UNL A   1      46.133  33.986  28.656  1.00  0.00     0.016 A 
ATOM     38  C   UNL A   1      45.220  32.069  26.957  1.00  0.00     0.010 A 
ATOM     39  C   UNL A   1      46.243  32.627  29.008  1.00  0.00     0.010 A 
ATOM     40  C   UNL A   1      45.629  31.620  28.246  1.00  0.00    -0.014 A 
BRANCH  40  41
ATOM     41  C   UNL A   1      45.565  30.025  28.871  1.00  0.00     0.031 A 
ATOM     42  C   UNL A   1      46.867  29.503  27.768  1.00  0.00     0.074 A 
ATOM     43  C   UNL A   1      44.420  29.159  29.785  1.00  0.00     0.049 A 
ATOM     44  N   UNL A   1      46.831  28.454  26.975  1.00  0.00    -0.248 NA
ATOM     45  C   UNL A   1      47.985  30.348  27.254  1.00  0.00     0.031 C 
ATOM     46  C   UNL A   1      44.148  27.582  30.090  1.00  0.00     0.029 A 
ATOM     47  N   UNL A   1      42.946  29.376  30.269  1.00  0.00    -0.354 N 
ATOM     48  C   UNL A   1      48.083  28.187  26.558  1.00  0.00     0.074 A 
ATOM     49  C   UNL A   1      48.627  29.507  26.428  1.00  0.00     0.031 C 
ATOM     50  C   UNL A   1      42.924  27.171  30.311  1.00  0.00     0.029 A 
ATOM     51  C   UNL A   1      42.103  28.244  30.064  1.00  0.00     0.049 A 
ATOM     52  H   UNL A   1      42.630  30.215  30.676  1.00  0.00     0.167 HD
ATOM     53  C   UNL A   1      48.580  26.921  26.703  1.00  0.00     0.031 A 
ATOM     54  C   UNL A   1      41.003  27.969  29.301  1.00  0.00     0.031 A 
ATOM     55  C   UNL A   1      47.560  25.925  27.228  1.00  0.00     0.049 A 
ATOM     56  C   UNL A   1      41.370  26.731  28.362  1.00  0.00     0.074 A 
ATOM     57  C   UNL A   1      47.510  25.176  28.400  1.00  0.00     0.029 A 
ATOM     58  N   UNL A   1      46.239  25.815  26.703  1.00  0.00    -0.354 N 
ATOM     59  N   UNL A   1      42.588  26.502  27.895  1.00  0.00    -0.248 NA
ATOM     60  C   UNL A   1      40.549  25.540  28.216  1.00  0.00     0.031 C 
ATOM     61  C   UNL A   1      46.171  24.715  28.618  1.00  0.00     0.029 A 
ATOM     62  C   UNL A   1      45.354  25.113  27.558  1.00  0.00     0.049 A 
ATOM     63  H   UNL A   1      45.969  26.190  25.832  1.00  0.00     0.167 HD
ATOM     64  C   UNL A   1      42.793  25.185  27.529  1.00  0.00     0.074 A 
ATOM     65  C   UNL A   1      41.445  24.641  27.749  1.00  0.00     0.031 C 
ATOM     66  C   UNL A   1      44.001  24.590  27.150  1.00  0.00     0.031 A 
BRANCH  53  67
ATOM     67  C   UNL A   1      50.116  26.759  26.752  1.00  0.00    -0.014 A 
ATOM     68  C   UNL A   1      50.977  27.849  26.979  1.00  0.00     0.010 A 
ATOM     69  C   UNL A   1      50.780  25.525  26.526  1.00  0.00     0.010 A 
ATOM     70  C   UNL A   1      52.386  27.727  26.927  1.00  0.00     0.020 A 
ATOM     71  C   UNL A   1      52.175  25.390  26.431  1.00  0.00     0.020 A 
ATOM     72  C   UNL A   1      52.978  26.497  26.642  1.00  0.00     0.054 A 
BRANCH  72  73
ATOM     73  S   UNL A   1      54.785  26.328  26.620  1.00  0.00     0.124 S 
ATOM     74  O   UNL A   1      55.044  25.472  27.773  1.00  0.00    -0.237 OA
ATOM     75  O   UNL A   1      55.029  25.721  25.314  1.00  0.00    -0.237 OA
ATOM     76  O   UNL A   1      55.267  27.703  26.757  1.00  0.00    -0.744 OA
ENDBRANCH  72  73
ENDBRANCH  53  67
BRANCH  54  77
ATOM     77  C   UNL A   1      40.080  29.118  29.114  1.00  0.00    -0.014 A 
ATOM     78  C   UNL A   1      38.729  28.799  28.804  1.00  0.00     0.010 A 
ATOM     79  C   UNL A   1      40.368  30.413  29.558  1.00  0.00     0.010 A 
ATOM     80  C   UNL A   1      37.683  29.675  29.111  1.00  0.00     0.020 A 
ATOM     81  C   UNL A   1      39.315  31.283  29.894  1.00  0.00     0.020 A 
ATOM     82  C   UNL A   1      37.982  30.897  29.706  1.00  0.00     0.054 A 
BRANCH  82  83
ATOM     83  S   UNL A   1      36.652  31.913  30.425  1.00  0.00     0.124 S 
ATOM     84  O   UNL A   1      37.396  32.912  31.179  1.00  0.00    -0.237 OA
ATOM     85  O   UNL A   1      35.938  32.423  29.254  1.00  0.00    -0.237 OA
ATOM     86  O   UNL A   1      35.903  30.943  31.217  1.00  0.00    -0.744 OA
ENDBRANCH  82  83
ENDBRANCH  54  77
BRANCH  66  87
ATOM     87  C   UNL A   1      44.101  23.255  26.386  1.00  0.00    -0.014 A 
ATOM     88  C   UNL A   1      43.449  22.954  25.187  1.00  0.00     0.010 A 
ATOM     89  C   UNL A   1      45.014  22.263  26.849  1.00  0.00     0.010 A 
ATOM     90  C   UNL A   1      43.700  21.768  24.484  1.00  0.00     0.020 A 
ATOM     91  C   UNL A   1      45.304  21.094  26.142  1.00  0.00     0.020 A 
ATOM     92  C   UNL A   1      44.643  20.858  24.951  1.00  0.00     0.054 A 
BRANCH  92  93
ATOM     93  S   UNL A   1      45.035  19.423  23.935  1.00  0.00     0.124 S 
ATOM     94  O   UNL A   1      44.322  18.354  24.630  1.00  0.00    -0.237 OA
ATOM     95  O   UNL A   1      44.481  19.805  22.637  1.00  0.00    -0.237 OA
ATOM     96  O   UNL A   1      46.491  19.339  23.985  1.00  0.00    -0.744 OA
ENDBRANCH  92  93
ENDBRANCH  66  87
ENDBRANCH  40  41
ENDBRANCH  33  35
ENDBRANCH  32  33
ENDBRANCH  31  32
ENDBRANCH  30  31
ENDBRANCH  29  30
ENDBRANCH  28  29
ENDBRANCH   1  28
TORSDOF 25
ENDMDL
