MODEL 1
REMARK VINA RESULT:      -8.1      0.000      0.000
REMARK SMILES C[C@]1(C(=O)OCCOCCOCCOCCOC(=O)c2ccc(-c3c4nc(c(-c5ccc(S(=O)(=O)[O-])cc5)c5ccc([nH]5)c(-c5ccc(S(=O)(=O)[O-])cc5)c5nc(c(-c6ccc(S(=O)(=O)[O-])cc6)c6ccc3[nH]6)C=C5)C=C4)cc2)[NH2+]C2(C(=O)c3ccccc3C2=O)[C@@H]2C(=O)N(c3ccccc3)C(=O)[C@H]21
REMARK SMILES IDX 12 1 11 2 10 3 9 4 8 5 7 6 6 7 5 8 3 9 4 10 2 11 1 12 80 13
REMARK SMILES IDX 104 14 81 15 92 18 102 19 82 20 90 21 93 22 95 23 103 24
REMARK SMILES IDX 83 25 84 26 89 27 91 28 94 29 85 30 88 31 86 32 87 33 96 34
REMARK SMILES IDX 97 35 101 36 98 37 100 38 99 39 13 40 14 41 15 42 16 43
REMARK SMILES IDX 17 44 18 45 19 46 20 47 21 48 79 49 22 50 78 51 23 52 24 53
REMARK SMILES IDX 25 54 72 55 26 56 77 57 71 58 73 59 27 60 76 61 70 62 69 63
REMARK SMILES IDX 28 65 58 66 39 67 57 68 40 69 43 70 56 71 74 72 41 73 42 74
REMARK SMILES IDX 55 76 75 77 44 78 29 79 30 80 38 81 31 82 37 83 32 84 33 85
REMARK SMILES IDX 34 86 35 87 36 88 59 89 60 90 68 91 61 92 67 93 62 94 63 95
REMARK SMILES IDX 64 96 65 97 66 98 45 99 46 100 54 101 47 102 53 103 48 104
REMARK SMILES IDX 49 105 50 106 51 107 52 108
REMARK H PARENT 80 16 80 17 73 64 43 75
REMARK Flexibility Score: inf
ROOT
ATOM      1  C   UNL A   1      44.637  25.172  27.907  1.00  0.00     0.188 C 
ENDROOT
BRANCH   1   2
ATOM      2  O   UNL A   1      43.557  25.417  28.797  1.00  0.00    -0.377 OA
BRANCH   2   3
ATOM      3  C   UNL A   1      42.411  26.111  28.348  1.00  0.00     0.188 C 
BRANCH   3   4
ATOM      4  C   UNL A   1      42.274  27.592  28.739  1.00  0.00     0.188 C 
BRANCH   4   5
ATOM      5  O   UNL A   1      42.140  27.828  30.122  1.00  0.00    -0.376 OA
BRANCH   5   6
ATOM      6  C   UNL A   1      41.450  28.963  30.617  1.00  0.00     0.202 C 
BRANCH   6   7
ATOM      7  C   UNL A   1      41.445  30.355  29.960  1.00  0.00     0.261 C 
BRANCH   7   8
ATOM      8  O   UNL A   1      40.214  31.070  29.934  1.00  0.00    -0.459 OA
BRANCH   8   9
ATOM      9  C   UNL A   1      40.182  32.287  30.522  1.00  0.00     0.368 C 
ATOM     10  O   UNL A   1      40.994  32.659  31.360  1.00  0.00    -0.245 OA
BRANCH   9  11
ATOM     11  C   UNL A   1      38.991  33.157  30.018  1.00  0.00     0.205 C 
ATOM     12  C   UNL A   1      39.556  34.482  29.506  1.00  0.00     0.093 C 
ATOM     13  N   UNL A   1      38.125  32.495  28.954  1.00  0.00    -0.313 N 
ATOM     14  C   UNL A   1      37.971  33.316  31.099  1.00  0.00     0.172 C 
ATOM     15  C   UNL A   1      36.943  31.826  29.645  1.00  0.00     0.237 C 
ATOM     16  H   UNL A   1      38.672  31.796  28.451  1.00  0.00     0.348 HD
ATOM     17  H   UNL A   1      37.793  33.193  28.288  1.00  0.00     0.348 HD
ATOM     18  C   UNL A   1      37.325  31.940  31.083  1.00  0.00     0.177 C 
ATOM     19  C   UNL A   1      38.284  33.492  32.536  1.00  0.00     0.244 C 
ATOM     20  C   UNL A   1      35.650  32.505  29.194  1.00  0.00     0.232 C 
ATOM     21  C   UNL A   1      36.763  30.385  29.151  1.00  0.00     0.232 C 
ATOM     22  C   UNL A   1      36.514  32.028  32.319  1.00  0.00     0.245 C 
ATOM     23  N   UNL A   1      37.332  32.731  33.203  1.00  0.00    -0.250 N 
ATOM     24  O   UNL A   1      39.147  34.241  32.960  1.00  0.00    -0.273 OA
ATOM     25  O   UNL A   1      35.358  33.682  29.323  1.00  0.00    -0.286 OA
ATOM     26  C   UNL A   1      34.862  31.544  28.422  1.00  0.00     0.036 A 
ATOM     27  C   UNL A   1      35.514  30.318  28.383  1.00  0.00     0.036 A 
ATOM     28  O   UNL A   1      37.471  29.417  29.361  1.00  0.00    -0.286 OA
ATOM     29  O   UNL A   1      35.426  31.503  32.480  1.00  0.00    -0.273 OA
ATOM     30  C   UNL A   1      33.663  31.757  27.765  1.00  0.00     0.013 A 
ATOM     31  C   UNL A   1      34.980  29.242  27.696  1.00  0.00     0.013 A 
ATOM     32  C   UNL A   1      33.109  30.680  27.066  1.00  0.00     0.001 A 
ATOM     33  C   UNL A   1      33.762  29.433  27.033  1.00  0.00     0.001 A 
BRANCH  23  34
ATOM     34  C   UNL A   1      37.343  32.591  34.603  1.00  0.00     0.052 A 
ATOM     35  C   UNL A   1      36.808  33.597  35.419  1.00  0.00     0.027 A 
ATOM     36  C   UNL A   1      38.046  31.534  35.191  1.00  0.00     0.027 A 
ATOM     37  C   UNL A   1      36.989  33.564  36.800  1.00  0.00     0.002 A 
ATOM     38  C   UNL A   1      38.263  31.526  36.570  1.00  0.00     0.002 A 
ATOM     39  C   UNL A   1      37.735  32.538  37.372  1.00  0.00     0.000 A 
ENDBRANCH  23  34
ENDBRANCH   9  11
ENDBRANCH   8   9
ENDBRANCH   7   8
ENDBRANCH   6   7
ENDBRANCH   5   6
ENDBRANCH   4   5
ENDBRANCH   3   4
ENDBRANCH   2   3
ENDBRANCH   1   2
BRANCH   1  40
ATOM     40  C   UNL A   1      45.886  24.374  28.346  1.00  0.00     0.188 C 
BRANCH  40  41
ATOM     41  O   UNL A   1      46.412  23.479  27.378  1.00  0.00    -0.376 OA
BRANCH  41  42
ATOM     42  C   UNL A   1      46.088  23.688  26.014  1.00  0.00     0.202 C 
BRANCH  42  43
ATOM     43  C   UNL A   1      47.041  24.539  25.162  1.00  0.00     0.261 C 
BRANCH  43  44
ATOM     44  O   UNL A   1      46.452  25.602  24.402  1.00  0.00    -0.460 OA
BRANCH  44  45
ATOM     45  C   UNL A   1      47.158  26.746  24.242  1.00  0.00     0.338 C 
ATOM     46  O   UNL A   1      47.888  27.036  23.314  1.00  0.00    -0.246 OA
BRANCH  45  47
ATOM     47  C   UNL A   1      46.713  27.671  25.308  1.00  0.00     0.060 A 
ATOM     48  C   UNL A   1      45.351  27.843  25.563  1.00  0.00     0.016 A 
ATOM     49  C   UNL A   1      47.666  28.420  26.012  1.00  0.00     0.016 A 
ATOM     50  C   UNL A   1      44.944  28.739  26.552  1.00  0.00     0.010 A 
ATOM     51  C   UNL A   1      47.256  29.328  26.992  1.00  0.00     0.010 A 
ATOM     52  C   UNL A   1      45.893  29.471  27.289  1.00  0.00    -0.014 A 
BRANCH  52  53
ATOM     53  C   UNL A   1      45.466  30.207  28.506  1.00  0.00     0.031 A 
ATOM     54  C   UNL A   1      45.126  31.666  28.488  1.00  0.00     0.074 A 
ATOM     55  C   UNL A   1      45.394  29.506  29.655  1.00  0.00     0.049 A 
ATOM     56  N   UNL A   1      44.649  32.398  29.463  1.00  0.00    -0.248 NA
ATOM     57  C   UNL A   1      45.346  32.400  27.234  1.00  0.00     0.031 C 
ATOM     58  C   UNL A   1      45.729  28.086  29.784  1.00  0.00     0.029 A 
ATOM     59  N   UNL A   1      45.004  29.873  30.919  1.00  0.00    -0.354 N 
ATOM     60  C   UNL A   1      44.490  33.675  28.940  1.00  0.00     0.074 A 
ATOM     61  C   UNL A   1      44.967  33.629  27.574  1.00  0.00     0.031 C 
ATOM     62  C   UNL A   1      45.488  27.691  31.042  1.00  0.00     0.029 A 
ATOM     63  C   UNL A   1      45.021  28.834  31.822  1.00  0.00     0.049 A 
ATOM     64  H   UNL A   1      44.736  30.789  31.156  1.00  0.00     0.167 HD
ATOM     65  C   UNL A   1      43.974  34.772  29.548  1.00  0.00     0.031 A 
ATOM     66  C   UNL A   1      44.691  28.794  33.128  1.00  0.00     0.031 A 
ATOM     67  C   UNL A   1      43.515  34.799  30.917  1.00  0.00     0.049 A 
ATOM     68  C   UNL A   1      44.160  30.037  33.784  1.00  0.00     0.074 A 
ATOM     69  C   UNL A   1      42.931  35.853  31.600  1.00  0.00     0.029 A 
ATOM     70  N   UNL A   1      43.589  33.742  31.814  1.00  0.00    -0.354 N 
ATOM     71  N   UNL A   1      43.928  31.211  33.248  1.00  0.00    -0.248 NA
ATOM     72  C   UNL A   1      43.827  29.951  35.212  1.00  0.00     0.031 C 
ATOM     73  C   UNL A   1      42.733  35.464  32.926  1.00  0.00     0.029 A 
ATOM     74  C   UNL A   1      43.102  34.135  33.051  1.00  0.00     0.049 A 
ATOM     75  H   UNL A   1      43.938  32.846  31.602  1.00  0.00     0.167 HD
ATOM     76  C   UNL A   1      43.402  31.997  34.268  1.00  0.00     0.074 A 
ATOM     77  C   UNL A   1      43.325  31.157  35.445  1.00  0.00     0.031 C 
ATOM     78  C   UNL A   1      43.023  33.298  34.227  1.00  0.00     0.031 A 
BRANCH  65  79
ATOM     79  C   UNL A   1      43.831  36.048  28.752  1.00  0.00    -0.014 A 
ATOM     80  C   UNL A   1      44.793  37.070  28.882  1.00  0.00     0.010 A 
ATOM     81  C   UNL A   1      42.655  36.309  28.025  1.00  0.00     0.010 A 
ATOM     82  C   UNL A   1      44.557  38.341  28.348  1.00  0.00     0.020 A 
ATOM     83  C   UNL A   1      42.432  37.571  27.462  1.00  0.00     0.020 A 
ATOM     84  C   UNL A   1      43.371  38.586  27.653  1.00  0.00     0.054 A 
BRANCH  84  85
ATOM     85  S   UNL A   1      43.053  40.261  27.029  1.00  0.00     0.124 S 
ATOM     86  O   UNL A   1      41.596  40.302  26.977  1.00  0.00    -0.237 OA
ATOM     87  O   UNL A   1      43.673  41.102  28.051  1.00  0.00    -0.237 OA
ATOM     88  O   UNL A   1      43.726  40.278  25.731  1.00  0.00    -0.744 OA
ENDBRANCH  84  85
ENDBRANCH  65  79
BRANCH  66  89
ATOM     89  C   UNL A   1      44.806  27.506  33.866  1.00  0.00    -0.014 A 
ATOM     90  C   UNL A   1      45.953  27.222  34.634  1.00  0.00     0.010 A 
ATOM     91  C   UNL A   1      43.811  26.520  33.740  1.00  0.00     0.010 A 
ATOM     92  C   UNL A   1      46.131  25.960  35.207  1.00  0.00     0.020 A 
ATOM     93  C   UNL A   1      43.968  25.269  34.344  1.00  0.00     0.020 A 
ATOM     94  C   UNL A   1      45.142  24.987  35.048  1.00  0.00     0.054 A 
BRANCH  94  95
ATOM     95  S   UNL A   1      45.421  23.342  35.756  1.00  0.00     0.124 S 
ATOM     96  O   UNL A   1      45.103  23.564  37.164  1.00  0.00    -0.237 OA
ATOM     97  O   UNL A   1      44.471  22.513  35.018  1.00  0.00    -0.237 OA
ATOM     98  O   UNL A   1      46.829  23.079  35.467  1.00  0.00    -0.744 OA
ENDBRANCH  94  95
ENDBRANCH  66  89
BRANCH  78  99
ATOM     99  C   UNL A   1      42.485  33.929  35.488  1.00  0.00    -0.014 A 
ATOM    100  C   UNL A   1      41.095  33.979  35.709  1.00  0.00     0.010 A 
ATOM    101  C   UNL A   1      43.340  34.599  36.382  1.00  0.00     0.010 A 
ATOM    102  C   UNL A   1      40.568  34.728  36.764  1.00  0.00     0.020 A 
ATOM    103  C   UNL A   1      42.818  35.318  37.461  1.00  0.00     0.020 A 
ATOM    104  C   UNL A   1      41.433  35.404  37.627  1.00  0.00     0.054 A 
BRANCH 104 105
ATOM    105  S   UNL A   1      40.727  36.421  38.953  1.00  0.00     0.124 S 
ATOM    106  O   UNL A   1      40.319  35.414  39.929  1.00  0.00    -0.237 OA
ATOM    107  O   UNL A   1      41.857  37.259  39.348  1.00  0.00    -0.237 OA
ATOM    108  O   UNL A   1      39.632  37.131  38.297  1.00  0.00    -0.744 OA
ENDBRANCH 104 105
ENDBRANCH  78  99
ENDBRANCH  52  53
ENDBRANCH  45  47
ENDBRANCH  44  45
ENDBRANCH  43  44
ENDBRANCH  42  43
ENDBRANCH  41  42
ENDBRANCH  40  41
ENDBRANCH   1  40
TORSDOF 24
ENDMDL
MODEL 2
REMARK VINA RESULT:      -7.7      1.863      2.577
REMARK SMILES C[C@]1(C(=O)OCCOCCOCCOCCOC(=O)c2ccc(-c3c4nc(c(-c5ccc(S(=O)(=O)[O-])cc5)c5ccc([nH]5)c(-c5ccc(S(=O)(=O)[O-])cc5)c5nc(c(-c6ccc(S(=O)(=O)[O-])cc6)c6ccc3[nH]6)C=C5)C=C4)cc2)[NH2+]C2(C(=O)c3ccccc3C2=O)[C@@H]2C(=O)N(c3ccccc3)C(=O)[C@H]21
REMARK SMILES IDX 12 1 11 2 10 3 9 4 8 5 7 6 6 7 5 8 3 9 4 10 2 11 1 12 80 13
REMARK SMILES IDX 104 14 81 15 92 18 102 19 82 20 90 21 93 22 95 23 103 24
REMARK SMILES IDX 83 25 84 26 89 27 91 28 94 29 85 30 88 31 86 32 87 33 96 34
REMARK SMILES IDX 97 35 101 36 98 37 100 38 99 39 13 40 14 41 15 42 16 43
REMARK SMILES IDX 17 44 18 45 19 46 20 47 21 48 79 49 22 50 78 51 23 52 24 53
REMARK SMILES IDX 25 54 72 55 26 56 77 57 71 58 73 59 27 60 76 61 70 62 69 63
REMARK SMILES IDX 28 65 58 66 39 67 57 68 40 69 43 70 56 71 74 72 41 73 42 74
REMARK SMILES IDX 55 76 75 77 44 78 29 79 30 80 38 81 31 82 37 83 32 84 33 85
REMARK SMILES IDX 34 86 35 87 36 88 59 89 60 90 68 91 61 92 67 93 62 94 63 95
REMARK SMILES IDX 64 96 65 97 66 98 45 99 46 100 54 101 47 102 53 103 48 104
REMARK SMILES IDX 49 105 50 106 51 107 52 108
REMARK H PARENT 80 16 80 17 73 64 43 75
REMARK Flexibility Score: inf
ROOT
ATOM      1  C   UNL A   1      43.920  24.283  28.097  1.00  0.00     0.188 C 
ENDROOT
BRANCH   1   2
ATOM      2  O   UNL A   1      43.007  25.136  28.774  1.00  0.00    -0.377 OA
BRANCH   2   3
ATOM      3  C   UNL A   1      43.227  26.531  28.804  1.00  0.00     0.188 C 
BRANCH   3   4
ATOM      4  C   UNL A   1      42.021  27.439  29.097  1.00  0.00     0.188 C 
BRANCH   4   5
ATOM      5  O   UNL A   1      41.864  28.520  28.206  1.00  0.00    -0.376 OA
BRANCH   5   6
ATOM      6  C   UNL A   1      41.162  29.693  28.580  1.00  0.00     0.202 C 
BRANCH   6   7
ATOM      7  C   UNL A   1      41.327  30.438  29.915  1.00  0.00     0.261 C 
BRANCH   7   8
ATOM      8  O   UNL A   1      40.264  31.287  30.336  1.00  0.00    -0.459 OA
BRANCH   8   9
ATOM      9  C   UNL A   1      40.510  32.614  30.407  1.00  0.00     0.368 C 
ATOM     10  O   UNL A   1      41.586  33.089  30.748  1.00  0.00    -0.245 OA
BRANCH   9  11
ATOM     11  C   UNL A   1      39.267  33.468  30.015  1.00  0.00     0.205 C 
ATOM     12  C   UNL A   1      39.763  34.824  29.514  1.00  0.00     0.093 C 
ATOM     13  N   UNL A   1      38.346  32.820  28.990  1.00  0.00    -0.313 N 
ATOM     14  C   UNL A   1      38.319  33.565  31.168  1.00  0.00     0.172 C 
ATOM     15  C   UNL A   1      37.231  32.097  29.736  1.00  0.00     0.237 C 
ATOM     16  H   UNL A   1      38.874  32.153  28.427  1.00  0.00     0.348 HD
ATOM     17  H   UNL A   1      37.952  33.530  28.373  1.00  0.00     0.348 HD
ATOM     18  C   UNL A   1      37.707  32.174  31.147  1.00  0.00     0.177 C 
ATOM     19  C   UNL A   1      38.726  33.700  32.586  1.00  0.00     0.244 C 
ATOM     20  C   UNL A   1      35.894  32.756  29.397  1.00  0.00     0.232 C 
ATOM     21  C   UNL A   1      37.052  30.669  29.204  1.00  0.00     0.232 C 
ATOM     22  C   UNL A   1      36.981  32.198  32.438  1.00  0.00     0.245 C 
ATOM     23  N   UNL A   1      37.841  32.893  33.288  1.00  0.00    -0.250 N 
ATOM     24  O   UNL A   1      39.597  34.458  32.977  1.00  0.00    -0.273 OA
ATOM     25  O   UNL A   1      35.583  33.920  29.587  1.00  0.00    -0.286 OA
ATOM     26  C   UNL A   1      35.078  31.801  28.647  1.00  0.00     0.036 A 
ATOM     27  C   UNL A   1      35.755  30.594  28.521  1.00  0.00     0.036 A 
ATOM     28  O   UNL A   1      37.797  29.714  29.333  1.00  0.00    -0.286 OA
ATOM     29  O   UNL A   1      35.919  31.640  32.653  1.00  0.00    -0.273 OA
ATOM     30  C   UNL A   1      33.832  32.003  28.080  1.00  0.00     0.013 A 
ATOM     31  C   UNL A   1      35.203  29.528  27.834  1.00  0.00     0.013 A 
ATOM     32  C   UNL A   1      33.258  30.936  27.383  1.00  0.00     0.001 A 
ATOM     33  C   UNL A   1      33.937  29.708  27.262  1.00  0.00     0.001 A 
BRANCH  23  34
ATOM     34  C   UNL A   1      37.950  32.707  34.678  1.00  0.00     0.052 A 
ATOM     35  C   UNL A   1      38.275  31.447  35.201  1.00  0.00     0.027 A 
ATOM     36  C   UNL A   1      37.564  33.730  35.550  1.00  0.00     0.027 A 
ATOM     37  C   UNL A   1      38.192  31.203  36.570  1.00  0.00     0.002 A 
ATOM     38  C   UNL A   1      37.440  33.470  36.916  1.00  0.00     0.002 A 
ATOM     39  C   UNL A   1      37.755  32.210  37.424  1.00  0.00     0.000 A 
ENDBRANCH  23  34
ENDBRANCH   9  11
ENDBRANCH   8   9
ENDBRANCH   7   8
ENDBRANCH   6   7
ENDBRANCH   5   6
ENDBRANCH   4   5
ENDBRANCH   3   4
ENDBRANCH   2   3
ENDBRANCH   1   2
BRANCH   1  40
ATOM     40  C   UNL A   1      43.981  24.219  26.554  1.00  0.00     0.188 C 
BRANCH  40  41
ATOM     41  O   UNL A   1      45.203  24.646  25.972  1.00  0.00    -0.376 OA
BRANCH  41  42
ATOM     42  C   UNL A   1      45.412  26.033  25.774  1.00  0.00     0.202 C 
BRANCH  42  43
ATOM     43  C   UNL A   1      46.288  26.789  26.785  1.00  0.00     0.261 C 
BRANCH  43  44
ATOM     44  O   UNL A   1      47.276  27.677  26.247  1.00  0.00    -0.460 OA
BRANCH  44  45
ATOM     45  C   UNL A   1      46.858  28.808  25.633  1.00  0.00     0.338 C 
ATOM     46  O   UNL A   1      46.703  28.983  24.440  1.00  0.00    -0.246 OA
BRANCH  45  47
ATOM     47  C   UNL A   1      46.420  29.734  26.701  1.00  0.00     0.060 A 
ATOM     48  C   UNL A   1      45.111  30.218  26.715  1.00  0.00     0.016 A 
ATOM     49  C   UNL A   1      47.347  30.170  27.659  1.00  0.00     0.016 A 
ATOM     50  C   UNL A   1      44.719  31.113  27.712  1.00  0.00     0.010 A 
ATOM     51  C   UNL A   1      46.957  31.077  28.647  1.00  0.00     0.010 A 
ATOM     52  C   UNL A   1      45.631  31.531  28.699  1.00  0.00    -0.014 A 
BRANCH  52  53
ATOM     53  C   UNL A   1      45.135  32.258  29.894  1.00  0.00     0.031 A 
ATOM     54  C   UNL A   1      45.131  33.753  29.984  1.00  0.00     0.074 A 
ATOM     55  C   UNL A   1      44.679  31.514  30.921  1.00  0.00     0.049 A 
ATOM     56  N   UNL A   1      44.636  34.507  30.934  1.00  0.00    -0.248 NA
ATOM     57  C   UNL A   1      45.757  34.502  28.885  1.00  0.00     0.031 C 
ATOM     58  C   UNL A   1      44.663  30.049  30.944  1.00  0.00     0.029 A 
ATOM     59  N   UNL A   1      44.128  31.871  32.127  1.00  0.00    -0.354 N 
ATOM     60  C   UNL A   1      44.869  35.818  30.543  1.00  0.00     0.074 A 
ATOM     61  C   UNL A   1      45.594  35.758  29.290  1.00  0.00     0.031 C 
ATOM     62  C   UNL A   1      44.090  29.634  32.082  1.00  0.00     0.029 A 
ATOM     63  C   UNL A   1      43.735  30.797  32.890  1.00  0.00     0.049 A 
ATOM     64  H   UNL A   1      44.024  32.806  32.416  1.00  0.00     0.167 HD
ATOM     65  C   UNL A   1      44.491  36.960  31.169  1.00  0.00     0.031 A 
ATOM     66  C   UNL A   1      43.144  30.743  34.101  1.00  0.00     0.031 A 
ATOM     67  C   UNL A   1      43.779  36.997  32.426  1.00  0.00     0.049 A 
ATOM     68  C   UNL A   1      42.773  32.026  34.789  1.00  0.00     0.074 A 
ATOM     69  C   UNL A   1      43.312  38.108  33.108  1.00  0.00     0.029 A 
ATOM     70  N   UNL A   1      43.437  35.891  33.192  1.00  0.00    -0.354 N 
ATOM     71  N   UNL A   1      42.917  33.257  34.360  1.00  0.00    -0.248 NA
ATOM     72  C   UNL A   1      42.145  31.919  36.113  1.00  0.00     0.031 C 
ATOM     73  C   UNL A   1      42.767  37.683  34.321  1.00  0.00     0.029 A 
ATOM     74  C   UNL A   1      42.805  36.299  34.357  1.00  0.00     0.049 A 
ATOM     75  H   UNL A   1      43.618  34.956  32.945  1.00  0.00     0.167 HD
ATOM     76  C   UNL A   1      42.378  34.070  35.351  1.00  0.00     0.074 A 
ATOM     77  C   UNL A   1      41.881  33.191  36.389  1.00  0.00     0.031 C 
ATOM     78  C   UNL A   1      42.307  35.423  35.392  1.00  0.00     0.031 A 
BRANCH  65  79
ATOM     79  C   UNL A   1      44.795  38.287  30.515  1.00  0.00    -0.014 A 
ATOM     80  C   UNL A   1      45.729  39.163  31.101  1.00  0.00     0.010 A 
ATOM     81  C   UNL A   1      44.023  38.743  29.430  1.00  0.00     0.010 A 
ATOM     82  C   UNL A   1      45.847  40.483  30.652  1.00  0.00     0.020 A 
ATOM     83  C   UNL A   1      44.162  40.052  28.958  1.00  0.00     0.020 A 
ATOM     84  C   UNL A   1      45.051  40.922  29.591  1.00  0.00     0.054 A 
BRANCH  84  85
ATOM     85  S   UNL A   1      45.169  42.657  29.070  1.00  0.00     0.124 S 
ATOM     86  O   UNL A   1      44.446  43.350  30.132  1.00  0.00    -0.237 OA
ATOM     87  O   UNL A   1      46.613  42.881  29.038  1.00  0.00    -0.237 OA
ATOM     88  O   UNL A   1      44.518  42.668  27.761  1.00  0.00    -0.744 OA
ENDBRANCH  84  85
ENDBRANCH  65  79
BRANCH  66  89
ATOM     89  C   UNL A   1      42.823  29.414  34.693  1.00  0.00    -0.014 A 
ATOM     90  C   UNL A   1      41.616  28.762  34.373  1.00  0.00     0.010 A 
ATOM     91  C   UNL A   1      43.679  28.832  35.644  1.00  0.00     0.010 A 
ATOM     92  C   UNL A   1      41.243  27.590  35.036  1.00  0.00     0.020 A 
ATOM     93  C   UNL A   1      43.328  27.638  36.281  1.00  0.00     0.020 A 
ATOM     94  C   UNL A   1      42.098  27.041  35.995  1.00  0.00     0.054 A 
BRANCH  94  95
ATOM     95  S   UNL A   1      41.567  25.550  36.879  1.00  0.00     0.124 S 
ATOM     96  O   UNL A   1      42.765  25.212  37.642  1.00  0.00    -0.237 OA
ATOM     97  O   UNL A   1      40.434  26.032  37.665  1.00  0.00    -0.237 OA
ATOM     98  O   UNL A   1      41.226  24.619  35.806  1.00  0.00    -0.744 OA
ENDBRANCH  94  95
ENDBRANCH  66  89
BRANCH  78  99
ATOM     99  C   UNL A   1      41.673  36.072  36.599  1.00  0.00    -0.014 A 
ATOM    100  C   UNL A   1      42.486  36.558  37.641  1.00  0.00     0.010 A 
ATOM    101  C   UNL A   1      40.277  36.069  36.771  1.00  0.00     0.010 A 
ATOM    102  C   UNL A   1      41.922  36.980  38.848  1.00  0.00     0.020 A 
ATOM    103  C   UNL A   1      39.706  36.526  37.963  1.00  0.00     0.020 A 
ATOM    104  C   UNL A   1      40.534  36.949  39.006  1.00  0.00     0.054 A 
BRANCH 104 105
ATOM    105  S   UNL A   1      39.825  37.441  40.602  1.00  0.00     0.124 S 
ATOM    106  O   UNL A   1      40.724  36.791  41.552  1.00  0.00    -0.237 OA
ATOM    107  O   UNL A   1      39.909  38.899  40.551  1.00  0.00    -0.237 OA
ATOM    108  O   UNL A   1      38.469  36.900  40.557  1.00  0.00    -0.744 OA
ENDBRANCH 104 105
ENDBRANCH  78  99
ENDBRANCH  52  53
ENDBRANCH  45  47
ENDBRANCH  44  45
ENDBRANCH  43  44
ENDBRANCH  42  43
ENDBRANCH  41  42
ENDBRANCH  40  41
ENDBRANCH   1  40
TORSDOF 24
ENDMDL
MODEL 3
REMARK VINA RESULT:      -7.6      5.899      9.163
REMARK SMILES C[C@]1(C(=O)OCCOCCOCCOCCOC(=O)c2ccc(-c3c4nc(c(-c5ccc(S(=O)(=O)[O-])cc5)c5ccc([nH]5)c(-c5ccc(S(=O)(=O)[O-])cc5)c5nc(c(-c6ccc(S(=O)(=O)[O-])cc6)c6ccc3[nH]6)C=C5)C=C4)cc2)[NH2+]C2(C(=O)c3ccccc3C2=O)[C@@H]2C(=O)N(c3ccccc3)C(=O)[C@H]21
REMARK SMILES IDX 12 1 11 2 10 3 9 4 8 5 7 6 6 7 5 8 3 9 4 10 2 11 1 12 80 13
REMARK SMILES IDX 104 14 81 15 92 18 102 19 82 20 90 21 93 22 95 23 103 24
REMARK SMILES IDX 83 25 84 26 89 27 91 28 94 29 85 30 88 31 86 32 87 33 96 34
REMARK SMILES IDX 97 35 101 36 98 37 100 38 99 39 13 40 14 41 15 42 16 43
REMARK SMILES IDX 17 44 18 45 19 46 20 47 21 48 79 49 22 50 78 51 23 52 24 53
REMARK SMILES IDX 25 54 72 55 26 56 77 57 71 58 73 59 27 60 76 61 70 62 69 63
REMARK SMILES IDX 28 65 58 66 39 67 57 68 40 69 43 70 56 71 74 72 41 73 42 74
REMARK SMILES IDX 55 76 75 77 44 78 29 79 30 80 38 81 31 82 37 83 32 84 33 85
REMARK SMILES IDX 34 86 35 87 36 88 59 89 60 90 68 91 61 92 67 93 62 94 63 95
REMARK SMILES IDX 64 96 65 97 66 98 45 99 46 100 54 101 47 102 53 103 48 104
REMARK SMILES IDX 49 105 50 106 51 107 52 108
REMARK H PARENT 80 16 80 17 73 64 43 75
REMARK Flexibility Score: inf
ROOT
ATOM      1  C   UNL A   1      44.319  20.202  25.638  1.00  0.00     0.188 C 
ENDROOT
BRANCH   1   2
ATOM      2  O   UNL A   1      42.981  20.501  25.263  1.00  0.00    -0.377 OA
BRANCH   2   3
ATOM      3  C   UNL A   1      42.357  21.679  25.734  1.00  0.00     0.188 C 
BRANCH   3   4
ATOM      4  C   UNL A   1      41.668  21.622  27.108  1.00  0.00     0.188 C 
BRANCH   4   5
ATOM      5  O   UNL A   1      40.263  21.723  27.068  1.00  0.00    -0.376 OA
BRANCH   5   6
ATOM      6  C   UNL A   1      39.562  21.827  25.840  1.00  0.00     0.202 C 
BRANCH   6   7
ATOM      7  C   UNL A   1      38.132  22.372  25.679  1.00  0.00     0.261 C 
BRANCH   7   8
ATOM      8  O   UNL A   1      37.376  21.927  24.556  1.00  0.00    -0.459 OA
BRANCH   8   9
ATOM      9  C   UNL A   1      36.491  22.791  24.012  1.00  0.00     0.368 C 
ATOM     10  O   UNL A   1      36.427  23.034  22.813  1.00  0.00    -0.245 OA
BRANCH   9  11
ATOM     11  C   UNL A   1      35.569  23.447  25.083  1.00  0.00     0.205 C 
ATOM     12  C   UNL A   1      36.422  23.767  26.311  1.00  0.00     0.093 C 
ATOM     13  N   UNL A   1      34.824  24.687  24.608  1.00  0.00    -0.313 N 
ATOM     14  C   UNL A   1      34.403  22.559  25.378  1.00  0.00     0.172 C 
ATOM     15  C   UNL A   1      33.442  24.261  24.125  1.00  0.00     0.237 C 
ATOM     16  H   UNL A   1      35.337  25.125  23.843  1.00  0.00     0.348 HD
ATOM     17  H   UNL A   1      34.737  25.358  25.372  1.00  0.00     0.348 HD
ATOM     18  C   UNL A   1      33.562  22.774  24.130  1.00  0.00     0.177 C 
ATOM     19  C   UNL A   1      34.466  21.081  25.454  1.00  0.00     0.244 C 
ATOM     20  C   UNL A   1      32.381  24.895  25.024  1.00  0.00     0.232 C 
ATOM     21  C   UNL A   1      33.132  24.867  22.750  1.00  0.00     0.232 C 
ATOM     22  C   UNL A   1      32.559  21.700  24.314  1.00  0.00     0.245 C 
ATOM     23  N   UNL A   1      33.298  20.643  24.843  1.00  0.00    -0.250 N 
ATOM     24  O   UNL A   1      35.342  20.464  26.036  1.00  0.00    -0.273 OA
ATOM     25  O   UNL A   1      32.260  24.748  26.228  1.00  0.00    -0.286 OA
ATOM     26  C   UNL A   1      31.609  25.852  24.232  1.00  0.00     0.036 A 
ATOM     27  C   UNL A   1      32.054  25.849  22.916  1.00  0.00     0.036 A 
ATOM     28  O   UNL A   1      33.626  24.592  21.671  1.00  0.00    -0.286 OA
ATOM     29  O   UNL A   1      31.391  21.770  23.974  1.00  0.00    -0.273 OA
ATOM     30  C   UNL A   1      30.602  26.700  24.662  1.00  0.00     0.013 A 
ATOM     31  C   UNL A   1      31.495  26.685  21.965  1.00  0.00     0.013 A 
ATOM     32  C   UNL A   1      30.026  27.551  23.714  1.00  0.00     0.001 A 
ATOM     33  C   UNL A   1      30.467  27.542  22.377  1.00  0.00     0.001 A 
BRANCH  23  34
ATOM     34  C   UNL A   1      33.025  19.275  24.661  1.00  0.00     0.052 A 
ATOM     35  C   UNL A   1      32.607  18.486  25.742  1.00  0.00     0.027 A 
ATOM     36  C   UNL A   1      33.338  18.659  23.444  1.00  0.00     0.027 A 
ATOM     37  C   UNL A   1      32.526  17.101  25.620  1.00  0.00     0.002 A 
ATOM     38  C   UNL A   1      33.297  17.268  23.339  1.00  0.00     0.002 A 
ATOM     39  C   UNL A   1      32.891  16.491  24.424  1.00  0.00     0.000 A 
ENDBRANCH  23  34
ENDBRANCH   9  11
ENDBRANCH   8   9
ENDBRANCH   7   8
ENDBRANCH   6   7
ENDBRANCH   5   6
ENDBRANCH   4   5
ENDBRANCH   3   4
ENDBRANCH   2   3
ENDBRANCH   1   2
BRANCH   1  40
ATOM     40  C   UNL A   1      45.465  20.172  24.602  1.00  0.00     0.188 C 
BRANCH  40  41
ATOM     41  O   UNL A   1      46.374  21.261  24.663  1.00  0.00    -0.376 OA
BRANCH  41  42
ATOM     42  C   UNL A   1      45.855  22.579  24.669  1.00  0.00     0.202 C 
BRANCH  42  43
ATOM     43  C   UNL A   1      46.164  23.478  25.875  1.00  0.00     0.261 C 
BRANCH  43  44
ATOM     44  O   UNL A   1      47.437  24.136  25.881  1.00  0.00    -0.460 OA
BRANCH  44  45
ATOM     45  C   UNL A   1      47.645  25.143  25.003  1.00  0.00     0.338 C 
ATOM     46  O   UNL A   1      47.976  25.045  23.837  1.00  0.00    -0.246 OA
BRANCH  45  47
ATOM     47  C   UNL A   1      47.191  26.385  25.666  1.00  0.00     0.060 A 
ATOM     48  C   UNL A   1      47.551  26.644  26.990  1.00  0.00     0.016 A 
ATOM     49  C   UNL A   1      46.346  27.266  24.976  1.00  0.00     0.016 A 
ATOM     50  C   UNL A   1      47.093  27.807  27.612  1.00  0.00     0.010 A 
ATOM     51  C   UNL A   1      45.876  28.422  25.606  1.00  0.00     0.010 A 
ATOM     52  C   UNL A   1      46.272  28.715  26.918  1.00  0.00    -0.014 A 
BRANCH  52  53
ATOM     53  C   UNL A   1      46.020  30.060  27.493  1.00  0.00     0.031 A 
ATOM     54  C   UNL A   1      46.967  31.207  27.307  1.00  0.00     0.074 A 
ATOM     55  C   UNL A   1      44.888  30.223  28.206  1.00  0.00     0.049 A 
ATOM     56  N   UNL A   1      46.813  32.453  27.678  1.00  0.00    -0.248 NA
ATOM     57  C   UNL A   1      48.242  30.933  26.628  1.00  0.00     0.031 C 
ATOM     58  C   UNL A   1      43.912  29.162  28.468  1.00  0.00     0.029 A 
ATOM     59  N   UNL A   1      44.354  31.326  28.823  1.00  0.00    -0.354 N 
ATOM     60  C   UNL A   1      47.957  33.121  27.262  1.00  0.00     0.074 A 
ATOM     61  C   UNL A   1      48.820  32.130  26.652  1.00  0.00     0.031 C 
ATOM     62  C   UNL A   1      42.879  29.675  29.150  1.00  0.00     0.029 A 
ATOM     63  C   UNL A   1      43.134  31.089  29.412  1.00  0.00     0.049 A 
ATOM     64  H   UNL A   1      44.800  32.203  28.840  1.00  0.00     0.167 HD
ATOM     65  C   UNL A   1      48.242  34.442  27.367  1.00  0.00     0.031 A 
ATOM     66  C   UNL A   1      42.301  31.911  30.081  1.00  0.00     0.031 A 
ATOM     67  C   UNL A   1      47.371  35.412  27.991  1.00  0.00     0.049 A 
ATOM     68  C   UNL A   1      42.664  33.363  30.217  1.00  0.00     0.074 A 
ATOM     69  C   UNL A   1      47.557  36.780  28.098  1.00  0.00     0.029 A 
ATOM     70  N   UNL A   1      46.165  35.128  28.617  1.00  0.00    -0.354 N 
ATOM     71  N   UNL A   1      43.707  33.995  29.734  1.00  0.00    -0.248 NA
ATOM     72  C   UNL A   1      41.735  34.219  30.967  1.00  0.00     0.031 C 
ATOM     73  C   UNL A   1      46.513  37.308  28.859  1.00  0.00     0.029 A 
ATOM     74  C   UNL A   1      45.621  36.288  29.146  1.00  0.00     0.049 A 
ATOM     75  H   UNL A   1      45.757  34.234  28.676  1.00  0.00     0.167 HD
ATOM     76  C   UNL A   1      43.548  35.327  30.104  1.00  0.00     0.074 A 
ATOM     77  C   UNL A   1      42.296  35.413  30.827  1.00  0.00     0.031 C 
ATOM     78  C   UNL A   1      44.371  36.377  29.866  1.00  0.00     0.031 A 
BRANCH  65  79
ATOM     79  C   UNL A   1      49.530  34.961  26.773  1.00  0.00    -0.014 A 
ATOM     80  C   UNL A   1      49.585  35.315  25.411  1.00  0.00     0.010 A 
ATOM     81  C   UNL A   1      50.726  34.920  27.514  1.00  0.00     0.010 A 
ATOM     82  C   UNL A   1      50.814  35.564  24.789  1.00  0.00     0.020 A 
ATOM     83  C   UNL A   1      51.953  35.201  26.903  1.00  0.00     0.020 A 
ATOM     84  C   UNL A   1      51.991  35.492  25.537  1.00  0.00     0.054 A 
BRANCH  84  85
ATOM     85  S   UNL A   1      53.578  35.750  24.697  1.00  0.00     0.124 S 
ATOM     86  O   UNL A   1      53.190  36.544  23.536  1.00  0.00    -0.237 OA
ATOM     87  O   UNL A   1      54.363  36.453  25.710  1.00  0.00    -0.237 OA
ATOM     88  O   UNL A   1      54.036  34.393  24.402  1.00  0.00    -0.744 OA
ENDBRANCH  84  85
ENDBRANCH  65  79
BRANCH  66  89
ATOM     89  C   UNL A   1      41.020  31.370  30.615  1.00  0.00    -0.014 A 
ATOM     90  C   UNL A   1      39.832  31.475  29.865  1.00  0.00     0.010 A 
ATOM     91  C   UNL A   1      40.962  30.822  31.909  1.00  0.00     0.010 A 
ATOM     92  C   UNL A   1      38.605  31.104  30.421  1.00  0.00     0.020 A 
ATOM     93  C   UNL A   1      39.741  30.413  32.454  1.00  0.00     0.020 A 
ATOM     94  C   UNL A   1      38.567  30.585  31.717  1.00  0.00     0.054 A 
BRANCH  94  95
ATOM     95  S   UNL A   1      36.956  30.160  32.434  1.00  0.00     0.124 S 
ATOM     96  O   UNL A   1      37.323  29.129  33.402  1.00  0.00    -0.237 OA
ATOM     97  O   UNL A   1      36.517  31.431  33.004  1.00  0.00    -0.237 OA
ATOM     98  O   UNL A   1      36.183  29.693  31.286  1.00  0.00    -0.744 OA
ENDBRANCH  94  95
ENDBRANCH  66  89
BRANCH  78  99
ATOM     99  C   UNL A   1      43.970  37.736  30.388  1.00  0.00    -0.014 A 
ATOM    100  C   UNL A   1      43.319  38.649  29.536  1.00  0.00     0.010 A 
ATOM    101  C   UNL A   1      44.365  38.163  31.668  1.00  0.00     0.010 A 
ATOM    102  C   UNL A   1      43.117  39.973  29.932  1.00  0.00     0.020 A 
ATOM    103  C   UNL A   1      44.131  39.478  32.083  1.00  0.00     0.020 A 
ATOM    104  C   UNL A   1      43.536  40.383  31.200  1.00  0.00     0.054 A 
BRANCH 104 105
ATOM    105  S   UNL A   1      43.322  42.122  31.672  1.00  0.00     0.124 S 
ATOM    106  O   UNL A   1      41.885  42.314  31.492  1.00  0.00    -0.237 OA
ATOM    107  O   UNL A   1      43.791  42.137  33.055  1.00  0.00    -0.237 OA
ATOM    108  O   UNL A   1      44.170  42.843  30.726  1.00  0.00    -0.744 OA
ENDBRANCH 104 105
ENDBRANCH  78  99
ENDBRANCH  52  53
ENDBRANCH  45  47
ENDBRANCH  44  45
ENDBRANCH  43  44
ENDBRANCH  42  43
ENDBRANCH  41  42
ENDBRANCH  40  41
ENDBRANCH   1  40
TORSDOF 24
ENDMDL
