MODEL 1
REMARK VINA RESULT:     -11.4      0.000      0.000
REMARK SMILES CC1=C(C)C[C@@H](C(=O)OCCOCCOCCOCCOC(=O)c2ccc(-c3c4nc(c(-c5ccc(S(=O)(=O)[O-])cc5)c5ccc([nH]5)c(-c5ccc(S(=O)(=O)[O-])cc5)c5nc(c(-c6ccc(S(=O)(=O)[O-])cc6)c6ccc3[nH]6)C=C5)C=C4)cc2)[C@@H](C(=O)NCC[NH+]2CCOCC2)C1
REMARK SMILES IDX 14 1 13 2 12 3 11 4 10 5 9 6 7 7 8 8 6 9 1 10 2 11 3 12
REMARK SMILES IDX 96 13 4 14 5 15 84 16 85 17 86 18 87 19 88 21 89 22 90 23
REMARK SMILES IDX 91 24 95 25 92 27 94 28 93 29 15 30 16 31 17 32 18 33 19 34
REMARK SMILES IDX 20 35 21 36 22 37 23 38 24 39 25 40 83 41 26 42 82 43 27 44
REMARK SMILES IDX 28 45 29 46 76 47 30 48 81 49 75 50 77 51 31 52 80 53 74 54
REMARK SMILES IDX 73 55 32 57 62 58 43 59 61 60 44 61 47 62 60 63 78 64 45 65
REMARK SMILES IDX 46 66 59 68 79 69 48 70 33 71 34 72 42 73 35 74 41 75 36 76
REMARK SMILES IDX 37 77 38 78 39 79 40 80 63 81 64 82 72 83 65 84 71 85 66 86
REMARK SMILES IDX 67 87 68 88 69 89 70 90 49 91 50 92 58 93 51 94 57 95 52 96
REMARK SMILES IDX 53 97 54 98 55 99 56 100
REMARK H PARENT 87 20 90 26 77 56 47 67
REMARK Flexibility Score: inf
ROOT
ATOM      1  C   UNL A   1      41.243  20.583  26.118  1.00  0.00     0.188 C 
ENDROOT
BRANCH   1   2
ATOM      2  C   UNL A   1      39.805  20.041  26.170  1.00  0.00     0.188 C 
BRANCH   2   3
ATOM      3  O   UNL A   1      38.889  20.616  25.262  1.00  0.00    -0.376 OA
BRANCH   3   4
ATOM      4  C   UNL A   1      38.286  21.827  25.698  1.00  0.00     0.202 C 
BRANCH   4   5
ATOM      5  C   UNL A   1      36.940  22.299  25.049  1.00  0.00     0.261 C 
BRANCH   5   6
ATOM      6  O   UNL A   1      35.763  21.409  24.943  1.00  0.00    -0.463 OA
BRANCH   6   7
ATOM      7  C   UNL A   1      34.674  21.717  25.683  1.00  0.00     0.310 C 
ATOM      8  O   UNL A   1      34.755  21.762  26.916  1.00  0.00    -0.252 OA
BRANCH   7   9
ATOM      9  C   UNL A   1      33.309  22.160  25.018  1.00  0.00     0.116 C 
ATOM     10  C   UNL A   1      32.406  19.042  22.142  1.00  0.00     0.039 C 
ATOM     11  C   UNL A   1      32.349  20.099  23.218  1.00  0.00    -0.074 C 
ATOM     12  C   UNL A   1      32.374  19.865  24.543  1.00  0.00    -0.073 C 
ATOM     13  C   UNL A   1      32.244  21.521  22.700  1.00  0.00     0.045 C 
ATOM     14  C   UNL A   1      32.464  18.519  25.210  1.00  0.00     0.039 C 
ATOM     15  C   UNL A   1      32.327  21.047  25.480  1.00  0.00     0.046 C 
ATOM     16  C   UNL A   1      32.792  22.688  23.615  1.00  0.00     0.097 C 
BRANCH  16  17
ATOM     17  C   UNL A   1      33.626  23.569  22.681  1.00  0.00     0.224 C 
ATOM     18  O   UNL A   1      34.789  23.208  22.437  1.00  0.00    -0.275 OA
ATOM     19  N   UNL A   1      33.246  24.635  21.919  1.00  0.00    -0.350 N 
ATOM     20  H   UNL A   1      34.020  24.825  21.341  1.00  0.00     0.163 HD
BRANCH  19  21
ATOM     21  C   UNL A   1      32.193  25.681  21.526  1.00  0.00     0.177 C 
BRANCH  21  22
ATOM     22  C   UNL A   1      31.936  27.271  22.309  1.00  0.00     0.283 C 
BRANCH  22  23
ATOM     23  N   UNL A   1      31.411  27.991  23.711  1.00  0.00    -0.330 N 
ATOM     24  C   UNL A   1      31.972  27.776  25.421  1.00  0.00     0.291 C 
ATOM     25  C   UNL A   1      29.891  27.648  23.725  1.00  0.00     0.291 C 
ATOM     26  H   UNL A   1      31.829  28.912  23.581  1.00  0.00     0.348 HD
ATOM     27  C   UNL A   1      31.694  26.048  26.403  1.00  0.00     0.221 C 
ATOM     28  C   UNL A   1      29.472  26.007  23.984  1.00  0.00     0.221 C 
ATOM     29  O   UNL A   1      30.511  25.025  25.186  1.00  0.00    -0.370 OA
ENDBRANCH  22  23
ENDBRANCH  21  22
ENDBRANCH  19  21
ENDBRANCH  16  17
ENDBRANCH   7   9
ENDBRANCH   6   7
ENDBRANCH   5   6
ENDBRANCH   4   5
ENDBRANCH   3   4
ENDBRANCH   2   3
ENDBRANCH   1   2
BRANCH   1  30
ATOM     30  O   UNL A   1      42.266  19.665  25.731  1.00  0.00    -0.377 OA
BRANCH  30  31
ATOM     31  C   UNL A   1      43.717  19.840  25.614  1.00  0.00     0.188 C 
BRANCH  31  32
ATOM     32  C   UNL A   1      44.578  21.001  24.496  1.00  0.00     0.188 C 
BRANCH  32  33
ATOM     33  O   UNL A   1      43.743  22.645  24.120  1.00  0.00    -0.376 OA
BRANCH  33  34
ATOM     34  C   UNL A   1      42.927  23.653  25.676  1.00  0.00     0.202 C 
BRANCH  34  35
ATOM     35  C   UNL A   1      41.531  24.800  25.692  1.00  0.00     0.261 C 
BRANCH  35  36
ATOM     36  O   UNL A   1      41.145  25.215  27.082  1.00  0.00    -0.460 OA
BRANCH  36  37
ATOM     37  C   UNL A   1      39.849  25.645  27.266  1.00  0.00     0.338 C 
ATOM     38  O   UNL A   1      38.850  25.004  26.966  1.00  0.00    -0.246 OA
BRANCH  37  39
ATOM     39  C   UNL A   1      39.736  26.834  28.159  1.00  0.00     0.060 A 
ATOM     40  C   UNL A   1      40.420  28.039  27.880  1.00  0.00     0.016 A 
ATOM     41  C   UNL A   1      39.151  26.661  29.405  1.00  0.00     0.016 A 
ATOM     42  C   UNL A   1      40.487  29.076  28.821  1.00  0.00     0.010 A 
ATOM     43  C   UNL A   1      39.248  27.679  30.359  1.00  0.00     0.010 A 
ATOM     44  C   UNL A   1      39.929  28.879  30.083  1.00  0.00    -0.014 A 
BRANCH  44  45
ATOM     45  C   UNL A   1      40.145  29.830  31.199  1.00  0.00     0.031 A 
ATOM     46  C   UNL A   1      41.292  29.575  32.137  1.00  0.00     0.074 A 
ATOM     47  C   UNL A   1      39.250  30.803  31.440  1.00  0.00     0.049 A 
ATOM     48  N   UNL A   1      41.526  30.079  33.318  1.00  0.00    -0.248 NA
ATOM     49  C   UNL A   1      42.298  28.594  31.690  1.00  0.00     0.031 C 
ATOM     50  C   UNL A   1      38.128  31.148  30.567  1.00  0.00     0.029 A 
ATOM     51  N   UNL A   1      39.112  31.645  32.515  1.00  0.00    -0.354 N 
ATOM     52  C   UNL A   1      42.673  29.443  33.779  1.00  0.00     0.074 A 
ATOM     53  C   UNL A   1      43.088  28.513  32.753  1.00  0.00     0.031 C 
ATOM     54  C   UNL A   1      37.390  32.100  31.162  1.00  0.00     0.029 A 
ATOM     55  C   UNL A   1      37.956  32.389  32.476  1.00  0.00     0.049 A 
ATOM     56  H   UNL A   1      39.775  31.710  33.241  1.00  0.00     0.167 HD
ATOM     57  C   UNL A   1      43.304  29.613  34.964  1.00  0.00     0.031 A 
ATOM     58  C   UNL A   1      37.392  33.170  33.419  1.00  0.00     0.031 A 
ATOM     59  C   UNL A   1      42.850  30.535  35.973  1.00  0.00     0.049 A 
ATOM     60  C   UNL A   1      38.090  33.308  34.747  1.00  0.00     0.074 A 
ATOM     61  C   UNL A   1      43.432  30.830  37.193  1.00  0.00     0.029 A 
ATOM     62  N   UNL A   1      41.694  31.298  35.884  1.00  0.00    -0.354 N 
ATOM     63  N   UNL A   1      39.200  32.737  35.158  1.00  0.00    -0.248 NA
ATOM     64  C   UNL A   1      37.470  34.199  35.736  1.00  0.00     0.031 C 
ATOM     65  C   UNL A   1      42.583  31.704  37.876  1.00  0.00     0.029 A 
ATOM     66  C   UNL A   1      41.524  32.033  37.043  1.00  0.00     0.049 A 
ATOM     67  H   UNL A   1      41.086  31.313  35.110  1.00  0.00     0.167 HD
ATOM     68  C   UNL A   1      39.431  33.233  36.437  1.00  0.00     0.074 A 
ATOM     69  C   UNL A   1      38.354  34.160  36.723  1.00  0.00     0.031 C 
ATOM     70  C   UNL A   1      40.442  32.952  37.298  1.00  0.00     0.031 A 
BRANCH  57  71
ATOM     71  C   UNL A   1      44.512  28.761  35.261  1.00  0.00    -0.014 A 
ATOM     72  C   UNL A   1      45.788  29.323  35.444  1.00  0.00     0.010 A 
ATOM     73  C   UNL A   1      44.350  27.372  35.433  1.00  0.00     0.010 A 
ATOM     74  C   UNL A   1      46.879  28.512  35.775  1.00  0.00     0.020 A 
ATOM     75  C   UNL A   1      45.431  26.563  35.795  1.00  0.00     0.020 A 
ATOM     76  C   UNL A   1      46.691  27.139  35.957  1.00  0.00     0.054 A 
BRANCH  76  77
ATOM     77  S   UNL A   1      48.112  26.126  36.456  1.00  0.00     0.124 S 
ATOM     78  O   UNL A   1      48.931  27.091  37.185  1.00  0.00    -0.237 OA
ATOM     79  O   UNL A   1      47.489  25.088  37.272  1.00  0.00    -0.237 OA
ATOM     80  O   UNL A   1      48.674  25.667  35.189  1.00  0.00    -0.744 OA
ENDBRANCH  76  77
ENDBRANCH  57  71
BRANCH  58  81
ATOM     81  C   UNL A   1      36.087  33.845  33.159  1.00  0.00    -0.014 A 
ATOM     82  C   UNL A   1      36.042  35.112  32.553  1.00  0.00     0.010 A 
ATOM     83  C   UNL A   1      34.877  33.222  33.519  1.00  0.00     0.010 A 
ATOM     84  C   UNL A   1      34.818  35.757  32.342  1.00  0.00     0.020 A 
ATOM     85  C   UNL A   1      33.650  33.844  33.275  1.00  0.00     0.020 A 
ATOM     86  C   UNL A   1      33.629  35.116  32.702  1.00  0.00     0.054 A 
BRANCH  86  87
ATOM     87  S   UNL A   1      32.055  35.961  32.392  1.00  0.00     0.124 S 
ATOM     88  O   UNL A   1      32.181  36.335  30.987  1.00  0.00    -0.237 OA
ATOM     89  O   UNL A   1      31.077  34.916  32.685  1.00  0.00    -0.237 OA
ATOM     90  O   UNL A   1      32.071  37.075  33.338  1.00  0.00    -0.744 OA
ENDBRANCH  86  87
ENDBRANCH  58  81
BRANCH  70  91
ATOM     91  C   UNL A   1      40.464  33.700  38.605  1.00  0.00    -0.014 A 
ATOM     92  C   UNL A   1      39.948  33.141  39.787  1.00  0.00     0.010 A 
ATOM     93  C   UNL A   1      41.072  34.970  38.654  1.00  0.00     0.010 A 
ATOM     94  C   UNL A   1      40.005  33.855  40.986  1.00  0.00     0.020 A 
ATOM     95  C   UNL A   1      41.169  35.667  39.858  1.00  0.00     0.020 A 
ATOM     96  C   UNL A   1      40.621  35.111  41.014  1.00  0.00     0.054 A 
BRANCH  96  97
ATOM     97  S   UNL A   1      40.724  35.992  42.594  1.00  0.00     0.124 S 
ATOM     98  O   UNL A   1      39.452  36.707  42.628  1.00  0.00    -0.237 OA
ATOM     99  O   UNL A   1      40.859  34.901  43.557  1.00  0.00    -0.237 OA
ATOM    100  O   UNL A   1      41.908  36.836  42.445  1.00  0.00    -0.744 OA
ENDBRANCH  96  97
ENDBRANCH  70  91
ENDBRANCH  44  45
ENDBRANCH  37  39
ENDBRANCH  36  37
ENDBRANCH  35  36
ENDBRANCH  34  35
ENDBRANCH  33  34
ENDBRANCH  32  33
ENDBRANCH  31  32
ENDBRANCH  30  31
ENDBRANCH   1  30
TORSDOF 27
ENDMDL
MODEL 2
REMARK VINA RESULT:     -11.2      5.853      9.252
REMARK SMILES CC1=C(C)C[C@@H](C(=O)OCCOCCOCCOCCOC(=O)c2ccc(-c3c4nc(c(-c5ccc(S(=O)(=O)[O-])cc5)c5ccc([nH]5)c(-c5ccc(S(=O)(=O)[O-])cc5)c5nc(c(-c6ccc(S(=O)(=O)[O-])cc6)c6ccc3[nH]6)C=C5)C=C4)cc2)[C@@H](C(=O)NCC[NH+]2CCOCC2)C1
REMARK SMILES IDX 14 1 13 2 12 3 11 4 10 5 9 6 7 7 8 8 6 9 1 10 2 11 3 12
REMARK SMILES IDX 96 13 4 14 5 15 84 16 85 17 86 18 87 19 88 21 89 22 90 23
REMARK SMILES IDX 91 24 95 25 92 27 94 28 93 29 15 30 16 31 17 32 18 33 19 34
REMARK SMILES IDX 20 35 21 36 22 37 23 38 24 39 25 40 83 41 26 42 82 43 27 44
REMARK SMILES IDX 28 45 29 46 76 47 30 48 81 49 75 50 77 51 31 52 80 53 74 54
REMARK SMILES IDX 73 55 32 57 62 58 43 59 61 60 44 61 47 62 60 63 78 64 45 65
REMARK SMILES IDX 46 66 59 68 79 69 48 70 33 71 34 72 42 73 35 74 41 75 36 76
REMARK SMILES IDX 37 77 38 78 39 79 40 80 63 81 64 82 72 83 65 84 71 85 66 86
REMARK SMILES IDX 67 87 68 88 69 89 70 90 49 91 50 92 58 93 51 94 57 95 52 96
REMARK SMILES IDX 53 97 54 98 55 99 56 100
REMARK H PARENT 87 20 90 26 77 56 47 67
REMARK Flexibility Score: inf
ROOT
ATOM      1  C   UNL A   1      37.293  22.573  25.680  1.00  0.00     0.188 C 
ENDROOT
BRANCH   1   2
ATOM      2  C   UNL A   1      36.452  21.910  24.577  1.00  0.00     0.188 C 
BRANCH   2   3
ATOM      3  O   UNL A   1      35.587  22.761  23.855  1.00  0.00    -0.376 OA
BRANCH   3   4
ATOM      4  C   UNL A   1      35.092  23.877  24.583  1.00  0.00     0.202 C 
BRANCH   4   5
ATOM      5  C   UNL A   1      34.132  24.896  23.878  1.00  0.00     0.261 C 
BRANCH   5   6
ATOM      6  O   UNL A   1      33.115  24.467  22.893  1.00  0.00    -0.463 OA
BRANCH   6   7
ATOM      7  C   UNL A   1      32.043  25.269  22.708  1.00  0.00     0.310 C 
ATOM      8  O   UNL A   1      31.921  25.909  21.657  1.00  0.00    -0.252 OA
BRANCH   7   9
ATOM      9  C   UNL A   1      30.848  25.320  23.743  1.00  0.00     0.116 C 
ATOM     10  C   UNL A   1      31.764  28.675  26.335  1.00  0.00     0.039 C 
ATOM     11  C   UNL A   1      31.094  27.651  25.451  1.00  0.00    -0.074 C 
ATOM     12  C   UNL A   1      30.820  27.811  24.142  1.00  0.00    -0.073 C 
ATOM     13  C   UNL A   1      30.712  26.362  26.154  1.00  0.00     0.045 C 
ATOM     14  C   UNL A   1      31.124  29.027  23.310  1.00  0.00     0.039 C 
ATOM     15  C   UNL A   1      30.161  26.672  23.404  1.00  0.00     0.046 C 
ATOM     16  C   UNL A   1      30.606  25.046  25.286  1.00  0.00     0.097 C 
BRANCH  16  17
ATOM     17  C   UNL A   1      31.359  23.980  26.086  1.00  0.00     0.224 C 
ATOM     18  O   UNL A   1      31.508  24.173  27.303  1.00  0.00    -0.275 OA
ATOM     19  N   UNL A   1      31.773  22.735  25.706  1.00  0.00    -0.350 N 
ATOM     20  H   UNL A   1      32.068  22.300  26.539  1.00  0.00     0.163 HD
BRANCH  19  21
ATOM     21  C   UNL A   1      31.997  21.686  24.608  1.00  0.00     0.177 C 
BRANCH  21  22
ATOM     22  C   UNL A   1      32.429  19.966  24.860  1.00  0.00     0.283 C 
BRANCH  22  23
ATOM     23  N   UNL A   1      33.642  18.966  25.396  1.00  0.00    -0.330 N 
ATOM     24  C   UNL A   1      35.024  18.214  24.497  1.00  0.00     0.291 C 
ATOM     25  C   UNL A   1      32.855  17.776  26.021  1.00  0.00     0.291 C 
ATOM     26  H   UNL A   1      34.206  19.655  25.893  1.00  0.00     0.348 HD
ATOM     27  C   UNL A   1      34.719  16.812  23.093  1.00  0.00     0.221 C 
ATOM     28  C   UNL A   1      32.002  16.759  24.937  1.00  0.00     0.221 C 
ATOM     29  O   UNL A   1      32.791  16.397  23.283  1.00  0.00    -0.370 OA
ENDBRANCH  22  23
ENDBRANCH  21  22
ENDBRANCH  19  21
ENDBRANCH  16  17
ENDBRANCH   7   9
ENDBRANCH   6   7
ENDBRANCH   5   6
ENDBRANCH   4   5
ENDBRANCH   3   4
ENDBRANCH   2   3
ENDBRANCH   1   2
BRANCH   1  30
ATOM     30  O   UNL A   1      38.472  21.882  26.097  1.00  0.00    -0.377 OA
BRANCH  30  31
ATOM     31  C   UNL A   1      39.785  22.389  26.508  1.00  0.00     0.188 C 
BRANCH  31  32
ATOM     32  C   UNL A   1      41.368  21.479  26.421  1.00  0.00     0.188 C 
BRANCH  32  33
ATOM     33  O   UNL A   1      41.633  20.054  27.620  1.00  0.00    -0.376 OA
BRANCH  33  34
ATOM     34  C   UNL A   1      42.684  18.456  26.952  1.00  0.00     0.202 C 
BRANCH  34  35
ATOM     35  C   UNL A   1      43.665  18.280  25.446  1.00  0.00     0.261 C 
BRANCH  35  36
ATOM     36  O   UNL A   1      44.815  19.244  25.395  1.00  0.00    -0.460 OA
BRANCH  36  37
ATOM     37  C   UNL A   1      44.754  20.235  24.438  1.00  0.00     0.338 C 
ATOM     38  O   UNL A   1      44.578  20.043  23.242  1.00  0.00    -0.246 OA
BRANCH  37  39
ATOM     39  C   UNL A   1      44.602  21.605  25.008  1.00  0.00     0.060 A 
ATOM     40  C   UNL A   1      44.024  22.658  24.264  1.00  0.00     0.016 A 
ATOM     41  C   UNL A   1      45.266  21.896  26.191  1.00  0.00     0.016 A 
ATOM     42  C   UNL A   1      44.076  23.985  24.715  1.00  0.00     0.010 A 
ATOM     43  C   UNL A   1      45.351  23.223  26.625  1.00  0.00     0.010 A 
ATOM     44  C   UNL A   1      44.777  24.273  25.885  1.00  0.00    -0.014 A 
BRANCH  44  45
ATOM     45  C   UNL A   1      45.065  25.663  26.311  1.00  0.00     0.031 A 
ATOM     46  C   UNL A   1      46.452  26.200  26.092  1.00  0.00     0.074 A 
ATOM     47  C   UNL A   1      44.147  26.362  27.001  1.00  0.00     0.049 A 
ATOM     48  N   UNL A   1      47.025  27.252  26.610  1.00  0.00    -0.248 NA
ATOM     49  C   UNL A   1      47.320  25.425  25.187  1.00  0.00     0.031 C 
ATOM     50  C   UNL A   1      42.766  25.938  27.230  1.00  0.00     0.029 A 
ATOM     51  N   UNL A   1      44.253  27.549  27.681  1.00  0.00    -0.354 N 
ATOM     52  C   UNL A   1      48.333  27.240  26.137  1.00  0.00     0.074 A 
ATOM     53  C   UNL A   1      48.471  26.075  25.293  1.00  0.00     0.031 C 
ATOM     54  C   UNL A   1      42.164  26.830  28.035  1.00  0.00     0.029 A 
ATOM     55  C   UNL A   1      43.132  27.853  28.419  1.00  0.00     0.049 A 
ATOM     56  H   UNL A   1      45.051  28.126  27.644  1.00  0.00     0.167 HD
ATOM     57  C   UNL A   1      49.327  28.119  26.405  1.00  0.00     0.031 A 
ATOM     58  C   UNL A   1      42.933  28.815  29.342  1.00  0.00     0.031 A 
ATOM     59  C   UNL A   1      49.159  29.258  27.268  1.00  0.00     0.049 A 
ATOM     60  C   UNL A   1      44.070  29.753  29.657  1.00  0.00     0.074 A 
ATOM     61  C   UNL A   1      50.078  30.245  27.578  1.00  0.00     0.029 A 
ATOM     62  N   UNL A   1      47.999  29.554  27.971  1.00  0.00    -0.354 N 
ATOM     63  N   UNL A   1      45.290  29.761  29.170  1.00  0.00    -0.248 NA
ATOM     64  C   UNL A   1      43.805  30.815  30.636  1.00  0.00     0.031 C 
ATOM     65  C   UNL A   1      49.502  31.086  28.534  1.00  0.00     0.029 A 
ATOM     66  C   UNL A   1      48.191  30.685  28.744  1.00  0.00     0.049 A 
ATOM     67  H   UNL A   1      47.164  29.036  27.925  1.00  0.00     0.167 HD
ATOM     68  C   UNL A   1      45.924  30.853  29.753  1.00  0.00     0.074 A 
ATOM     69  C   UNL A   1      44.947  31.487  30.616  1.00  0.00     0.031 C 
ATOM     70  C   UNL A   1      47.197  31.296  29.591  1.00  0.00     0.031 A 
BRANCH  57  71
ATOM     71  C   UNL A   1      50.689  27.862  25.811  1.00  0.00    -0.014 A 
ATOM     72  C   UNL A   1      51.624  27.019  26.439  1.00  0.00     0.010 A 
ATOM     73  C   UNL A   1      51.011  28.420  24.559  1.00  0.00     0.010 A 
ATOM     74  C   UNL A   1      52.857  26.754  25.835  1.00  0.00     0.020 A 
ATOM     75  C   UNL A   1      52.229  28.132  23.937  1.00  0.00     0.020 A 
ATOM     76  C   UNL A   1      53.148  27.306  24.584  1.00  0.00     0.054 A 
BRANCH  76  77
ATOM     77  S   UNL A   1      54.727  26.886  23.795  1.00  0.00     0.124 S 
ATOM     78  O   UNL A   1      55.522  28.086  24.048  1.00  0.00    -0.237 OA
ATOM     79  O   UNL A   1      55.141  25.693  24.530  1.00  0.00    -0.237 OA
ATOM     80  O   UNL A   1      54.370  26.662  22.397  1.00  0.00    -0.744 OA
ENDBRANCH  76  77
ENDBRANCH  57  71
BRANCH  58  81
ATOM     81  C   UNL A   1      41.628  28.916  30.057  1.00  0.00    -0.014 A 
ATOM     82  C   UNL A   1      40.504  29.476  29.426  1.00  0.00     0.010 A 
ATOM     83  C   UNL A   1      41.502  28.453  31.381  1.00  0.00     0.010 A 
ATOM     84  C   UNL A   1      39.291  29.600  30.112  1.00  0.00     0.020 A 
ATOM     85  C   UNL A   1      40.283  28.539  32.057  1.00  0.00     0.020 A 
ATOM     86  C   UNL A   1      39.188  29.127  31.423  1.00  0.00     0.054 A 
BRANCH  86  87
ATOM     87  S   UNL A   1      37.596  29.275  32.281  1.00  0.00     0.124 S 
ATOM     88  O   UNL A   1      36.651  29.286  31.170  1.00  0.00    -0.237 OA
ATOM     89  O   UNL A   1      37.579  28.075  33.115  1.00  0.00    -0.237 OA
ATOM     90  O   UNL A   1      37.716  30.534  33.013  1.00  0.00    -0.744 OA
ENDBRANCH  86  87
ENDBRANCH  58  81
BRANCH  70  91
ATOM     91  C   UNL A   1      47.587  32.559  30.314  1.00  0.00    -0.014 A 
ATOM     92  C   UNL A   1      48.135  32.531  31.608  1.00  0.00     0.010 A 
ATOM     93  C   UNL A   1      47.452  33.793  29.651  1.00  0.00     0.010 A 
ATOM     94  C   UNL A   1      48.504  33.720  32.241  1.00  0.00     0.020 A 
ATOM     95  C   UNL A   1      47.861  34.978  30.262  1.00  0.00     0.020 A 
ATOM     96  C   UNL A   1      48.371  34.935  31.560  1.00  0.00     0.054 A 
BRANCH  96  97
ATOM     97  S   UNL A   1      48.907  36.457  32.387  1.00  0.00     0.124 S 
ATOM     98  O   UNL A   1      50.360  36.323  32.358  1.00  0.00    -0.237 OA
ATOM     99  O   UNL A   1      48.353  37.498  31.524  1.00  0.00    -0.237 OA
ATOM    100  O   UNL A   1      48.300  36.364  33.713  1.00  0.00    -0.744 OA
ENDBRANCH  96  97
ENDBRANCH  70  91
ENDBRANCH  44  45
ENDBRANCH  37  39
ENDBRANCH  36  37
ENDBRANCH  35  36
ENDBRANCH  34  35
ENDBRANCH  33  34
ENDBRANCH  32  33
ENDBRANCH  31  32
ENDBRANCH  30  31
ENDBRANCH   1  30
TORSDOF 27
ENDMDL
MODEL 3
REMARK VINA RESULT:     -10.9      6.531     11.728
REMARK SMILES CC1=C(C)C[C@@H](C(=O)OCCOCCOCCOCCOC(=O)c2ccc(-c3c4nc(c(-c5ccc(S(=O)(=O)[O-])cc5)c5ccc([nH]5)c(-c5ccc(S(=O)(=O)[O-])cc5)c5nc(c(-c6ccc(S(=O)(=O)[O-])cc6)c6ccc3[nH]6)C=C5)C=C4)cc2)[C@@H](C(=O)NCC[NH+]2CCOCC2)C1
REMARK SMILES IDX 14 1 13 2 12 3 11 4 10 5 9 6 7 7 8 8 6 9 1 10 2 11 3 12
REMARK SMILES IDX 96 13 4 14 5 15 84 16 85 17 86 18 87 19 88 21 89 22 90 23
REMARK SMILES IDX 91 24 95 25 92 27 94 28 93 29 15 30 16 31 17 32 18 33 19 34
REMARK SMILES IDX 20 35 21 36 22 37 23 38 24 39 25 40 83 41 26 42 82 43 27 44
REMARK SMILES IDX 28 45 29 46 76 47 30 48 81 49 75 50 77 51 31 52 80 53 74 54
REMARK SMILES IDX 73 55 32 57 62 58 43 59 61 60 44 61 47 62 60 63 78 64 45 65
REMARK SMILES IDX 46 66 59 68 79 69 48 70 33 71 34 72 42 73 35 74 41 75 36 76
REMARK SMILES IDX 37 77 38 78 39 79 40 80 63 81 64 82 72 83 65 84 71 85 66 86
REMARK SMILES IDX 67 87 68 88 69 89 70 90 49 91 50 92 58 93 51 94 57 95 52 96
REMARK SMILES IDX 53 97 54 98 55 99 56 100
REMARK H PARENT 87 20 90 26 77 56 47 67
REMARK Flexibility Score: inf
ROOT
ATOM      1  C   UNL A   1      37.488  22.648  25.485  1.00  0.00     0.188 C 
ENDROOT
BRANCH   1   2
ATOM      2  C   UNL A   1      36.833  21.930  24.294  1.00  0.00     0.188 C 
BRANCH   2   3
ATOM      3  O   UNL A   1      35.751  22.599  23.681  1.00  0.00    -0.376 OA
BRANCH   3   4
ATOM      4  C   UNL A   1      35.046  23.504  24.521  1.00  0.00     0.202 C 
BRANCH   4   5
ATOM      5  C   UNL A   1      34.280  24.714  23.885  1.00  0.00     0.261 C 
BRANCH   5   6
ATOM      6  O   UNL A   1      33.515  24.586  22.625  1.00  0.00    -0.463 OA
BRANCH   6   7
ATOM      7  C   UNL A   1      32.463  25.415  22.443  1.00  0.00     0.310 C 
ATOM      8  O   UNL A   1      32.512  26.298  21.578  1.00  0.00    -0.252 OA
BRANCH   7   9
ATOM      9  C   UNL A   1      31.096  25.213  23.211  1.00  0.00     0.116 C 
ATOM     10  C   UNL A   1      31.492  27.578  26.825  1.00  0.00     0.039 C 
ATOM     11  C   UNL A   1      31.005  26.905  25.565  1.00  0.00    -0.074 C 
ATOM     12  C   UNL A   1      30.979  27.466  24.342  1.00  0.00    -0.073 C 
ATOM     13  C   UNL A   1      30.507  25.486  25.760  1.00  0.00     0.045 C 
ATOM     14  C   UNL A   1      31.426  28.859  23.989  1.00  0.00     0.039 C 
ATOM     15  C   UNL A   1      30.476  26.638  23.185  1.00  0.00     0.046 C 
ATOM     16  C   UNL A   1      30.572  24.499  24.527  1.00  0.00     0.097 C 
BRANCH  16  17
ATOM     17  C   UNL A   1      31.169  23.204  25.084  1.00  0.00     0.224 C 
ATOM     18  O   UNL A   1      31.162  23.052  26.316  1.00  0.00    -0.275 OA
ATOM     19  N   UNL A   1      31.578  22.080  24.426  1.00  0.00    -0.350 N 
ATOM     20  H   UNL A   1      31.743  21.416  25.135  1.00  0.00     0.163 HD
BRANCH  19  21
ATOM     21  C   UNL A   1      31.904  21.350  23.116  1.00  0.00     0.177 C 
BRANCH  21  22
ATOM     22  C   UNL A   1      32.356  19.625  22.948  1.00  0.00     0.283 C 
BRANCH  22  23
ATOM     23  N   UNL A   1      33.566  18.533  23.268  1.00  0.00    -0.330 N 
ATOM     24  C   UNL A   1      33.489  16.741  23.530  1.00  0.00     0.291 C 
ATOM     25  C   UNL A   1      34.222  19.114  24.556  1.00  0.00     0.291 C 
ATOM     26  H   UNL A   1      33.983  18.483  22.338  1.00  0.00     0.348 HD
ATOM     27  C   UNL A   1      32.586  15.958  25.142  1.00  0.00     0.221 C 
ATOM     28  C   UNL A   1      33.291  19.052  25.993  1.00  0.00     0.221 C 
ATOM     29  O   UNL A   1      32.217  17.547  26.267  1.00  0.00    -0.370 OA
ENDBRANCH  22  23
ENDBRANCH  21  22
ENDBRANCH  19  21
ENDBRANCH  16  17
ENDBRANCH   7   9
ENDBRANCH   6   7
ENDBRANCH   5   6
ENDBRANCH   4   5
ENDBRANCH   3   4
ENDBRANCH   2   3
ENDBRANCH   1   2
BRANCH   1  30
ATOM     30  O   UNL A   1      38.568  21.972  26.133  1.00  0.00    -0.377 OA
BRANCH  30  31
ATOM     31  C   UNL A   1      39.877  22.460  26.576  1.00  0.00     0.188 C 
BRANCH  31  32
ATOM     32  C   UNL A   1      41.469  21.577  26.414  1.00  0.00     0.188 C 
BRANCH  32  33
ATOM     33  O   UNL A   1      41.793  20.127  27.569  1.00  0.00    -0.376 OA
BRANCH  33  34
ATOM     34  C   UNL A   1      42.775  18.528  26.804  1.00  0.00     0.202 C 
BRANCH  34  35
ATOM     35  C   UNL A   1      43.651  18.367  25.233  1.00  0.00     0.261 C 
BRANCH  35  36
ATOM     36  O   UNL A   1      44.854  19.263  25.153  1.00  0.00    -0.460 OA
BRANCH  36  37
ATOM     37  C   UNL A   1      44.790  20.312  24.261  1.00  0.00     0.338 C 
ATOM     38  O   UNL A   1      44.545  20.201  23.066  1.00  0.00    -0.246 OA
BRANCH  37  39
ATOM     39  C   UNL A   1      44.728  21.650  24.918  1.00  0.00     0.060 A 
ATOM     40  C   UNL A   1      44.549  22.836  24.171  1.00  0.00     0.016 A 
ATOM     41  C   UNL A   1      45.102  21.739  26.251  1.00  0.00     0.016 A 
ATOM     42  C   UNL A   1      44.704  24.099  24.759  1.00  0.00     0.010 A 
ATOM     43  C   UNL A   1      45.294  22.998  26.830  1.00  0.00     0.010 A 
ATOM     44  C   UNL A   1      45.117  24.180  26.087  1.00  0.00    -0.014 A 
BRANCH  44  45
ATOM     45  C   UNL A   1      45.514  25.462  26.715  1.00  0.00     0.031 A 
ATOM     46  C   UNL A   1      44.435  26.336  27.291  1.00  0.00     0.074 A 
ATOM     47  C   UNL A   1      46.788  25.886  26.637  1.00  0.00     0.049 A 
ATOM     48  N   UNL A   1      44.482  27.594  27.636  1.00  0.00    -0.248 NA
ATOM     49  C   UNL A   1      43.113  25.710  27.474  1.00  0.00     0.031 C 
ATOM     50  C   UNL A   1      47.908  25.093  26.130  1.00  0.00     0.029 A 
ATOM     51  N   UNL A   1      47.344  27.104  26.935  1.00  0.00    -0.354 N 
ATOM     52  C   UNL A   1      43.190  27.926  28.028  1.00  0.00     0.074 A 
ATOM     53  C   UNL A   1      42.379  26.739  27.876  1.00  0.00     0.031 C 
ATOM     54  C   UNL A   1      49.011  25.860  26.110  1.00  0.00     0.029 A 
ATOM     55  C   UNL A   1      48.661  27.208  26.549  1.00  0.00     0.049 A 
ATOM     56  H   UNL A   1      46.851  27.832  27.380  1.00  0.00     0.167 HD
ATOM     57  C   UNL A   1      42.728  29.124  28.457  1.00  0.00     0.031 A 
ATOM     58  C   UNL A   1      49.472  28.284  26.504  1.00  0.00     0.031 A 
ATOM     59  C   UNL A   1      43.561  30.292  28.576  1.00  0.00     0.049 A 
ATOM     60  C   UNL A   1      48.921  29.616  26.943  1.00  0.00     0.074 A 
ATOM     61  C   UNL A   1      43.219  31.548  29.044  1.00  0.00     0.029 A 
ATOM     62  N   UNL A   1      44.899  30.350  28.210  1.00  0.00    -0.354 N 
ATOM     63  N   UNL A   1      47.709  29.911  27.356  1.00  0.00    -0.248 NA
ATOM     64  C   UNL A   1      49.844  30.758  26.921  1.00  0.00     0.031 C 
ATOM     65  C   UNL A   1      44.325  32.386  28.879  1.00  0.00     0.029 A 
ATOM     66  C   UNL A   1      45.386  31.630  28.404  1.00  0.00     0.049 A 
ATOM     67  H   UNL A   1      45.423  29.592  27.864  1.00  0.00     0.167 HD
ATOM     68  C   UNL A   1      47.738  31.262  27.682  1.00  0.00     0.074 A 
ATOM     69  C   UNL A   1      49.090  31.721  27.431  1.00  0.00     0.031 C 
ATOM     70  C   UNL A   1      46.740  32.056  28.148  1.00  0.00     0.031 A 
BRANCH  57  71
ATOM     71  C   UNL A   1      41.260  29.252  28.777  1.00  0.00    -0.014 A 
ATOM     72  C   UNL A   1      40.804  29.453  30.093  1.00  0.00     0.010 A 
ATOM     73  C   UNL A   1      40.322  29.244  27.726  1.00  0.00     0.010 A 
ATOM     74  C   UNL A   1      39.441  29.626  30.351  1.00  0.00     0.020 A 
ATOM     75  C   UNL A   1      38.963  29.449  27.977  1.00  0.00     0.020 A 
ATOM     76  C   UNL A   1      38.530  29.632  29.290  1.00  0.00     0.054 A 
BRANCH  76  77
ATOM     77  S   UNL A   1      36.777  29.929  29.652  1.00  0.00     0.124 S 
ATOM     78  O   UNL A   1      36.743  31.381  29.816  1.00  0.00    -0.237 OA
ATOM     79  O   UNL A   1      36.115  29.417  28.455  1.00  0.00    -0.237 OA
ATOM     80  O   UNL A   1      36.537  29.161  30.871  1.00  0.00    -0.744 OA
ENDBRANCH  76  77
ENDBRANCH  57  71
BRANCH  58  81
ATOM     81  C   UNL A   1      50.867  28.155  25.992  1.00  0.00    -0.014 A 
ATOM     82  C   UNL A   1      51.149  28.322  24.625  1.00  0.00     0.010 A 
ATOM     83  C   UNL A   1      51.925  27.861  26.872  1.00  0.00     0.010 A 
ATOM     84  C   UNL A   1      52.454  28.167  24.144  1.00  0.00     0.020 A 
ATOM     85  C   UNL A   1      53.236  27.743  26.403  1.00  0.00     0.020 A 
ATOM     86  C   UNL A   1      53.490  27.881  25.037  1.00  0.00     0.054 A 
BRANCH  86  87
ATOM     87  S   UNL A   1      55.176  27.712  24.392  1.00  0.00     0.124 S 
ATOM     88  O   UNL A   1      55.968  28.352  25.437  1.00  0.00    -0.237 OA
ATOM     89  O   UNL A   1      55.325  26.263  24.282  1.00  0.00    -0.237 OA
ATOM     90  O   UNL A   1      55.130  28.426  23.118  1.00  0.00    -0.744 OA
ENDBRANCH  86  87
ENDBRANCH  58  81
BRANCH  70  91
ATOM     91  C   UNL A   1      47.088  33.485  28.475  1.00  0.00    -0.014 A 
ATOM     92  C   UNL A   1      47.391  33.891  29.786  1.00  0.00     0.010 A 
ATOM     93  C   UNL A   1      47.168  34.423  27.428  1.00  0.00     0.010 A 
ATOM     94  C   UNL A   1      47.730  35.220  30.049  1.00  0.00     0.020 A 
ATOM     95  C   UNL A   1      47.548  35.741  27.682  1.00  0.00     0.020 A 
ATOM     96  C   UNL A   1      47.812  36.134  28.994  1.00  0.00     0.054 A 
BRANCH  96  97
ATOM     97  S   UNL A   1      48.304  37.840  29.360  1.00  0.00     0.124 S 
ATOM     98  O   UNL A   1      49.756  37.724  29.456  1.00  0.00    -0.237 OA
ATOM     99  O   UNL A   1      47.805  38.570  28.196  1.00  0.00    -0.237 OA
ATOM    100  O   UNL A   1      47.620  38.137  30.616  1.00  0.00    -0.744 OA
ENDBRANCH  96  97
ENDBRANCH  70  91
ENDBRANCH  44  45
ENDBRANCH  37  39
ENDBRANCH  36  37
ENDBRANCH  35  36
ENDBRANCH  34  35
ENDBRANCH  33  34
ENDBRANCH  32  33
ENDBRANCH  31  32
ENDBRANCH  30  31
ENDBRANCH   1  30
TORSDOF 27
ENDMDL
