MODEL 1
REMARK VINA RESULT:      -8.7      0.000      0.000
REMARK SMILES C[C@@H](C(=O)OCCOCCOCCOCCOC(=O)c1ccc(-c2c3nc(c(-c4ccc(S(=O)(=O)[O-])cc4)c4ccc([nH]4)c(-c4ccc(S(=O)(=O)[O-])cc4)c4nc(c(-c5ccc(S(=O)(=O)[O-])cc5)c5ccc2[nH]5)C=C4)C=C3)cc1)c1ccc2c3cc(Cl)ccc3n(C(=O)c3ccc(Cl)cc3)c2c1
REMARK SMILES IDX 11 1 10 2 9 3 8 4 7 5 6 6 5 7 3 8 4 9 2 10 1 11 80 12 81 13
REMARK SMILES IDX 102 14 82 15 101 16 83 17 91 18 84 19 90 20 85 21 89 22
REMARK SMILES IDX 86 23 88 24 87 25 92 26 93 27 94 28 95 29 100 30 96 31 99 32
REMARK SMILES IDX 97 33 98 34 12 35 13 36 14 37 15 38 16 39 17 40 18 41 19 42
REMARK SMILES IDX 20 43 21 44 79 45 22 46 78 47 23 48 24 49 25 50 72 51 26 52
REMARK SMILES IDX 77 53 71 54 73 55 27 56 76 57 70 58 69 59 28 61 58 62 39 63
REMARK SMILES IDX 57 64 40 65 43 66 56 67 74 68 41 69 42 70 55 72 75 73 44 74
REMARK SMILES IDX 29 75 30 76 38 77 31 78 37 79 32 80 33 81 34 82 35 83 36 84
REMARK SMILES IDX 59 85 60 86 68 87 61 88 67 89 62 90 63 91 64 92 65 93 66 94
REMARK SMILES IDX 45 95 46 96 54 97 47 98 53 99 48 100 49 101 50 102 51 103
REMARK SMILES IDX 52 104
REMARK H PARENT 73 60 43 71
REMARK Flexibility Score: inf
ROOT
ATOM      1  O   UNL A   1      44.225  40.774  38.037  1.00  0.00    -0.377 OA
ENDROOT
BRANCH   1   2
ATOM      2  C   UNL A   1      44.238  42.046  37.415  1.00  0.00     0.188 C 
BRANCH   2   3
ATOM      3  C   UNL A   1      43.732  42.104  35.967  1.00  0.00     0.188 C 
BRANCH   3   4
ATOM      4  O   UNL A   1      42.569  42.881  35.780  1.00  0.00    -0.376 OA
BRANCH   4   5
ATOM      5  C   UNL A   1      42.145  43.222  34.469  1.00  0.00     0.202 C 
BRANCH   5   6
ATOM      6  C   UNL A   1      43.066  43.797  33.371  1.00  0.00     0.261 C 
BRANCH   6   7
ATOM      7  O   UNL A   1      42.754  43.433  32.024  1.00  0.00    -0.463 OA
BRANCH   7   8
ATOM      8  C   UNL A   1      43.568  43.856  31.029  1.00  0.00     0.313 C 
ATOM      9  O   UNL A   1      43.438  44.920  30.434  1.00  0.00    -0.252 OA
BRANCH   8  10
ATOM     10  C   UNL A   1      44.764  42.919  30.822  1.00  0.00     0.126 C 
ATOM     11  C   UNL A   1      45.879  43.564  29.970  1.00  0.00     0.025 C 
BRANCH  10  12
ATOM     12  C   UNL A   1      44.368  41.496  30.394  1.00  0.00    -0.032 A 
ATOM     13  C   UNL A   1      44.856  40.357  31.040  1.00  0.00     0.005 A 
ATOM     14  C   UNL A   1      43.554  41.307  29.266  1.00  0.00     0.032 A 
ATOM     15  C   UNL A   1      44.467  39.067  30.659  1.00  0.00     0.011 A 
ATOM     16  C   UNL A   1      43.274  40.003  28.786  1.00  0.00     0.057 A 
ATOM     17  C   UNL A   1      43.684  38.889  29.504  1.00  0.00     0.008 A 
ATOM     18  N   UNL A   1      42.614  39.562  27.620  1.00  0.00    -0.276 N 
ATOM     19  C   UNL A   1      43.260  37.737  28.795  1.00  0.00     0.009 A 
ATOM     20  C   UNL A   1      42.764  38.165  27.555  1.00  0.00     0.057 A 
ATOM     21  C   UNL A   1      43.406  36.359  29.070  1.00  0.00     0.031 A 
ATOM     22  C   UNL A   1      42.601  37.229  26.513  1.00  0.00     0.029 A 
ATOM     23  C   UNL A   1      43.183  35.438  28.054  1.00  0.00     0.041 A 
ATOM     24  C   UNL A   1      42.828  35.868  26.782  1.00  0.00     0.023 A 
ATOM     25  Cl  UNL A   1      43.427  33.762  28.364  1.00  0.00    -0.084 Cl
BRANCH  18  26
ATOM     26  C   UNL A   1      42.027  40.459  26.680  1.00  0.00     0.262 C 
ATOM     27  O   UNL A   1      40.812  40.637  26.800  1.00  0.00    -0.268 OA
BRANCH  26  28
ATOM     28  C   UNL A   1      42.612  41.209  25.533  1.00  0.00     0.040 A 
ATOM     29  C   UNL A   1      43.980  41.551  25.657  1.00  0.00     0.015 A 
ATOM     30  C   UNL A   1      41.896  41.731  24.454  1.00  0.00     0.015 A 
ATOM     31  C   UNL A   1      44.615  42.391  24.743  1.00  0.00     0.021 A 
ATOM     32  C   UNL A   1      42.547  42.551  23.513  1.00  0.00     0.021 A 
ATOM     33  C   UNL A   1      43.895  42.887  23.669  1.00  0.00     0.041 A 
ATOM     34  Cl  UNL A   1      44.662  43.944  22.550  1.00  0.00    -0.084 Cl
ENDBRANCH  26  28
ENDBRANCH  18  26
ENDBRANCH  10  12
ENDBRANCH   8  10
ENDBRANCH   7   8
ENDBRANCH   6   7
ENDBRANCH   5   6
ENDBRANCH   4   5
ENDBRANCH   3   4
ENDBRANCH   2   3
ENDBRANCH   1   2
BRANCH   1  35
ATOM     35  C   UNL A   1      44.432  40.684  39.446  1.00  0.00     0.188 C 
BRANCH  35  36
ATOM     36  C   UNL A   1      43.301  40.285  40.424  1.00  0.00     0.188 C 
BRANCH  36  37
ATOM     37  O   UNL A   1      42.131  39.756  39.822  1.00  0.00    -0.376 OA
BRANCH  37  38
ATOM     38  C   UNL A   1      40.887  40.359  40.137  1.00  0.00     0.202 C 
BRANCH  38  39
ATOM     39  C   UNL A   1      39.730  39.427  40.532  1.00  0.00     0.261 C 
BRANCH  39  40
ATOM     40  O   UNL A   1      39.444  38.349  39.627  1.00  0.00    -0.460 OA
BRANCH  40  41
ATOM     41  C   UNL A   1      39.054  37.170  40.156  1.00  0.00     0.338 C 
ATOM     42  O   UNL A   1      38.377  37.001  41.158  1.00  0.00    -0.246 OA
BRANCH  41  43
ATOM     43  C   UNL A   1      39.420  36.105  39.201  1.00  0.00     0.060 A 
ATOM     44  C   UNL A   1      40.292  36.405  38.145  1.00  0.00     0.016 A 
ATOM     45  C   UNL A   1      38.911  34.814  39.351  1.00  0.00     0.016 A 
ATOM     46  C   UNL A   1      40.624  35.422  37.212  1.00  0.00     0.010 A 
ATOM     47  C   UNL A   1      39.225  33.837  38.402  1.00  0.00     0.010 A 
ATOM     48  C   UNL A   1      40.053  34.147  37.309  1.00  0.00    -0.014 A 
BRANCH  48  49
ATOM     49  C   UNL A   1      40.149  33.208  36.164  1.00  0.00     0.031 A 
ATOM     50  C   UNL A   1      41.237  32.167  36.191  1.00  0.00     0.074 A 
ATOM     51  C   UNL A   1      39.284  33.258  35.136  1.00  0.00     0.049 A 
ATOM     52  N   UNL A   1      41.556  31.277  35.289  1.00  0.00    -0.248 NA
ATOM     53  C   UNL A   1      42.078  32.129  37.400  1.00  0.00     0.031 C 
ATOM     54  C   UNL A   1      38.159  34.183  35.018  1.00  0.00     0.029 A 
ATOM     55  N   UNL A   1      39.228  32.509  33.986  1.00  0.00    -0.354 N 
ATOM     56  C   UNL A   1      42.638  30.580  35.815  1.00  0.00     0.074 A 
ATOM     57  C   UNL A   1      42.943  31.172  37.099  1.00  0.00     0.031 C 
ATOM     58  C   UNL A   1      37.530  33.955  33.851  1.00  0.00     0.029 A 
ATOM     59  C   UNL A   1      38.231  32.896  33.124  1.00  0.00     0.049 A 
ATOM     60  H   UNL A   1      39.845  31.766  33.797  1.00  0.00     0.167 HD
ATOM     61  C   UNL A   1      43.317  29.538  35.279  1.00  0.00     0.031 A 
ATOM     62  C   UNL A   1      37.934  32.467  31.880  1.00  0.00     0.031 A 
ATOM     63  C   UNL A   1      43.024  28.964  33.993  1.00  0.00     0.049 A 
ATOM     64  C   UNL A   1      38.759  31.361  31.266  1.00  0.00     0.074 A 
ATOM     65  C   UNL A   1      43.648  27.903  33.363  1.00  0.00     0.029 A 
ATOM     66  N   UNL A   1      42.028  29.409  33.136  1.00  0.00    -0.354 N 
ATOM     67  N   UNL A   1      39.768  30.700  31.781  1.00  0.00    -0.248 NA
ATOM     68  C   UNL A   1      38.397  30.939  29.905  1.00  0.00     0.031 C 
ATOM     69  C   UNL A   1      43.075  27.748  32.098  1.00  0.00     0.029 A 
ATOM     70  C   UNL A   1      42.041  28.663  31.970  1.00  0.00     0.049 A 
ATOM     71  H   UNL A   1      41.406  30.147  33.327  1.00  0.00     0.167 HD
ATOM     72  C   UNL A   1      40.140  29.763  30.820  1.00  0.00     0.074 A 
ATOM     73  C   UNL A   1      39.237  29.934  29.700  1.00  0.00     0.031 C 
ATOM     74  C   UNL A   1      41.135  28.842  30.862  1.00  0.00     0.031 A 
BRANCH  61  75
ATOM     75  C   UNL A   1      44.468  28.975  36.072  1.00  0.00    -0.014 A 
ATOM     76  C   UNL A   1      45.759  29.527  35.981  1.00  0.00     0.010 A 
ATOM     77  C   UNL A   1      44.245  27.899  36.951  1.00  0.00     0.010 A 
ATOM     78  C   UNL A   1      46.812  28.989  36.725  1.00  0.00     0.020 A 
ATOM     79  C   UNL A   1      45.290  27.379  37.721  1.00  0.00     0.020 A 
ATOM     80  C   UNL A   1      46.570  27.918  37.592  1.00  0.00     0.054 A 
BRANCH  80  81
ATOM     81  S   UNL A   1      47.952  27.259  38.564  1.00  0.00     0.124 S 
ATOM     82  O   UNL A   1      47.390  27.242  39.913  1.00  0.00    -0.237 OA
ATOM     83  O   UNL A   1      48.172  25.948  37.959  1.00  0.00    -0.237 OA
ATOM     84  O   UNL A   1      49.022  28.230  38.348  1.00  0.00    -0.744 OA
ENDBRANCH  80  81
ENDBRANCH  61  75
BRANCH  62  85
ATOM     85  C   UNL A   1      36.824  33.102  31.115  1.00  0.00    -0.014 A 
ATOM     86  C   UNL A   1      37.091  33.950  30.025  1.00  0.00     0.010 A 
ATOM     87  C   UNL A   1      35.486  32.867  31.483  1.00  0.00     0.010 A 
ATOM     88  C   UNL A   1      36.043  34.563  29.330  1.00  0.00     0.020 A 
ATOM     89  C   UNL A   1      34.435  33.451  30.771  1.00  0.00     0.020 A 
ATOM     90  C   UNL A   1      34.721  34.305  29.705  1.00  0.00     0.054 A 
BRANCH  90  91
ATOM     91  S   UNL A   1      33.377  35.071  28.756  1.00  0.00     0.124 S 
ATOM     92  O   UNL A   1      32.546  35.641  29.811  1.00  0.00    -0.237 OA
ATOM     93  O   UNL A   1      34.092  36.034  27.922  1.00  0.00    -0.237 OA
ATOM     94  O   UNL A   1      32.787  33.948  28.032  1.00  0.00    -0.744 OA
ENDBRANCH  90  91
ENDBRANCH  62  85
BRANCH  74  95
ATOM     95  C   UNL A   1      41.280  27.912  29.683  1.00  0.00    -0.014 A 
ATOM     96  C   UNL A   1      42.366  28.010  28.797  1.00  0.00     0.010 A 
ATOM     97  C   UNL A   1      40.340  26.879  29.500  1.00  0.00     0.010 A 
ATOM     98  C   UNL A   1      42.492  27.115  27.730  1.00  0.00     0.020 A 
ATOM     99  C   UNL A   1      40.480  25.962  28.456  1.00  0.00     0.020 A 
ATOM    100  C   UNL A   1      41.548  26.095  27.568  1.00  0.00     0.054 A 
BRANCH 100 101
ATOM    101  S   UNL A   1      41.759  24.920  26.202  1.00  0.00     0.124 S 
ATOM    102  O   UNL A   1      41.369  23.657  26.825  1.00  0.00    -0.237 OA
ATOM    103  O   UNL A   1      40.836  25.434  25.193  1.00  0.00    -0.237 OA
ATOM    104  O   UNL A   1      43.174  25.034  25.859  1.00  0.00    -0.744 OA
ENDBRANCH 100 101
ENDBRANCH  74  95
ENDBRANCH  48  49
ENDBRANCH  41  43
ENDBRANCH  40  41
ENDBRANCH  39  40
ENDBRANCH  38  39
ENDBRANCH  37  38
ENDBRANCH  36  37
ENDBRANCH  35  36
ENDBRANCH   1  35
TORSDOF 26
ENDMDL
MODEL 2
REMARK VINA RESULT:      -7.8      5.546     14.162
REMARK SMILES C[C@@H](C(=O)OCCOCCOCCOCCOC(=O)c1ccc(-c2c3nc(c(-c4ccc(S(=O)(=O)[O-])cc4)c4ccc([nH]4)c(-c4ccc(S(=O)(=O)[O-])cc4)c4nc(c(-c5ccc(S(=O)(=O)[O-])cc5)c5ccc2[nH]5)C=C4)C=C3)cc1)c1ccc2c3cc(Cl)ccc3n(C(=O)c3ccc(Cl)cc3)c2c1
REMARK SMILES IDX 11 1 10 2 9 3 8 4 7 5 6 6 5 7 3 8 4 9 2 10 1 11 80 12 81 13
REMARK SMILES IDX 102 14 82 15 101 16 83 17 91 18 84 19 90 20 85 21 89 22
REMARK SMILES IDX 86 23 88 24 87 25 92 26 93 27 94 28 95 29 100 30 96 31 99 32
REMARK SMILES IDX 97 33 98 34 12 35 13 36 14 37 15 38 16 39 17 40 18 41 19 42
REMARK SMILES IDX 20 43 21 44 79 45 22 46 78 47 23 48 24 49 25 50 72 51 26 52
REMARK SMILES IDX 77 53 71 54 73 55 27 56 76 57 70 58 69 59 28 61 58 62 39 63
REMARK SMILES IDX 57 64 40 65 43 66 56 67 74 68 41 69 42 70 55 72 75 73 44 74
REMARK SMILES IDX 29 75 30 76 38 77 31 78 37 79 32 80 33 81 34 82 35 83 36 84
REMARK SMILES IDX 59 85 60 86 68 87 61 88 67 89 62 90 63 91 64 92 65 93 66 94
REMARK SMILES IDX 45 95 46 96 54 97 47 98 53 99 48 100 49 101 50 102 51 103
REMARK SMILES IDX 52 104
REMARK H PARENT 73 60 43 71
REMARK Flexibility Score: inf
ROOT
ATOM      1  O   UNL A   1      50.382  27.199  28.323  1.00  0.00    -0.377 OA
ENDROOT
BRANCH   1   2
ATOM      2  C   UNL A   1      49.864  27.823  29.484  1.00  0.00     0.188 C 
BRANCH   2   3
ATOM      3  C   UNL A   1      50.708  27.699  30.761  1.00  0.00     0.188 C 
BRANCH   3   4
ATOM      4  O   UNL A   1      50.338  26.633  31.609  1.00  0.00    -0.376 OA
BRANCH   4   5
ATOM      5  C   UNL A   1      49.219  26.767  32.472  1.00  0.00     0.202 C 
BRANCH   5   6
ATOM      6  C   UNL A   1      47.864  26.055  32.266  1.00  0.00     0.261 C 
BRANCH   6   7
ATOM      7  O   UNL A   1      46.906  26.734  31.450  1.00  0.00    -0.463 OA
BRANCH   7   8
ATOM      8  C   UNL A   1      46.058  27.613  32.034  1.00  0.00     0.313 C 
ATOM      9  O   UNL A   1      46.283  28.812  32.160  1.00  0.00    -0.252 OA
BRANCH   8  10
ATOM     10  C   UNL A   1      44.715  26.969  32.396  1.00  0.00     0.126 C 
ATOM     11  C   UNL A   1      44.660  26.505  33.868  1.00  0.00     0.025 C 
BRANCH  10  12
ATOM     12  C   UNL A   1      44.236  25.925  31.374  1.00  0.00    -0.032 A 
ATOM     13  C   UNL A   1      44.699  24.606  31.378  1.00  0.00     0.005 A 
ATOM     14  C   UNL A   1      43.365  26.306  30.341  1.00  0.00     0.032 A 
ATOM     15  C   UNL A   1      44.235  23.656  30.459  1.00  0.00     0.011 A 
ATOM     16  C   UNL A   1      43.004  25.389  29.323  1.00  0.00     0.057 A 
ATOM     17  C   UNL A   1      43.394  24.059  29.406  1.00  0.00     0.008 A 
ATOM     18  N   UNL A   1      42.273  25.563  28.129  1.00  0.00    -0.276 N 
ATOM     19  C   UNL A   1      42.886  23.388  28.266  1.00  0.00     0.009 A 
ATOM     20  C   UNL A   1      42.355  24.360  27.406  1.00  0.00     0.057 A 
ATOM     21  C   UNL A   1      42.980  22.040  27.852  1.00  0.00     0.031 A 
ATOM     22  C   UNL A   1      42.104  24.029  26.058  1.00  0.00     0.029 A 
ATOM     23  C   UNL A   1      42.670  21.712  26.538  1.00  0.00     0.041 A 
ATOM     24  C   UNL A   1      42.279  22.699  25.642  1.00  0.00     0.023 A 
ATOM     25  Cl  UNL A   1      42.851  20.084  26.008  1.00  0.00    -0.084 Cl
BRANCH  18  26
ATOM     26  C   UNL A   1      41.687  26.808  27.759  1.00  0.00     0.262 C 
ATOM     27  O   UNL A   1      41.972  27.219  26.631  1.00  0.00    -0.268 OA
BRANCH  26  28
ATOM     28  C   UNL A   1      40.804  27.746  28.510  1.00  0.00     0.040 A 
ATOM     29  C   UNL A   1      39.665  27.164  29.116  1.00  0.00     0.015 A 
ATOM     30  C   UNL A   1      40.919  29.137  28.521  1.00  0.00     0.015 A 
ATOM     31  C   UNL A   1      38.668  27.939  29.707  1.00  0.00     0.021 A 
ATOM     32  C   UNL A   1      39.929  29.917  29.148  1.00  0.00     0.021 A 
ATOM     33  C   UNL A   1      38.806  29.317  29.724  1.00  0.00     0.041 A 
ATOM     34  Cl  UNL A   1      37.569  30.283  30.428  1.00  0.00    -0.084 Cl
ENDBRANCH  26  28
ENDBRANCH  18  26
ENDBRANCH  10  12
ENDBRANCH   8  10
ENDBRANCH   7   8
ENDBRANCH   6   7
ENDBRANCH   5   6
ENDBRANCH   4   5
ENDBRANCH   3   4
ENDBRANCH   2   3
ENDBRANCH   1   2
BRANCH   1  35
ATOM     35  C   UNL A   1      49.881  25.921  27.935  1.00  0.00     0.188 C 
BRANCH  35  36
ATOM     36  C   UNL A   1      48.464  25.436  28.325  1.00  0.00     0.188 C 
BRANCH  36  37
ATOM     37  O   UNL A   1      47.984  24.310  27.610  1.00  0.00    -0.376 OA
BRANCH  37  38
ATOM     38  C   UNL A   1      46.581  24.145  27.486  1.00  0.00     0.202 C 
BRANCH  38  39
ATOM     39  C   UNL A   1      45.856  25.022  26.453  1.00  0.00     0.261 C 
BRANCH  39  40
ATOM     40  O   UNL A   1      45.287  26.246  26.946  1.00  0.00    -0.460 OA
BRANCH  40  41
ATOM     41  C   UNL A   1      45.397  27.347  26.172  1.00  0.00     0.338 C 
ATOM     42  O   UNL A   1      45.518  27.384  24.958  1.00  0.00    -0.246 OA
BRANCH  41  43
ATOM     43  C   UNL A   1      45.143  28.524  27.027  1.00  0.00     0.060 A 
ATOM     44  C   UNL A   1      44.361  29.575  26.527  1.00  0.00     0.016 A 
ATOM     45  C   UNL A   1      45.668  28.587  28.319  1.00  0.00     0.016 A 
ATOM     46  C   UNL A   1      44.137  30.710  27.306  1.00  0.00     0.010 A 
ATOM     47  C   UNL A   1      45.462  29.735  29.088  1.00  0.00     0.010 A 
ATOM     48  C   UNL A   1      44.728  30.817  28.571  1.00  0.00    -0.014 A 
BRANCH  48  49
ATOM     49  C   UNL A   1      44.756  32.129  29.263  1.00  0.00     0.031 A 
ATOM     50  C   UNL A   1      45.856  33.094  28.908  1.00  0.00     0.074 A 
ATOM     51  C   UNL A   1      43.820  32.471  30.166  1.00  0.00     0.049 A 
ATOM     52  N   UNL A   1      46.122  34.271  29.413  1.00  0.00    -0.248 NA
ATOM     53  C   UNL A   1      46.781  32.672  27.843  1.00  0.00     0.031 C 
ATOM     54  C   UNL A   1      42.677  31.647  30.556  1.00  0.00     0.029 A 
ATOM     55  N   UNL A   1      43.692  33.607  30.926  1.00  0.00    -0.354 N 
ATOM     56  C   UNL A   1      47.248  34.724  28.734  1.00  0.00     0.074 A 
ATOM     57  C   UNL A   1      47.635  33.684  27.807  1.00  0.00     0.031 C 
ATOM     58  C   UNL A   1      41.970  32.302  31.495  1.00  0.00     0.029 A 
ATOM     59  C   UNL A   1      42.631  33.571  31.799  1.00  0.00     0.049 A 
ATOM     60  H   UNL A   1      44.304  34.375  30.854  1.00  0.00     0.167 HD
ATOM     61  C   UNL A   1      47.900  35.903  28.867  1.00  0.00     0.031 A 
ATOM     62  C   UNL A   1      42.254  34.446  32.753  1.00  0.00     0.031 A 
ATOM     63  C   UNL A   1      47.525  36.928  29.804  1.00  0.00     0.049 A 
ATOM     64  C   UNL A   1      43.047  35.716  32.944  1.00  0.00     0.074 A 
ATOM     65  C   UNL A   1      48.117  38.160  30.013  1.00  0.00     0.029 A 
ATOM     66  N   UNL A   1      46.466  36.836  30.695  1.00  0.00    -0.354 N 
ATOM     67  N   UNL A   1      44.099  36.140  32.284  1.00  0.00    -0.248 NA
ATOM     68  C   UNL A   1      42.596  36.630  34.004  1.00  0.00     0.031 C 
ATOM     69  C   UNL A   1      47.458  38.786  31.075  1.00  0.00     0.029 A 
ATOM     70  C   UNL A   1      46.406  37.978  31.476  1.00  0.00     0.049 A 
ATOM     71  H   UNL A   1      45.848  36.073  30.763  1.00  0.00     0.167 HD
ATOM     72  C   UNL A   1      44.414  37.383  32.827  1.00  0.00     0.074 A 
ATOM     73  C   UNL A   1      43.432  37.647  33.859  1.00  0.00     0.031 C 
ATOM     74  C   UNL A   1      45.422  38.230  32.500  1.00  0.00     0.031 A 
BRANCH  61  75
ATOM     75  C   UNL A   1      49.111  36.130  28.000  1.00  0.00    -0.014 A 
ATOM     76  C   UNL A   1      50.373  35.618  28.356  1.00  0.00     0.010 A 
ATOM     77  C   UNL A   1      48.977  36.837  26.791  1.00  0.00     0.010 A 
ATOM     78  C   UNL A   1      51.483  35.841  27.538  1.00  0.00     0.020 A 
ATOM     79  C   UNL A   1      50.079  37.034  25.954  1.00  0.00     0.020 A 
ATOM     80  C   UNL A   1      51.328  36.548  26.340  1.00  0.00     0.054 A 
BRANCH  80  81
ATOM     81  S   UNL A   1      52.783  36.797  25.286  1.00  0.00     0.124 S 
ATOM     82  O   UNL A   1      53.876  36.473  26.199  1.00  0.00    -0.237 OA
ATOM     83  O   UNL A   1      52.562  35.840  24.206  1.00  0.00    -0.237 OA
ATOM     84  O   UNL A   1      52.693  38.203  24.897  1.00  0.00    -0.744 OA
ENDBRANCH  80  81
ENDBRANCH  61  75
BRANCH  62  85
ATOM     85  C   UNL A   1      41.084  34.142  33.626  1.00  0.00    -0.014 A 
ATOM     86  C   UNL A   1      41.249  33.450  34.839  1.00  0.00     0.010 A 
ATOM     87  C   UNL A   1      39.791  34.538  33.238  1.00  0.00     0.010 A 
ATOM     88  C   UNL A   1      40.142  33.145  35.638  1.00  0.00     0.020 A 
ATOM     89  C   UNL A   1      38.686  34.265  34.049  1.00  0.00     0.020 A 
ATOM     90  C   UNL A   1      38.867  33.559  35.239  1.00  0.00     0.054 A 
BRANCH  90  91
ATOM     91  S   UNL A   1      37.453  33.199  36.317  1.00  0.00     0.124 S 
ATOM     92  O   UNL A   1      37.478  31.741  36.375  1.00  0.00    -0.237 OA
ATOM     93  O   UNL A   1      37.818  33.888  37.553  1.00  0.00    -0.237 OA
ATOM     94  O   UNL A   1      36.319  33.777  35.601  1.00  0.00    -0.744 OA
ENDBRANCH  90  91
ENDBRANCH  62  85
BRANCH  74  95
ATOM     95  C   UNL A   1      45.495  39.548  33.230  1.00  0.00    -0.014 A 
ATOM     96  C   UNL A   1      46.033  39.644  34.525  1.00  0.00     0.010 A 
ATOM     97  C   UNL A   1      45.073  40.723  32.577  1.00  0.00     0.010 A 
ATOM     98  C   UNL A   1      46.117  40.883  35.166  1.00  0.00     0.020 A 
ATOM     99  C   UNL A   1      45.187  41.967  33.201  1.00  0.00     0.020 A 
ATOM    100  C   UNL A   1      45.695  42.038  34.499  1.00  0.00     0.054 A 
BRANCH 100 101
ATOM    101  S   UNL A   1      45.856  43.639  35.336  1.00  0.00     0.124 S 
ATOM    102  O   UNL A   1      45.651  43.272  36.735  1.00  0.00    -0.237 OA
ATOM    103  O   UNL A   1      47.214  44.047  34.987  1.00  0.00    -0.237 OA
ATOM    104  O   UNL A   1      44.796  44.450  34.744  1.00  0.00    -0.744 OA
ENDBRANCH 100 101
ENDBRANCH  74  95
ENDBRANCH  48  49
ENDBRANCH  41  43
ENDBRANCH  40  41
ENDBRANCH  39  40
ENDBRANCH  38  39
ENDBRANCH  37  38
ENDBRANCH  36  37
ENDBRANCH  35  36
ENDBRANCH   1  35
TORSDOF 26
ENDMDL
MODEL 3
REMARK VINA RESULT:      -7.7      5.532     12.168
REMARK SMILES C[C@@H](C(=O)OCCOCCOCCOCCOC(=O)c1ccc(-c2c3nc(c(-c4ccc(S(=O)(=O)[O-])cc4)c4ccc([nH]4)c(-c4ccc(S(=O)(=O)[O-])cc4)c4nc(c(-c5ccc(S(=O)(=O)[O-])cc5)c5ccc2[nH]5)C=C4)C=C3)cc1)c1ccc2c3cc(Cl)ccc3n(C(=O)c3ccc(Cl)cc3)c2c1
REMARK SMILES IDX 11 1 10 2 9 3 8 4 7 5 6 6 5 7 3 8 4 9 2 10 1 11 80 12 81 13
REMARK SMILES IDX 102 14 82 15 101 16 83 17 91 18 84 19 90 20 85 21 89 22
REMARK SMILES IDX 86 23 88 24 87 25 92 26 93 27 94 28 95 29 100 30 96 31 99 32
REMARK SMILES IDX 97 33 98 34 12 35 13 36 14 37 15 38 16 39 17 40 18 41 19 42
REMARK SMILES IDX 20 43 21 44 79 45 22 46 78 47 23 48 24 49 25 50 72 51 26 52
REMARK SMILES IDX 77 53 71 54 73 55 27 56 76 57 70 58 69 59 28 61 58 62 39 63
REMARK SMILES IDX 57 64 40 65 43 66 56 67 74 68 41 69 42 70 55 72 75 73 44 74
REMARK SMILES IDX 29 75 30 76 38 77 31 78 37 79 32 80 33 81 34 82 35 83 36 84
REMARK SMILES IDX 59 85 60 86 68 87 61 88 67 89 62 90 63 91 64 92 65 93 66 94
REMARK SMILES IDX 45 95 46 96 54 97 47 98 53 99 48 100 49 101 50 102 51 103
REMARK SMILES IDX 52 104
REMARK H PARENT 73 60 43 71
REMARK Flexibility Score: inf
ROOT
ATOM      1  O   UNL A   1      47.022  31.385  38.686  1.00  0.00    -0.377 OA
ENDROOT
BRANCH   1   2
ATOM      2  C   UNL A   1      47.698  30.432  39.488  1.00  0.00     0.188 C 
BRANCH   2   3
ATOM      3  C   UNL A   1      48.414  29.297  38.742  1.00  0.00     0.188 C 
BRANCH   3   4
ATOM      4  O   UNL A   1      47.639  28.668  37.744  1.00  0.00    -0.376 OA
BRANCH   4   5
ATOM      5  C   UNL A   1      46.782  27.589  38.084  1.00  0.00     0.202 C 
BRANCH   5   6
ATOM      6  C   UNL A   1      45.377  27.362  37.484  1.00  0.00     0.261 C 
BRANCH   6   7
ATOM      7  O   UNL A   1      44.923  28.337  36.542  1.00  0.00    -0.463 OA
BRANCH   7   8
ATOM      8  C   UNL A   1      44.092  27.945  35.547  1.00  0.00     0.313 C 
ATOM      9  O   UNL A   1      44.461  27.646  34.416  1.00  0.00    -0.252 OA
BRANCH   8  10
ATOM     10  C   UNL A   1      42.648  27.777  36.032  1.00  0.00     0.126 C 
ATOM     11  C   UNL A   1      42.159  26.315  35.932  1.00  0.00     0.025 C 
BRANCH  10  12
ATOM     12  C   UNL A   1      41.678  28.822  35.457  1.00  0.00    -0.032 A 
ATOM     13  C   UNL A   1      41.070  28.671  34.207  1.00  0.00     0.005 A 
ATOM     14  C   UNL A   1      41.441  30.015  36.157  1.00  0.00     0.032 A 
ATOM     15  C   UNL A   1      40.167  29.616  33.706  1.00  0.00     0.011 A 
ATOM     16  C   UNL A   1      40.642  31.040  35.591  1.00  0.00     0.057 A 
ATOM     17  C   UNL A   1      39.967  30.825  34.397  1.00  0.00     0.008 A 
ATOM     18  N   UNL A   1      40.373  32.356  36.021  1.00  0.00    -0.276 N 
ATOM     19  C   UNL A   1      39.252  32.008  34.085  1.00  0.00     0.009 A 
ATOM     20  C   UNL A   1      39.653  32.995  34.997  1.00  0.00     0.057 A 
ATOM     21  C   UNL A   1      38.408  32.335  33.001  1.00  0.00     0.031 A 
ATOM     22  C   UNL A   1      39.379  34.350  34.716  1.00  0.00     0.029 A 
ATOM     23  C   UNL A   1      38.091  33.668  32.768  1.00  0.00     0.041 A 
ATOM     24  C   UNL A   1      38.604  34.665  33.587  1.00  0.00     0.023 A 
ATOM     25  Cl  UNL A   1      37.120  34.079  31.406  1.00  0.00    -0.084 Cl
BRANCH  18  26
ATOM     26  C   UNL A   1      40.880  32.886  37.244  1.00  0.00     0.262 C 
ATOM     27  O   UNL A   1      42.073  33.199  37.237  1.00  0.00    -0.268 OA
BRANCH  26  28
ATOM     28  C   UNL A   1      40.232  33.101  38.570  1.00  0.00     0.040 A 
ATOM     29  C   UNL A   1      41.028  32.790  39.698  1.00  0.00     0.015 A 
ATOM     30  C   UNL A   1      38.888  33.416  38.776  1.00  0.00     0.015 A 
ATOM     31  C   UNL A   1      40.502  32.784  40.991  1.00  0.00     0.021 A 
ATOM     32  C   UNL A   1      38.367  33.443  40.083  1.00  0.00     0.021 A 
ATOM     33  C   UNL A   1      39.171  33.115  41.179  1.00  0.00     0.041 A 
ATOM     34  Cl  UNL A   1      38.507  33.085  42.765  1.00  0.00    -0.084 Cl
ENDBRANCH  26  28
ENDBRANCH  18  26
ENDBRANCH  10  12
ENDBRANCH   8  10
ENDBRANCH   7   8
ENDBRANCH   6   7
ENDBRANCH   5   6
ENDBRANCH   4   5
ENDBRANCH   3   4
ENDBRANCH   2   3
ENDBRANCH   1   2
BRANCH   1  35
ATOM     35  C   UNL A   1      47.205  32.775  38.951  1.00  0.00     0.188 C 
BRANCH  35  36
ATOM     36  C   UNL A   1      48.475  33.541  38.507  1.00  0.00     0.188 C 
BRANCH  36  37
ATOM     37  O   UNL A   1      48.359  34.266  37.294  1.00  0.00    -0.376 OA
BRANCH  37  38
ATOM     38  C   UNL A   1      47.105  34.263  36.632  1.00  0.00     0.202 C 
BRANCH  38  39
ATOM     39  C   UNL A   1      46.532  35.622  36.200  1.00  0.00     0.261 C 
BRANCH  39  40
ATOM     40  O   UNL A   1      46.129  35.734  34.825  1.00  0.00    -0.460 OA
BRANCH  40  41
ATOM     41  C   UNL A   1      44.809  35.838  34.563  1.00  0.00     0.338 C 
ATOM     42  O   UNL A   1      44.090  36.801  34.776  1.00  0.00    -0.246 OA
BRANCH  41  43
ATOM     43  C   UNL A   1      44.411  34.649  33.782  1.00  0.00     0.060 A 
ATOM     44  C   UNL A   1      43.758  33.593  34.433  1.00  0.00     0.016 A 
ATOM     45  C   UNL A   1      44.673  34.581  32.413  1.00  0.00     0.016 A 
ATOM     46  C   UNL A   1      43.403  32.447  33.721  1.00  0.00     0.010 A 
ATOM     47  C   UNL A   1      44.339  33.423  31.707  1.00  0.00     0.010 A 
ATOM     48  C   UNL A   1      43.736  32.336  32.365  1.00  0.00    -0.014 A 
BRANCH  48  49
ATOM     49  C   UNL A   1      43.647  31.018  31.690  1.00  0.00     0.031 A 
ATOM     50  C   UNL A   1      42.357  30.660  31.001  1.00  0.00     0.074 A 
ATOM     51  C   UNL A   1      44.688  30.167  31.666  1.00  0.00     0.049 A 
ATOM     52  N   UNL A   1      42.020  29.552  30.394  1.00  0.00    -0.248 NA
ATOM     53  C   UNL A   1      41.306  31.691  31.000  1.00  0.00     0.031 C 
ATOM     54  C   UNL A   1      46.004  30.418  32.249  1.00  0.00     0.029 A 
ATOM     55  N   UNL A   1      44.792  28.907  31.129  1.00  0.00    -0.354 N 
ATOM     56  C   UNL A   1      40.718  29.749  29.948  1.00  0.00     0.074 A 
ATOM     57  C   UNL A   1      40.314  31.067  30.383  1.00  0.00     0.031 C 
ATOM     58  C   UNL A   1      46.781  29.338  32.050  1.00  0.00     0.029 A 
ATOM     59  C   UNL A   1      46.006  28.307  31.361  1.00  0.00     0.049 A 
ATOM     60  H   UNL A   1      44.064  28.474  30.627  1.00  0.00     0.167 HD
ATOM     61  C   UNL A   1      39.930  28.909  29.237  1.00  0.00     0.031 A 
ATOM     62  C   UNL A   1      46.434  27.060  31.076  1.00  0.00     0.031 A 
ATOM     63  C   UNL A   1      40.328  27.590  28.823  1.00  0.00     0.049 A 
ATOM     64  C   UNL A   1      45.507  26.109  30.358  1.00  0.00     0.074 A 
ATOM     65  C   UNL A   1      39.605  26.663  28.094  1.00  0.00     0.029 A 
ATOM     66  N   UNL A   1      41.554  27.007  29.109  1.00  0.00    -0.354 N 
ATOM     67  N   UNL A   1      44.285  26.314  29.927  1.00  0.00    -0.248 NA
ATOM     68  C   UNL A   1      46.023  24.760  30.080  1.00  0.00     0.031 C 
ATOM     69  C   UNL A   1      40.367  25.495  27.996  1.00  0.00     0.029 A 
ATOM     70  C   UNL A   1      41.596  25.722  28.596  1.00  0.00     0.049 A 
ATOM     71  H   UNL A   1      42.285  27.442  29.603  1.00  0.00     0.167 HD
ATOM     72  C   UNL A   1      43.899  25.132  29.300  1.00  0.00     0.074 A 
ATOM     73  C   UNL A   1      45.024  24.223  29.395  1.00  0.00     0.031 C 
ATOM     74  C   UNL A   1      42.723  24.827  28.697  1.00  0.00     0.031 A 
BRANCH  61  75
ATOM     75  C   UNL A   1      38.541  29.382  28.893  1.00  0.00    -0.014 A 
ATOM     76  C   UNL A   1      38.146  29.583  27.558  1.00  0.00     0.010 A 
ATOM     77  C   UNL A   1      37.605  29.593  29.922  1.00  0.00     0.010 A 
ATOM     78  C   UNL A   1      36.853  30.022  27.261  1.00  0.00     0.020 A 
ATOM     79  C   UNL A   1      36.301  30.001  29.627  1.00  0.00     0.020 A 
ATOM     80  C   UNL A   1      35.938  30.228  28.299  1.00  0.00     0.054 A 
BRANCH  80  81
ATOM     81  S   UNL A   1      34.259  30.771  27.881  1.00  0.00     0.124 S 
ATOM     82  O   UNL A   1      33.521  29.511  27.896  1.00  0.00    -0.237 OA
ATOM     83  O   UNL A   1      33.943  31.696  28.966  1.00  0.00    -0.237 OA
ATOM     84  O   UNL A   1      34.411  31.388  26.565  1.00  0.00    -0.744 OA
ENDBRANCH  80  81
ENDBRANCH  61  75
BRANCH  62  85
ATOM     85  C   UNL A   1      47.796  26.623  31.496  1.00  0.00    -0.014 A 
ATOM     86  C   UNL A   1      48.893  26.737  30.623  1.00  0.00     0.010 A 
ATOM     87  C   UNL A   1      48.000  26.079  32.777  1.00  0.00     0.010 A 
ATOM     88  C   UNL A   1      50.161  26.300  31.016  1.00  0.00     0.020 A 
ATOM     89  C   UNL A   1      49.272  25.670  33.187  1.00  0.00     0.020 A 
ATOM     90  C   UNL A   1      50.344  25.773  32.299  1.00  0.00     0.054 A 
BRANCH  90  91
ATOM     91  S   UNL A   1      52.009  25.261  32.805  1.00  0.00     0.124 S 
ATOM     92  O   UNL A   1      51.901  25.272  34.260  1.00  0.00    -0.237 OA
ATOM     93  O   UNL A   1      52.131  23.942  32.188  1.00  0.00    -0.237 OA
ATOM     94  O   UNL A   1      52.873  26.290  32.233  1.00  0.00    -0.744 OA
ENDBRANCH  90  91
ENDBRANCH  62  85
BRANCH  74  95
ATOM     95  C   UNL A   1      42.598  23.470  28.049  1.00  0.00    -0.014 A 
ATOM     96  C   UNL A   1      41.860  22.434  28.647  1.00  0.00     0.010 A 
ATOM     97  C   UNL A   1      43.179  23.254  26.785  1.00  0.00     0.010 A 
ATOM     98  C   UNL A   1      41.735  21.196  28.009  1.00  0.00     0.020 A 
ATOM     99  C   UNL A   1      43.028  22.030  26.129  1.00  0.00     0.020 A 
ATOM    100  C   UNL A   1      42.319  21.002  26.753  1.00  0.00     0.054 A 
BRANCH 100 101
ATOM    101  S   UNL A   1      42.104  19.401  25.928  1.00  0.00     0.124 S 
ATOM    102  O   UNL A   1      42.572  18.468  26.949  1.00  0.00    -0.237 OA
ATOM    103  O   UNL A   1      40.668  19.371  25.659  1.00  0.00    -0.237 OA
ATOM    104  O   UNL A   1      42.951  19.504  24.742  1.00  0.00    -0.744 OA
ENDBRANCH 100 101
ENDBRANCH  74  95
ENDBRANCH  48  49
ENDBRANCH  41  43
ENDBRANCH  40  41
ENDBRANCH  39  40
ENDBRANCH  38  39
ENDBRANCH  37  38
ENDBRANCH  36  37
ENDBRANCH  35  36
ENDBRANCH   1  35
TORSDOF 26
ENDMDL
