MODEL 1
REMARK VINA RESULT:      -9.2      0.000      0.000
REMARK SMILES COc1ccc(S(=O)(=O)N[C@H]2C=C[C@@H](C(=O)OCCOCCOCCOCCOC(=O)c3ccc(-c4c5nc(c(-c6ccc(S(=O)(=O)[O-])cc6)c6ccc([nH]6)c(-c6ccc(S(=O)(=O)[O-])cc6)c6nc(c(-c7ccc(S(=O)(=O)[O-])cc7)c7ccc4[nH]7)C=C6)C=C5)cc3)C2)cc1
REMARK SMILES IDX 22 1 21 2 20 3 19 4 18 5 17 6 15 7 16 8 14 9 11 10 12 11
REMARK SMILES IDX 92 12 13 13 10 14 7 16 8 17 9 18 6 19 3 20 4 21 94 22 5 23
REMARK SMILES IDX 93 24 2 25 1 26 23 27 24 28 25 29 26 30 27 31 28 32 29 33
REMARK SMILES IDX 30 34 31 35 32 36 33 37 91 38 34 39 90 40 35 41 36 42 37 43
REMARK SMILES IDX 84 44 38 45 89 46 83 47 85 48 39 49 88 50 82 51 81 52 40 54
REMARK SMILES IDX 70 55 51 56 69 57 52 58 55 59 68 60 86 61 53 62 54 63 67 65
REMARK SMILES IDX 87 66 56 67 41 68 42 69 50 70 43 71 49 72 44 73 45 74 46 75
REMARK SMILES IDX 47 76 48 77 71 78 72 79 80 80 73 81 79 82 74 83 75 84 76 85
REMARK SMILES IDX 77 86 78 87 57 88 58 89 66 90 59 91 65 92 60 93 61 94 62 95
REMARK SMILES IDX 63 96 64 97
REMARK H PARENT 10 15 85 53 55 64
REMARK Flexibility Score: inf
ROOT
ATOM      1  C   UNL A   1      34.629  30.620  27.665  1.00  0.00     0.188 C 
ENDROOT
BRANCH   1   2
ATOM      2  C   UNL A   1      33.917  29.275  27.444  1.00  0.00     0.188 C 
BRANCH   2   3
ATOM      3  O   UNL A   1      33.285  28.985  26.202  1.00  0.00    -0.376 OA
BRANCH   3   4
ATOM      4  C   UNL A   1      31.919  29.342  26.006  1.00  0.00     0.202 C 
BRANCH   4   5
ATOM      5  C   UNL A   1      31.327  29.308  24.590  1.00  0.00     0.261 C 
BRANCH   5   6
ATOM      6  O   UNL A   1      30.750  28.043  24.227  1.00  0.00    -0.463 OA
BRANCH   6   7
ATOM      7  C   UNL A   1      31.246  27.451  23.116  1.00  0.00     0.312 C 
ATOM      8  O   UNL A   1      30.698  27.457  22.016  1.00  0.00    -0.252 OA
BRANCH   7   9
ATOM      9  C   UNL A   1      32.614  26.810  23.322  1.00  0.00     0.123 C 
ATOM     10  C   UNL A   1      33.749  24.790  24.095  1.00  0.00     0.093 C 
ATOM     11  C   UNL A   1      33.491  24.738  22.633  1.00  0.00    -0.011 C 
ATOM     12  C   UNL A   1      32.853  25.935  24.556  1.00  0.00     0.043 C 
ATOM     13  C   UNL A   1      32.895  25.855  22.201  1.00  0.00    -0.015 C 
BRANCH  10  14
ATOM     14  N   UNL A   1      33.494  23.601  24.882  1.00  0.00    -0.204 NA
ATOM     15  H   UNL A   1      32.990  23.933  25.704  1.00  0.00     0.142 HD
BRANCH  14  16
ATOM     16  S   UNL A   1      34.622  22.530  25.476  1.00  0.00     0.241 S 
ATOM     17  O   UNL A   1      34.444  22.443  26.909  1.00  0.00    -0.207 OA
ATOM     18  O   UNL A   1      35.874  22.919  24.874  1.00  0.00    -0.207 OA
BRANCH  16  19
ATOM     19  C   UNL A   1      34.156  20.983  24.741  1.00  0.00     0.082 A 
ATOM     20  C   UNL A   1      33.276  18.475  23.893  1.00  0.00     0.118 A 
ATOM     21  C   UNL A   1      34.522  18.617  24.515  1.00  0.00     0.048 A 
ATOM     22  C   UNL A   1      32.484  19.603  23.673  1.00  0.00     0.048 A 
ATOM     23  C   UNL A   1      34.965  19.868  24.950  1.00  0.00     0.025 A 
ATOM     24  C   UNL A   1      32.929  20.862  24.080  1.00  0.00     0.025 A 
BRANCH  20  25
ATOM     25  O   UNL A   1      32.941  17.190  23.566  1.00  0.00    -0.497 OA
ATOM     26  C   UNL A   1      33.140  16.202  24.568  1.00  0.00     0.278 C 
ENDBRANCH  20  25
ENDBRANCH  16  19
ENDBRANCH  14  16
ENDBRANCH  10  14
ENDBRANCH   7   9
ENDBRANCH   6   7
ENDBRANCH   5   6
ENDBRANCH   4   5
ENDBRANCH   3   4
ENDBRANCH   2   3
ENDBRANCH   1   2
BRANCH   1  27
ATOM     27  O   UNL A   1      33.778  31.747  27.660  1.00  0.00    -0.377 OA
BRANCH  27  28
ATOM     28  C   UNL A   1      34.386  32.988  28.004  1.00  0.00     0.188 C 
BRANCH  28  29
ATOM     29  C   UNL A   1      33.477  34.229  27.973  1.00  0.00     0.188 C 
BRANCH  29  30
ATOM     30  O   UNL A   1      32.783  34.455  29.203  1.00  0.00    -0.376 OA
BRANCH  30  31
ATOM     31  C   UNL A   1      33.430  35.287  30.163  1.00  0.00     0.202 C 
BRANCH  31  32
ATOM     32  C   UNL A   1      33.740  34.618  31.514  1.00  0.00     0.261 C 
BRANCH  32  33
ATOM     33  O   UNL A   1      34.207  33.259  31.446  1.00  0.00    -0.460 OA
BRANCH  33  34
ATOM     34  C   UNL A   1      34.960  32.800  32.468  1.00  0.00     0.338 C 
ATOM     35  O   UNL A   1      34.671  32.802  33.650  1.00  0.00    -0.246 OA
BRANCH  34  36
ATOM     36  C   UNL A   1      36.126  32.095  31.897  1.00  0.00     0.060 A 
ATOM     37  C   UNL A   1      36.893  31.286  32.744  1.00  0.00     0.016 A 
ATOM     38  C   UNL A   1      36.475  32.252  30.553  1.00  0.00     0.016 A 
ATOM     39  C   UNL A   1      38.049  30.673  32.261  1.00  0.00     0.010 A 
ATOM     40  C   UNL A   1      37.643  31.652  30.075  1.00  0.00     0.010 A 
ATOM     41  C   UNL A   1      38.457  30.898  30.939  1.00  0.00    -0.014 A 
BRANCH  41  42
ATOM     42  C   UNL A   1      39.836  30.543  30.531  1.00  0.00     0.031 A 
ATOM     43  C   UNL A   1      40.918  31.572  30.729  1.00  0.00     0.074 A 
ATOM     44  C   UNL A   1      40.135  29.334  30.027  1.00  0.00     0.049 A 
ATOM     45  N   UNL A   1      42.195  31.498  30.460  1.00  0.00    -0.248 NA
ATOM     46  C   UNL A   1      40.498  32.858  31.314  1.00  0.00     0.031 C 
ATOM     47  C   UNL A   1      39.190  28.237  29.835  1.00  0.00     0.029 A 
ATOM     48  N   UNL A   1      41.333  28.830  29.585  1.00  0.00    -0.354 N 
ATOM     49  C   UNL A   1      42.732  32.721  30.844  1.00  0.00     0.074 A 
ATOM     50  C   UNL A   1      41.638  33.531  31.334  1.00  0.00     0.031 C 
ATOM     51  C   UNL A   1      39.847  27.183  29.317  1.00  0.00     0.029 A 
ATOM     52  C   UNL A   1      41.250  27.543  29.114  1.00  0.00     0.049 A 
ATOM     53  H   UNL A   1      42.173  29.343  29.605  1.00  0.00     0.167 HD
ATOM     54  C   UNL A   1      44.020  33.136  30.801  1.00  0.00     0.031 A 
ATOM     55  C   UNL A   1      42.197  26.752  28.572  1.00  0.00     0.031 A 
ATOM     56  C   UNL A   1      45.102  32.348  30.278  1.00  0.00     0.049 A 
ATOM     57  C   UNL A   1      43.606  27.273  28.433  1.00  0.00     0.074 A 
ATOM     58  C   UNL A   1      46.441  32.679  30.181  1.00  0.00     0.029 A 
ATOM     59  N   UNL A   1      44.963  31.074  29.749  1.00  0.00    -0.354 N 
ATOM     60  N   UNL A   1      44.103  28.424  28.821  1.00  0.00    -0.248 NA
ATOM     61  C   UNL A   1      44.581  26.384  27.787  1.00  0.00     0.031 C 
ATOM     62  C   UNL A   1      47.105  31.623  29.546  1.00  0.00     0.029 A 
ATOM     63  C   UNL A   1      46.189  30.613  29.298  1.00  0.00     0.049 A 
ATOM     64  H   UNL A   1      44.118  30.571  29.700  1.00  0.00     0.167 HD
ATOM     65  C   UNL A   1      45.455  28.384  28.494  1.00  0.00     0.074 A 
ATOM     66  C   UNL A   1      45.698  27.093  27.881  1.00  0.00     0.031 C 
ATOM     67  C   UNL A   1      46.412  29.325  28.689  1.00  0.00     0.031 A 
BRANCH  54  68
ATOM     68  C   UNL A   1      44.303  34.528  31.297  1.00  0.00    -0.014 A 
ATOM     69  C   UNL A   1      44.616  34.767  32.648  1.00  0.00     0.010 A 
ATOM     70  C   UNL A   1      44.234  35.613  30.406  1.00  0.00     0.010 A 
ATOM     71  C   UNL A   1      44.797  36.074  33.110  1.00  0.00     0.020 A 
ATOM     72  C   UNL A   1      44.439  36.919  30.858  1.00  0.00     0.020 A 
ATOM     73  C   UNL A   1      44.696  37.142  32.214  1.00  0.00     0.054 A 
BRANCH  73  74
ATOM     74  S   UNL A   1      44.911  38.830  32.840  1.00  0.00     0.124 S 
ATOM     75  O   UNL A   1      45.427  39.523  31.662  1.00  0.00    -0.237 OA
ATOM     76  O   UNL A   1      43.557  39.200  33.243  1.00  0.00    -0.237 OA
ATOM     77  O   UNL A   1      45.862  38.674  33.938  1.00  0.00    -0.744 OA
ENDBRANCH  73  74
ENDBRANCH  54  68
BRANCH  55  78
ATOM     78  C   UNL A   1      41.852  25.378  28.119  1.00  0.00    -0.014 A 
ATOM     79  C   UNL A   1      41.105  25.182  26.943  1.00  0.00     0.010 A 
ATOM     80  C   UNL A   1      42.265  24.255  28.860  1.00  0.00     0.010 A 
ATOM     81  C   UNL A   1      40.768  23.892  26.524  1.00  0.00     0.020 A 
ATOM     82  C   UNL A   1      41.950  22.962  28.431  1.00  0.00     0.020 A 
ATOM     83  C   UNL A   1      41.194  22.790  27.269  1.00  0.00     0.054 A 
BRANCH  83  84
ATOM     84  S   UNL A   1      40.787  21.123  26.676  1.00  0.00     0.124 S 
ATOM     85  O   UNL A   1      40.785  20.352  27.916  1.00  0.00    -0.237 OA
ATOM     86  O   UNL A   1      39.482  21.321  26.051  1.00  0.00    -0.237 OA
ATOM     87  O   UNL A   1      41.874  20.815  25.750  1.00  0.00    -0.744 OA
ENDBRANCH  83  84
ENDBRANCH  55  78
BRANCH  67  88
ATOM     88  C   UNL A   1      47.818  28.986  28.272  1.00  0.00    -0.014 A 
ATOM     89  C   UNL A   1      48.710  28.353  29.156  1.00  0.00     0.010 A 
ATOM     90  C   UNL A   1      48.233  29.252  26.954  1.00  0.00     0.010 A 
ATOM     91  C   UNL A   1      50.001  28.016  28.735  1.00  0.00     0.020 A 
ATOM     92  C   UNL A   1      49.514  28.896  26.524  1.00  0.00     0.020 A 
ATOM     93  C   UNL A   1      50.394  28.292  27.422  1.00  0.00     0.054 A 
BRANCH  93  94
ATOM     94  S   UNL A   1      52.057  27.804  26.885  1.00  0.00     0.124 S 
ATOM     95  O   UNL A   1      52.050  28.195  25.478  1.00  0.00    -0.237 OA
ATOM     96  O   UNL A   1      52.923  28.599  27.754  1.00  0.00    -0.237 OA
ATOM     97  O   UNL A   1      52.093  26.364  27.132  1.00  0.00    -0.744 OA
ENDBRANCH  93  94
ENDBRANCH  67  88
ENDBRANCH  41  42
ENDBRANCH  34  36
ENDBRANCH  33  34
ENDBRANCH  32  33
ENDBRANCH  31  32
ENDBRANCH  30  31
ENDBRANCH  29  30
ENDBRANCH  28  29
ENDBRANCH  27  28
ENDBRANCH   1  27
TORSDOF 27
ENDMDL
MODEL 2
REMARK VINA RESULT:      -9.0      4.847      6.030
REMARK SMILES COc1ccc(S(=O)(=O)N[C@H]2C=C[C@@H](C(=O)OCCOCCOCCOCCOC(=O)c3ccc(-c4c5nc(c(-c6ccc(S(=O)(=O)[O-])cc6)c6ccc([nH]6)c(-c6ccc(S(=O)(=O)[O-])cc6)c6nc(c(-c7ccc(S(=O)(=O)[O-])cc7)c7ccc4[nH]7)C=C6)C=C5)cc3)C2)cc1
REMARK SMILES IDX 22 1 21 2 20 3 19 4 18 5 17 6 15 7 16 8 14 9 11 10 12 11
REMARK SMILES IDX 92 12 13 13 10 14 7 16 8 17 9 18 6 19 3 20 4 21 94 22 5 23
REMARK SMILES IDX 93 24 2 25 1 26 23 27 24 28 25 29 26 30 27 31 28 32 29 33
REMARK SMILES IDX 30 34 31 35 32 36 33 37 91 38 34 39 90 40 35 41 36 42 37 43
REMARK SMILES IDX 84 44 38 45 89 46 83 47 85 48 39 49 88 50 82 51 81 52 40 54
REMARK SMILES IDX 70 55 51 56 69 57 52 58 55 59 68 60 86 61 53 62 54 63 67 65
REMARK SMILES IDX 87 66 56 67 41 68 42 69 50 70 43 71 49 72 44 73 45 74 46 75
REMARK SMILES IDX 47 76 48 77 71 78 72 79 80 80 73 81 79 82 74 83 75 84 76 85
REMARK SMILES IDX 77 86 78 87 57 88 58 89 66 90 59 91 65 92 60 93 61 94 62 95
REMARK SMILES IDX 63 96 64 97
REMARK H PARENT 10 15 85 53 55 64
REMARK Flexibility Score: inf
ROOT
ATOM      1  C   UNL A   1      35.062  30.186  27.838  1.00  0.00     0.188 C 
ENDROOT
BRANCH   1   2
ATOM      2  C   UNL A   1      34.373  28.995  27.151  1.00  0.00     0.188 C 
BRANCH   2   3
ATOM      3  O   UNL A   1      34.142  29.003  25.746  1.00  0.00    -0.376 OA
BRANCH   3   4
ATOM      4  C   UNL A   1      32.805  28.985  25.253  1.00  0.00     0.202 C 
BRANCH   4   5
ATOM      5  C   UNL A   1      32.560  28.834  23.745  1.00  0.00     0.261 C 
BRANCH   5   6
ATOM      6  O   UNL A   1      32.251  27.491  23.335  1.00  0.00    -0.463 OA
BRANCH   6   7
ATOM      7  C   UNL A   1      30.997  27.274  22.877  1.00  0.00     0.312 C 
ATOM      8  O   UNL A   1      30.427  27.968  22.039  1.00  0.00    -0.252 OA
BRANCH   7   9
ATOM      9  C   UNL A   1      30.344  26.022  23.453  1.00  0.00     0.123 C 
ATOM     10  C   UNL A   1      30.788  23.935  24.642  1.00  0.00     0.093 C 
ATOM     11  C   UNL A   1      30.462  25.034  25.586  1.00  0.00    -0.011 C 
ATOM     12  C   UNL A   1      31.071  24.679  23.340  1.00  0.00     0.043 C 
ATOM     13  C   UNL A   1      30.190  26.172  24.937  1.00  0.00    -0.015 C 
BRANCH  10  14
ATOM     14  N   UNL A   1      31.888  23.051  24.968  1.00  0.00    -0.204 NA
ATOM     15  H   UNL A   1      32.726  23.622  24.855  1.00  0.00     0.142 HD
BRANCH  14  16
ATOM     16  S   UNL A   1      32.259  21.600  24.242  1.00  0.00     0.241 S 
ATOM     17  O   UNL A   1      31.837  21.672  22.859  1.00  0.00    -0.207 OA
ATOM     18  O   UNL A   1      31.777  20.585  25.146  1.00  0.00    -0.207 OA
BRANCH  16  19
ATOM     19  C   UNL A   1      34.031  21.543  24.302  1.00  0.00     0.082 A 
ATOM     20  C   UNL A   1      36.792  21.628  24.698  1.00  0.00     0.118 A 
ATOM     21  C   UNL A   1      36.140  22.664  24.018  1.00  0.00     0.048 A 
ATOM     22  C   UNL A   1      36.056  20.534  25.154  1.00  0.00     0.048 A 
ATOM     23  C   UNL A   1      34.758  22.632  23.825  1.00  0.00     0.025 A 
ATOM     24  C   UNL A   1      34.677  20.480  24.943  1.00  0.00     0.025 A 
BRANCH  20  25
ATOM     25  O   UNL A   1      38.137  21.810  24.866  1.00  0.00    -0.497 OA
ATOM     26  C   UNL A   1      38.562  22.318  26.124  1.00  0.00     0.278 C 
ENDBRANCH  20  25
ENDBRANCH  16  19
ENDBRANCH  14  16
ENDBRANCH  10  14
ENDBRANCH   7   9
ENDBRANCH   6   7
ENDBRANCH   5   6
ENDBRANCH   4   5
ENDBRANCH   3   4
ENDBRANCH   2   3
ENDBRANCH   1   2
BRANCH   1  27
ATOM     27  O   UNL A   1      34.411  31.427  27.661  1.00  0.00    -0.377 OA
BRANCH  27  28
ATOM     28  C   UNL A   1      34.564  32.368  28.719  1.00  0.00     0.188 C 
BRANCH  28  29
ATOM     29  C   UNL A   1      34.861  33.820  28.308  1.00  0.00     0.188 C 
BRANCH  29  30
ATOM     30  O   UNL A   1      33.682  34.609  28.122  1.00  0.00    -0.376 OA
BRANCH  30  31
ATOM     31  C   UNL A   1      33.675  35.905  28.716  1.00  0.00     0.202 C 
BRANCH  31  32
ATOM     32  C   UNL A   1      32.611  36.125  29.806  1.00  0.00     0.261 C 
BRANCH  32  33
ATOM     33  O   UNL A   1      32.529  35.103  30.815  1.00  0.00    -0.460 OA
BRANCH  33  34
ATOM     34  C   UNL A   1      33.149  35.330  31.993  1.00  0.00     0.338 C 
ATOM     35  O   UNL A   1      32.693  35.911  32.961  1.00  0.00    -0.246 OA
BRANCH  34  36
ATOM     36  C   UNL A   1      34.416  34.571  31.997  1.00  0.00     0.060 A 
ATOM     37  C   UNL A   1      34.389  33.236  32.417  1.00  0.00     0.016 A 
ATOM     38  C   UNL A   1      35.618  35.175  31.618  1.00  0.00     0.016 A 
ATOM     39  C   UNL A   1      35.578  32.515  32.515  1.00  0.00     0.010 A 
ATOM     40  C   UNL A   1      36.811  34.456  31.733  1.00  0.00     0.010 A 
ATOM     41  C   UNL A   1      36.799  33.139  32.224  1.00  0.00    -0.014 A 
BRANCH  41  42
ATOM     42  C   UNL A   1      38.065  32.500  32.653  1.00  0.00     0.031 A 
ATOM     43  C   UNL A   1      38.547  32.757  34.057  1.00  0.00     0.074 A 
ATOM     44  C   UNL A   1      38.759  31.689  31.837  1.00  0.00     0.049 A 
ATOM     45  N   UNL A   1      39.614  32.309  34.664  1.00  0.00    -0.248 NA
ATOM     46  C   UNL A   1      37.704  33.637  34.886  1.00  0.00     0.031 C 
ATOM     47  C   UNL A   1      38.373  31.321  30.477  1.00  0.00     0.029 A 
ATOM     48  N   UNL A   1      39.943  31.026  32.044  1.00  0.00    -0.354 N 
ATOM     49  C   UNL A   1      39.570  32.848  35.945  1.00  0.00     0.074 A 
ATOM     50  C   UNL A   1      38.391  33.682  36.017  1.00  0.00     0.031 C 
ATOM     51  C   UNL A   1      39.303  30.491  29.971  1.00  0.00     0.029 A 
ATOM     52  C   UNL A   1      40.362  30.294  30.960  1.00  0.00     0.049 A 
ATOM     53  H   UNL A   1      40.444  31.069  32.890  1.00  0.00     0.167 HD
ATOM     54  C   UNL A   1      40.430  32.663  36.975  1.00  0.00     0.031 A 
ATOM     55  C   UNL A   1      41.479  29.560  30.785  1.00  0.00     0.031 A 
ATOM     56  C   UNL A   1      41.624  31.867  36.894  1.00  0.00     0.049 A 
ATOM     57  C   UNL A   1      42.479  29.455  31.910  1.00  0.00     0.074 A 
ATOM     58  C   UNL A   1      42.566  31.623  37.877  1.00  0.00     0.029 A 
ATOM     59  N   UNL A   1      42.047  31.197  35.756  1.00  0.00    -0.354 N 
ATOM     60  N   UNL A   1      42.414  29.953  33.122  1.00  0.00    -0.248 NA
ATOM     61  C   UNL A   1      43.701  28.684  31.640  1.00  0.00     0.031 C 
ATOM     62  C   UNL A   1      43.587  30.845  37.317  1.00  0.00     0.029 A 
ATOM     63  C   UNL A   1      43.251  30.560  36.003  1.00  0.00     0.049 A 
ATOM     64  H   UNL A   1      41.563  31.177  34.899  1.00  0.00     0.167 HD
ATOM     65  C   UNL A   1      43.571  29.528  33.769  1.00  0.00     0.074 A 
ATOM     66  C   UNL A   1      44.314  28.730  32.815  1.00  0.00     0.031 C 
ATOM     67  C   UNL A   1      43.979  29.770  35.040  1.00  0.00     0.031 A 
BRANCH  54  68
ATOM     68  C   UNL A   1      40.117  33.382  38.259  1.00  0.00    -0.014 A 
ATOM     69  C   UNL A   1      38.916  33.141  38.952  1.00  0.00     0.010 A 
ATOM     70  C   UNL A   1      41.025  34.326  38.769  1.00  0.00     0.010 A 
ATOM     71  C   UNL A   1      38.603  33.874  40.100  1.00  0.00     0.020 A 
ATOM     72  C   UNL A   1      40.728  35.043  39.930  1.00  0.00     0.020 A 
ATOM     73  C   UNL A   1      39.506  34.830  40.574  1.00  0.00     0.054 A 
BRANCH  73  74
ATOM     74  S   UNL A   1      39.068  35.786  42.051  1.00  0.00     0.124 S 
ATOM     75  O   UNL A   1      37.716  35.306  42.329  1.00  0.00    -0.237 OA
ATOM     76  O   UNL A   1      40.087  35.379  43.014  1.00  0.00    -0.237 OA
ATOM     77  O   UNL A   1      39.156  37.174  41.605  1.00  0.00    -0.744 OA
ENDBRANCH  73  74
ENDBRANCH  54  68
BRANCH  55  78
ATOM     78  C   UNL A   1      41.717  28.860  29.494  1.00  0.00    -0.014 A 
ATOM     79  C   UNL A   1      42.434  29.493  28.463  1.00  0.00     0.010 A 
ATOM     80  C   UNL A   1      41.228  27.557  29.286  1.00  0.00     0.010 A 
ATOM     81  C   UNL A   1      42.646  28.841  27.245  1.00  0.00     0.020 A 
ATOM     82  C   UNL A   1      41.458  26.893  28.078  1.00  0.00     0.020 A 
ATOM     83  C   UNL A   1      42.159  27.544  27.059  1.00  0.00     0.054 A 
BRANCH  83  84
ATOM     84  S   UNL A   1      42.492  26.700  25.487  1.00  0.00     0.124 S 
ATOM     85  O   UNL A   1      41.317  25.846  25.347  1.00  0.00    -0.237 OA
ATOM     86  O   UNL A   1      42.582  27.813  24.545  1.00  0.00    -0.237 OA
ATOM     87  O   UNL A   1      43.750  25.999  25.735  1.00  0.00    -0.744 OA
ENDBRANCH  83  84
ENDBRANCH  55  78
BRANCH  67  88
ATOM     88  C   UNL A   1      45.268  29.137  35.491  1.00  0.00    -0.014 A 
ATOM     89  C   UNL A   1      46.479  29.849  35.471  1.00  0.00     0.010 A 
ATOM     90  C   UNL A   1      45.253  27.825  35.999  1.00  0.00     0.010 A 
ATOM     91  C   UNL A   1      47.659  29.250  35.926  1.00  0.00     0.020 A 
ATOM     92  C   UNL A   1      46.424  27.232  36.477  1.00  0.00     0.020 A 
ATOM     93  C   UNL A   1      47.623  27.944  36.425  1.00  0.00     0.054 A 
BRANCH  93  94
ATOM     94  S   UNL A   1      49.155  27.205  37.054  1.00  0.00     0.124 S 
ATOM     95  O   UNL A   1      49.816  26.779  35.823  1.00  0.00    -0.237 OA
ATOM     96  O   UNL A   1      49.789  28.321  37.753  1.00  0.00    -0.237 OA
ATOM     97  O   UNL A   1      48.689  26.122  37.918  1.00  0.00    -0.744 OA
ENDBRANCH  93  94
ENDBRANCH  67  88
ENDBRANCH  41  42
ENDBRANCH  34  36
ENDBRANCH  33  34
ENDBRANCH  32  33
ENDBRANCH  31  32
ENDBRANCH  30  31
ENDBRANCH  29  30
ENDBRANCH  28  29
ENDBRANCH  27  28
ENDBRANCH   1  27
TORSDOF 27
ENDMDL
MODEL 3
REMARK VINA RESULT:      -8.8      1.653      2.587
REMARK SMILES COc1ccc(S(=O)(=O)N[C@H]2C=C[C@@H](C(=O)OCCOCCOCCOCCOC(=O)c3ccc(-c4c5nc(c(-c6ccc(S(=O)(=O)[O-])cc6)c6ccc([nH]6)c(-c6ccc(S(=O)(=O)[O-])cc6)c6nc(c(-c7ccc(S(=O)(=O)[O-])cc7)c7ccc4[nH]7)C=C6)C=C5)cc3)C2)cc1
REMARK SMILES IDX 22 1 21 2 20 3 19 4 18 5 17 6 15 7 16 8 14 9 11 10 12 11
REMARK SMILES IDX 92 12 13 13 10 14 7 16 8 17 9 18 6 19 3 20 4 21 94 22 5 23
REMARK SMILES IDX 93 24 2 25 1 26 23 27 24 28 25 29 26 30 27 31 28 32 29 33
REMARK SMILES IDX 30 34 31 35 32 36 33 37 91 38 34 39 90 40 35 41 36 42 37 43
REMARK SMILES IDX 84 44 38 45 89 46 83 47 85 48 39 49 88 50 82 51 81 52 40 54
REMARK SMILES IDX 70 55 51 56 69 57 52 58 55 59 68 60 86 61 53 62 54 63 67 65
REMARK SMILES IDX 87 66 56 67 41 68 42 69 50 70 43 71 49 72 44 73 45 74 46 75
REMARK SMILES IDX 47 76 48 77 71 78 72 79 80 80 73 81 79 82 74 83 75 84 76 85
REMARK SMILES IDX 77 86 78 87 57 88 58 89 66 90 59 91 65 92 60 93 61 94 62 95
REMARK SMILES IDX 63 96 64 97
REMARK H PARENT 10 15 85 53 55 64
REMARK Flexibility Score: inf
ROOT
ATOM      1  C   UNL A   1      34.963  33.005  28.372  1.00  0.00     0.188 C 
ENDROOT
BRANCH   1   2
ATOM      2  C   UNL A   1      34.838  31.626  27.702  1.00  0.00     0.188 C 
BRANCH   2   3
ATOM      3  O   UNL A   1      33.684  30.821  27.911  1.00  0.00    -0.376 OA
BRANCH   3   4
ATOM      4  C   UNL A   1      32.572  30.941  27.027  1.00  0.00     0.202 C 
BRANCH   4   5
ATOM      5  C   UNL A   1      31.788  29.684  26.626  1.00  0.00     0.261 C 
BRANCH   5   6
ATOM      6  O   UNL A   1      32.503  28.455  26.839  1.00  0.00    -0.463 OA
BRANCH   6   7
ATOM      7  C   UNL A   1      32.084  27.382  26.130  1.00  0.00     0.312 C 
ATOM      8  O   UNL A   1      32.316  26.213  26.426  1.00  0.00    -0.252 OA
BRANCH   7   9
ATOM      9  C   UNL A   1      31.217  27.744  24.929  1.00  0.00     0.123 C 
ATOM     10  C   UNL A   1      30.777  27.219  22.584  1.00  0.00     0.093 C 
ATOM     11  C   UNL A   1      29.910  26.420  23.487  1.00  0.00    -0.011 C 
ATOM     12  C   UNL A   1      31.842  27.762  23.531  1.00  0.00     0.043 C 
ATOM     13  C   UNL A   1      30.127  26.726  24.771  1.00  0.00    -0.015 C 
BRANCH  10  14
ATOM     14  N   UNL A   1      31.396  26.552  21.457  1.00  0.00    -0.204 NA
ATOM     15  H   UNL A   1      30.813  25.734  21.282  1.00  0.00     0.142 HD
BRANCH  14  16
ATOM     16  S   UNL A   1      32.960  25.991  21.360  1.00  0.00     0.241 S 
ATOM     17  O   UNL A   1      33.850  27.091  21.660  1.00  0.00    -0.207 OA
ATOM     18  O   UNL A   1      33.028  25.257  20.120  1.00  0.00    -0.207 OA
BRANCH  16  19
ATOM     19  C   UNL A   1      33.058  24.797  22.669  1.00  0.00     0.082 A 
ATOM     20  C   UNL A   1      33.315  22.693  24.484  1.00  0.00     0.118 A 
ATOM     21  C   UNL A   1      32.110  22.899  23.802  1.00  0.00     0.048 A 
ATOM     22  C   UNL A   1      34.383  23.567  24.273  1.00  0.00     0.048 A 
ATOM     23  C   UNL A   1      31.978  23.944  22.886  1.00  0.00     0.025 A 
ATOM     24  C   UNL A   1      34.252  24.630  23.379  1.00  0.00     0.025 A 
BRANCH  20  25
ATOM     25  O   UNL A   1      33.327  21.604  25.311  1.00  0.00    -0.497 OA
ATOM     26  C   UNL A   1      33.643  20.352  24.715  1.00  0.00     0.278 C 
ENDBRANCH  20  25
ENDBRANCH  16  19
ENDBRANCH  14  16
ENDBRANCH  10  14
ENDBRANCH   7   9
ENDBRANCH   6   7
ENDBRANCH   5   6
ENDBRANCH   4   5
ENDBRANCH   3   4
ENDBRANCH   2   3
ENDBRANCH   1   2
BRANCH   1  27
ATOM     27  O   UNL A   1      33.928  33.911  28.055  1.00  0.00    -0.377 OA
BRANCH  27  28
ATOM     28  C   UNL A   1      34.135  35.261  28.459  1.00  0.00     0.188 C 
BRANCH  28  29
ATOM     29  C   UNL A   1      33.076  35.868  29.395  1.00  0.00     0.188 C 
BRANCH  29  30
ATOM     30  O   UNL A   1      32.872  35.108  30.590  1.00  0.00    -0.376 OA
BRANCH  30  31
ATOM     31  C   UNL A   1      33.882  35.204  31.592  1.00  0.00     0.202 C 
BRANCH  31  32
ATOM     32  C   UNL A   1      34.249  33.880  32.286  1.00  0.00     0.261 C 
BRANCH  32  33
ATOM     33  O   UNL A   1      35.511  33.304  31.907  1.00  0.00    -0.460 OA
BRANCH  33  34
ATOM     34  C   UNL A   1      36.218  32.653  32.855  1.00  0.00     0.338 C 
ATOM     35  O   UNL A   1      35.944  32.559  34.037  1.00  0.00    -0.246 OA
BRANCH  34  36
ATOM     36  C   UNL A   1      37.288  31.889  32.184  1.00  0.00     0.060 A 
ATOM     37  C   UNL A   1      38.047  30.996  32.951  1.00  0.00     0.016 A 
ATOM     38  C   UNL A   1      37.559  32.069  30.825  1.00  0.00     0.016 A 
ATOM     39  C   UNL A   1      39.121  30.321  32.370  1.00  0.00     0.010 A 
ATOM     40  C   UNL A   1      38.646  31.405  30.250  1.00  0.00     0.010 A 
ATOM     41  C   UNL A   1      39.457  30.564  31.031  1.00  0.00    -0.014 A 
BRANCH  41  42
ATOM     42  C   UNL A   1      40.777  30.127  30.520  1.00  0.00     0.031 A 
ATOM     43  C   UNL A   1      41.932  31.087  30.633  1.00  0.00     0.074 A 
ATOM     44  C   UNL A   1      40.962  28.903  29.997  1.00  0.00     0.049 A 
ATOM     45  N   UNL A   1      43.177  30.935  30.266  1.00  0.00    -0.248 NA
ATOM     46  C   UNL A   1      41.637  32.394  31.246  1.00  0.00     0.031 C 
ATOM     47  C   UNL A   1      39.939  27.867  29.879  1.00  0.00     0.029 A 
ATOM     48  N   UNL A   1      42.089  28.329  29.465  1.00  0.00    -0.354 N 
ATOM     49  C   UNL A   1      43.816  32.123  30.607  1.00  0.00     0.074 A 
ATOM     50  C   UNL A   1      42.814  32.996  31.178  1.00  0.00     0.031 C 
ATOM     51  C   UNL A   1      40.489  26.776  29.314  1.00  0.00     0.029 A 
ATOM     52  C   UNL A   1      41.891  27.050  29.003  1.00  0.00     0.049 A 
ATOM     53  H   UNL A   1      42.958  28.789  29.420  1.00  0.00     0.167 HD
ATOM     54  C   UNL A   1      45.119  32.458  30.464  1.00  0.00     0.031 A 
ATOM     55  C   UNL A   1      42.744  26.204  28.391  1.00  0.00     0.031 A 
ATOM     56  C   UNL A   1      46.109  31.607  29.862  1.00  0.00     0.049 A 
ATOM     57  C   UNL A   1      44.167  26.639  28.145  1.00  0.00     0.074 A 
ATOM     58  C   UNL A   1      47.454  31.855  29.662  1.00  0.00     0.029 A 
ATOM     59  N   UNL A   1      45.852  30.345  29.346  1.00  0.00    -0.354 N 
ATOM     60  N   UNL A   1      44.762  27.756  28.492  1.00  0.00    -0.248 NA
ATOM     61  C   UNL A   1      45.034  25.693  27.427  1.00  0.00     0.031 C 
ATOM     62  C   UNL A   1      48.001  30.763  28.979  1.00  0.00     0.029 A 
ATOM     63  C   UNL A   1      47.008  29.811  28.803  1.00  0.00     0.049 A 
ATOM     64  H   UNL A   1      44.976  29.895  29.363  1.00  0.00     0.167 HD
ATOM     65  C   UNL A   1      46.081  27.634  28.061  1.00  0.00     0.074 A 
ATOM     66  C   UNL A   1      46.196  26.332  27.434  1.00  0.00     0.031 C 
ATOM     67  C   UNL A   1      47.105  28.515  28.181  1.00  0.00     0.031 A 
BRANCH  54  68
ATOM     68  C   UNL A   1      45.525  33.829  30.935  1.00  0.00    -0.014 A 
ATOM     69  C   UNL A   1      45.369  34.956  30.106  1.00  0.00     0.010 A 
ATOM     70  C   UNL A   1      46.088  33.989  32.213  1.00  0.00     0.010 A 
ATOM     71  C   UNL A   1      45.825  36.209  30.526  1.00  0.00     0.020 A 
ATOM     72  C   UNL A   1      46.520  35.244  32.647  1.00  0.00     0.020 A 
ATOM     73  C   UNL A   1      46.408  36.342  31.789  1.00  0.00     0.054 A 
BRANCH  73  74
ATOM     74  S   UNL A   1      47.013  37.972  32.303  1.00  0.00     0.124 S 
ATOM     75  O   UNL A   1      46.411  38.112  33.627  1.00  0.00    -0.237 OA
ATOM     76  O   UNL A   1      48.463  37.799  32.289  1.00  0.00    -0.237 OA
ATOM     77  O   UNL A   1      46.487  38.875  31.282  1.00  0.00    -0.744 OA
ENDBRANCH  73  74
ENDBRANCH  54  68
BRANCH  55  78
ATOM     78  C   UNL A   1      42.281  24.855  27.969  1.00  0.00    -0.014 A 
ATOM     79  C   UNL A   1      41.599  24.686  26.750  1.00  0.00     0.010 A 
ATOM     80  C   UNL A   1      42.518  23.731  28.780  1.00  0.00     0.010 A 
ATOM     81  C   UNL A   1      41.152  23.422  26.358  1.00  0.00     0.020 A 
ATOM     82  C   UNL A   1      42.093  22.460  28.380  1.00  0.00     0.020 A 
ATOM     83  C   UNL A   1      41.403  22.316  27.174  1.00  0.00     0.054 A 
BRANCH  83  84
ATOM     84  S   UNL A   1      40.857  20.676  26.618  1.00  0.00     0.124 S 
ATOM     85  O   UNL A   1      40.864  19.916  27.865  1.00  0.00    -0.237 OA
ATOM     86  O   UNL A   1      39.539  20.957  26.056  1.00  0.00    -0.237 OA
ATOM     87  O   UNL A   1      41.874  20.289  25.644  1.00  0.00    -0.744 OA
ENDBRANCH  83  84
ENDBRANCH  55  78
BRANCH  67  88
ATOM     88  C   UNL A   1      48.452  28.092  27.659  1.00  0.00    -0.014 A 
ATOM     89  C   UNL A   1      49.387  27.447  28.486  1.00  0.00     0.010 A 
ATOM     90  C   UNL A   1      48.760  28.289  26.300  1.00  0.00     0.010 A 
ATOM     91  C   UNL A   1      50.620  27.032  27.970  1.00  0.00     0.020 A 
ATOM     92  C   UNL A   1      49.980  27.854  25.775  1.00  0.00     0.020 A 
ATOM     93  C   UNL A   1      50.908  27.240  26.617  1.00  0.00     0.054 A 
BRANCH  93  94
ATOM     94  S   UNL A   1      52.493  26.652  25.959  1.00  0.00     0.124 S 
ATOM     95  O   UNL A   1      53.383  27.767  26.267  1.00  0.00    -0.237 OA
ATOM     96  O   UNL A   1      52.727  25.430  26.726  1.00  0.00    -0.237 OA
ATOM     97  O   UNL A   1      52.222  26.443  24.538  1.00  0.00    -0.744 OA
ENDBRANCH  93  94
ENDBRANCH  67  88
ENDBRANCH  41  42
ENDBRANCH  34  36
ENDBRANCH  33  34
ENDBRANCH  32  33
ENDBRANCH  31  32
ENDBRANCH  30  31
ENDBRANCH  29  30
ENDBRANCH  28  29
ENDBRANCH  27  28
ENDBRANCH   1  27
TORSDOF 27
ENDMDL
