MODEL 1
REMARK VINA RESULT:      -7.6      0.000      0.000
REMARK SMILES CS(=O)(=O)c1ccc(/C=C(/C(=O)OCCOCCOCCOCCOC(=O)c2ccc(-c3c4nc(c(-c5ccc(S(=O)(=O)[O-])cc5)c5ccc([nH]5)c(-c5ccc(S(=O)(=O)[O-])cc5)c5nc(c(-c6ccc(S(=O)(=O)[O-])cc6)c6ccc3[nH]6)C=C5)C=C4)cc2)c2ccc(F)cc2)cc1
REMARK SMILES IDX 20 1 19 2 18 3 17 4 16 5 15 6 14 7 13 8 11 9 12 10 10 11
REMARK SMILES IDX 9 12 8 13 5 14 6 15 96 16 7 17 95 18 2 19 1 20 3 21 4 22
REMARK SMILES IDX 88 23 89 24 94 25 90 26 93 27 91 28 92 29 21 30 22 31 23 32
REMARK SMILES IDX 24 33 25 34 26 35 27 36 28 37 29 38 87 39 30 40 86 41 31 42
REMARK SMILES IDX 32 43 33 44 80 45 34 46 85 47 79 48 81 49 35 50 84 51 78 52
REMARK SMILES IDX 77 53 36 55 66 56 47 57 65 58 48 59 51 60 64 61 82 62 49 63
REMARK SMILES IDX 50 64 63 66 83 67 52 68 37 69 38 70 46 71 39 72 45 73 40 74
REMARK SMILES IDX 41 75 42 76 43 77 44 78 67 79 68 80 76 81 69 82 75 83 70 84
REMARK SMILES IDX 71 85 72 86 73 87 74 88 53 89 54 90 62 91 55 92 61 93 56 94
REMARK SMILES IDX 57 95 58 96 59 97 60 98
REMARK H PARENT 81 54 51 65
REMARK Flexibility Score: inf
ROOT
ATOM      1  C   UNL A   1      38.509  19.855  25.020  1.00  0.00     0.188 C 
ENDROOT
BRANCH   1   2
ATOM      2  O   UNL A   1      39.387  19.238  25.955  1.00  0.00    -0.377 OA
BRANCH   2   3
ATOM      3  C   UNL A   1      40.785  19.433  25.828  1.00  0.00     0.188 C 
BRANCH   3   4
ATOM      4  C   UNL A   1      41.553  20.165  26.951  1.00  0.00     0.188 C 
BRANCH   4   5
ATOM      5  O   UNL A   1      41.573  21.575  26.811  1.00  0.00    -0.376 OA
BRANCH   5   6
ATOM      6  C   UNL A   1      42.793  22.241  27.085  1.00  0.00     0.202 C 
BRANCH   6   7
ATOM      7  C   UNL A   1      43.569  22.843  25.902  1.00  0.00     0.261 C 
BRANCH   7   8
ATOM      8  O   UNL A   1      44.992  22.946  26.068  1.00  0.00    -0.460 OA
BRANCH   8   9
ATOM      9  C   UNL A   1      45.452  23.683  27.107  1.00  0.00     0.338 C 
ATOM     10  O   UNL A   1      45.367  23.372  28.285  1.00  0.00    -0.246 OA
BRANCH   9  11
ATOM     11  C   UNL A   1      46.234  24.869  26.607  1.00  0.00     0.067 C 
ATOM     12  C   UNL A   1      47.456  24.663  26.057  1.00  0.00     0.024 C 
BRANCH  12  13
ATOM     13  C   UNL A   1      48.314  25.615  25.309  1.00  0.00    -0.025 A 
ATOM     14  C   UNL A   1      50.298  26.902  23.807  1.00  0.00     0.067 A 
ATOM     15  C   UNL A   1      49.044  26.677  23.245  1.00  0.00     0.021 A 
ATOM     16  C   UNL A   1      50.531  26.613  25.151  1.00  0.00     0.021 A 
ATOM     17  C   UNL A   1      48.046  26.078  24.015  1.00  0.00     0.009 A 
ATOM     18  C   UNL A   1      49.535  25.980  25.900  1.00  0.00     0.009 A 
BRANCH  14  19
ATOM     19  S   UNL A   1      51.648  27.405  22.771  1.00  0.00     0.175 S 
ATOM     20  C   UNL A   1      51.099  28.927  22.060  1.00  0.00     0.163 C 
ATOM     21  O   UNL A   1      51.771  26.434  21.700  1.00  0.00    -0.224 OA
ATOM     22  O   UNL A   1      52.774  27.688  23.642  1.00  0.00    -0.224 OA
ENDBRANCH  14  19
ENDBRANCH  12  13
BRANCH  11  23
ATOM     23  C   UNL A   1      45.603  26.202  26.728  1.00  0.00    -0.011 A 
ATOM     24  C   UNL A   1      46.290  27.249  27.374  1.00  0.00     0.012 A 
ATOM     25  C   UNL A   1      44.368  26.472  26.129  1.00  0.00     0.012 A 
ATOM     26  C   UNL A   1      45.757  28.537  27.422  1.00  0.00     0.040 A 
ATOM     27  C   UNL A   1      43.843  27.768  26.164  1.00  0.00     0.040 A 
ATOM     28  C   UNL A   1      44.539  28.784  26.811  1.00  0.00     0.123 A 
ATOM     29  F   UNL A   1      44.038  30.027  26.827  1.00  0.00    -0.207 F 
ENDBRANCH  11  23
ENDBRANCH   9  11
ENDBRANCH   8   9
ENDBRANCH   7   8
ENDBRANCH   6   7
ENDBRANCH   5   6
ENDBRANCH   4   5
ENDBRANCH   3   4
ENDBRANCH   2   3
ENDBRANCH   1   2
BRANCH   1  30
ATOM     30  C   UNL A   1      37.056  19.351  24.853  1.00  0.00     0.188 C 
BRANCH  30  31
ATOM     31  O   UNL A   1      36.052  20.317  25.131  1.00  0.00    -0.376 OA
BRANCH  31  32
ATOM     32  C   UNL A   1      36.344  21.671  24.835  1.00  0.00     0.202 C 
BRANCH  32  33
ATOM     33  C   UNL A   1      36.195  22.678  25.983  1.00  0.00     0.261 C 
BRANCH  33  34
ATOM     34  O   UNL A   1      37.136  23.760  26.001  1.00  0.00    -0.460 OA
BRANCH  34  35
ATOM     35  C   UNL A   1      38.444  23.446  26.125  1.00  0.00     0.338 C 
ATOM     36  O   UNL A   1      39.038  22.536  25.573  1.00  0.00    -0.246 OA
BRANCH  35  37
ATOM     37  C   UNL A   1      39.084  24.529  26.899  1.00  0.00     0.060 A 
ATOM     38  C   UNL A   1      38.711  24.732  28.237  1.00  0.00     0.016 A 
ATOM     39  C   UNL A   1      40.077  25.316  26.312  1.00  0.00     0.016 A 
ATOM     40  C   UNL A   1      39.315  25.746  28.981  1.00  0.00     0.010 A 
ATOM     41  C   UNL A   1      40.660  26.346  27.050  1.00  0.00     0.010 A 
ATOM     42  C   UNL A   1      40.258  26.587  28.376  1.00  0.00    -0.014 A 
BRANCH  42  43
ATOM     43  C   UNL A   1      40.669  27.840  29.050  1.00  0.00     0.031 A 
ATOM     44  C   UNL A   1      42.040  27.893  29.668  1.00  0.00     0.074 A 
ATOM     45  C   UNL A   1      39.855  28.909  29.108  1.00  0.00     0.049 A 
ATOM     46  N   UNL A   1      42.602  28.848  30.359  1.00  0.00    -0.248 NA
ATOM     47  C   UNL A   1      42.888  26.701  29.482  1.00  0.00     0.031 C 
ATOM     48  C   UNL A   1      38.525  28.998  28.508  1.00  0.00     0.029 A 
ATOM     49  N   UNL A   1      40.031  30.127  29.717  1.00  0.00    -0.354 N 
ATOM     50  C   UNL A   1      43.862  28.371  30.702  1.00  0.00     0.074 A 
ATOM     51  C   UNL A   1      43.971  27.031  30.170  1.00  0.00     0.031 C 
ATOM     52  C   UNL A   1      38.002  30.205  28.786  1.00  0.00     0.029 A 
ATOM     53  C   UNL A   1      38.941  30.958  29.617  1.00  0.00     0.049 A 
ATOM     54  H   UNL A   1      40.862  30.381  30.182  1.00  0.00     0.167 HD
ATOM     55  C   UNL A   1      44.844  28.993  31.396  1.00  0.00     0.031 A 
ATOM     56  C   UNL A   1      38.719  32.174  30.155  1.00  0.00     0.031 A 
ATOM     57  C   UNL A   1      44.723  30.319  31.941  1.00  0.00     0.049 A 
ATOM     58  C   UNL A   1      39.795  32.816  30.995  1.00  0.00     0.074 A 
ATOM     59  C   UNL A   1      45.663  31.045  32.649  1.00  0.00     0.029 A 
ATOM     60  N   UNL A   1      43.590  31.114  31.846  1.00  0.00    -0.354 N 
ATOM     61  N   UNL A   1      40.991  32.363  31.292  1.00  0.00    -0.248 NA
ATOM     62  C   UNL A   1      39.494  34.137  31.566  1.00  0.00     0.031 C 
ATOM     63  C   UNL A   1      45.076  32.252  33.042  1.00  0.00     0.029 A 
ATOM     64  C   UNL A   1      43.797  32.311  32.510  1.00  0.00     0.049 A 
ATOM     65  H   UNL A   1      42.761  30.863  31.377  1.00  0.00     0.167 HD
ATOM     66  C   UNL A   1      41.596  33.360  32.054  1.00  0.00     0.074 A 
ATOM     67  C   UNL A   1      40.640  34.442  32.162  1.00  0.00     0.031 C 
ATOM     68  C   UNL A   1      42.836  33.381  32.607  1.00  0.00     0.031 A 
BRANCH  55  69
ATOM     69  C   UNL A   1      46.117  28.227  31.641  1.00  0.00    -0.014 A 
ATOM     70  C   UNL A   1      46.215  27.284  32.681  1.00  0.00     0.010 A 
ATOM     71  C   UNL A   1      47.222  28.432  30.797  1.00  0.00     0.010 A 
ATOM     72  C   UNL A   1      47.408  26.588  32.893  1.00  0.00     0.020 A 
ATOM     73  C   UNL A   1      48.407  27.715  30.986  1.00  0.00     0.020 A 
ATOM     74  C   UNL A   1      48.497  26.809  32.043  1.00  0.00     0.054 A 
BRANCH  74  75
ATOM     75  S   UNL A   1      50.023  25.871  32.326  1.00  0.00     0.124 S 
ATOM     76  O   UNL A   1      49.727  25.186  33.582  1.00  0.00    -0.237 OA
ATOM     77  O   UNL A   1      50.095  25.015  31.146  1.00  0.00    -0.237 OA
ATOM     78  O   UNL A   1      51.055  26.903  32.410  1.00  0.00    -0.744 OA
ENDBRANCH  74  75
ENDBRANCH  55  69
BRANCH  56  79
ATOM     79  C   UNL A   1      37.415  32.860  29.937  1.00  0.00    -0.014 A 
ATOM     80  C   UNL A   1      36.385  32.771  30.889  1.00  0.00     0.010 A 
ATOM     81  C   UNL A   1      37.194  33.605  28.763  1.00  0.00     0.010 A 
ATOM     82  C   UNL A   1      35.156  33.401  30.667  1.00  0.00     0.020 A 
ATOM     83  C   UNL A   1      35.979  34.261  28.550  1.00  0.00     0.020 A 
ATOM     84  C   UNL A   1      34.963  34.146  29.500  1.00  0.00     0.054 A 
BRANCH  84  85
ATOM     85  S   UNL A   1      33.379  34.999  29.259  1.00  0.00     0.124 S 
ATOM     86  O   UNL A   1      32.779  34.908  30.586  1.00  0.00    -0.237 OA
ATOM     87  O   UNL A   1      33.803  36.334  28.845  1.00  0.00    -0.237 OA
ATOM     88  O   UNL A   1      32.722  34.212  28.219  1.00  0.00    -0.744 OA
ENDBRANCH  84  85
ENDBRANCH  56  79
BRANCH  68  89
ATOM     89  C   UNL A   1      43.254  34.629  33.342  1.00  0.00    -0.014 A 
ATOM     90  C   UNL A   1      43.971  35.655  32.705  1.00  0.00     0.010 A 
ATOM     91  C   UNL A   1      42.860  34.801  34.684  1.00  0.00     0.010 A 
ATOM     92  C   UNL A   1      44.314  36.817  33.402  1.00  0.00     0.020 A 
ATOM     93  C   UNL A   1      43.171  35.974  35.374  1.00  0.00     0.020 A 
ATOM     94  C   UNL A   1      43.909  36.970  34.733  1.00  0.00     0.054 A 
BRANCH  94  95
ATOM     95  S   UNL A   1      44.326  38.507  35.601  1.00  0.00     0.124 S 
ATOM     96  O   UNL A   1      43.558  39.498  34.851  1.00  0.00    -0.237 OA
ATOM     97  O   UNL A   1      43.856  38.244  36.959  1.00  0.00    -0.237 OA
ATOM     98  O   UNL A   1      45.776  38.606  35.457  1.00  0.00    -0.744 OA
ENDBRANCH  94  95
ENDBRANCH  68  89
ENDBRANCH  42  43
ENDBRANCH  35  37
ENDBRANCH  34  35
ENDBRANCH  33  34
ENDBRANCH  32  33
ENDBRANCH  31  32
ENDBRANCH  30  31
ENDBRANCH   1  30
TORSDOF 26
ENDMDL
MODEL 2
REMARK VINA RESULT:      -6.7      4.029     10.112
REMARK SMILES CS(=O)(=O)c1ccc(/C=C(/C(=O)OCCOCCOCCOCCOC(=O)c2ccc(-c3c4nc(c(-c5ccc(S(=O)(=O)[O-])cc5)c5ccc([nH]5)c(-c5ccc(S(=O)(=O)[O-])cc5)c5nc(c(-c6ccc(S(=O)(=O)[O-])cc6)c6ccc3[nH]6)C=C5)C=C4)cc2)c2ccc(F)cc2)cc1
REMARK SMILES IDX 20 1 19 2 18 3 17 4 16 5 15 6 14 7 13 8 11 9 12 10 10 11
REMARK SMILES IDX 9 12 8 13 5 14 6 15 96 16 7 17 95 18 2 19 1 20 3 21 4 22
REMARK SMILES IDX 88 23 89 24 94 25 90 26 93 27 91 28 92 29 21 30 22 31 23 32
REMARK SMILES IDX 24 33 25 34 26 35 27 36 28 37 29 38 87 39 30 40 86 41 31 42
REMARK SMILES IDX 32 43 33 44 80 45 34 46 85 47 79 48 81 49 35 50 84 51 78 52
REMARK SMILES IDX 77 53 36 55 66 56 47 57 65 58 48 59 51 60 64 61 82 62 49 63
REMARK SMILES IDX 50 64 63 66 83 67 52 68 37 69 38 70 46 71 39 72 45 73 40 74
REMARK SMILES IDX 41 75 42 76 43 77 44 78 67 79 68 80 76 81 69 82 75 83 70 84
REMARK SMILES IDX 71 85 72 86 73 87 74 88 53 89 54 90 62 91 55 92 61 93 56 94
REMARK SMILES IDX 57 95 58 96 59 97 60 98
REMARK H PARENT 81 54 51 65
REMARK Flexibility Score: inf
ROOT
ATOM      1  C   UNL A   1      46.503  20.109  37.711  1.00  0.00     0.188 C 
ENDROOT
BRANCH   1   2
ATOM      2  O   UNL A   1      45.938  20.800  36.603  1.00  0.00    -0.377 OA
BRANCH   2   3
ATOM      3  C   UNL A   1      46.604  20.769  35.353  1.00  0.00     0.188 C 
BRANCH   3   4
ATOM      4  C   UNL A   1      48.074  20.299  35.289  1.00  0.00     0.188 C 
BRANCH   4   5
ATOM      5  O   UNL A   1      48.852  20.968  34.312  1.00  0.00    -0.376 OA
BRANCH   5   6
ATOM      6  C   UNL A   1      48.794  22.383  34.286  1.00  0.00     0.202 C 
BRANCH   6   7
ATOM      7  C   UNL A   1      50.061  23.151  33.879  1.00  0.00     0.261 C 
BRANCH   7   8
ATOM      8  O   UNL A   1      49.852  24.396  33.194  1.00  0.00    -0.460 OA
BRANCH   8   9
ATOM      9  C   UNL A   1      50.625  24.658  32.114  1.00  0.00     0.338 C 
ATOM     10  O   UNL A   1      51.754  24.227  31.933  1.00  0.00    -0.246 OA
BRANCH   9  11
ATOM     11  C   UNL A   1      49.844  25.425  31.079  1.00  0.00     0.067 C 
ATOM     12  C   UNL A   1      50.110  25.211  29.767  1.00  0.00     0.024 C 
BRANCH  12  13
ATOM     13  C   UNL A   1      49.351  25.666  28.577  1.00  0.00    -0.025 A 
ATOM     14  C   UNL A   1      47.458  26.634  26.753  1.00  0.00     0.067 A 
ATOM     15  C   UNL A   1      48.571  27.410  27.069  1.00  0.00     0.021 A 
ATOM     16  C   UNL A   1      47.347  25.330  27.232  1.00  0.00     0.021 A 
ATOM     17  C   UNL A   1      49.533  26.901  27.943  1.00  0.00     0.009 A 
ATOM     18  C   UNL A   1      48.299  24.847  28.134  1.00  0.00     0.009 A 
BRANCH  14  19
ATOM     19  S   UNL A   1      46.101  27.364  25.871  1.00  0.00     0.175 S 
ATOM     20  C   UNL A   1      46.520  29.079  25.781  1.00  0.00     0.163 C 
ATOM     21  O   UNL A   1      44.916  27.239  26.699  1.00  0.00    -0.224 OA
ATOM     22  O   UNL A   1      46.121  26.818  24.527  1.00  0.00    -0.224 OA
ENDBRANCH  14  19
ENDBRANCH  12  13
BRANCH  11  23
ATOM     23  C   UNL A   1      48.807  26.361  31.564  1.00  0.00    -0.011 A 
ATOM     24  C   UNL A   1      49.114  27.727  31.727  1.00  0.00     0.012 A 
ATOM     25  C   UNL A   1      47.492  25.934  31.778  1.00  0.00     0.012 A 
ATOM     26  C   UNL A   1      48.131  28.646  32.094  1.00  0.00     0.040 A 
ATOM     27  C   UNL A   1      46.505  26.860  32.131  1.00  0.00     0.040 A 
ATOM     28  C   UNL A   1      46.834  28.203  32.288  1.00  0.00     0.123 A 
ATOM     29  F   UNL A   1      45.880  29.087  32.611  1.00  0.00    -0.207 F 
ENDBRANCH  11  23
ENDBRANCH   9  11
ENDBRANCH   8   9
ENDBRANCH   7   8
ENDBRANCH   6   7
ENDBRANCH   5   6
ENDBRANCH   4   5
ENDBRANCH   3   4
ENDBRANCH   2   3
ENDBRANCH   1   2
BRANCH   1  30
ATOM     30  C   UNL A   1      47.235  20.884  38.832  1.00  0.00     0.188 C 
BRANCH  30  31
ATOM     31  O   UNL A   1      47.237  22.297  38.680  1.00  0.00    -0.376 OA
BRANCH  31  32
ATOM     32  C   UNL A   1      46.665  23.069  39.721  1.00  0.00     0.202 C 
BRANCH  32  33
ATOM     33  C   UNL A   1      46.018  24.402  39.318  1.00  0.00     0.261 C 
BRANCH  33  34
ATOM     34  O   UNL A   1      46.137  24.770  37.937  1.00  0.00    -0.460 OA
BRANCH  34  35
ATOM     35  C   UNL A   1      46.760  25.933  37.653  1.00  0.00     0.338 C 
ATOM     36  O   UNL A   1      47.959  26.155  37.693  1.00  0.00    -0.246 OA
BRANCH  35  37
ATOM     37  C   UNL A   1      45.748  26.847  37.086  1.00  0.00     0.060 A 
ATOM     38  C   UNL A   1      44.404  26.703  37.461  1.00  0.00     0.016 A 
ATOM     39  C   UNL A   1      46.137  27.866  36.214  1.00  0.00     0.016 A 
ATOM     40  C   UNL A   1      43.440  27.566  36.938  1.00  0.00     0.010 A 
ATOM     41  C   UNL A   1      45.167  28.710  35.672  1.00  0.00     0.010 A 
ATOM     42  C   UNL A   1      43.811  28.543  36.006  1.00  0.00    -0.014 A 
BRANCH  42  43
ATOM     43  C   UNL A   1      42.771  29.247  35.221  1.00  0.00     0.031 A 
ATOM     44  C   UNL A   1      42.123  30.459  35.836  1.00  0.00     0.074 A 
ATOM     45  C   UNL A   1      42.413  28.833  33.993  1.00  0.00     0.049 A 
ATOM     46  N   UNL A   1      41.154  31.204  35.376  1.00  0.00    -0.248 NA
ATOM     47  C   UNL A   1      42.639  30.881  37.150  1.00  0.00     0.031 C 
ATOM     48  C   UNL A   1      43.000  27.705  33.272  1.00  0.00     0.029 A 
ATOM     49  N   UNL A   1      41.453  29.316  33.139  1.00  0.00    -0.354 N 
ATOM     50  C   UNL A   1      40.934  32.174  36.347  1.00  0.00     0.074 A 
ATOM     51  C   UNL A   1      41.849  31.906  37.433  1.00  0.00     0.031 C 
ATOM     52  C   UNL A   1      42.380  27.577  32.085  1.00  0.00     0.029 A 
ATOM     53  C   UNL A   1      41.328  28.588  31.980  1.00  0.00     0.049 A 
ATOM     54  H   UNL A   1      40.906  30.111  33.338  1.00  0.00     0.167 HD
ATOM     55  C   UNL A   1      40.050  33.200  36.335  1.00  0.00     0.031 A 
ATOM     56  C   UNL A   1      40.448  28.708  30.965  1.00  0.00     0.031 A 
ATOM     57  C   UNL A   1      39.127  33.450  35.260  1.00  0.00     0.049 A 
ATOM     58  C   UNL A   1      39.417  29.808  31.010  1.00  0.00     0.074 A 
ATOM     59  C   UNL A   1      38.200  34.469  35.144  1.00  0.00     0.029 A 
ATOM     60  N   UNL A   1      39.009  32.669  34.120  1.00  0.00    -0.354 N 
ATOM     61  N   UNL A   1      39.235  30.733  31.923  1.00  0.00    -0.248 NA
ATOM     62  C   UNL A   1      38.477  29.885  29.882  1.00  0.00     0.031 C 
ATOM     63  C   UNL A   1      37.474  34.266  33.967  1.00  0.00     0.029 A 
ATOM     64  C   UNL A   1      38.002  33.165  33.310  1.00  0.00     0.049 A 
ATOM     65  H   UNL A   1      39.560  31.877  33.918  1.00  0.00     0.167 HD
ATOM     66  C   UNL A   1      38.185  31.522  31.461  1.00  0.00     0.074 A 
ATOM     67  C   UNL A   1      37.780  30.972  30.184  1.00  0.00     0.031 C 
ATOM     68  C   UNL A   1      37.612  32.609  32.039  1.00  0.00     0.031 A 
BRANCH  55  69
ATOM     69  C   UNL A   1      40.011  34.100  37.541  1.00  0.00    -0.014 A 
ATOM     70  C   UNL A   1      40.559  35.396  37.505  1.00  0.00     0.010 A 
ATOM     71  C   UNL A   1      39.389  33.653  38.720  1.00  0.00     0.010 A 
ATOM     72  C   UNL A   1      40.515  36.213  38.638  1.00  0.00     0.020 A 
ATOM     73  C   UNL A   1      39.316  34.478  39.845  1.00  0.00     0.020 A 
ATOM     74  C   UNL A   1      39.894  35.748  39.801  1.00  0.00     0.054 A 
BRANCH  74  75
ATOM     75  S   UNL A   1      39.829  36.841  41.248  1.00  0.00     0.124 S 
ATOM     76  O   UNL A   1      38.837  37.830  40.834  1.00  0.00    -0.237 OA
ATOM     77  O   UNL A   1      39.407  35.935  42.313  1.00  0.00    -0.237 OA
ATOM     78  O   UNL A   1      41.196  37.343  41.365  1.00  0.00    -0.744 OA
ENDBRANCH  74  75
ENDBRANCH  55  69
BRANCH  56  79
ATOM     79  C   UNL A   1      40.487  27.749  29.826  1.00  0.00    -0.014 A 
ATOM     80  C   UNL A   1      41.538  27.780  28.892  1.00  0.00     0.010 A 
ATOM     81  C   UNL A   1      39.462  26.797  29.666  1.00  0.00     0.010 A 
ATOM     82  C   UNL A   1      41.556  26.889  27.814  1.00  0.00     0.020 A 
ATOM     83  C   UNL A   1      39.492  25.885  28.608  1.00  0.00     0.020 A 
ATOM     84  C   UNL A   1      40.535  25.944  27.682  1.00  0.00     0.054 A 
BRANCH  84  85
ATOM     85  S   UNL A   1      40.609  24.763  26.306  1.00  0.00     0.124 S 
ATOM     86  O   UNL A   1      39.225  24.312  26.215  1.00  0.00    -0.237 OA
ATOM     87  O   UNL A   1      41.078  25.597  25.203  1.00  0.00    -0.237 OA
ATOM     88  O   UNL A   1      41.566  23.760  26.768  1.00  0.00    -0.744 OA
ENDBRANCH  84  85
ENDBRANCH  56  79
BRANCH  68  89
ATOM     89  C   UNL A   1      36.515  33.310  31.279  1.00  0.00    -0.014 A 
ATOM     90  C   UNL A   1      35.210  33.411  31.792  1.00  0.00     0.010 A 
ATOM     91  C   UNL A   1      36.819  33.939  30.056  1.00  0.00     0.010 A 
ATOM     92  C   UNL A   1      34.222  34.099  31.081  1.00  0.00     0.020 A 
ATOM     93  C   UNL A   1      35.845  34.656  29.359  1.00  0.00     0.020 A 
ATOM     94  C   UNL A   1      34.547  34.720  29.870  1.00  0.00     0.054 A 
BRANCH  94  95
ATOM     95  S   UNL A   1      33.259  35.647  28.991  1.00  0.00     0.124 S 
ATOM     96  O   UNL A   1      34.049  36.523  28.130  1.00  0.00    -0.237 OA
ATOM     97  O   UNL A   1      32.519  34.591  28.304  1.00  0.00    -0.237 OA
ATOM     98  O   UNL A   1      32.525  36.320  30.060  1.00  0.00    -0.744 OA
ENDBRANCH  94  95
ENDBRANCH  68  89
ENDBRANCH  42  43
ENDBRANCH  35  37
ENDBRANCH  34  35
ENDBRANCH  33  34
ENDBRANCH  32  33
ENDBRANCH  31  32
ENDBRANCH  30  31
ENDBRANCH   1  30
TORSDOF 26
ENDMDL
MODEL 3
REMARK VINA RESULT:      -6.6      5.306     11.849
REMARK SMILES CS(=O)(=O)c1ccc(/C=C(/C(=O)OCCOCCOCCOCCOC(=O)c2ccc(-c3c4nc(c(-c5ccc(S(=O)(=O)[O-])cc5)c5ccc([nH]5)c(-c5ccc(S(=O)(=O)[O-])cc5)c5nc(c(-c6ccc(S(=O)(=O)[O-])cc6)c6ccc3[nH]6)C=C5)C=C4)cc2)c2ccc(F)cc2)cc1
REMARK SMILES IDX 20 1 19 2 18 3 17 4 16 5 15 6 14 7 13 8 11 9 12 10 10 11
REMARK SMILES IDX 9 12 8 13 5 14 6 15 96 16 7 17 95 18 2 19 1 20 3 21 4 22
REMARK SMILES IDX 88 23 89 24 94 25 90 26 93 27 91 28 92 29 21 30 22 31 23 32
REMARK SMILES IDX 24 33 25 34 26 35 27 36 28 37 29 38 87 39 30 40 86 41 31 42
REMARK SMILES IDX 32 43 33 44 80 45 34 46 85 47 79 48 81 49 35 50 84 51 78 52
REMARK SMILES IDX 77 53 36 55 66 56 47 57 65 58 48 59 51 60 64 61 82 62 49 63
REMARK SMILES IDX 50 64 63 66 83 67 52 68 37 69 38 70 46 71 39 72 45 73 40 74
REMARK SMILES IDX 41 75 42 76 43 77 44 78 67 79 68 80 76 81 69 82 75 83 70 84
REMARK SMILES IDX 71 85 72 86 73 87 74 88 53 89 54 90 62 91 55 92 61 93 56 94
REMARK SMILES IDX 57 95 58 96 59 97 60 98
REMARK H PARENT 81 54 51 65
REMARK Flexibility Score: inf
ROOT
ATOM      1  C   UNL A   1      52.495  22.372  36.104  1.00  0.00     0.188 C 
ENDROOT
BRANCH   1   2
ATOM      2  O   UNL A   1      51.986  21.123  35.651  1.00  0.00    -0.377 OA
BRANCH   2   3
ATOM      3  C   UNL A   1      50.657  20.755  35.980  1.00  0.00     0.188 C 
BRANCH   3   4
ATOM      4  C   UNL A   1      50.414  19.513  36.867  1.00  0.00     0.188 C 
BRANCH   4   5
ATOM      5  O   UNL A   1      49.235  19.584  37.649  1.00  0.00    -0.376 OA
BRANCH   5   6
ATOM      6  C   UNL A   1      49.368  19.419  39.049  1.00  0.00     0.202 C 
BRANCH   6   7
ATOM      7  C   UNL A   1      48.410  20.200  39.963  1.00  0.00     0.261 C 
BRANCH   7   8
ATOM      8  O   UNL A   1      47.014  19.894  39.820  1.00  0.00    -0.460 OA
BRANCH   8   9
ATOM      9  C   UNL A   1      46.133  20.918  39.919  1.00  0.00     0.338 C 
ATOM     10  O   UNL A   1      45.415  21.142  40.882  1.00  0.00    -0.246 OA
BRANCH   9  11
ATOM     11  C   UNL A   1      46.270  21.848  38.741  1.00  0.00     0.067 C 
ATOM     12  C   UNL A   1      46.286  21.322  37.492  1.00  0.00     0.024 C 
BRANCH  12  13
ATOM     13  C   UNL A   1      46.194  22.022  36.186  1.00  0.00    -0.025 A 
ATOM     14  C   UNL A   1      45.611  23.715  34.032  1.00  0.00     0.067 A 
ATOM     15  C   UNL A   1      46.858  23.787  34.648  1.00  0.00     0.021 A 
ATOM     16  C   UNL A   1      44.703  22.720  34.391  1.00  0.00     0.021 A 
ATOM     17  C   UNL A   1      47.158  22.908  35.690  1.00  0.00     0.009 A 
ATOM     18  C   UNL A   1      45.002  21.871  35.460  1.00  0.00     0.009 A 
BRANCH  14  19
ATOM     19  S   UNL A   1      45.115  24.991  32.903  1.00  0.00     0.175 S 
ATOM     20  C   UNL A   1      44.360  24.113  31.568  1.00  0.00     0.163 C 
ATOM     21  O   UNL A   1      46.317  25.625  32.394  1.00  0.00    -0.224 OA
ATOM     22  O   UNL A   1      44.092  25.778  33.569  1.00  0.00    -0.224 OA
ENDBRANCH  14  19
ENDBRANCH  12  13
BRANCH  11  23
ATOM     23  C   UNL A   1      46.359  23.297  39.024  1.00  0.00    -0.011 A 
ATOM     24  C   UNL A   1      45.213  24.108  38.905  1.00  0.00     0.012 A 
ATOM     25  C   UNL A   1      47.543  23.867  39.503  1.00  0.00     0.012 A 
ATOM     26  C   UNL A   1      45.247  25.458  39.254  1.00  0.00     0.040 A 
ATOM     27  C   UNL A   1      47.572  25.217  39.867  1.00  0.00     0.040 A 
ATOM     28  C   UNL A   1      46.427  25.998  39.737  1.00  0.00     0.123 A 
ATOM     29  F   UNL A   1      46.457  27.287  40.103  1.00  0.00    -0.207 F 
ENDBRANCH  11  23
ENDBRANCH   9  11
ENDBRANCH   8   9
ENDBRANCH   7   8
ENDBRANCH   6   7
ENDBRANCH   5   6
ENDBRANCH   4   5
ENDBRANCH   3   4
ENDBRANCH   2   3
ENDBRANCH   1   2
BRANCH   1  30
ATOM     30  C   UNL A   1      51.875  23.075  37.335  1.00  0.00     0.188 C 
BRANCH  30  31
ATOM     31  O   UNL A   1      52.576  24.226  37.784  1.00  0.00    -0.376 OA
BRANCH  31  32
ATOM     32  C   UNL A   1      51.809  25.348  38.184  1.00  0.00     0.202 C 
BRANCH  32  33
ATOM     33  C   UNL A   1      50.718  25.822  37.214  1.00  0.00     0.261 C 
BRANCH  33  34
ATOM     34  O   UNL A   1      49.742  26.725  37.753  1.00  0.00    -0.460 OA
BRANCH  34  35
ATOM     35  C   UNL A   1      49.878  28.037  37.462  1.00  0.00     0.338 C 
ATOM     36  O   UNL A   1      50.882  28.718  37.590  1.00  0.00    -0.246 OA
BRANCH  35  37
ATOM     37  C   UNL A   1      48.647  28.463  36.767  1.00  0.00     0.060 A 
ATOM     38  C   UNL A   1      48.679  29.598  35.943  1.00  0.00     0.016 A 
ATOM     39  C   UNL A   1      47.475  27.717  36.903  1.00  0.00     0.016 A 
ATOM     40  C   UNL A   1      47.525  30.005  35.275  1.00  0.00     0.010 A 
ATOM     41  C   UNL A   1      46.315  28.141  36.254  1.00  0.00     0.010 A 
ATOM     42  C   UNL A   1      46.326  29.305  35.464  1.00  0.00    -0.014 A 
BRANCH  42  43
ATOM     43  C   UNL A   1      45.045  29.899  35.017  1.00  0.00     0.031 A 
ATOM     44  C   UNL A   1      44.282  30.750  35.996  1.00  0.00     0.074 A 
ATOM     45  C   UNL A   1      44.571  29.700  33.775  1.00  0.00     0.049 A 
ATOM     46  N   UNL A   1      43.117  31.325  35.864  1.00  0.00    -0.248 NA
ATOM     47  C   UNL A   1      44.921  30.975  37.305  1.00  0.00     0.031 C 
ATOM     48  C   UNL A   1      45.239  28.938  32.722  1.00  0.00     0.029 A 
ATOM     49  N   UNL A   1      43.400  30.120  33.194  1.00  0.00    -0.354 N 
ATOM     50  C   UNL A   1      42.877  31.970  37.072  1.00  0.00     0.074 A 
ATOM     51  C   UNL A   1      44.002  31.690  37.936  1.00  0.00     0.031 C 
ATOM     52  C   UNL A   1      44.462  28.938  31.624  1.00  0.00     0.029 A 
ATOM     53  C   UNL A   1      43.226  29.664  31.909  1.00  0.00     0.049 A 
ATOM     54  H   UNL A   1      42.746  30.695  33.655  1.00  0.00     0.167 HD
ATOM     55  C   UNL A   1      41.816  32.730  37.430  1.00  0.00     0.031 A 
ATOM     56  C   UNL A   1      42.177  29.798  31.071  1.00  0.00     0.031 A 
ATOM     57  C   UNL A   1      40.690  32.989  36.573  1.00  0.00     0.049 A 
ATOM     58  C   UNL A   1      40.969  30.580  31.521  1.00  0.00     0.074 A 
ATOM     59  C   UNL A   1      39.570  33.757  36.836  1.00  0.00     0.029 A 
ATOM     60  N   UNL A   1      40.536  32.481  35.292  1.00  0.00    -0.354 N 
ATOM     61  N   UNL A   1      40.765  31.204  32.658  1.00  0.00    -0.248 NA
ATOM     62  C   UNL A   1      39.852  30.683  30.570  1.00  0.00     0.031 C 
ATOM     63  C   UNL A   1      38.707  33.657  35.740  1.00  0.00     0.029 A 
ATOM     64  C   UNL A   1      39.325  32.893  34.763  1.00  0.00     0.049 A 
ATOM     65  H   UNL A   1      41.192  31.911  34.828  1.00  0.00     0.167 HD
ATOM     66  C   UNL A   1      39.513  31.803  32.543  1.00  0.00     0.074 A 
ATOM     67  C   UNL A   1      39.012  31.475  31.225  1.00  0.00     0.031 C 
ATOM     68  C   UNL A   1      38.841  32.561  33.447  1.00  0.00     0.031 A 
BRANCH  55  69
ATOM     69  C   UNL A   1      41.806  33.299  38.824  1.00  0.00    -0.014 A 
ATOM     70  C   UNL A   1      41.244  32.587  39.901  1.00  0.00     0.010 A 
ATOM     71  C   UNL A   1      42.397  34.552  39.066  1.00  0.00     0.010 A 
ATOM     72  C   UNL A   1      41.242  33.137  41.186  1.00  0.00     0.020 A 
ATOM     73  C   UNL A   1      42.425  35.091  40.355  1.00  0.00     0.020 A 
ATOM     74  C   UNL A   1      41.833  34.386  41.404  1.00  0.00     0.054 A 
BRANCH  74  75
ATOM     75  S   UNL A   1      41.838  35.062  43.088  1.00  0.00     0.124 S 
ATOM     76  O   UNL A   1      43.247  35.402  43.270  1.00  0.00    -0.237 OA
ATOM     77  O   UNL A   1      40.927  36.197  42.978  1.00  0.00    -0.237 OA
ATOM     78  O   UNL A   1      41.355  33.954  43.908  1.00  0.00    -0.744 OA
ENDBRANCH  74  75
ENDBRANCH  55  69
BRANCH  56  79
ATOM     79  C   UNL A   1      42.212  29.158  29.726  1.00  0.00    -0.014 A 
ATOM     80  C   UNL A   1      41.823  27.818  29.555  1.00  0.00     0.010 A 
ATOM     81  C   UNL A   1      42.644  29.890  28.604  1.00  0.00     0.010 A 
ATOM     82  C   UNL A   1      41.878  27.218  28.293  1.00  0.00     0.020 A 
ATOM     83  C   UNL A   1      42.671  29.304  27.336  1.00  0.00     0.020 A 
ATOM     84  C   UNL A   1      42.297  27.967  27.190  1.00  0.00     0.054 A 
BRANCH  84  85
ATOM     85  S   UNL A   1      42.308  27.184  25.553  1.00  0.00     0.124 S 
ATOM     86  O   UNL A   1      42.356  28.338  24.662  1.00  0.00    -0.237 OA
ATOM     87  O   UNL A   1      43.520  26.370  25.604  1.00  0.00    -0.237 OA
ATOM     88  O   UNL A   1      41.059  26.426  25.530  1.00  0.00    -0.744 OA
ENDBRANCH  84  85
ENDBRANCH  56  79
BRANCH  68  89
ATOM     89  C   UNL A   1      37.510  33.134  33.029  1.00  0.00    -0.014 A 
ATOM     90  C   UNL A   1      36.312  32.421  33.207  1.00  0.00     0.010 A 
ATOM     91  C   UNL A   1      37.457  34.442  32.510  1.00  0.00     0.010 A 
ATOM     92  C   UNL A   1      35.089  32.992  32.844  1.00  0.00     0.020 A 
ATOM     93  C   UNL A   1      36.234  35.029  32.178  1.00  0.00     0.020 A 
ATOM     94  C   UNL A   1      35.058  34.294  32.334  1.00  0.00     0.054 A 
BRANCH  94  95
ATOM     95  S   UNL A   1      33.454  35.030  31.915  1.00  0.00     0.124 S 
ATOM     96  O   UNL A   1      32.571  34.418  32.904  1.00  0.00    -0.237 OA
ATOM     97  O   UNL A   1      33.701  36.459  32.092  1.00  0.00    -0.237 OA
ATOM     98  O   UNL A   1      33.228  34.609  30.535  1.00  0.00    -0.744 OA
ENDBRANCH  94  95
ENDBRANCH  68  89
ENDBRANCH  42  43
ENDBRANCH  35  37
ENDBRANCH  34  35
ENDBRANCH  33  34
ENDBRANCH  32  33
ENDBRANCH  31  32
ENDBRANCH  30  31
ENDBRANCH   1  30
TORSDOF 26
ENDMDL
