MODEL 1
REMARK VINA RESULT:      -9.7      0.000      0.000
REMARK SMILES O=C(OCCOCCOCCOCCOC(=O)[C@@]1([C@@H]2CCO[C@@]3(CCOC3)C2)CCOC1)c1ccc(-c2c3nc(c(-c4ccc(S(=O)(=O)[O-])cc4)c4ccc([nH]4)c(-c4ccc(S(=O)(=O)[O-])cc4)c4nc(c(-c5ccc(S(=O)(=O)[O-])cc5)c5ccc2[nH]5)C=C4)C=C3)cc1
REMARK SMILES IDX 8 1 7 2 6 3 5 4 4 5 3 6 2 7 1 8 33 9 34 10 92 11 35 12 91 13
REMARK SMILES IDX 36 14 37 15 38 16 85 17 39 18 90 19 84 20 86 21 40 22 89 23
REMARK SMILES IDX 83 24 82 25 41 27 71 28 52 29 70 30 53 31 56 32 69 33 87 34
REMARK SMILES IDX 54 35 55 36 68 38 88 39 57 40 42 41 43 42 51 43 44 44 50 45
REMARK SMILES IDX 45 46 46 47 47 48 48 49 49 50 72 51 73 52 81 53 74 54 80 55
REMARK SMILES IDX 75 56 76 57 77 58 78 59 79 60 58 61 59 62 67 63 60 64 66 65
REMARK SMILES IDX 61 66 62 67 63 68 64 69 65 70 9 71 10 72 11 73 12 74 13 75
REMARK SMILES IDX 14 76 15 77 16 78 17 79 18 80 29 81 32 82 30 83 31 84 19 85
REMARK SMILES IDX 20 86 28 87 21 88 23 89 22 90 24 91 27 92 25 93 26 94
REMARK H PARENT 86 26 56 37
REMARK Flexibility Score: inf
ROOT
ATOM      1  C   UNL A   1      40.190  21.897  26.130  1.00  0.00     0.188 C 
ENDROOT
BRANCH   1   2
ATOM      2  C   UNL A   1      40.451  20.397  26.185  1.00  0.00     0.188 C 
BRANCH   2   3
ATOM      3  O   UNL A   1      41.835  20.107  25.981  1.00  0.00    -0.376 OA
BRANCH   3   4
ATOM      4  C   UNL A   1      42.214  18.731  25.996  1.00  0.00     0.202 C 
BRANCH   4   5
ATOM      5  C   UNL A   1      43.712  18.470  25.843  1.00  0.00     0.261 C 
BRANCH   5   6
ATOM      6  O   UNL A   1      44.241  18.957  24.605  1.00  0.00    -0.460 OA
BRANCH   6   7
ATOM      7  C   UNL A   1      45.173  19.925  24.418  1.00  0.00     0.338 C 
ATOM      8  O   UNL A   1      46.232  19.598  23.882  1.00  0.00    -0.246 OA
BRANCH   7   9
ATOM      9  C   UNL A   1      45.027  21.355  24.853  1.00  0.00     0.060 A 
ATOM     10  C   UNL A   1      44.578  22.417  24.064  1.00  0.00     0.016 A 
ATOM     11  C   UNL A   1      45.311  21.625  26.203  1.00  0.00     0.016 A 
ATOM     12  C   UNL A   1      44.444  23.702  24.563  1.00  0.00     0.010 A 
ATOM     13  C   UNL A   1      45.201  22.920  26.717  1.00  0.00     0.010 A 
ATOM     14  C   UNL A   1      44.796  23.963  25.878  1.00  0.00    -0.014 A 
BRANCH  14  15
ATOM     15  C   UNL A   1      44.989  25.370  26.250  1.00  0.00     0.031 A 
ATOM     16  C   UNL A   1      46.360  25.937  26.049  1.00  0.00     0.074 A 
ATOM     17  C   UNL A   1      43.941  26.129  26.604  1.00  0.00     0.049 A 
ATOM     18  N   UNL A   1      46.831  27.104  26.384  1.00  0.00    -0.248 NA
ATOM     19  C   UNL A   1      47.334  25.066  25.362  1.00  0.00     0.031 C 
ATOM     20  C   UNL A   1      42.548  25.679  26.644  1.00  0.00     0.029 A 
ATOM     21  N   UNL A   1      43.884  27.441  26.981  1.00  0.00    -0.354 N 
ATOM     22  C   UNL A   1      48.167  27.086  26.000  1.00  0.00     0.074 A 
ATOM     23  C   UNL A   1      48.430  25.803  25.395  1.00  0.00     0.031 C 
ATOM     24  C   UNL A   1      41.772  26.701  27.042  1.00  0.00     0.029 A 
ATOM     25  C   UNL A   1      42.625  27.843  27.354  1.00  0.00     0.049 A 
ATOM     26  H   UNL A   1      44.666  28.039  26.984  1.00  0.00     0.167 HD
ATOM     27  C   UNL A   1      49.091  28.058  26.171  1.00  0.00     0.031 A 
ATOM     28  C   UNL A   1      42.231  28.987  27.944  1.00  0.00     0.031 A 
ATOM     29  C   UNL A   1      48.778  29.308  26.803  1.00  0.00     0.049 A 
ATOM     30  C   UNL A   1      43.290  30.019  28.228  1.00  0.00     0.074 A 
ATOM     31  C   UNL A   1      49.616  30.359  27.111  1.00  0.00     0.029 A 
ATOM     32  N   UNL A   1      47.501  29.664  27.229  1.00  0.00    -0.354 N 
ATOM     33  N   UNL A   1      44.573  29.975  27.944  1.00  0.00    -0.248 NA
ATOM     34  C   UNL A   1      42.864  31.240  28.918  1.00  0.00     0.031 C 
ATOM     35  C   UNL A   1      48.856  31.327  27.778  1.00  0.00     0.029 A 
ATOM     36  C   UNL A   1      47.531  30.909  27.822  1.00  0.00     0.049 A 
ATOM     37  H   UNL A   1      46.696  29.109  27.123  1.00  0.00     0.167 HD
ATOM     38  C   UNL A   1      45.110  31.168  28.407  1.00  0.00     0.074 A 
ATOM     39  C   UNL A   1      44.006  31.918  28.979  1.00  0.00     0.031 C 
ATOM     40  C   UNL A   1      46.392  31.609  28.370  1.00  0.00     0.031 A 
BRANCH  27  41
ATOM     41  C   UNL A   1      50.507  27.725  25.785  1.00  0.00    -0.014 A 
ATOM     42  C   UNL A   1      50.952  27.786  24.452  1.00  0.00     0.010 A 
ATOM     43  C   UNL A   1      51.388  27.256  26.777  1.00  0.00     0.010 A 
ATOM     44  C   UNL A   1      52.226  27.320  24.109  1.00  0.00     0.020 A 
ATOM     45  C   UNL A   1      52.672  26.817  26.443  1.00  0.00     0.020 A 
ATOM     46  C   UNL A   1      53.073  26.826  25.106  1.00  0.00     0.054 A 
BRANCH  46  47
ATOM     47  S   UNL A   1      54.704  26.186  24.631  1.00  0.00     0.124 S 
ATOM     48  O   UNL A   1      55.579  26.863  25.584  1.00  0.00    -0.237 OA
ATOM     49  O   UNL A   1      54.553  24.748  24.831  1.00  0.00    -0.237 OA
ATOM     50  O   UNL A   1      54.851  26.608  23.241  1.00  0.00    -0.744 OA
ENDBRANCH  46  47
ENDBRANCH  27  41
BRANCH  28  51
ATOM     51  C   UNL A   1      40.814  29.148  28.373  1.00  0.00    -0.014 A 
ATOM     52  C   UNL A   1      40.453  29.148  29.730  1.00  0.00     0.010 A 
ATOM     53  C   UNL A   1      39.812  29.366  27.405  1.00  0.00     0.010 A 
ATOM     54  C   UNL A   1      39.123  29.370  30.110  1.00  0.00     0.020 A 
ATOM     55  C   UNL A   1      38.490  29.616  27.780  1.00  0.00     0.020 A 
ATOM     56  C   UNL A   1      38.151  29.611  29.133  1.00  0.00     0.054 A 
BRANCH  56  57
ATOM     57  S   UNL A   1      36.449  29.969  29.653  1.00  0.00     0.124 S 
ATOM     58  O   UNL A   1      35.670  29.417  28.561  1.00  0.00    -0.237 OA
ATOM     59  O   UNL A   1      36.355  29.258  30.930  1.00  0.00    -0.237 OA
ATOM     60  O   UNL A   1      36.428  31.431  29.769  1.00  0.00    -0.744 OA
ENDBRANCH  56  57
ENDBRANCH  28  51
BRANCH  40  61
ATOM     61  C   UNL A   1      46.661  32.977  28.927  1.00  0.00    -0.014 A 
ATOM     62  C   UNL A   1      47.081  33.149  30.256  1.00  0.00     0.010 A 
ATOM     63  C   UNL A   1      46.603  34.087  28.064  1.00  0.00     0.010 A 
ATOM     64  C   UNL A   1      47.437  34.417  30.716  1.00  0.00     0.020 A 
ATOM     65  C   UNL A   1      46.984  35.350  28.513  1.00  0.00     0.020 A 
ATOM     66  C   UNL A   1      47.394  35.507  29.839  1.00  0.00     0.054 A 
BRANCH  66  67
ATOM     67  S   UNL A   1      47.951  37.125  30.436  1.00  0.00     0.124 S 
ATOM     68  O   UNL A   1      46.916  38.013  29.915  1.00  0.00    -0.237 OA
ATOM     69  O   UNL A   1      47.958  36.946  31.886  1.00  0.00    -0.237 OA
ATOM     70  O   UNL A   1      49.271  37.283  29.828  1.00  0.00    -0.744 OA
ENDBRANCH  66  67
ENDBRANCH  40  61
ENDBRANCH  14  15
ENDBRANCH   7   9
ENDBRANCH   6   7
ENDBRANCH   5   6
ENDBRANCH   4   5
ENDBRANCH   3   4
ENDBRANCH   2   3
ENDBRANCH   1   2
BRANCH   1  71
ATOM     71  O   UNL A   1      38.857  22.263  26.458  1.00  0.00    -0.377 OA
BRANCH  71  72
ATOM     72  C   UNL A   1      37.853  21.832  25.551  1.00  0.00     0.188 C 
BRANCH  72  73
ATOM     73  C   UNL A   1      36.361  22.022  25.922  1.00  0.00     0.188 C 
BRANCH  73  74
ATOM     74  O   UNL A   1      35.504  21.058  25.344  1.00  0.00    -0.376 OA
BRANCH  74  75
ATOM     75  C   UNL A   1      34.257  21.543  24.858  1.00  0.00     0.202 C 
BRANCH  75  76
ATOM     76  C   UNL A   1      33.083  21.601  25.851  1.00  0.00     0.261 C 
BRANCH  76  77
ATOM     77  O   UNL A   1      32.039  22.560  25.559  1.00  0.00    -0.463 OA
BRANCH  77  78
ATOM     78  C   UNL A   1      31.937  23.677  26.311  1.00  0.00     0.314 C 
ATOM     79  O   UNL A   1      31.448  23.665  27.444  1.00  0.00    -0.252 OA
BRANCH  78  80
ATOM     80  C   UNL A   1      32.461  24.955  25.580  1.00  0.00     0.096 C 
ATOM     81  C   UNL A   1      31.911  26.144  26.380  1.00  0.00     0.050 C 
ATOM     82  C   UNL A   1      33.955  25.262  25.750  1.00  0.00     0.179 C 
ATOM     83  C   UNL A   1      32.917  27.263  26.267  1.00  0.00     0.161 C 
ATOM     84  O   UNL A   1      34.119  26.687  25.764  1.00  0.00    -0.380 OA
BRANCH  80  85
ATOM     85  C   UNL A   1      32.106  24.839  24.043  1.00  0.00     0.014 C 
ATOM     86  C   UNL A   1      33.245  24.874  23.006  1.00  0.00     0.033 C 
ATOM     87  C   UNL A   1      30.969  25.778  23.643  1.00  0.00     0.043 C 
ATOM     88  C   UNL A   1      32.764  25.222  21.588  1.00  0.00     0.161 C 
ATOM     89  C   UNL A   1      31.405  26.889  22.685  1.00  0.00     0.094 C 
ATOM     90  O   UNL A   1      31.823  26.296  21.461  1.00  0.00    -0.372 OA
ATOM     91  C   UNL A   1      30.232  27.844  22.501  1.00  0.00     0.066 C 
ATOM     92  C   UNL A   1      32.437  27.901  23.181  1.00  0.00     0.195 C 
ATOM     93  C   UNL A   1      30.350  28.721  23.740  1.00  0.00     0.163 C 
ATOM     94  O   UNL A   1      31.752  28.840  24.018  1.00  0.00    -0.378 OA
ENDBRANCH  80  85
ENDBRANCH  78  80
ENDBRANCH  77  78
ENDBRANCH  76  77
ENDBRANCH  75  76
ENDBRANCH  74  75
ENDBRANCH  73  74
ENDBRANCH  72  73
ENDBRANCH  71  72
ENDBRANCH   1  71
TORSDOF 24
ENDMDL
MODEL 2
REMARK VINA RESULT:      -9.5      6.547     11.534
REMARK SMILES O=C(OCCOCCOCCOCCOC(=O)[C@@]1([C@@H]2CCO[C@@]3(CCOC3)C2)CCOC1)c1ccc(-c2c3nc(c(-c4ccc(S(=O)(=O)[O-])cc4)c4ccc([nH]4)c(-c4ccc(S(=O)(=O)[O-])cc4)c4nc(c(-c5ccc(S(=O)(=O)[O-])cc5)c5ccc2[nH]5)C=C4)C=C3)cc1
REMARK SMILES IDX 8 1 7 2 6 3 5 4 4 5 3 6 2 7 1 8 33 9 34 10 92 11 35 12 91 13
REMARK SMILES IDX 36 14 37 15 38 16 85 17 39 18 90 19 84 20 86 21 40 22 89 23
REMARK SMILES IDX 83 24 82 25 41 27 71 28 52 29 70 30 53 31 56 32 69 33 87 34
REMARK SMILES IDX 54 35 55 36 68 38 88 39 57 40 42 41 43 42 51 43 44 44 50 45
REMARK SMILES IDX 45 46 46 47 47 48 48 49 49 50 72 51 73 52 81 53 74 54 80 55
REMARK SMILES IDX 75 56 76 57 77 58 78 59 79 60 58 61 59 62 67 63 60 64 66 65
REMARK SMILES IDX 61 66 62 67 63 68 64 69 65 70 9 71 10 72 11 73 12 74 13 75
REMARK SMILES IDX 14 76 15 77 16 78 17 79 18 80 29 81 32 82 30 83 31 84 19 85
REMARK SMILES IDX 20 86 28 87 21 88 23 89 22 90 24 91 27 92 25 93 26 94
REMARK H PARENT 86 26 56 37
REMARK Flexibility Score: inf
ROOT
ATOM      1  C   UNL A   1      34.659  31.574  28.418  1.00  0.00     0.188 C 
ENDROOT
BRANCH   1   2
ATOM      2  C   UNL A   1      35.476  32.853  28.282  1.00  0.00     0.188 C 
BRANCH   2   3
ATOM      3  O   UNL A   1      34.705  33.895  27.681  1.00  0.00    -0.376 OA
BRANCH   3   4
ATOM      4  C   UNL A   1      33.385  34.094  28.187  1.00  0.00     0.202 C 
BRANCH   4   5
ATOM      5  C   UNL A   1      33.154  35.433  28.885  1.00  0.00     0.261 C 
BRANCH   5   6
ATOM      6  O   UNL A   1      32.491  35.300  30.147  1.00  0.00    -0.460 OA
BRANCH   6   7
ATOM      7  C   UNL A   1      33.050  35.191  31.378  1.00  0.00     0.338 C 
ATOM      8  O   UNL A   1      32.513  35.804  32.301  1.00  0.00    -0.246 OA
BRANCH   7   9
ATOM      9  C   UNL A   1      34.296  34.415  31.691  1.00  0.00     0.060 A 
ATOM     10  C   UNL A   1      34.354  33.119  32.212  1.00  0.00     0.016 A 
ATOM     11  C   UNL A   1      35.514  35.036  31.364  1.00  0.00     0.016 A 
ATOM     12  C   UNL A   1      35.555  32.468  32.438  1.00  0.00     0.010 A 
ATOM     13  C   UNL A   1      36.734  34.402  31.606  1.00  0.00     0.010 A 
ATOM     14  C   UNL A   1      36.748  33.125  32.175  1.00  0.00    -0.014 A 
BRANCH  14  15
ATOM     15  C   UNL A   1      37.966  32.555  32.764  1.00  0.00     0.031 A 
ATOM     16  C   UNL A   1      38.664  31.496  31.970  1.00  0.00     0.074 A 
ATOM     17  C   UNL A   1      38.489  33.080  33.883  1.00  0.00     0.049 A 
ATOM     18  N   UNL A   1      39.689  30.759  32.293  1.00  0.00    -0.248 NA
ATOM     19  C   UNL A   1      38.139  31.241  30.615  1.00  0.00     0.031 C 
ATOM     20  C   UNL A   1      37.952  34.234  34.606  1.00  0.00     0.029 A 
ATOM     21  N   UNL A   1      39.598  32.720  34.595  1.00  0.00    -0.354 N 
ATOM     22  C   UNL A   1      39.894  29.916  31.207  1.00  0.00     0.074 A 
ATOM     23  C   UNL A   1      38.902  30.240  30.210  1.00  0.00     0.031 C 
ATOM     24  C   UNL A   1      38.728  34.479  35.674  1.00  0.00     0.029 A 
ATOM     25  C   UNL A   1      39.763  33.453  35.746  1.00  0.00     0.049 A 
ATOM     26  H   UNL A   1      40.216  32.008  34.314  1.00  0.00     0.167 HD
ATOM     27  C   UNL A   1      40.819  28.940  31.079  1.00  0.00     0.031 A 
ATOM     28  C   UNL A   1      40.620  33.262  36.766  1.00  0.00     0.031 A 
ATOM     29  C   UNL A   1      41.768  28.646  32.114  1.00  0.00     0.049 A 
ATOM     30  C   UNL A   1      41.576  32.103  36.660  1.00  0.00     0.074 A 
ATOM     31  C   UNL A   1      42.718  27.647  32.164  1.00  0.00     0.029 A 
ATOM     32  N   UNL A   1      41.873  29.368  33.300  1.00  0.00    -0.354 N 
ATOM     33  N   UNL A   1      41.720  31.249  35.670  1.00  0.00    -0.248 NA
ATOM     34  C   UNL A   1      42.470  31.869  37.797  1.00  0.00     0.031 C 
ATOM     35  C   UNL A   1      43.357  27.729  33.406  1.00  0.00     0.029 A 
ATOM     36  C   UNL A   1      42.854  28.822  34.102  1.00  0.00     0.049 A 
ATOM     37  H   UNL A   1      41.325  30.152  33.533  1.00  0.00     0.167 HD
ATOM     38  C   UNL A   1      42.731  30.381  36.058  1.00  0.00     0.074 A 
ATOM     39  C   UNL A   1      43.171  30.825  37.369  1.00  0.00     0.031 C 
ATOM     40  C   UNL A   1      43.251  29.315  35.400  1.00  0.00     0.031 A 
BRANCH  27  41
ATOM     41  C   UNL A   1      40.735  28.080  29.847  1.00  0.00    -0.014 A 
ATOM     42  C   UNL A   1      39.821  27.015  29.741  1.00  0.00     0.010 A 
ATOM     43  C   UNL A   1      41.656  28.294  28.805  1.00  0.00     0.010 A 
ATOM     44  C   UNL A   1      39.877  26.141  28.650  1.00  0.00     0.020 A 
ATOM     45  C   UNL A   1      41.695  27.440  27.699  1.00  0.00     0.020 A 
ATOM     46  C   UNL A   1      40.823  26.352  27.643  1.00  0.00     0.054 A 
BRANCH  46  47
ATOM     47  S   UNL A   1      40.907  25.180  26.259  1.00  0.00     0.124 S 
ATOM     48  O   UNL A   1      41.303  26.049  25.154  1.00  0.00    -0.237 OA
ATOM     49  O   UNL A   1      41.922  24.231  26.705  1.00  0.00    -0.237 OA
ATOM     50  O   UNL A   1      39.551  24.645  26.176  1.00  0.00    -0.744 OA
ENDBRANCH  46  47
ENDBRANCH  27  41
BRANCH  28  51
ATOM     51  C   UNL A   1      40.529  34.122  37.978  1.00  0.00    -0.014 A 
ATOM     52  C   UNL A   1      39.716  33.772  39.068  1.00  0.00     0.010 A 
ATOM     53  C   UNL A   1      41.319  35.287  38.068  1.00  0.00     0.010 A 
ATOM     54  C   UNL A   1      39.700  34.563  40.225  1.00  0.00     0.020 A 
ATOM     55  C   UNL A   1      41.329  36.063  39.230  1.00  0.00     0.020 A 
ATOM     56  C   UNL A   1      40.514  35.699  40.302  1.00  0.00     0.054 A 
BRANCH  56  57
ATOM     57  S   UNL A   1      40.532  36.666  41.838  1.00  0.00     0.124 S 
ATOM     58  O   UNL A   1      40.899  35.669  42.826  1.00  0.00    -0.237 OA
ATOM     59  O   UNL A   1      41.543  37.687  41.554  1.00  0.00    -0.237 OA
ATOM     60  O   UNL A   1      39.162  37.178  41.936  1.00  0.00    -0.744 OA
ENDBRANCH  56  57
ENDBRANCH  28  51
BRANCH  40  61
ATOM     61  C   UNL A   1      44.378  28.581  36.070  1.00  0.00    -0.014 A 
ATOM     62  C   UNL A   1      44.132  27.468  36.889  1.00  0.00     0.010 A 
ATOM     63  C   UNL A   1      45.702  28.950  35.772  1.00  0.00     0.010 A 
ATOM     64  C   UNL A   1      45.199  26.733  37.405  1.00  0.00     0.020 A 
ATOM     65  C   UNL A   1      46.770  28.202  36.264  1.00  0.00     0.020 A 
ATOM     66  C   UNL A   1      46.511  27.099  37.082  1.00  0.00     0.054 A 
BRANCH  66  67
ATOM     67  S   UNL A   1      47.875  26.073  37.688  1.00  0.00     0.124 S 
ATOM     68  O   UNL A   1      48.439  26.909  38.743  1.00  0.00    -0.237 OA
ATOM     69  O   UNL A   1      47.189  24.864  38.141  1.00  0.00    -0.237 OA
ATOM     70  O   UNL A   1      48.724  25.896  36.512  1.00  0.00    -0.744 OA
ENDBRANCH  66  67
ENDBRANCH  40  61
ENDBRANCH  14  15
ENDBRANCH   7   9
ENDBRANCH   6   7
ENDBRANCH   5   6
ENDBRANCH   4   5
ENDBRANCH   3   4
ENDBRANCH   2   3
ENDBRANCH   1   2
BRANCH   1  71
ATOM     71  O   UNL A   1      34.372  30.938  27.181  1.00  0.00    -0.377 OA
BRANCH  71  72
ATOM     72  C   UNL A   1      33.604  29.746  27.258  1.00  0.00     0.188 C 
BRANCH  72  73
ATOM     73  C   UNL A   1      32.185  29.714  26.637  1.00  0.00     0.188 C 
BRANCH  73  74
ATOM     74  O   UNL A   1      32.052  28.796  25.571  1.00  0.00    -0.376 OA
BRANCH  74  75
ATOM     75  C   UNL A   1      31.805  29.360  24.288  1.00  0.00     0.202 C 
BRANCH  75  76
ATOM     76  C   UNL A   1      32.560  28.758  23.090  1.00  0.00     0.261 C 
BRANCH  76  77
ATOM     77  O   UNL A   1      32.099  27.469  22.620  1.00  0.00    -0.463 OA
BRANCH  77  78
ATOM     78  C   UNL A   1      32.978  26.450  22.516  1.00  0.00     0.314 C 
ATOM     79  O   UNL A   1      33.750  26.341  21.559  1.00  0.00    -0.252 OA
BRANCH  78  80
ATOM     80  C   UNL A   1      32.876  25.432  23.698  1.00  0.00     0.096 C 
ATOM     81  C   UNL A   1      33.905  25.899  24.736  1.00  0.00     0.050 C 
ATOM     82  C   UNL A   1      31.624  25.548  24.578  1.00  0.00     0.179 C 
ATOM     83  C   UNL A   1      33.368  25.529  26.097  1.00  0.00     0.161 C 
ATOM     84  O   UNL A   1      31.991  25.208  25.923  1.00  0.00    -0.380 OA
BRANCH  80  85
ATOM     85  C   UNL A   1      32.990  23.967  23.115  1.00  0.00     0.014 C 
ATOM     86  C   UNL A   1      31.871  22.951  23.414  1.00  0.00     0.033 C 
ATOM     87  C   UNL A   1      34.369  23.356  23.361  1.00  0.00     0.043 C 
ATOM     88  C   UNL A   1      32.306  21.490  23.208  1.00  0.00     0.161 C 
ATOM     89  C   UNL A   1      34.343  22.161  24.318  1.00  0.00     0.094 C 
ATOM     90  O   UNL A   1      33.592  21.113  23.716  1.00  0.00    -0.372 OA
ATOM     91  C   UNL A   1      35.783  21.756  24.609  1.00  0.00     0.066 C 
ATOM     92  C   UNL A   1      33.887  22.403  25.757  1.00  0.00     0.195 C 
ATOM     93  C   UNL A   1      36.170  22.751  25.694  1.00  0.00     0.163 C 
ATOM     94  O   UNL A   1      34.984  22.994  26.463  1.00  0.00    -0.378 OA
ENDBRANCH  80  85
ENDBRANCH  78  80
ENDBRANCH  77  78
ENDBRANCH  76  77
ENDBRANCH  75  76
ENDBRANCH  74  75
ENDBRANCH  73  74
ENDBRANCH  72  73
ENDBRANCH  71  72
ENDBRANCH   1  71
TORSDOF 24
ENDMDL
MODEL 3
REMARK VINA RESULT:      -9.5      6.417     12.418
REMARK SMILES O=C(OCCOCCOCCOCCOC(=O)[C@@]1([C@@H]2CCO[C@@]3(CCOC3)C2)CCOC1)c1ccc(-c2c3nc(c(-c4ccc(S(=O)(=O)[O-])cc4)c4ccc([nH]4)c(-c4ccc(S(=O)(=O)[O-])cc4)c4nc(c(-c5ccc(S(=O)(=O)[O-])cc5)c5ccc2[nH]5)C=C4)C=C3)cc1
REMARK SMILES IDX 8 1 7 2 6 3 5 4 4 5 3 6 2 7 1 8 33 9 34 10 92 11 35 12 91 13
REMARK SMILES IDX 36 14 37 15 38 16 85 17 39 18 90 19 84 20 86 21 40 22 89 23
REMARK SMILES IDX 83 24 82 25 41 27 71 28 52 29 70 30 53 31 56 32 69 33 87 34
REMARK SMILES IDX 54 35 55 36 68 38 88 39 57 40 42 41 43 42 51 43 44 44 50 45
REMARK SMILES IDX 45 46 46 47 47 48 48 49 49 50 72 51 73 52 81 53 74 54 80 55
REMARK SMILES IDX 75 56 76 57 77 58 78 59 79 60 58 61 59 62 67 63 60 64 66 65
REMARK SMILES IDX 61 66 62 67 63 68 64 69 65 70 9 71 10 72 11 73 12 74 13 75
REMARK SMILES IDX 14 76 15 77 16 78 17 79 18 80 29 81 32 82 30 83 31 84 19 85
REMARK SMILES IDX 20 86 28 87 21 88 23 89 22 90 24 91 27 92 25 93 26 94
REMARK H PARENT 86 26 56 37
REMARK Flexibility Score: inf
ROOT
ATOM      1  C   UNL A   1      34.718  31.674  28.386  1.00  0.00     0.188 C 
ENDROOT
BRANCH   1   2
ATOM      2  C   UNL A   1      35.491  32.978  28.225  1.00  0.00     0.188 C 
BRANCH   2   3
ATOM      3  O   UNL A   1      34.664  34.002  27.671  1.00  0.00    -0.376 OA
BRANCH   3   4
ATOM      4  C   UNL A   1      33.364  34.159  28.241  1.00  0.00     0.202 C 
BRANCH   4   5
ATOM      5  C   UNL A   1      33.174  35.418  29.085  1.00  0.00     0.261 C 
BRANCH   5   6
ATOM      6  O   UNL A   1      32.500  35.167  30.322  1.00  0.00    -0.460 OA
BRANCH   6   7
ATOM      7  C   UNL A   1      33.048  34.876  31.529  1.00  0.00     0.338 C 
ATOM      8  O   UNL A   1      32.454  35.272  32.532  1.00  0.00    -0.246 OA
BRANCH   7   9
ATOM      9  C   UNL A   1      34.345  34.148  31.732  1.00  0.00     0.060 A 
ATOM     10  C   UNL A   1      34.495  32.783  31.990  1.00  0.00     0.016 A 
ATOM     11  C   UNL A   1      35.516  34.911  31.580  1.00  0.00     0.016 A 
ATOM     12  C   UNL A   1      35.739  32.190  32.131  1.00  0.00     0.010 A 
ATOM     13  C   UNL A   1      36.778  34.333  31.739  1.00  0.00     0.010 A 
ATOM     14  C   UNL A   1      36.881  32.973  32.048  1.00  0.00    -0.014 A 
BRANCH  14  15
ATOM     15  C   UNL A   1      38.127  32.390  32.560  1.00  0.00     0.031 A 
ATOM     16  C   UNL A   1      38.412  32.584  34.017  1.00  0.00     0.074 A 
ATOM     17  C   UNL A   1      38.878  31.599  31.778  1.00  0.00     0.049 A 
ATOM     18  N   UNL A   1      39.473  32.269  34.702  1.00  0.00    -0.248 NA
ATOM     19  C   UNL A   1      37.341  33.213  34.814  1.00  0.00     0.031 C 
ATOM     20  C   UNL A   1      38.557  31.224  30.400  1.00  0.00     0.029 A 
ATOM     21  N   UNL A   1      40.055  30.957  32.039  1.00  0.00    -0.354 N 
ATOM     22  C   UNL A   1      39.221  32.712  35.996  1.00  0.00     0.074 A 
ATOM     23  C   UNL A   1      37.905  33.302  36.006  1.00  0.00     0.031 C 
ATOM     24  C   UNL A   1      39.529  30.425  29.929  1.00  0.00     0.029 A 
ATOM     25  C   UNL A   1      40.568  30.301  30.946  1.00  0.00     0.049 A 
ATOM     26  H   UNL A   1      40.493  30.963  32.921  1.00  0.00     0.167 HD
ATOM     27  C   UNL A   1      40.042  32.648  37.068  1.00  0.00     0.031 A 
ATOM     28  C   UNL A   1      41.773  29.726  30.781  1.00  0.00     0.031 A 
ATOM     29  C   UNL A   1      41.353  32.070  36.993  1.00  0.00     0.049 A 
ATOM     30  C   UNL A   1      42.721  29.757  31.950  1.00  0.00     0.074 A 
ATOM     31  C   UNL A   1      42.326  31.994  37.968  1.00  0.00     0.029 A 
ATOM     32  N   UNL A   1      41.872  31.466  35.851  1.00  0.00    -0.354 N 
ATOM     33  N   UNL A   1      42.521  30.249  33.153  1.00  0.00    -0.248 NA
ATOM     34  C   UNL A   1      44.052  29.176  31.747  1.00  0.00     0.031 C 
ATOM     35  C   UNL A   1      43.455  31.397  37.396  1.00  0.00     0.029 A 
ATOM     36  C   UNL A   1      43.161  31.037  36.086  1.00  0.00     0.049 A 
ATOM     37  H   UNL A   1      41.389  31.361  34.999  1.00  0.00     0.167 HD
ATOM     38  C   UNL A   1      43.696  30.026  33.858  1.00  0.00     0.074 A 
ATOM     39  C   UNL A   1      44.596  29.341  32.947  1.00  0.00     0.031 C 
ATOM     40  C   UNL A   1      44.009  30.354  35.137  1.00  0.00     0.031 A 
BRANCH  27  41
ATOM     41  C   UNL A   1      39.573  33.329  38.324  1.00  0.00    -0.014 A 
ATOM     42  C   UNL A   1      39.939  34.651  38.640  1.00  0.00     0.010 A 
ATOM     43  C   UNL A   1      38.816  32.592  39.254  1.00  0.00     0.010 A 
ATOM     44  C   UNL A   1      39.616  35.196  39.887  1.00  0.00     0.020 A 
ATOM     45  C   UNL A   1      38.466  33.144  40.489  1.00  0.00     0.020 A 
ATOM     46  C   UNL A   1      38.892  34.434  40.809  1.00  0.00     0.054 A 
BRANCH  46  47
ATOM     47  S   UNL A   1      38.523  35.146  42.437  1.00  0.00     0.124 S 
ATOM     48  O   UNL A   1      39.284  34.272  43.326  1.00  0.00    -0.237 OA
ATOM     49  O   UNL A   1      39.030  36.509  42.312  1.00  0.00    -0.237 OA
ATOM     50  O   UNL A   1      37.071  35.031  42.544  1.00  0.00    -0.744 OA
ENDBRANCH  46  47
ENDBRANCH  27  41
BRANCH  28  51
ATOM     51  C   UNL A   1      42.155  29.179  29.449  1.00  0.00    -0.014 A 
ATOM     52  C   UNL A   1      42.774  29.980  28.476  1.00  0.00     0.010 A 
ATOM     53  C   UNL A   1      41.948  27.812  29.170  1.00  0.00     0.010 A 
ATOM     54  C   UNL A   1      43.185  29.426  27.257  1.00  0.00     0.020 A 
ATOM     55  C   UNL A   1      42.382  27.249  27.968  1.00  0.00     0.020 A 
ATOM     56  C   UNL A   1      42.995  28.061  27.014  1.00  0.00     0.054 A 
BRANCH  56  57
ATOM     57  S   UNL A   1      43.602  27.350  25.458  1.00  0.00     0.124 S 
ATOM     58  O   UNL A   1      43.549  25.926  25.728  1.00  0.00    -0.237 OA
ATOM     59  O   UNL A   1      42.632  27.853  24.483  1.00  0.00    -0.237 OA
ATOM     60  O   UNL A   1      44.948  27.918  25.326  1.00  0.00    -0.744 OA
ENDBRANCH  56  57
ENDBRANCH  28  51
BRANCH  40  61
ATOM     61  C   UNL A   1      45.364  29.942  35.635  1.00  0.00    -0.014 A 
ATOM     62  C   UNL A   1      46.459  30.819  35.564  1.00  0.00     0.010 A 
ATOM     63  C   UNL A   1      45.503  28.704  36.289  1.00  0.00     0.010 A 
ATOM     64  C   UNL A   1      47.678  30.458  36.139  1.00  0.00     0.020 A 
ATOM     65  C   UNL A   1      46.711  28.354  36.887  1.00  0.00     0.020 A 
ATOM     66  C   UNL A   1      47.794  29.233  36.804  1.00  0.00     0.054 A 
BRANCH  66  67
ATOM     67  S   UNL A   1      49.360  28.831  37.622  1.00  0.00     0.124 S 
ATOM     68  O   UNL A   1      49.216  29.513  38.904  1.00  0.00    -0.237 OA
ATOM     69  O   UNL A   1      49.327  27.371  37.677  1.00  0.00    -0.237 OA
ATOM     70  O   UNL A   1      50.371  29.392  36.728  1.00  0.00    -0.744 OA
ENDBRANCH  66  67
ENDBRANCH  40  61
ENDBRANCH  14  15
ENDBRANCH   7   9
ENDBRANCH   6   7
ENDBRANCH   5   6
ENDBRANCH   4   5
ENDBRANCH   3   4
ENDBRANCH   2   3
ENDBRANCH   1   2
BRANCH   1  71
ATOM     71  O   UNL A   1      34.428  31.020  27.159  1.00  0.00    -0.377 OA
BRANCH  71  72
ATOM     72  C   UNL A   1      33.778  29.762  27.264  1.00  0.00     0.188 C 
BRANCH  72  73
ATOM     73  C   UNL A   1      32.343  29.598  26.704  1.00  0.00     0.188 C 
BRANCH  73  74
ATOM     74  O   UNL A   1      32.253  28.683  25.630  1.00  0.00    -0.376 OA
BRANCH  74  75
ATOM     75  C   UNL A   1      31.996  29.247  24.349  1.00  0.00     0.202 C 
BRANCH  75  76
ATOM     76  C   UNL A   1      32.730  28.634  23.144  1.00  0.00     0.261 C 
BRANCH  76  77
ATOM     77  O   UNL A   1      32.233  27.361  22.667  1.00  0.00    -0.463 OA
BRANCH  77  78
ATOM     78  C   UNL A   1      33.085  26.320  22.551  1.00  0.00     0.314 C 
ATOM     79  O   UNL A   1      33.871  26.215  21.605  1.00  0.00    -0.252 OA
BRANCH  78  80
ATOM     80  C   UNL A   1      32.933  25.275  23.703  1.00  0.00     0.096 C 
ATOM     81  C   UNL A   1      33.974  25.668  24.759  1.00  0.00     0.050 C 
ATOM     82  C   UNL A   1      31.681  25.420  24.579  1.00  0.00     0.179 C 
ATOM     83  C   UNL A   1      33.413  25.284  26.106  1.00  0.00     0.161 C 
ATOM     84  O   UNL A   1      32.025  25.027  25.916  1.00  0.00    -0.380 OA
BRANCH  80  85
ATOM     85  C   UNL A   1      32.988  23.823  23.079  1.00  0.00     0.014 C 
ATOM     86  C   UNL A   1      31.779  22.885  23.255  1.00  0.00     0.033 C 
ATOM     87  C   UNL A   1      34.296  23.105  23.410  1.00  0.00     0.043 C 
ATOM     88  C   UNL A   1      32.124  21.402  23.032  1.00  0.00     0.161 C 
ATOM     89  C   UNL A   1      34.108  21.887  24.319  1.00  0.00     0.094 C 
ATOM     90  O   UNL A   1      33.335  20.916  23.625  1.00  0.00    -0.372 OA
ATOM     91  C   UNL A   1      35.488  21.369  24.707  1.00  0.00     0.066 C 
ATOM     92  C   UNL A   1      33.557  22.120  25.726  1.00  0.00     0.195 C 
ATOM     93  C   UNL A   1      35.857  22.301  25.852  1.00  0.00     0.163 C 
ATOM     94  O   UNL A   1      34.634  22.607  26.535  1.00  0.00    -0.378 OA
ENDBRANCH  80  85
ENDBRANCH  78  80
ENDBRANCH  77  78
ENDBRANCH  76  77
ENDBRANCH  75  76
ENDBRANCH  74  75
ENDBRANCH  73  74
ENDBRANCH  72  73
ENDBRANCH  71  72
ENDBRANCH   1  71
TORSDOF 24
ENDMDL
