MODEL 1
REMARK VINA RESULT:      -6.6      0.000      0.000
REMARK SMILES COCCCNC(=O)C[N@H+]1CC[C@H](C(=O)OCCOCCOCCOCCOC(=O)c2ccc(-c3c4nc(c(-c5ccc(S(=O)(=O)[O-])cc5)c5ccc([nH]5)c(-c5ccc(S(=O)(=O)[O-])cc5)c5nc(c(-c6ccc(S(=O)(=O)[O-])cc6)c6ccc3[nH]6)C=C5)C=C4)cc2)[C@@H]1C
REMARK SMILES IDX 20 1 19 2 18 3 17 4 16 5 14 6 15 7 13 8 10 9 11 10 91 11
REMARK SMILES IDX 12 13 92 14 9 15 7 16 6 17 8 19 5 20 4 21 3 22 2 23 1 24
REMARK SMILES IDX 21 25 22 26 23 27 24 28 25 29 26 30 27 31 28 32 29 33 30 34
REMARK SMILES IDX 31 35 32 36 90 37 33 38 89 39 34 40 35 41 36 42 83 43 37 44
REMARK SMILES IDX 88 45 82 46 84 47 38 48 87 49 81 50 80 51 39 53 69 54 50 55
REMARK SMILES IDX 68 56 51 57 54 58 67 59 85 60 52 61 53 62 66 64 86 65 55 66
REMARK SMILES IDX 40 67 41 68 49 69 42 70 48 71 43 72 44 73 45 74 46 75 47 76
REMARK SMILES IDX 70 77 71 78 79 79 72 80 78 81 73 82 74 83 75 84 76 85 77 86
REMARK SMILES IDX 56 87 57 88 65 89 58 90 64 91 59 92 60 93 61 94 62 95 63 96
REMARK H PARENT 10 12 6 18 84 52 54 63
REMARK Flexibility Score: inf
ROOT
ATOM      1  C   UNL A   1      36.523  33.241  30.456  1.00  0.00     0.188 C 
ENDROOT
BRANCH   1   2
ATOM      2  O   UNL A   1      37.819  32.982  30.967  1.00  0.00    -0.376 OA
BRANCH   2   3
ATOM      3  C   UNL A   1      38.708  32.193  30.198  1.00  0.00     0.202 C 
BRANCH   3   4
ATOM      4  C   UNL A   1      38.117  30.970  29.479  1.00  0.00     0.261 C 
BRANCH   4   5
ATOM      5  O   UNL A   1      39.045  29.981  28.975  1.00  0.00    -0.463 OA
BRANCH   5   6
ATOM      6  C   UNL A   1      38.851  28.663  29.302  1.00  0.00     0.315 C 
ATOM      7  O   UNL A   1      38.129  28.273  30.208  1.00  0.00    -0.252 OA
BRANCH   6   8
ATOM      8  C   UNL A   1      39.740  27.758  28.448  1.00  0.00     0.162 C 
ATOM      9  N   UNL A   1      42.007  27.271  27.788  1.00  0.00    -0.324 N 
ATOM     10  C   UNL A   1      41.526  28.319  26.907  1.00  0.00     0.264 C 
ATOM     11  C   UNL A   1      41.096  27.186  28.924  1.00  0.00     0.195 C 
ATOM     12  H   UNL A   1      42.940  27.566  28.080  1.00  0.00     0.348 HD
ATOM     13  C   UNL A   1      40.018  28.345  27.060  1.00  0.00     0.083 C 
ATOM     14  C   UNL A   1      41.947  27.631  30.102  1.00  0.00     0.076 C 
BRANCH   9  15
ATOM     15  C   UNL A   1      42.398  25.977  27.221  1.00  0.00     0.363 C 
BRANCH  15  16
ATOM     16  C   UNL A   1      41.766  25.652  25.873  1.00  0.00     0.275 C 
ATOM     17  N   UNL A   1      40.578  24.989  25.766  1.00  0.00    -0.351 N 
ATOM     18  H   UNL A   1      40.286  24.867  24.835  1.00  0.00     0.163 HD
ATOM     19  O   UNL A   1      42.326  25.980  24.822  1.00  0.00    -0.269 OA
BRANCH  17  20
ATOM     20  C   UNL A   1      39.647  24.423  26.740  1.00  0.00     0.118 C 
BRANCH  20  21
ATOM     21  C   UNL A   1      39.308  22.939  26.479  1.00  0.00     0.050 C 
BRANCH  21  22
ATOM     22  C   UNL A   1      40.510  21.994  26.401  1.00  0.00     0.161 C 
BRANCH  22  23
ATOM     23  O   UNL A   1      40.844  21.381  27.641  1.00  0.00    -0.385 OA
ATOM     24  C   UNL A   1      41.231  20.022  27.551  1.00  0.00     0.194 C 
ENDBRANCH  22  23
ENDBRANCH  21  22
ENDBRANCH  20  21
ENDBRANCH  17  20
ENDBRANCH  15  16
ENDBRANCH   9  15
ENDBRANCH   6   8
ENDBRANCH   5   6
ENDBRANCH   4   5
ENDBRANCH   3   4
ENDBRANCH   2   3
ENDBRANCH   1   2
BRANCH   1  25
ATOM     25  C   UNL A   1      35.707  34.438  30.956  1.00  0.00     0.188 C 
BRANCH  25  26
ATOM     26  O   UNL A   1      34.417  34.559  30.412  1.00  0.00    -0.377 OA
BRANCH  26  27
ATOM     27  C   UNL A   1      33.519  35.409  31.100  1.00  0.00     0.188 C 
BRANCH  27  28
ATOM     28  C   UNL A   1      33.372  35.064  32.587  1.00  0.00     0.188 C 
BRANCH  28  29
ATOM     29  O   UNL A   1      34.560  34.998  33.388  1.00  0.00    -0.376 OA
BRANCH  29  30
ATOM     30  C   UNL A   1      34.832  33.848  34.192  1.00  0.00     0.202 C 
BRANCH  30  31
ATOM     31  C   UNL A   1      36.154  33.852  34.945  1.00  0.00     0.261 C 
BRANCH  31  32
ATOM     32  O   UNL A   1      36.824  32.606  34.723  1.00  0.00    -0.460 OA
BRANCH  32  33
ATOM     33  C   UNL A   1      37.565  32.169  35.762  1.00  0.00     0.338 C 
ATOM     34  O   UNL A   1      37.298  32.263  36.953  1.00  0.00    -0.246 OA
BRANCH  33  35
ATOM     35  C   UNL A   1      38.665  31.345  35.238  1.00  0.00     0.060 A 
ATOM     36  C   UNL A   1      39.901  31.413  35.895  1.00  0.00     0.016 A 
ATOM     37  C   UNL A   1      38.494  30.540  34.109  1.00  0.00     0.016 A 
ATOM     38  C   UNL A   1      40.994  30.730  35.385  1.00  0.00     0.010 A 
ATOM     39  C   UNL A   1      39.598  29.879  33.578  1.00  0.00     0.010 A 
ATOM     40  C   UNL A   1      40.857  30.026  34.185  1.00  0.00    -0.014 A 
BRANCH  40  41
ATOM     41  C   UNL A   1      42.076  29.711  33.419  1.00  0.00     0.031 A 
ATOM     42  C   UNL A   1      42.562  30.742  32.438  1.00  0.00     0.074 A 
ATOM     43  C   UNL A   1      42.754  28.574  33.635  1.00  0.00     0.049 A 
ATOM     44  N   UNL A   1      43.590  30.704  31.635  1.00  0.00    -0.248 NA
ATOM     45  C   UNL A   1      41.777  31.988  32.352  1.00  0.00     0.031 C 
ATOM     46  C   UNL A   1      42.402  27.552  34.618  1.00  0.00     0.029 A 
ATOM     47  N   UNL A   1      43.889  28.098  33.036  1.00  0.00    -0.354 N 
ATOM     48  C   UNL A   1      43.572  31.911  30.946  1.00  0.00     0.074 A 
ATOM     49  C   UNL A   1      42.410  32.643  31.394  1.00  0.00     0.031 C 
ATOM     50  C   UNL A   1      43.309  26.561  34.554  1.00  0.00     0.029 A 
ATOM     51  C   UNL A   1      44.276  26.866  33.502  1.00  0.00     0.049 A 
ATOM     52  H   UNL A   1      44.378  28.590  32.339  1.00  0.00     0.167 HD
ATOM     53  C   UNL A   1      44.451  32.371  30.028  1.00  0.00     0.031 A 
ATOM     54  C   UNL A   1      45.291  26.076  33.105  1.00  0.00     0.031 A 
ATOM     55  C   UNL A   1      45.586  31.614  29.574  1.00  0.00     0.049 A 
ATOM     56  C   UNL A   1      46.199  26.563  32.005  1.00  0.00     0.074 A 
ATOM     57  C   UNL A   1      46.539  31.965  28.637  1.00  0.00     0.029 A 
ATOM     58  N   UNL A   1      45.913  30.342  30.025  1.00  0.00    -0.354 N 
ATOM     59  N   UNL A   1      46.173  27.704  31.355  1.00  0.00    -0.248 NA
ATOM     60  C   UNL A   1      47.279  25.659  31.593  1.00  0.00     0.031 C 
ATOM     61  C   UNL A   1      47.406  30.879  28.474  1.00  0.00     0.029 A 
ATOM     62  C   UNL A   1      47.040  29.883  29.367  1.00  0.00     0.049 A 
ATOM     63  H   UNL A   1      45.417  29.841  30.712  1.00  0.00     0.167 HD
ATOM     64  C   UNL A   1      47.259  27.672  30.487  1.00  0.00     0.074 A 
ATOM     65  C   UNL A   1      47.921  26.401  30.701  1.00  0.00     0.031 C 
ATOM     66  C   UNL A   1      47.678  28.610  29.599  1.00  0.00     0.031 A 
BRANCH  53  67
ATOM     67  C   UNL A   1      44.178  33.726  29.427  1.00  0.00    -0.014 A 
ATOM     68  C   UNL A   1      43.553  33.861  28.173  1.00  0.00     0.010 A 
ATOM     69  C   UNL A   1      44.565  34.885  30.124  1.00  0.00     0.010 A 
ATOM     70  C   UNL A   1      43.370  35.125  27.605  1.00  0.00     0.020 A 
ATOM     71  C   UNL A   1      44.352  36.152  29.575  1.00  0.00     0.020 A 
ATOM     72  C   UNL A   1      43.775  36.263  28.310  1.00  0.00     0.054 A 
BRANCH  72  73
ATOM     73  S   UNL A   1      43.528  37.891  27.548  1.00  0.00     0.124 S 
ATOM     74  O   UNL A   1      43.119  38.700  28.694  1.00  0.00    -0.237 OA
ATOM     75  O   UNL A   1      44.851  38.193  27.007  1.00  0.00    -0.237 OA
ATOM     76  O   UNL A   1      42.487  37.653  26.552  1.00  0.00    -0.744 OA
ENDBRANCH  72  73
ENDBRANCH  53  67
BRANCH  54  77
ATOM     77  C   UNL A   1      45.498  24.754  33.752  1.00  0.00    -0.014 A 
ATOM     78  C   UNL A   1      46.381  24.621  34.838  1.00  0.00     0.010 A 
ATOM     79  C   UNL A   1      44.798  23.620  33.299  1.00  0.00     0.010 A 
ATOM     80  C   UNL A   1      46.569  23.379  35.451  1.00  0.00     0.020 A 
ATOM     81  C   UNL A   1      44.960  22.383  33.928  1.00  0.00     0.020 A 
ATOM     82  C   UNL A   1      45.852  22.269  34.995  1.00  0.00     0.054 A 
BRANCH  82  83
ATOM     83  S   UNL A   1      46.071  20.682  35.847  1.00  0.00     0.124 S 
ATOM     84  O   UNL A   1      45.639  21.003  37.203  1.00  0.00    -0.237 OA
ATOM     85  O   UNL A   1      45.188  19.797  35.091  1.00  0.00    -0.237 OA
ATOM     86  O   UNL A   1      47.499  20.406  35.693  1.00  0.00    -0.744 OA
ENDBRANCH  82  83
ENDBRANCH  54  77
BRANCH  66  87
ATOM     87  C   UNL A   1      48.942  28.320  28.832  1.00  0.00    -0.014 A 
ATOM     88  C   UNL A   1      50.212  28.580  29.376  1.00  0.00     0.010 A 
ATOM     89  C   UNL A   1      48.849  27.724  27.560  1.00  0.00     0.010 A 
ATOM     90  C   UNL A   1      51.365  28.286  28.644  1.00  0.00     0.020 A 
ATOM     91  C   UNL A   1      50.000  27.395  26.841  1.00  0.00     0.020 A 
ATOM     92  C   UNL A   1      51.252  27.694  27.382  1.00  0.00     0.054 A 
BRANCH  92  93
ATOM     93  S   UNL A   1      52.765  27.288  26.470  1.00  0.00     0.124 S 
ATOM     94  O   UNL A   1      53.484  28.559  26.493  1.00  0.00    -0.237 OA
ATOM     95  O   UNL A   1      53.348  26.220  27.279  1.00  0.00    -0.237 OA
ATOM     96  O   UNL A   1      52.278  26.871  25.157  1.00  0.00    -0.744 OA
ENDBRANCH  92  93
ENDBRANCH  66  87
ENDBRANCH  40  41
ENDBRANCH  33  35
ENDBRANCH  32  33
ENDBRANCH  31  32
ENDBRANCH  30  31
ENDBRANCH  29  30
ENDBRANCH  28  29
ENDBRANCH  27  28
ENDBRANCH  26  27
ENDBRANCH  25  26
ENDBRANCH   1  25
TORSDOF 29
ENDMDL
MODEL 2
REMARK VINA RESULT:      -6.4      5.572      8.921
REMARK SMILES COCCCNC(=O)C[N@H+]1CC[C@H](C(=O)OCCOCCOCCOCCOC(=O)c2ccc(-c3c4nc(c(-c5ccc(S(=O)(=O)[O-])cc5)c5ccc([nH]5)c(-c5ccc(S(=O)(=O)[O-])cc5)c5nc(c(-c6ccc(S(=O)(=O)[O-])cc6)c6ccc3[nH]6)C=C5)C=C4)cc2)[C@@H]1C
REMARK SMILES IDX 20 1 19 2 18 3 17 4 16 5 14 6 15 7 13 8 10 9 11 10 91 11
REMARK SMILES IDX 12 13 92 14 9 15 7 16 6 17 8 19 5 20 4 21 3 22 2 23 1 24
REMARK SMILES IDX 21 25 22 26 23 27 24 28 25 29 26 30 27 31 28 32 29 33 30 34
REMARK SMILES IDX 31 35 32 36 90 37 33 38 89 39 34 40 35 41 36 42 83 43 37 44
REMARK SMILES IDX 88 45 82 46 84 47 38 48 87 49 81 50 80 51 39 53 69 54 50 55
REMARK SMILES IDX 68 56 51 57 54 58 67 59 85 60 52 61 53 62 66 64 86 65 55 66
REMARK SMILES IDX 40 67 41 68 49 69 42 70 48 71 43 72 44 73 45 74 46 75 47 76
REMARK SMILES IDX 70 77 71 78 79 79 72 80 78 81 73 82 74 83 75 84 76 85 77 86
REMARK SMILES IDX 56 87 57 88 65 89 58 90 64 91 59 92 60 93 61 94 62 95 63 96
REMARK H PARENT 10 12 6 18 84 52 54 63
REMARK Flexibility Score: inf
ROOT
ATOM      1  C   UNL A   1      42.458  28.910  30.000  1.00  0.00     0.188 C 
ENDROOT
BRANCH   1   2
ATOM      2  O   UNL A   1      43.161  28.041  30.870  1.00  0.00    -0.376 OA
BRANCH   2   3
ATOM      3  C   UNL A   1      43.531  26.758  30.398  1.00  0.00     0.202 C 
BRANCH   3   4
ATOM      4  C   UNL A   1      44.613  26.697  29.309  1.00  0.00     0.261 C 
BRANCH   4   5
ATOM      5  O   UNL A   1      44.605  25.552  28.424  1.00  0.00    -0.463 OA
BRANCH   5   6
ATOM      6  C   UNL A   1      43.897  25.626  27.252  1.00  0.00     0.315 C 
ATOM      7  O   UNL A   1      44.280  26.205  26.247  1.00  0.00    -0.252 OA
BRANCH   6   8
ATOM      8  C   UNL A   1      42.522  24.975  27.410  1.00  0.00     0.162 C 
ATOM      9  N   UNL A   1      40.670  23.966  26.241  1.00  0.00    -0.324 N 
ATOM     10  C   UNL A   1      40.444  25.400  26.235  1.00  0.00     0.264 C 
ATOM     11  C   UNL A   1      42.061  23.733  26.610  1.00  0.00     0.195 C 
ATOM     12  H   UNL A   1      40.480  23.656  25.287  1.00  0.00     0.348 HD
ATOM     13  C   UNL A   1      41.374  25.982  27.281  1.00  0.00     0.083 C 
ATOM     14  C   UNL A   1      42.673  23.139  25.351  1.00  0.00     0.076 C 
BRANCH   9  15
ATOM     15  C   UNL A   1      39.706  23.088  26.910  1.00  0.00     0.363 C 
BRANCH  15  16
ATOM     16  C   UNL A   1      39.195  21.932  26.059  1.00  0.00     0.275 C 
ATOM     17  N   UNL A   1      38.169  22.078  25.171  1.00  0.00    -0.351 N 
ATOM     18  H   UNL A   1      37.962  21.251  24.680  1.00  0.00     0.163 HD
ATOM     19  O   UNL A   1      39.702  20.809  26.156  1.00  0.00    -0.269 OA
BRANCH  17  20
ATOM     20  C   UNL A   1      37.313  23.201  24.793  1.00  0.00     0.118 C 
BRANCH  20  21
ATOM     21  C   UNL A   1      36.446  22.923  23.547  1.00  0.00     0.050 C 
BRANCH  21  22
ATOM     22  C   UNL A   1      35.068  23.590  23.542  1.00  0.00     0.161 C 
BRANCH  22  23
ATOM     23  O   UNL A   1      34.027  22.763  23.037  1.00  0.00    -0.385 OA
ATOM     24  C   UNL A   1      33.506  21.825  23.961  1.00  0.00     0.194 C 
ENDBRANCH  22  23
ENDBRANCH  21  22
ENDBRANCH  20  21
ENDBRANCH  17  20
ENDBRANCH  15  16
ENDBRANCH   9  15
ENDBRANCH   6   8
ENDBRANCH   5   6
ENDBRANCH   4   5
ENDBRANCH   3   4
ENDBRANCH   2   3
ENDBRANCH   1   2
BRANCH   1  25
ATOM     25  C   UNL A   1      40.976  28.678  29.689  1.00  0.00     0.188 C 
BRANCH  25  26
ATOM     26  O   UNL A   1      40.102  28.806  30.782  1.00  0.00    -0.377 OA
BRANCH  26  27
ATOM     27  C   UNL A   1      39.086  29.785  30.666  1.00  0.00     0.188 C 
BRANCH  27  28
ATOM     28  C   UNL A   1      38.996  30.407  29.267  1.00  0.00     0.188 C 
BRANCH  28  29
ATOM     29  O   UNL A   1      37.833  30.129  28.476  1.00  0.00    -0.376 OA
BRANCH  29  30
ATOM     30  C   UNL A   1      36.529  30.161  29.062  1.00  0.00     0.202 C 
BRANCH  30  31
ATOM     31  C   UNL A   1      35.832  31.514  29.076  1.00  0.00     0.261 C 
BRANCH  31  32
ATOM     32  O   UNL A   1      36.450  32.349  30.062  1.00  0.00    -0.460 OA
BRANCH  32  33
ATOM     33  C   UNL A   1      35.760  32.472  31.214  1.00  0.00     0.338 C 
ATOM     34  O   UNL A   1      34.565  32.267  31.385  1.00  0.00    -0.246 OA
BRANCH  33  35
ATOM     35  C   UNL A   1      36.715  32.680  32.312  1.00  0.00     0.060 A 
ATOM     36  C   UNL A   1      37.996  33.144  31.983  1.00  0.00     0.016 A 
ATOM     37  C   UNL A   1      36.369  32.401  33.637  1.00  0.00     0.016 A 
ATOM     38  C   UNL A   1      38.962  33.265  32.970  1.00  0.00     0.010 A 
ATOM     39  C   UNL A   1      37.347  32.493  34.623  1.00  0.00     0.010 A 
ATOM     40  C   UNL A   1      38.657  32.866  34.275  1.00  0.00    -0.014 A 
BRANCH  40  41
ATOM     41  C   UNL A   1      39.770  32.553  35.187  1.00  0.00     0.031 A 
ATOM     42  C   UNL A   1      40.086  33.556  36.263  1.00  0.00     0.074 A 
ATOM     43  C   UNL A   1      40.433  31.391  35.095  1.00  0.00     0.049 A 
ATOM     44  N   UNL A   1      41.018  33.527  37.175  1.00  0.00    -0.248 NA
ATOM     45  C   UNL A   1      39.230  34.755  36.313  1.00  0.00     0.031 C 
ATOM     46  C   UNL A   1      40.149  30.327  34.135  1.00  0.00     0.029 A 
ATOM     47  N   UNL A   1      41.485  30.916  35.831  1.00  0.00    -0.354 N 
ATOM     48  C   UNL A   1      40.867  34.703  37.901  1.00  0.00     0.074 A 
ATOM     49  C   UNL A   1      39.781  35.442  37.300  1.00  0.00     0.031 C 
ATOM     50  C   UNL A   1      41.011  29.317  34.342  1.00  0.00     0.029 A 
ATOM     51  C   UNL A   1      41.927  29.683  35.421  1.00  0.00     0.049 A 
ATOM     52  H   UNL A   1      41.885  31.410  36.582  1.00  0.00     0.167 HD
ATOM     53  C   UNL A   1      41.567  35.125  38.979  1.00  0.00     0.031 A 
ATOM     54  C   UNL A   1      42.964  28.950  35.863  1.00  0.00     0.031 A 
ATOM     55  C   UNL A   1      42.664  34.388  39.545  1.00  0.00     0.049 A 
ATOM     56  C   UNL A   1      43.798  29.486  36.998  1.00  0.00     0.074 A 
ATOM     57  C   UNL A   1      43.460  34.718  40.625  1.00  0.00     0.029 A 
ATOM     58  N   UNL A   1      43.123  33.169  39.063  1.00  0.00    -0.354 N 
ATOM     59  N   UNL A   1      43.651  30.601  37.677  1.00  0.00    -0.248 NA
ATOM     60  C   UNL A   1      44.930  28.659  37.433  1.00  0.00     0.031 C 
ATOM     61  C   UNL A   1      44.442  33.730  40.757  1.00  0.00     0.029 A 
ATOM     62  C   UNL A   1      44.208  32.745  39.809  1.00  0.00     0.049 A 
ATOM     63  H   UNL A   1      42.733  32.678  38.303  1.00  0.00     0.167 HD
ATOM     64  C   UNL A   1      44.647  30.589  38.648  1.00  0.00     0.074 A 
ATOM     65  C   UNL A   1      45.384  29.353  38.468  1.00  0.00     0.031 C 
ATOM     66  C   UNL A   1      44.925  31.509  39.607  1.00  0.00     0.031 A 
BRANCH  53  67
ATOM     67  C   UNL A   1      41.192  36.460  39.567  1.00  0.00    -0.014 A 
ATOM     68  C   UNL A   1      41.928  37.625  39.273  1.00  0.00     0.010 A 
ATOM     69  C   UNL A   1      40.092  36.551  40.438  1.00  0.00     0.010 A 
ATOM     70  C   UNL A   1      41.603  38.841  39.883  1.00  0.00     0.020 A 
ATOM     71  C   UNL A   1      39.742  37.773  41.022  1.00  0.00     0.020 A 
ATOM     72  C   UNL A   1      40.514  38.905  40.756  1.00  0.00     0.054 A 
BRANCH  72  73
ATOM     73  S   UNL A   1      40.116  40.494  41.535  1.00  0.00     0.124 S 
ATOM     74  O   UNL A   1      39.245  40.082  42.634  1.00  0.00    -0.237 OA
ATOM     75  O   UNL A   1      41.431  40.994  41.929  1.00  0.00    -0.237 OA
ATOM     76  O   UNL A   1      39.458  41.247  40.470  1.00  0.00    -0.744 OA
ENDBRANCH  72  73
ENDBRANCH  53  67
BRANCH  54  77
ATOM     77  C   UNL A   1      43.266  27.636  35.234  1.00  0.00    -0.014 A 
ATOM     78  C   UNL A   1      44.276  27.525  34.263  1.00  0.00     0.010 A 
ATOM     79  C   UNL A   1      42.556  26.482  35.616  1.00  0.00     0.010 A 
ATOM     80  C   UNL A   1      44.564  26.288  33.678  1.00  0.00     0.020 A 
ATOM     81  C   UNL A   1      42.860  25.239  35.057  1.00  0.00     0.020 A 
ATOM     82  C   UNL A   1      43.858  25.151  34.084  1.00  0.00     0.054 A 
BRANCH  82  83
ATOM     83  S   UNL A   1      44.291  23.550  33.351  1.00  0.00     0.124 S 
ATOM     84  O   UNL A   1      45.587  23.276  33.965  1.00  0.00    -0.237 OA
ATOM     85  O   UNL A   1      43.189  22.697  33.788  1.00  0.00    -0.237 OA
ATOM     86  O   UNL A   1      44.324  23.828  31.916  1.00  0.00    -0.744 OA
ENDBRANCH  82  83
ENDBRANCH  54  77
BRANCH  66  87
ATOM     87  C   UNL A   1      46.037  31.189  40.571  1.00  0.00    -0.014 A 
ATOM     88  C   UNL A   1      47.361  31.598  40.332  1.00  0.00     0.010 A 
ATOM     89  C   UNL A   1      45.733  30.510  41.766  1.00  0.00     0.010 A 
ATOM     90  C   UNL A   1      48.367  31.297  41.254  1.00  0.00     0.020 A 
ATOM     91  C   UNL A   1      46.730  30.241  42.706  1.00  0.00     0.020 A 
ATOM     92  C   UNL A   1      48.045  30.623  42.435  1.00  0.00     0.054 A 
BRANCH  92  93
ATOM     93  S   UNL A   1      49.363  30.279  43.631  1.00  0.00     0.124 S 
ATOM     94  O   UNL A   1      48.719  29.324  44.528  1.00  0.00    -0.237 OA
ATOM     95  O   UNL A   1      50.424  29.733  42.788  1.00  0.00    -0.237 OA
ATOM     96  O   UNL A   1      49.651  31.587  44.216  1.00  0.00    -0.744 OA
ENDBRANCH  92  93
ENDBRANCH  66  87
ENDBRANCH  40  41
ENDBRANCH  33  35
ENDBRANCH  32  33
ENDBRANCH  31  32
ENDBRANCH  30  31
ENDBRANCH  29  30
ENDBRANCH  28  29
ENDBRANCH  27  28
ENDBRANCH  26  27
ENDBRANCH  25  26
ENDBRANCH   1  25
TORSDOF 29
ENDMDL
MODEL 3
REMARK VINA RESULT:      -5.8      6.415     14.291
REMARK SMILES COCCCNC(=O)C[N@H+]1CC[C@H](C(=O)OCCOCCOCCOCCOC(=O)c2ccc(-c3c4nc(c(-c5ccc(S(=O)(=O)[O-])cc5)c5ccc([nH]5)c(-c5ccc(S(=O)(=O)[O-])cc5)c5nc(c(-c6ccc(S(=O)(=O)[O-])cc6)c6ccc3[nH]6)C=C5)C=C4)cc2)[C@@H]1C
REMARK SMILES IDX 20 1 19 2 18 3 17 4 16 5 14 6 15 7 13 8 10 9 11 10 91 11
REMARK SMILES IDX 12 13 92 14 9 15 7 16 6 17 8 19 5 20 4 21 3 22 2 23 1 24
REMARK SMILES IDX 21 25 22 26 23 27 24 28 25 29 26 30 27 31 28 32 29 33 30 34
REMARK SMILES IDX 31 35 32 36 90 37 33 38 89 39 34 40 35 41 36 42 83 43 37 44
REMARK SMILES IDX 88 45 82 46 84 47 38 48 87 49 81 50 80 51 39 53 69 54 50 55
REMARK SMILES IDX 68 56 51 57 54 58 67 59 85 60 52 61 53 62 66 64 86 65 55 66
REMARK SMILES IDX 40 67 41 68 49 69 42 70 48 71 43 72 44 73 45 74 46 75 47 76
REMARK SMILES IDX 70 77 71 78 79 79 72 80 78 81 73 82 74 83 75 84 76 85 77 86
REMARK SMILES IDX 56 87 57 88 65 89 58 90 64 91 59 92 60 93 61 94 62 95 63 96
REMARK H PARENT 10 12 6 18 84 52 54 63
REMARK Flexibility Score: inf
ROOT
ATOM      1  C   UNL A   1      50.072  19.289  41.013  1.00  0.00     0.188 C 
ENDROOT
BRANCH   1   2
ATOM      2  O   UNL A   1      50.081  18.720  42.310  1.00  0.00    -0.376 OA
BRANCH   2   3
ATOM      3  C   UNL A   1      49.001  19.000  43.183  1.00  0.00     0.202 C 
BRANCH   3   4
ATOM      4  C   UNL A   1      47.631  18.408  42.815  1.00  0.00     0.261 C 
BRANCH   4   5
ATOM      5  O   UNL A   1      47.448  16.985  43.001  1.00  0.00    -0.463 OA
BRANCH   5   6
ATOM      6  C   UNL A   1      47.099  16.518  44.242  1.00  0.00     0.315 C 
ATOM      7  O   UNL A   1      47.756  16.694  45.258  1.00  0.00    -0.252 OA
BRANCH   6   8
ATOM      8  C   UNL A   1      45.835  15.663  44.162  1.00  0.00     0.162 C 
ATOM      9  N   UNL A   1      44.200  14.431  45.437  1.00  0.00    -0.324 N 
ATOM     10  C   UNL A   1      45.316  13.533  45.199  1.00  0.00     0.264 C 
ATOM     11  C   UNL A   1      44.647  15.788  45.145  1.00  0.00     0.195 C 
ATOM     12  H   UNL A   1      43.966  14.320  46.424  1.00  0.00     0.348 HD
ATOM     13  C   UNL A   1      46.141  14.163  44.094  1.00  0.00     0.083 C 
ATOM     14  C   UNL A   1      44.610  16.478  46.499  1.00  0.00     0.076 C 
BRANCH   9  15
ATOM     15  C   UNL A   1      42.879  14.094  44.901  1.00  0.00     0.363 C 
BRANCH  15  16
ATOM     16  C   UNL A   1      42.895  13.425  43.532  1.00  0.00     0.275 C 
ATOM     17  N   UNL A   1      42.750  14.132  42.373  1.00  0.00    -0.351 N 
ATOM     18  H   UNL A   1      42.800  13.568  41.568  1.00  0.00     0.163 HD
ATOM     19  O   UNL A   1      43.038  12.202  43.433  1.00  0.00    -0.269 OA
BRANCH  17  20
ATOM     20  C   UNL A   1      42.536  15.546  42.074  1.00  0.00     0.118 C 
BRANCH  20  21
ATOM     21  C   UNL A   1      43.034  15.962  40.673  1.00  0.00     0.050 C 
BRANCH  21  22
ATOM     22  C   UNL A   1      44.196  16.957  40.657  1.00  0.00     0.161 C 
BRANCH  22  23
ATOM     23  O   UNL A   1      45.064  16.815  39.538  1.00  0.00    -0.385 OA
ATOM     24  C   UNL A   1      46.226  17.623  39.575  1.00  0.00     0.194 C 
ENDBRANCH  22  23
ENDBRANCH  21  22
ENDBRANCH  20  21
ENDBRANCH  17  20
ENDBRANCH  15  16
ENDBRANCH   9  15
ENDBRANCH   6   8
ENDBRANCH   5   6
ENDBRANCH   4   5
ENDBRANCH   3   4
ENDBRANCH   2   3
ENDBRANCH   1   2
BRANCH   1  25
ATOM     25  C   UNL A   1      49.813  18.420  39.777  1.00  0.00     0.188 C 
BRANCH  25  26
ATOM     26  O   UNL A   1      49.513  19.123  38.598  1.00  0.00    -0.377 OA
BRANCH  26  27
ATOM     27  C   UNL A   1      49.382  20.527  38.716  1.00  0.00     0.188 C 
BRANCH  27  28
ATOM     28  C   UNL A   1      49.997  21.297  37.542  1.00  0.00     0.188 C 
BRANCH  28  29
ATOM     29  O   UNL A   1      49.872  20.741  36.226  1.00  0.00    -0.376 OA
BRANCH  29  30
ATOM     30  C   UNL A   1      50.504  21.368  35.107  1.00  0.00     0.202 C 
BRANCH  30  31
ATOM     31  C   UNL A   1      49.698  22.445  34.397  1.00  0.00     0.261 C 
BRANCH  31  32
ATOM     32  O   UNL A   1      50.425  23.678  34.436  1.00  0.00    -0.460 OA
BRANCH  32  33
ATOM     33  C   UNL A   1      50.191  24.439  35.525  1.00  0.00     0.338 C 
ATOM     34  O   UNL A   1      50.881  24.520  36.533  1.00  0.00    -0.246 OA
BRANCH  33  35
ATOM     35  C   UNL A   1      49.075  25.349  35.229  1.00  0.00     0.060 A 
ATOM     36  C   UNL A   1      47.828  25.057  35.797  1.00  0.00     0.016 A 
ATOM     37  C   UNL A   1      49.242  26.453  34.389  1.00  0.00     0.016 A 
ATOM     38  C   UNL A   1      46.722  25.828  35.473  1.00  0.00     0.010 A 
ATOM     39  C   UNL A   1      48.127  27.209  34.039  1.00  0.00     0.010 A 
ATOM     40  C   UNL A   1      46.860  26.856  34.535  1.00  0.00    -0.014 A 
BRANCH  40  41
ATOM     41  C   UNL A   1      45.649  27.347  33.855  1.00  0.00     0.031 A 
ATOM     42  C   UNL A   1      44.950  28.535  34.459  1.00  0.00     0.074 A 
ATOM     43  C   UNL A   1      45.225  26.791  32.710  1.00  0.00     0.049 A 
ATOM     44  N   UNL A   1      43.866  29.146  34.068  1.00  0.00    -0.248 NA
ATOM     45  C   UNL A   1      45.562  29.109  35.671  1.00  0.00     0.031 C 
ATOM     46  C   UNL A   1      45.880  25.688  32.011  1.00  0.00     0.029 A 
ATOM     47  N   UNL A   1      44.138  27.092  31.935  1.00  0.00    -0.354 N 
ATOM     48  C   UNL A   1      43.661  30.169  34.987  1.00  0.00     0.074 A 
ATOM     49  C   UNL A   1      44.709  30.072  35.977  1.00  0.00     0.031 C 
ATOM     50  C   UNL A   1      45.176  25.402  30.902  1.00  0.00     0.029 A 
ATOM     51  C   UNL A   1      44.006  26.276  30.839  1.00  0.00     0.049 A 
ATOM     52  H   UNL A   1      43.512  27.822  32.143  1.00  0.00     0.167 HD
ATOM     53  C   UNL A   1      42.691  31.110  34.999  1.00  0.00     0.031 A 
ATOM     54  C   UNL A   1      43.037  26.238  29.906  1.00  0.00     0.031 A 
ATOM     55  C   UNL A   1      41.639  31.171  34.020  1.00  0.00     0.049 A 
ATOM     56  C   UNL A   1      41.906  27.229  29.997  1.00  0.00     0.074 A 
ATOM     57  C   UNL A   1      40.590  32.067  33.935  1.00  0.00     0.029 A 
ATOM     58  N   UNL A   1      41.503  30.289  32.957  1.00  0.00    -0.354 N 
ATOM     59  N   UNL A   1      41.717  28.191  30.871  1.00  0.00    -0.248 NA
ATOM     60  C   UNL A   1      40.864  27.136  28.968  1.00  0.00     0.031 C 
ATOM     61  C   UNL A   1      39.783  31.686  32.858  1.00  0.00     0.029 A 
ATOM     62  C   UNL A   1      40.373  30.603  32.225  1.00  0.00     0.049 A 
ATOM     63  H   UNL A   1      42.120  29.548  32.754  1.00  0.00     0.167 HD
ATOM     64  C   UNL A   1      40.556  28.845  30.472  1.00  0.00     0.074 A 
ATOM     65  C   UNL A   1      40.093  28.171  29.276  1.00  0.00     0.031 C 
ATOM     66  C   UNL A   1      39.933  29.912  31.036  1.00  0.00     0.031 A 
BRANCH  53  67
ATOM     67  C   UNL A   1      42.703  32.101  36.133  1.00  0.00    -0.014 A 
ATOM     68  C   UNL A   1      43.714  33.075  36.247  1.00  0.00     0.010 A 
ATOM     69  C   UNL A   1      41.693  32.051  37.111  1.00  0.00     0.010 A 
ATOM     70  C   UNL A   1      43.743  33.942  37.344  1.00  0.00     0.020 A 
ATOM     71  C   UNL A   1      41.699  32.939  38.190  1.00  0.00     0.020 A 
ATOM     72  C   UNL A   1      42.736  33.865  38.310  1.00  0.00     0.054 A 
BRANCH  72  73
ATOM     73  S   UNL A   1      42.800  34.999  39.724  1.00  0.00     0.124 S 
ATOM     74  O   UNL A   1      41.795  34.425  40.617  1.00  0.00    -0.237 OA
ATOM     75  O   UNL A   1      44.184  34.872  40.173  1.00  0.00    -0.237 OA
ATOM     76  O   UNL A   1      42.449  36.294  39.146  1.00  0.00    -0.744 OA
ENDBRANCH  72  73
ENDBRANCH  53  67
BRANCH  54  77
ATOM     77  C   UNL A   1      43.100  25.232  28.813  1.00  0.00    -0.014 A 
ATOM     78  C   UNL A   1      42.570  23.943  28.997  1.00  0.00     0.010 A 
ATOM     79  C   UNL A   1      43.675  25.563  27.571  1.00  0.00     0.010 A 
ATOM     80  C   UNL A   1      42.622  23.001  27.966  1.00  0.00     0.020 A 
ATOM     81  C   UNL A   1      43.702  24.634  26.527  1.00  0.00     0.020 A 
ATOM     82  C   UNL A   1      43.183  23.355  26.735  1.00  0.00     0.054 A 
BRANCH  82  83
ATOM     83  S   UNL A   1      43.185  22.132  25.395  1.00  0.00     0.124 S 
ATOM     84  O   UNL A   1      41.858  21.539  25.524  1.00  0.00    -0.237 OA
ATOM     85  O   UNL A   1      43.398  22.963  24.213  1.00  0.00    -0.237 OA
ATOM     86  O   UNL A   1      44.301  21.251  25.738  1.00  0.00    -0.744 OA
ENDBRANCH  82  83
ENDBRANCH  54  77
BRANCH  66  87
ATOM     87  C   UNL A   1      38.713  30.450  30.335  1.00  0.00    -0.014 A 
ATOM     88  C   UNL A   1      38.799  31.501  29.406  1.00  0.00     0.010 A 
ATOM     89  C   UNL A   1      37.464  29.847  30.577  1.00  0.00     0.010 A 
ATOM     90  C   UNL A   1      37.650  31.967  28.763  1.00  0.00     0.020 A 
ATOM     91  C   UNL A   1      36.320  30.286  29.908  1.00  0.00     0.020 A 
ATOM     92  C   UNL A   1      36.418  31.356  29.016  1.00  0.00     0.054 A 
BRANCH  92  93
ATOM     93  S   UNL A   1      34.949  31.955  28.139  1.00  0.00     0.124 S 
ATOM     94  O   UNL A   1      34.613  30.812  27.293  1.00  0.00    -0.237 OA
ATOM     95  O   UNL A   1      34.016  32.228  29.229  1.00  0.00    -0.237 OA
ATOM     96  O   UNL A   1      35.429  33.137  27.425  1.00  0.00    -0.744 OA
ENDBRANCH  92  93
ENDBRANCH  66  87
ENDBRANCH  40  41
ENDBRANCH  33  35
ENDBRANCH  32  33
ENDBRANCH  31  32
ENDBRANCH  30  31
ENDBRANCH  29  30
ENDBRANCH  28  29
ENDBRANCH  27  28
ENDBRANCH  26  27
ENDBRANCH  25  26
ENDBRANCH   1  25
TORSDOF 29
ENDMDL
