MODEL 1
REMARK VINA RESULT:      -9.7      0.000      0.000
REMARK SMILES Cc1c(CC(=O)OCCOCCOCCOCCOC(=O)c2ccc(-c3c4nc(c(-c5ccc(S(=O)(=O)[O-])cc5)c5ccc([nH]5)c(-c5ccc(S(=O)(=O)[O-])cc5)c5nc(c(-c6ccc(S(=O)(=O)[O-])cc6)c6ccc3[nH]6)C=C5)C=C4)cc2)c(=O)oc2cc(OCc3c(F)cccc3Cl)ccc12
REMARK SMILES IDX 12 1 11 2 10 3 9 4 8 5 7 6 5 7 6 8 4 9 3 10 1 11 2 12 100 13
REMARK SMILES IDX 82 14 85 15 99 16 83 17 84 18 86 19 98 20 87 21 88 22 89 23
REMARK SMILES IDX 90 24 91 25 96 26 92 27 93 28 95 29 97 30 94 31 13 32 14 33
REMARK SMILES IDX 15 34 16 35 17 36 18 37 19 38 20 39 21 40 22 41 23 42 81 43
REMARK SMILES IDX 24 44 80 45 25 46 26 47 27 48 74 49 28 50 79 51 73 52 75 53
REMARK SMILES IDX 29 54 78 55 72 56 71 57 30 59 60 60 41 61 59 62 42 63 45 64
REMARK SMILES IDX 58 65 76 66 43 67 44 68 57 70 77 71 46 72 31 73 32 74 40 75
REMARK SMILES IDX 33 76 39 77 34 78 35 79 36 80 37 81 38 82 61 83 62 84 70 85
REMARK SMILES IDX 63 86 69 87 64 88 65 89 66 90 67 91 68 92 47 93 48 94 56 95
REMARK SMILES IDX 49 96 55 97 50 98 51 99 52 100 53 101 54 102
REMARK H PARENT 75 58 45 69
REMARK Flexibility Score: inf
ROOT
ATOM      1  C   UNL A   1      35.865  24.287  25.437  1.00  0.00     0.188 C 
ENDROOT
BRANCH   1   2
ATOM      2  C   UNL A   1      34.456  24.921  25.497  1.00  0.00     0.188 C 
BRANCH   2   3
ATOM      3  O   UNL A   1      34.249  26.199  26.088  1.00  0.00    -0.376 OA
BRANCH   3   4
ATOM      4  C   UNL A   1      34.435  27.365  25.301  1.00  0.00     0.202 C 
BRANCH   4   5
ATOM      5  C   UNL A   1      33.893  28.718  25.809  1.00  0.00     0.261 C 
BRANCH   5   6
ATOM      6  O   UNL A   1      33.091  29.494  24.885  1.00  0.00    -0.463 OA
BRANCH   6   7
ATOM      7  C   UNL A   1      31.813  29.742  25.250  1.00  0.00     0.310 C 
ATOM      8  O   UNL A   1      31.459  30.754  25.851  1.00  0.00    -0.252 OA
BRANCH   7   9
ATOM      9  C   UNL A   1      30.776  28.689  24.823  1.00  0.00     0.166 C 
BRANCH   9  10
ATOM     10  C   UNL A   1      31.103  27.216  24.606  1.00  0.00     0.052 A 
ATOM     11  C   UNL A   1      31.725  27.365  22.145  1.00  0.00     0.046 C 
ATOM     12  C   UNL A   1      31.483  26.630  23.440  1.00  0.00    -0.029 A 
ATOM     13  C   UNL A   1      31.718  25.168  23.406  1.00  0.00     0.021 A 
ATOM     14  C   UNL A   1      30.817  26.380  25.808  1.00  0.00     0.340 A 
ATOM     15  C   UNL A   1      31.315  24.398  24.493  1.00  0.00     0.142 A 
ATOM     16  C   UNL A   1      32.354  24.493  22.354  1.00  0.00     0.016 A 
ATOM     17  O   UNL A   1      30.530  26.890  26.885  1.00  0.00    -0.246 OA
ATOM     18  O   UNL A   1      30.772  25.005  25.637  1.00  0.00    -0.422 OA
ATOM     19  C   UNL A   1      31.512  23.012  24.562  1.00  0.00     0.094 A 
ATOM     20  C   UNL A   1      32.633  23.122  22.443  1.00  0.00     0.047 A 
ATOM     21  C   UNL A   1      32.249  22.384  23.565  1.00  0.00     0.123 A 
BRANCH  21  22
ATOM     22  O   UNL A   1      32.799  21.134  23.628  1.00  0.00    -0.489 OA
BRANCH  22  23
ATOM     23  C   UNL A   1      32.165  20.098  24.382  1.00  0.00     0.270 C 
BRANCH  23  24
ATOM     24  C   UNL A   1      32.649  18.660  24.322  1.00  0.00     0.044 A 
ATOM     25  C   UNL A   1      32.919  18.064  25.568  1.00  0.00     0.131 A 
ATOM     26  C   UNL A   1      32.865  17.867  23.187  1.00  0.00     0.050 A 
ATOM     27  F   UNL A   1      32.666  18.752  26.692  1.00  0.00    -0.207 F 
ATOM     28  C   UNL A   1      33.451  16.783  25.691  1.00  0.00     0.040 A 
ATOM     29  C   UNL A   1      33.430  16.587  23.302  1.00  0.00     0.021 A 
ATOM     30  Cl  UNL A   1      32.463  18.358  21.588  1.00  0.00    -0.084 Cl
ATOM     31  C   UNL A   1      33.735  16.049  24.548  1.00  0.00     0.005 A 
ENDBRANCH  23  24
ENDBRANCH  22  23
ENDBRANCH  21  22
ENDBRANCH   9  10
ENDBRANCH   7   9
ENDBRANCH   6   7
ENDBRANCH   5   6
ENDBRANCH   4   5
ENDBRANCH   3   4
ENDBRANCH   2   3
ENDBRANCH   1   2
BRANCH   1  32
ATOM     32  O   UNL A   1      35.905  22.922  25.795  1.00  0.00    -0.377 OA
BRANCH  32  33
ATOM     33  C   UNL A   1      35.952  22.002  24.721  1.00  0.00     0.188 C 
BRANCH  33  34
ATOM     34  C   UNL A   1      35.989  20.509  25.090  1.00  0.00     0.188 C 
BRANCH  34  35
ATOM     35  O   UNL A   1      37.238  19.878  24.821  1.00  0.00    -0.376 OA
BRANCH  35  36
ATOM     36  C   UNL A   1      38.418  20.436  25.375  1.00  0.00     0.202 C 
BRANCH  36  37
ATOM     37  C   UNL A   1      39.571  19.462  25.658  1.00  0.00     0.261 C 
BRANCH  37  38
ATOM     38  O   UNL A   1      40.574  19.941  26.557  1.00  0.00    -0.460 OA
BRANCH  38  39
ATOM     39  C   UNL A   1      41.840  20.033  26.085  1.00  0.00     0.338 C 
ATOM     40  O   UNL A   1      42.417  19.239  25.376  1.00  0.00    -0.246 OA
BRANCH  39  41
ATOM     41  C   UNL A   1      42.319  21.389  26.432  1.00  0.00     0.060 A 
ATOM     42  C   UNL A   1      42.318  22.387  25.453  1.00  0.00     0.016 A 
ATOM     43  C   UNL A   1      42.696  21.683  27.742  1.00  0.00     0.016 A 
ATOM     44  C   UNL A   1      42.691  23.689  25.788  1.00  0.00     0.010 A 
ATOM     45  C   UNL A   1      43.058  22.987  28.083  1.00  0.00     0.010 A 
ATOM     46  C   UNL A   1      43.093  23.986  27.097  1.00  0.00    -0.014 A 
BRANCH  46  47
ATOM     47  C   UNL A   1      43.806  25.256  27.368  1.00  0.00     0.031 A 
ATOM     48  C   UNL A   1      43.013  26.372  27.994  1.00  0.00     0.074 A 
ATOM     49  C   UNL A   1      45.117  25.407  27.105  1.00  0.00     0.049 A 
ATOM     50  N   UNL A   1      43.390  27.579  28.318  1.00  0.00    -0.248 NA
ATOM     51  C   UNL A   1      41.597  26.084  28.289  1.00  0.00     0.031 C 
ATOM     52  C   UNL A   1      45.995  24.383  26.541  1.00  0.00     0.029 A 
ATOM     53  N   UNL A   1      45.937  26.493  27.286  1.00  0.00    -0.354 N 
ATOM     54  C   UNL A   1      42.259  28.194  28.843  1.00  0.00     0.074 A 
ATOM     55  C   UNL A   1      41.174  27.246  28.756  1.00  0.00     0.031 C 
ATOM     56  C   UNL A   1      47.236  24.891  26.425  1.00  0.00     0.029 A 
ATOM     57  C   UNL A   1      47.232  26.282  26.874  1.00  0.00     0.049 A 
ATOM     58  H   UNL A   1      45.627  27.342  27.675  1.00  0.00     0.167 HD
ATOM     59  C   UNL A   1      42.137  29.436  29.365  1.00  0.00     0.031 A 
ATOM     60  C   UNL A   1      48.284  27.125  26.850  1.00  0.00     0.031 A 
ATOM     61  C   UNL A   1      43.218  30.378  29.438  1.00  0.00     0.049 A 
ATOM     62  C   UNL A   1      48.107  28.532  27.367  1.00  0.00     0.074 A 
ATOM     63  C   UNL A   1      43.208  31.659  29.955  1.00  0.00     0.029 A 
ATOM     64  N   UNL A   1      44.504  30.141  28.972  1.00  0.00    -0.354 N 
ATOM     65  N   UNL A   1      47.038  29.093  27.886  1.00  0.00    -0.248 NA
ATOM     66  C   UNL A   1      49.278  29.417  27.305  1.00  0.00     0.031 C 
ATOM     67  C   UNL A   1      44.470  32.223  29.742  1.00  0.00     0.029 A 
ATOM     68  C   UNL A   1      45.287  31.264  29.161  1.00  0.00     0.049 A 
ATOM     69  H   UNL A   1      44.812  29.298  28.567  1.00  0.00     0.167 HD
ATOM     70  C   UNL A   1      47.418  30.384  28.239  1.00  0.00     0.074 A 
ATOM     71  C   UNL A   1      48.817  30.516  27.888  1.00  0.00     0.031 C 
ATOM     72  C   UNL A   1      46.680  31.372  28.804  1.00  0.00     0.031 A 
BRANCH  59  73
ATOM     73  C   UNL A   1      40.776  29.849  29.857  1.00  0.00    -0.014 A 
ATOM     74  C   UNL A   1      39.719  30.106  28.963  1.00  0.00     0.010 A 
ATOM     75  C   UNL A   1      40.546  29.968  31.240  1.00  0.00     0.010 A 
ATOM     76  C   UNL A   1      38.472  30.512  29.442  1.00  0.00     0.020 A 
ATOM     77  C   UNL A   1      39.290  30.342  31.723  1.00  0.00     0.020 A 
ATOM     78  C   UNL A   1      38.265  30.626  30.820  1.00  0.00     0.054 A 
BRANCH  78  79
ATOM     79  S   UNL A   1      36.626  31.127  31.414  1.00  0.00     0.124 S 
ATOM     80  O   UNL A   1      36.943  32.304  32.217  1.00  0.00    -0.237 OA
ATOM     81  O   UNL A   1      35.904  31.389  30.171  1.00  0.00    -0.237 OA
ATOM     82  O   UNL A   1      36.160  29.966  32.169  1.00  0.00    -0.744 OA
ENDBRANCH  78  79
ENDBRANCH  59  73
BRANCH  60  83
ATOM     83  C   UNL A   1      49.597  26.673  26.306  1.00  0.00    -0.014 A 
ATOM     84  C   UNL A   1      50.513  25.975  27.112  1.00  0.00     0.010 A 
ATOM     85  C   UNL A   1      49.945  26.954  24.971  1.00  0.00     0.010 A 
ATOM     86  C   UNL A   1      51.755  25.581  26.601  1.00  0.00     0.020 A 
ATOM     87  C   UNL A   1      51.171  26.535  24.447  1.00  0.00     0.020 A 
ATOM     88  C   UNL A   1      52.074  25.861  25.269  1.00  0.00     0.054 A 
BRANCH  88  89
ATOM     89  S   UNL A   1      53.671  25.300  24.615  1.00  0.00     0.124 S 
ATOM     90  O   UNL A   1      53.608  25.751  23.229  1.00  0.00    -0.237 OA
ATOM     91  O   UNL A   1      54.624  26.005  25.468  1.00  0.00    -0.237 OA
ATOM     92  O   UNL A   1      53.628  23.852  24.805  1.00  0.00    -0.744 OA
ENDBRANCH  88  89
ENDBRANCH  60  83
BRANCH  72  93
ATOM     93  C   UNL A   1      47.375  32.672  29.119  1.00  0.00    -0.014 A 
ATOM     94  C   UNL A   1      47.832  32.965  30.416  1.00  0.00     0.010 A 
ATOM     95  C   UNL A   1      47.635  33.584  28.079  1.00  0.00     0.010 A 
ATOM     96  C   UNL A   1      48.508  34.161  30.672  1.00  0.00     0.020 A 
ATOM     97  C   UNL A   1      48.339  34.765  28.324  1.00  0.00     0.020 A 
ATOM     98  C   UNL A   1      48.758  35.052  29.624  1.00  0.00     0.054 A 
BRANCH  98  99
ATOM     99  S   UNL A   1      49.676  36.576  29.976  1.00  0.00     0.124 S 
ATOM    100  O   UNL A   1      50.359  36.820  28.709  1.00  0.00    -0.237 OA
ATOM    101  O   UNL A   1      48.611  37.521  30.308  1.00  0.00    -0.237 OA
ATOM    102  O   UNL A   1      50.545  36.209  31.091  1.00  0.00    -0.744 OA
ENDBRANCH  98  99
ENDBRANCH  72  93
ENDBRANCH  46  47
ENDBRANCH  39  41
ENDBRANCH  38  39
ENDBRANCH  37  38
ENDBRANCH  36  37
ENDBRANCH  35  36
ENDBRANCH  34  35
ENDBRANCH  33  34
ENDBRANCH  32  33
ENDBRANCH   1  32
TORSDOF 27
ENDMDL
MODEL 2
REMARK VINA RESULT:      -8.4     10.632     16.120
REMARK SMILES Cc1c(CC(=O)OCCOCCOCCOCCOC(=O)c2ccc(-c3c4nc(c(-c5ccc(S(=O)(=O)[O-])cc5)c5ccc([nH]5)c(-c5ccc(S(=O)(=O)[O-])cc5)c5nc(c(-c6ccc(S(=O)(=O)[O-])cc6)c6ccc3[nH]6)C=C5)C=C4)cc2)c(=O)oc2cc(OCc3c(F)cccc3Cl)ccc12
REMARK SMILES IDX 12 1 11 2 10 3 9 4 8 5 7 6 5 7 6 8 4 9 3 10 1 11 2 12 100 13
REMARK SMILES IDX 82 14 85 15 99 16 83 17 84 18 86 19 98 20 87 21 88 22 89 23
REMARK SMILES IDX 90 24 91 25 96 26 92 27 93 28 95 29 97 30 94 31 13 32 14 33
REMARK SMILES IDX 15 34 16 35 17 36 18 37 19 38 20 39 21 40 22 41 23 42 81 43
REMARK SMILES IDX 24 44 80 45 25 46 26 47 27 48 74 49 28 50 79 51 73 52 75 53
REMARK SMILES IDX 29 54 78 55 72 56 71 57 30 59 60 60 41 61 59 62 42 63 45 64
REMARK SMILES IDX 58 65 76 66 43 67 44 68 57 70 77 71 46 72 31 73 32 74 40 75
REMARK SMILES IDX 33 76 39 77 34 78 35 79 36 80 37 81 38 82 61 83 62 84 70 85
REMARK SMILES IDX 63 86 69 87 64 88 65 89 66 90 67 91 68 92 47 93 48 94 56 95
REMARK SMILES IDX 49 96 55 97 50 98 51 99 52 100 53 101 54 102
REMARK H PARENT 75 58 45 69
REMARK Flexibility Score: inf
ROOT
ATOM      1  C   UNL A   1      49.871  22.027  34.683  1.00  0.00     0.188 C 
ENDROOT
BRANCH   1   2
ATOM      2  C   UNL A   1      49.304  20.754  35.354  1.00  0.00     0.188 C 
BRANCH   2   3
ATOM      3  O   UNL A   1      47.919  20.435  35.272  1.00  0.00    -0.376 OA
BRANCH   3   4
ATOM      4  C   UNL A   1      47.081  20.698  36.387  1.00  0.00     0.202 C 
BRANCH   4   5
ATOM      5  C   UNL A   1      47.626  21.536  37.565  1.00  0.00     0.261 C 
BRANCH   5   6
ATOM      6  O   UNL A   1      48.899  21.132  38.124  1.00  0.00    -0.463 OA
BRANCH   6   7
ATOM      7  C   UNL A   1      48.894  20.722  39.413  1.00  0.00     0.310 C 
ATOM      8  O   UNL A   1      48.851  21.489  40.373  1.00  0.00    -0.252 OA
BRANCH   7   9
ATOM      9  C   UNL A   1      48.897  19.200  39.633  1.00  0.00     0.166 C 
BRANCH   9  10
ATOM     10  C   UNL A   1      47.935  18.475  40.566  1.00  0.00     0.052 A 
ATOM     11  C   UNL A   1      46.074  18.065  38.884  1.00  0.00     0.046 C 
ATOM     12  C   UNL A   1      46.697  18.010  40.256  1.00  0.00    -0.029 A 
ATOM     13  C   UNL A   1      45.879  17.364  41.310  1.00  0.00     0.021 A 
ATOM     14  C   UNL A   1      48.420  18.438  41.977  1.00  0.00     0.340 A 
ATOM     15  C   UNL A   1      46.292  17.465  42.635  1.00  0.00     0.142 A 
ATOM     16  C   UNL A   1      44.715  16.622  41.064  1.00  0.00     0.016 A 
ATOM     17  O   UNL A   1      49.554  18.797  42.270  1.00  0.00    -0.246 OA
ATOM     18  O   UNL A   1      47.505  18.093  42.960  1.00  0.00    -0.422 OA
ATOM     19  C   UNL A   1      45.598  16.872  43.698  1.00  0.00     0.094 A 
ATOM     20  C   UNL A   1      44.055  15.954  42.106  1.00  0.00     0.047 A 
ATOM     21  C   UNL A   1      44.517  16.044  43.420  1.00  0.00     0.123 A 
BRANCH  21  22
ATOM     22  O   UNL A   1      43.935  15.154  44.279  1.00  0.00    -0.489 OA
BRANCH  22  23
ATOM     23  C   UNL A   1      42.731  14.473  43.916  1.00  0.00     0.270 C 
BRANCH  23  24
ATOM     24  C   UNL A   1      42.679  12.961  43.783  1.00  0.00     0.044 A 
ATOM     25  C   UNL A   1      43.127  12.244  44.907  1.00  0.00     0.131 A 
ATOM     26  C   UNL A   1      42.251  12.204  42.685  1.00  0.00     0.050 A 
ATOM     27  F   UNL A   1      43.485  12.915  46.013  1.00  0.00    -0.207 F 
ATOM     28  C   UNL A   1      43.228  10.855  44.923  1.00  0.00     0.040 A 
ATOM     29  C   UNL A   1      42.379  10.806  42.682  1.00  0.00     0.021 A 
ATOM     30  Cl  UNL A   1      41.539  12.885  41.274  1.00  0.00    -0.084 Cl
ATOM     31  C   UNL A   1      42.878  10.132  43.792  1.00  0.00     0.005 A 
ENDBRANCH  23  24
ENDBRANCH  22  23
ENDBRANCH  21  22
ENDBRANCH   9  10
ENDBRANCH   7   9
ENDBRANCH   6   7
ENDBRANCH   5   6
ENDBRANCH   4   5
ENDBRANCH   3   4
ENDBRANCH   2   3
ENDBRANCH   1   2
BRANCH   1  32
ATOM     32  O   UNL A   1      49.750  23.198  35.462  1.00  0.00    -0.377 OA
BRANCH  32  33
ATOM     33  C   UNL A   1      50.849  23.499  36.301  1.00  0.00     0.188 C 
BRANCH  33  34
ATOM     34  C   UNL A   1      50.526  24.151  37.657  1.00  0.00     0.188 C 
BRANCH  34  35
ATOM     35  O   UNL A   1      51.396  25.224  38.004  1.00  0.00    -0.376 OA
BRANCH  35  36
ATOM     36  C   UNL A   1      50.832  26.425  38.504  1.00  0.00     0.202 C 
BRANCH  36  37
ATOM     37  C   UNL A   1      49.365  26.362  38.951  1.00  0.00     0.261 C 
BRANCH  37  38
ATOM     38  O   UNL A   1      48.457  27.172  38.201  1.00  0.00    -0.460 OA
BRANCH  38  39
ATOM     39  C   UNL A   1      47.487  27.821  38.889  1.00  0.00     0.338 C 
ATOM     40  O   UNL A   1      47.521  28.172  40.047  1.00  0.00    -0.246 OA
BRANCH  39  41
ATOM     41  C   UNL A   1      46.457  28.203  37.899  1.00  0.00     0.060 A 
ATOM     42  C   UNL A   1      46.682  29.301  37.064  1.00  0.00     0.016 A 
ATOM     43  C   UNL A   1      45.306  27.427  37.753  1.00  0.00     0.016 A 
ATOM     44  C   UNL A   1      45.755  29.622  36.072  1.00  0.00     0.010 A 
ATOM     45  C   UNL A   1      44.382  27.739  36.756  1.00  0.00     0.010 A 
ATOM     46  C   UNL A   1      44.586  28.862  35.936  1.00  0.00    -0.014 A 
BRANCH  46  47
ATOM     47  C   UNL A   1      43.460  29.396  35.135  1.00  0.00     0.031 A 
ATOM     48  C   UNL A   1      42.581  30.430  35.785  1.00  0.00     0.074 A 
ATOM     49  C   UNL A   1      43.244  29.008  33.865  1.00  0.00     0.049 A 
ATOM     50  N   UNL A   1      41.529  31.043  35.312  1.00  0.00    -0.248 NA
ATOM     51  C   UNL A   1      42.937  30.821  37.161  1.00  0.00     0.031 C 
ATOM     52  C   UNL A   1      44.055  28.048  33.118  1.00  0.00     0.029 A 
ATOM     53  N   UNL A   1      42.267  29.387  32.977  1.00  0.00    -0.354 N 
ATOM     54  C   UNL A   1      41.096  31.880  36.333  1.00  0.00     0.074 A 
ATOM     55  C   UNL A   1      41.968  31.668  37.464  1.00  0.00     0.031 C 
ATOM     56  C   UNL A   1      43.542  27.916  31.881  1.00  0.00     0.029 A 
ATOM     57  C   UNL A   1      42.350  28.754  31.760  1.00  0.00     0.049 A 
ATOM     58  H   UNL A   1      41.572  30.051  33.193  1.00  0.00     0.167 HD
ATOM     59  C   UNL A   1      40.068  32.759  36.327  1.00  0.00     0.031 A 
ATOM     60  C   UNL A   1      41.544  28.835  30.682  1.00  0.00     0.031 A 
ATOM     61  C   UNL A   1      39.197  32.957  35.202  1.00  0.00     0.049 A 
ATOM     62  C   UNL A   1      40.357  29.766  30.723  1.00  0.00     0.074 A 
ATOM     63  C   UNL A   1      38.131  33.828  35.084  1.00  0.00     0.029 A 
ATOM     64  N   UNL A   1      39.289  32.266  34.003  1.00  0.00    -0.354 N 
ATOM     65  N   UNL A   1      39.974  30.573  31.686  1.00  0.00    -0.248 NA
ATOM     66  C   UNL A   1      39.501  29.806  29.530  1.00  0.00     0.031 C 
ATOM     67  C   UNL A   1      37.535  33.617  33.837  1.00  0.00     0.029 A 
ATOM     68  C   UNL A   1      38.279  32.669  33.149  1.00  0.00     0.049 A 
ATOM     69  H   UNL A   1      39.972  31.590  33.791  1.00  0.00     0.167 HD
ATOM     70  C   UNL A   1      38.851  31.237  31.203  1.00  0.00     0.074 A 
ATOM     71  C   UNL A   1      38.626  30.749  29.857  1.00  0.00     0.031 C 
ATOM     72  C   UNL A   1      38.075  32.169  31.812  1.00  0.00     0.031 A 
BRANCH  59  73
ATOM     73  C   UNL A   1      39.815  33.538  37.590  1.00  0.00    -0.014 A 
ATOM     74  C   UNL A   1      38.916  33.076  38.570  1.00  0.00     0.010 A 
ATOM     75  C   UNL A   1      40.501  34.747  37.807  1.00  0.00     0.010 A 
ATOM     76  C   UNL A   1      38.679  33.827  39.723  1.00  0.00     0.020 A 
ATOM     77  C   UNL A   1      40.292  35.484  38.975  1.00  0.00     0.020 A 
ATOM     78  C   UNL A   1      39.370  35.027  39.918  1.00  0.00     0.054 A 
BRANCH  78  79
ATOM     79  S   UNL A   1      39.065  35.967  41.439  1.00  0.00     0.124 S 
ATOM     80  O   UNL A   1      40.246  35.646  42.235  1.00  0.00    -0.237 OA
ATOM     81  O   UNL A   1      38.992  37.343  40.952  1.00  0.00    -0.237 OA
ATOM     82  O   UNL A   1      37.808  35.419  41.940  1.00  0.00    -0.744 OA
ENDBRANCH  78  79
ENDBRANCH  59  73
BRANCH  60  83
ATOM     83  C   UNL A   1      41.818  28.002  29.475  1.00  0.00    -0.014 A 
ATOM     84  C   UNL A   1      41.196  26.753  29.301  1.00  0.00     0.010 A 
ATOM     85  C   UNL A   1      42.719  28.454  28.492  1.00  0.00     0.010 A 
ATOM     86  C   UNL A   1      41.481  25.966  28.179  1.00  0.00     0.020 A 
ATOM     87  C   UNL A   1      42.984  27.685  27.355  1.00  0.00     0.020 A 
ATOM     88  C   UNL A   1      42.372  26.440  27.212  1.00  0.00     0.054 A 
BRANCH  88  89
ATOM     89  S   UNL A   1      42.691  25.422  25.743  1.00  0.00     0.124 S 
ATOM     90  O   UNL A   1      41.880  24.239  26.012  1.00  0.00    -0.237 OA
ATOM     91  O   UNL A   1      42.221  26.280  24.659  1.00  0.00    -0.237 OA
ATOM     92  O   UNL A   1      44.136  25.212  25.780  1.00  0.00    -0.744 OA
ENDBRANCH  88  89
ENDBRANCH  60  83
BRANCH  72  93
ATOM     93  C   UNL A   1      36.934  32.755  31.022  1.00  0.00    -0.014 A 
ATOM     94  C   UNL A   1      35.613  32.308  31.198  1.00  0.00     0.010 A 
ATOM     95  C   UNL A   1      37.184  33.822  30.138  1.00  0.00     0.010 A 
ATOM     96  C   UNL A   1      34.568  32.896  30.479  1.00  0.00     0.020 A 
ATOM     97  C   UNL A   1      36.138  34.434  29.444  1.00  0.00     0.020 A 
ATOM     98  C   UNL A   1      34.838  33.956  29.609  1.00  0.00     0.054 A 
BRANCH  98  99
ATOM     99  S   UNL A   1      33.457  34.730  28.723  1.00  0.00     0.124 S 
ATOM    100  O   UNL A   1      33.065  33.677  27.791  1.00  0.00    -0.237 OA
ATOM    101  O   UNL A   1      32.504  35.005  29.796  1.00  0.00    -0.237 OA
ATOM    102  O   UNL A   1      34.056  35.913  28.111  1.00  0.00    -0.744 OA
ENDBRANCH  98  99
ENDBRANCH  72  93
ENDBRANCH  46  47
ENDBRANCH  39  41
ENDBRANCH  38  39
ENDBRANCH  37  38
ENDBRANCH  36  37
ENDBRANCH  35  36
ENDBRANCH  34  35
ENDBRANCH  33  34
ENDBRANCH  32  33
ENDBRANCH   1  32
TORSDOF 27
ENDMDL
MODEL 3
REMARK VINA RESULT:      -8.2      3.769      9.543
REMARK SMILES Cc1c(CC(=O)OCCOCCOCCOCCOC(=O)c2ccc(-c3c4nc(c(-c5ccc(S(=O)(=O)[O-])cc5)c5ccc([nH]5)c(-c5ccc(S(=O)(=O)[O-])cc5)c5nc(c(-c6ccc(S(=O)(=O)[O-])cc6)c6ccc3[nH]6)C=C5)C=C4)cc2)c(=O)oc2cc(OCc3c(F)cccc3Cl)ccc12
REMARK SMILES IDX 12 1 11 2 10 3 9 4 8 5 7 6 5 7 6 8 4 9 3 10 1 11 2 12 100 13
REMARK SMILES IDX 82 14 85 15 99 16 83 17 84 18 86 19 98 20 87 21 88 22 89 23
REMARK SMILES IDX 90 24 91 25 96 26 92 27 93 28 95 29 97 30 94 31 13 32 14 33
REMARK SMILES IDX 15 34 16 35 17 36 18 37 19 38 20 39 21 40 22 41 23 42 81 43
REMARK SMILES IDX 24 44 80 45 25 46 26 47 27 48 74 49 28 50 79 51 73 52 75 53
REMARK SMILES IDX 29 54 78 55 72 56 71 57 30 59 60 60 41 61 59 62 42 63 45 64
REMARK SMILES IDX 58 65 76 66 43 67 44 68 57 70 77 71 46 72 31 73 32 74 40 75
REMARK SMILES IDX 33 76 39 77 34 78 35 79 36 80 37 81 38 82 61 83 62 84 70 85
REMARK SMILES IDX 63 86 69 87 64 88 65 89 66 90 67 91 68 92 47 93 48 94 56 95
REMARK SMILES IDX 49 96 55 97 50 98 51 99 52 100 53 101 54 102
REMARK H PARENT 75 58 45 69
REMARK Flexibility Score: inf
ROOT
ATOM      1  C   UNL A   1      34.090  36.662  28.459  1.00  0.00     0.188 C 
ENDROOT
BRANCH   1   2
ATOM      2  C   UNL A   1      33.882  35.138  28.293  1.00  0.00     0.188 C 
BRANCH   2   3
ATOM      3  O   UNL A   1      34.971  34.230  28.420  1.00  0.00    -0.376 OA
BRANCH   3   4
ATOM      4  C   UNL A   1      34.874  32.946  27.822  1.00  0.00     0.202 C 
BRANCH   4   5
ATOM      5  C   UNL A   1      33.811  31.949  28.333  1.00  0.00     0.261 C 
BRANCH   5   6
ATOM      6  O   UNL A   1      33.797  30.635  27.725  1.00  0.00    -0.463 OA
BRANCH   6   7
ATOM      7  C   UNL A   1      32.806  30.387  26.838  1.00  0.00     0.310 C 
ATOM      8  O   UNL A   1      31.639  30.732  27.004  1.00  0.00    -0.252 OA
BRANCH   7   9
ATOM      9  C   UNL A   1      33.229  29.669  25.545  1.00  0.00     0.166 C 
BRANCH   9  10
ATOM     10  C   UNL A   1      32.829  28.239  25.198  1.00  0.00     0.052 A 
ATOM     11  C   UNL A   1      30.698  28.780  23.923  1.00  0.00     0.046 C 
ATOM     12  C   UNL A   1      31.718  27.845  24.524  1.00  0.00    -0.029 A 
ATOM     13  C   UNL A   1      31.469  26.400  24.316  1.00  0.00     0.021 A 
ATOM     14  C   UNL A   1      33.730  27.224  25.819  1.00  0.00     0.340 A 
ATOM     15  C   UNL A   1      32.242  25.479  25.016  1.00  0.00     0.142 A 
ATOM     16  C   UNL A   1      30.515  25.881  23.428  1.00  0.00     0.016 A 
ATOM     17  O   UNL A   1      34.769  27.553  26.381  1.00  0.00    -0.246 OA
ATOM     18  O   UNL A   1      33.294  25.909  25.840  1.00  0.00    -0.422 OA
ATOM     19  C   UNL A   1      32.096  24.092  24.871  1.00  0.00     0.094 A 
ATOM     20  C   UNL A   1      30.413  24.500  23.210  1.00  0.00     0.047 A 
ATOM     21  C   UNL A   1      31.230  23.603  23.901  1.00  0.00     0.123 A 
BRANCH  21  22
ATOM     22  O   UNL A   1      31.197  22.326  23.412  1.00  0.00    -0.489 OA
BRANCH  22  23
ATOM     23  C   UNL A   1      32.400  21.563  23.291  1.00  0.00     0.270 C 
BRANCH  23  24
ATOM     24  C   UNL A   1      32.511  20.156  23.852  1.00  0.00     0.044 A 
ATOM     25  C   UNL A   1      32.626  20.074  25.252  1.00  0.00     0.131 A 
ATOM     26  C   UNL A   1      32.520  18.943  23.150  1.00  0.00     0.050 A 
ATOM     27  F   UNL A   1      32.555  21.198  25.982  1.00  0.00    -0.207 F 
ATOM     28  C   UNL A   1      32.823  18.869  25.923  1.00  0.00     0.040 A 
ATOM     29  C   UNL A   1      32.749  17.729  23.815  1.00  0.00     0.021 A 
ATOM     30  Cl  UNL A   1      32.251  18.819  21.455  1.00  0.00    -0.084 Cl
ATOM     31  C   UNL A   1      32.913  17.691  25.196  1.00  0.00     0.005 A 
ENDBRANCH  23  24
ENDBRANCH  22  23
ENDBRANCH  21  22
ENDBRANCH   9  10
ENDBRANCH   7   9
ENDBRANCH   6   7
ENDBRANCH   5   6
ENDBRANCH   4   5
ENDBRANCH   3   4
ENDBRANCH   2   3
ENDBRANCH   1   2
BRANCH   1  32
ATOM     32  O   UNL A   1      33.162  37.286  29.320  1.00  0.00    -0.377 OA
BRANCH  32  33
ATOM     33  C   UNL A   1      33.520  37.326  30.689  1.00  0.00     0.188 C 
BRANCH  33  34
ATOM     34  C   UNL A   1      32.762  36.374  31.630  1.00  0.00     0.188 C 
BRANCH  34  35
ATOM     35  O   UNL A   1      33.608  35.511  32.383  1.00  0.00    -0.376 OA
BRANCH  35  36
ATOM     36  C   UNL A   1      34.064  34.309  31.784  1.00  0.00     0.202 C 
BRANCH  36  37
ATOM     37  C   UNL A   1      35.578  34.056  31.818  1.00  0.00     0.261 C 
BRANCH  37  38
ATOM     38  O   UNL A   1      35.989  32.732  31.469  1.00  0.00    -0.460 OA
BRANCH  38  39
ATOM     39  C   UNL A   1      36.826  32.094  32.321  1.00  0.00     0.338 C 
ATOM     40  O   UNL A   1      36.523  31.454  33.303  1.00  0.00    -0.246 OA
BRANCH  39  41
ATOM     41  C   UNL A   1      38.172  32.157  31.711  1.00  0.00     0.060 A 
ATOM     42  C   UNL A   1      39.283  31.761  32.462  1.00  0.00     0.016 A 
ATOM     43  C   UNL A   1      38.318  32.537  30.377  1.00  0.00     0.016 A 
ATOM     44  C   UNL A   1      40.547  31.739  31.872  1.00  0.00     0.010 A 
ATOM     45  C   UNL A   1      39.579  32.506  29.781  1.00  0.00     0.010 A 
ATOM     46  C   UNL A   1      40.704  32.142  30.540  1.00  0.00    -0.014 A 
BRANCH  46  47
ATOM     47  C   UNL A   1      42.060  32.446  30.027  1.00  0.00     0.031 A 
ATOM     48  C   UNL A   1      42.841  31.309  29.425  1.00  0.00     0.074 A 
ATOM     49  C   UNL A   1      42.570  33.691  30.058  1.00  0.00     0.049 A 
ATOM     50  N   UNL A   1      44.046  31.303  28.921  1.00  0.00    -0.248 NA
ATOM     51  C   UNL A   1      42.169  29.997  29.394  1.00  0.00     0.031 C 
ATOM     52  C   UNL A   1      41.890  34.877  30.575  1.00  0.00     0.029 A 
ATOM     53  N   UNL A   1      43.790  34.159  29.635  1.00  0.00    -0.354 N 
ATOM     54  C   UNL A   1      44.276  29.990  28.524  1.00  0.00     0.074 A 
ATOM     55  C   UNL A   1      43.109  29.220  28.883  1.00  0.00     0.031 C 
ATOM     56  C   UNL A   1      42.703  35.940  30.436  1.00  0.00     0.029 A 
ATOM     57  C   UNL A   1      43.971  35.504  29.852  1.00  0.00     0.049 A 
ATOM     58  H   UNL A   1      44.470  33.585  29.215  1.00  0.00     0.167 HD
ATOM     59  C   UNL A   1      45.361  29.473  27.903  1.00  0.00     0.031 A 
ATOM     60  C   UNL A   1      45.045  36.286  29.618  1.00  0.00     0.031 A 
ATOM     61  C   UNL A   1      46.523  30.243  27.559  1.00  0.00     0.049 A 
ATOM     62  C   UNL A   1      46.274  35.671  28.994  1.00  0.00     0.074 A 
ATOM     63  C   UNL A   1      47.674  29.822  26.921  1.00  0.00     0.029 A 
ATOM     64  N   UNL A   1      46.684  31.593  27.833  1.00  0.00    -0.354 N 
ATOM     65  N   UNL A   1      46.470  34.434  28.599  1.00  0.00    -0.248 NA
ATOM     66  C   UNL A   1      47.424  36.560  28.775  1.00  0.00     0.031 C 
ATOM     67  C   UNL A   1      48.560  30.902  26.868  1.00  0.00     0.029 A 
ATOM     68  C   UNL A   1      47.929  32.015  27.405  1.00  0.00     0.049 A 
ATOM     69  H   UNL A   1      46.012  32.166  28.269  1.00  0.00     0.167 HD
ATOM     70  C   UNL A   1      47.751  34.404  28.058  1.00  0.00     0.074 A 
ATOM     71  C   UNL A   1      48.278  35.750  28.163  1.00  0.00     0.031 C 
ATOM     72  C   UNL A   1      48.432  33.362  27.520  1.00  0.00     0.031 A 
BRANCH  59  73
ATOM     73  C   UNL A   1      45.346  27.999  27.597  1.00  0.00    -0.014 A 
ATOM     74  C   UNL A   1      45.724  27.046  28.561  1.00  0.00     0.010 A 
ATOM     75  C   UNL A   1      44.932  27.560  26.326  1.00  0.00     0.010 A 
ATOM     76  C   UNL A   1      45.725  25.685  28.246  1.00  0.00     0.020 A 
ATOM     77  C   UNL A   1      44.900  26.198  26.019  1.00  0.00     0.020 A 
ATOM     78  C   UNL A   1      45.312  25.270  26.977  1.00  0.00     0.054 A 
BRANCH  78  79
ATOM     79  S   UNL A   1      45.296  23.495  26.606  1.00  0.00     0.124 S 
ATOM     80  O   UNL A   1      46.702  23.236  26.309  1.00  0.00    -0.237 OA
ATOM     81  O   UNL A   1      44.800  22.915  27.852  1.00  0.00    -0.237 OA
ATOM     82  O   UNL A   1      44.388  23.386  25.467  1.00  0.00    -0.744 OA
ENDBRANCH  78  79
ENDBRANCH  59  73
BRANCH  60  83
ATOM     83  C   UNL A   1      45.019  37.730  29.987  1.00  0.00    -0.014 A 
ATOM     84  C   UNL A   1      45.435  38.160  31.259  1.00  0.00     0.010 A 
ATOM     85  C   UNL A   1      44.560  38.689  29.063  1.00  0.00     0.010 A 
ATOM     86  C   UNL A   1      45.379  39.515  31.606  1.00  0.00     0.020 A 
ATOM     87  C   UNL A   1      44.531  40.047  29.395  1.00  0.00     0.020 A 
ATOM     88  C   UNL A   1      44.930  40.450  30.669  1.00  0.00     0.054 A 
BRANCH  88  89
ATOM     89  S   UNL A   1      44.910  42.206  31.126  1.00  0.00     0.124 S 
ATOM     90  O   UNL A   1      46.333  42.506  31.246  1.00  0.00    -0.237 OA
ATOM     91  O   UNL A   1      44.226  42.818  29.990  1.00  0.00    -0.237 OA
ATOM     92  O   UNL A   1      44.159  42.225  32.380  1.00  0.00    -0.744 OA
ENDBRANCH  88  89
ENDBRANCH  60  83
BRANCH  72  93
ATOM     93  C   UNL A   1      49.806  33.635  26.964  1.00  0.00    -0.014 A 
ATOM     94  C   UNL A   1      50.966  33.382  27.717  1.00  0.00     0.010 A 
ATOM     95  C   UNL A   1      49.936  34.088  25.637  1.00  0.00     0.010 A 
ATOM     96  C   UNL A   1      52.229  33.609  27.163  1.00  0.00     0.020 A 
ATOM     97  C   UNL A   1      51.196  34.284  25.070  1.00  0.00     0.020 A 
ATOM     98  C   UNL A   1      52.335  34.056  25.843  1.00  0.00     0.054 A 
BRANCH  98  99
ATOM     99  S   UNL A   1      53.988  34.299  25.135  1.00  0.00     0.124 S 
ATOM    100  O   UNL A   1      54.841  34.216  26.317  1.00  0.00    -0.237 OA
ATOM    101  O   UNL A   1      54.102  33.182  24.199  1.00  0.00    -0.237 OA
ATOM    102  O   UNL A   1      53.910  35.618  24.514  1.00  0.00    -0.744 OA
ENDBRANCH  98  99
ENDBRANCH  72  93
ENDBRANCH  46  47
ENDBRANCH  39  41
ENDBRANCH  38  39
ENDBRANCH  37  38
ENDBRANCH  36  37
ENDBRANCH  35  36
ENDBRANCH  34  35
ENDBRANCH  33  34
ENDBRANCH  32  33
ENDBRANCH   1  32
TORSDOF 27
ENDMDL
