MODEL 1
REMARK VINA RESULT:      -7.7      0.000      0.000
REMARK SMILES CC(C)(C)OC(=O)N[C@H](Cc1ccc(N=[N+]=[N-])cc1)C(=O)OCCOCCOCCOCCOC(=O)c1ccc(-c2c3nc(c(-c4ccc(S(=O)(=O)[O-])cc4)c4ccc([nH]4)c(-c4ccc(S(=O)(=O)[O-])cc4)c4nc(c(-c5ccc(S(=O)(=O)[O-])cc5)c5ccc2[nH]5)C=C4)C=C3)cc1
REMARK SMILES IDX 28 1 27 2 26 3 25 4 24 5 23 6 22 7 20 8 21 9 9 10 8 11 6 12
REMARK SMILES IDX 7 13 5 15 2 16 1 17 3 18 4 19 10 20 11 21 12 22 19 23 13 24
REMARK SMILES IDX 18 25 14 26 15 27 16 28 17 29 29 30 30 31 31 32 32 33 33 34
REMARK SMILES IDX 34 35 35 36 36 37 37 38 38 39 96 40 39 41 95 42 40 43 41 44
REMARK SMILES IDX 42 45 89 46 43 47 94 48 88 49 90 50 44 51 93 52 87 53 86 54
REMARK SMILES IDX 45 56 75 57 56 58 74 59 57 60 60 61 73 62 91 63 58 64 59 65
REMARK SMILES IDX 72 67 92 68 61 69 46 70 47 71 55 72 48 73 54 74 49 75 50 76
REMARK SMILES IDX 51 77 52 78 53 79 76 80 77 81 85 82 78 83 84 84 79 85 80 86
REMARK SMILES IDX 81 87 82 88 83 89 62 90 63 91 71 92 64 93 70 94 65 95 66 96
REMARK SMILES IDX 67 97 68 98 69 99
REMARK H PARENT 8 14 90 55 60 66
REMARK Flexibility Score: inf
ROOT
ATOM      1  O   UNL A   1      34.328  32.778  29.345  1.00  0.00    -0.377 OA
ENDROOT
BRANCH   1   2
ATOM      2  C   UNL A   1      35.040  32.254  28.246  1.00  0.00     0.188 C 
BRANCH   2   3
ATOM      3  C   UNL A   1      34.294  31.255  27.355  1.00  0.00     0.188 C 
BRANCH   3   4
ATOM      4  O   UNL A   1      32.878  31.247  27.299  1.00  0.00    -0.376 OA
BRANCH   4   5
ATOM      5  C   UNL A   1      32.183  30.096  26.839  1.00  0.00     0.202 C 
BRANCH   5   6
ATOM      6  C   UNL A   1      32.832  29.139  25.817  1.00  0.00     0.261 C 
BRANCH   6   7
ATOM      7  O   UNL A   1      32.043  28.005  25.373  1.00  0.00    -0.462 OA
BRANCH   7   8
ATOM      8  C   UNL A   1      32.453  27.394  24.239  1.00  0.00     0.329 C 
ATOM      9  O   UNL A   1      33.323  27.856  23.498  1.00  0.00    -0.250 OA
BRANCH   8  10
ATOM     10  C   UNL A   1      31.687  26.107  23.831  1.00  0.00     0.199 C 
BRANCH  10  11
ATOM     11  N   UNL A   1      32.411  25.647  22.648  1.00  0.00    -0.308 N 
ATOM     12  C   UNL A   1      33.165  24.513  22.581  1.00  0.00     0.408 C 
ATOM     13  O   UNL A   1      33.592  24.112  21.509  1.00  0.00    -0.225 OA
ATOM     14  H   UNL A   1      32.349  26.198  21.836  1.00  0.00     0.168 HD
BRANCH  12  15
ATOM     15  O   UNL A   1      33.384  23.958  23.796  1.00  0.00    -0.444 OA
BRANCH  15  16
ATOM     16  C   UNL A   1      32.783  22.689  24.155  1.00  0.00     0.106 C 
ATOM     17  C   UNL A   1      31.719  22.413  23.078  1.00  0.00     0.056 C 
ATOM     18  C   UNL A   1      32.069  22.792  25.509  1.00  0.00     0.056 C 
ATOM     19  C   UNL A   1      33.820  21.567  24.116  1.00  0.00     0.056 C 
ENDBRANCH  15  16
ENDBRANCH  12  15
ENDBRANCH  10  11
BRANCH  10  20
ATOM     20  C   UNL A   1      30.140  25.995  23.694  1.00  0.00     0.072 C 
BRANCH  20  21
ATOM     21  C   UNL A   1      29.423  27.305  23.345  1.00  0.00    -0.045 A 
ATOM     22  C   UNL A   1      28.064  27.479  23.638  1.00  0.00     0.004 A 
ATOM     23  C   UNL A   1      30.071  28.339  22.655  1.00  0.00     0.004 A 
ATOM     24  C   UNL A   1      27.401  28.669  23.303  1.00  0.00     0.010 A 
ATOM     25  C   UNL A   1      29.413  29.543  22.349  1.00  0.00     0.010 A 
ATOM     26  C   UNL A   1      28.066  29.728  22.677  1.00  0.00     0.038 A 
BRANCH  26  27
ATOM     27  N   UNL A   1      27.305  30.878  22.377  1.00  0.00    -0.061 NA
ATOM     28  N   UNL A   1      27.915  31.958  22.374  1.00  0.00     0.005 N 
ATOM     29  N   UNL A   1      28.460  32.966  22.364  1.00  0.00    -0.003 NA
ENDBRANCH  26  27
ENDBRANCH  20  21
ENDBRANCH  10  20
ENDBRANCH   8  10
ENDBRANCH   7   8
ENDBRANCH   6   7
ENDBRANCH   5   6
ENDBRANCH   4   5
ENDBRANCH   3   4
ENDBRANCH   2   3
ENDBRANCH   1   2
BRANCH   1  30
ATOM     30  C   UNL A   1      34.619  34.108  29.746  1.00  0.00     0.188 C 
BRANCH  30  31
ATOM     31  C   UNL A   1      34.278  34.502  31.193  1.00  0.00     0.188 C 
BRANCH  31  32
ATOM     32  O   UNL A   1      34.090  33.388  32.052  1.00  0.00    -0.376 OA
BRANCH  32  33
ATOM     33  C   UNL A   1      34.017  33.567  33.456  1.00  0.00     0.202 C 
BRANCH  33  34
ATOM     34  C   UNL A   1      35.261  33.961  34.275  1.00  0.00     0.261 C 
BRANCH  34  35
ATOM     35  O   UNL A   1      36.447  33.174  34.123  1.00  0.00    -0.460 OA
BRANCH  35  36
ATOM     36  C   UNL A   1      37.619  33.720  34.511  1.00  0.00     0.338 C 
ATOM     37  O   UNL A   1      37.764  34.736  35.163  1.00  0.00    -0.246 OA
BRANCH  36  38
ATOM     38  C   UNL A   1      38.695  32.754  34.186  1.00  0.00     0.060 A 
ATOM     39  C   UNL A   1      38.562  31.428  34.619  1.00  0.00     0.016 A 
ATOM     40  C   UNL A   1      39.822  33.148  33.459  1.00  0.00     0.016 A 
ATOM     41  C   UNL A   1      39.575  30.503  34.369  1.00  0.00     0.010 A 
ATOM     42  C   UNL A   1      40.850  32.225  33.233  1.00  0.00     0.010 A 
ATOM     43  C   UNL A   1      40.749  30.911  33.724  1.00  0.00    -0.014 A 
BRANCH  43  44
ATOM     44  C   UNL A   1      41.947  30.037  33.775  1.00  0.00     0.031 A 
ATOM     45  C   UNL A   1      42.798  30.077  35.016  1.00  0.00     0.074 A 
ATOM     46  C   UNL A   1      42.255  29.201  32.768  1.00  0.00     0.049 A 
ATOM     47  N   UNL A   1      43.903  29.433  35.287  1.00  0.00    -0.248 NA
ATOM     48  C   UNL A   1      42.338  30.964  36.099  1.00  0.00     0.031 C 
ATOM     49  C   UNL A   1      41.480  29.029  31.540  1.00  0.00     0.029 A 
ATOM     50  N   UNL A   1      43.313  28.338  32.622  1.00  0.00    -0.354 N 
ATOM     51  C   UNL A   1      44.277  29.847  36.562  1.00  0.00     0.074 A 
ATOM     52  C   UNL A   1      43.299  30.819  36.997  1.00  0.00     0.031 C 
ATOM     53  C   UNL A   1      42.094  28.119  30.762  1.00  0.00     0.029 A 
ATOM     54  C   UNL A   1      43.322  27.675  31.418  1.00  0.00     0.049 A 
ATOM     55  H   UNL A   1      44.000  28.207  33.315  1.00  0.00     0.167 HD
ATOM     56  C   UNL A   1      45.335  29.450  37.306  1.00  0.00     0.031 A 
ATOM     57  C   UNL A   1      44.232  26.825  30.898  1.00  0.00     0.031 A 
ATOM     58  C   UNL A   1      46.313  28.494  36.861  1.00  0.00     0.049 A 
ATOM     59  C   UNL A   1      45.451  26.463  31.710  1.00  0.00     0.074 A 
ATOM     60  C   UNL A   1      47.417  28.015  37.543  1.00  0.00     0.029 A 
ATOM     61  N   UNL A   1      46.312  27.879  35.618  1.00  0.00    -0.354 N 
ATOM     62  N   UNL A   1      45.779  26.843  32.922  1.00  0.00    -0.248 NA
ATOM     63  C   UNL A   1      46.419  25.549  31.084  1.00  0.00     0.031 C 
ATOM     64  C   UNL A   1      48.123  27.166  36.685  1.00  0.00     0.029 A 
ATOM     65  C   UNL A   1      47.415  27.052  35.499  1.00  0.00     0.049 A 
ATOM     66  H   UNL A   1      45.628  28.012  34.923  1.00  0.00     0.167 HD
ATOM     67  C   UNL A   1      46.973  26.189  33.216  1.00  0.00     0.074 A 
ATOM     68  C   UNL A   1      47.300  25.378  32.061  1.00  0.00     0.031 C 
ATOM     69  C   UNL A   1      47.727  26.250  34.343  1.00  0.00     0.031 A 
BRANCH  56  70
ATOM     70  C   UNL A   1      45.512  30.084  38.661  1.00  0.00    -0.014 A 
ATOM     71  C   UNL A   1      46.202  31.300  38.819  1.00  0.00     0.010 A 
ATOM     72  C   UNL A   1      44.947  29.468  39.793  1.00  0.00     0.010 A 
ATOM     73  C   UNL A   1      46.359  31.865  40.088  1.00  0.00     0.020 A 
ATOM     74  C   UNL A   1      45.073  30.047  41.058  1.00  0.00     0.020 A 
ATOM     75  C   UNL A   1      45.793  31.234  41.199  1.00  0.00     0.054 A 
BRANCH  75  76
ATOM     76  S   UNL A   1      45.991  32.005  42.829  1.00  0.00     0.124 S 
ATOM     77  O   UNL A   1      46.523  30.900  43.622  1.00  0.00    -0.237 OA
ATOM     78  O   UNL A   1      46.928  33.091  42.556  1.00  0.00    -0.237 OA
ATOM     79  O   UNL A   1      44.637  32.427  43.181  1.00  0.00    -0.744 OA
ENDBRANCH  75  76
ENDBRANCH  56  70
BRANCH  57  80
ATOM     80  C   UNL A   1      44.039  26.272  29.527  1.00  0.00    -0.014 A 
ATOM     81  C   UNL A   1      43.431  25.018  29.334  1.00  0.00     0.010 A 
ATOM     82  C   UNL A   1      44.476  26.997  28.403  1.00  0.00     0.010 A 
ATOM     83  C   UNL A   1      43.279  24.495  28.046  1.00  0.00     0.020 A 
ATOM     84  C   UNL A   1      44.296  26.493  27.112  1.00  0.00     0.020 A 
ATOM     85  C   UNL A   1      43.707  25.238  26.943  1.00  0.00     0.054 A 
BRANCH  85  86
ATOM     86  S   UNL A   1      43.451  24.562  25.279  1.00  0.00     0.124 S 
ATOM     87  O   UNL A   1      42.820  23.278  25.567  1.00  0.00    -0.237 OA
ATOM     88  O   UNL A   1      42.590  25.568  24.663  1.00  0.00    -0.237 OA
ATOM     89  O   UNL A   1      44.802  24.487  24.729  1.00  0.00    -0.744 OA
ENDBRANCH  85  86
ENDBRANCH  57  80
BRANCH  69  90
ATOM     90  C   UNL A   1      48.963  25.386  34.407  1.00  0.00    -0.014 A 
ATOM     91  C   UNL A   1      48.906  24.051  34.845  1.00  0.00     0.010 A 
ATOM     92  C   UNL A   1      50.191  25.906  33.956  1.00  0.00     0.010 A 
ATOM     93  C   UNL A   1      50.061  23.263  34.861  1.00  0.00     0.020 A 
ATOM     94  C   UNL A   1      51.339  25.112  33.938  1.00  0.00     0.020 A 
ATOM     95  C   UNL A   1      51.270  23.798  34.403  1.00  0.00     0.054 A 
BRANCH  95  96
ATOM     96  S   UNL A   1      52.741  22.738  34.390  1.00  0.00     0.124 S 
ATOM     97  O   UNL A   1      53.382  23.120  33.135  1.00  0.00    -0.237 OA
ATOM     98  O   UNL A   1      53.442  23.150  35.605  1.00  0.00    -0.237 OA
ATOM     99  O   UNL A   1      52.195  21.383  34.422  1.00  0.00    -0.744 OA
ENDBRANCH  95  96
ENDBRANCH  69  90
ENDBRANCH  43  44
ENDBRANCH  36  38
ENDBRANCH  35  36
ENDBRANCH  34  35
ENDBRANCH  33  34
ENDBRANCH  32  33
ENDBRANCH  31  32
ENDBRANCH  30  31
ENDBRANCH   1  30
TORSDOF 29
ENDMDL
MODEL 2
REMARK VINA RESULT:      -7.3      9.037     14.483
REMARK SMILES CC(C)(C)OC(=O)N[C@H](Cc1ccc(N=[N+]=[N-])cc1)C(=O)OCCOCCOCCOCCOC(=O)c1ccc(-c2c3nc(c(-c4ccc(S(=O)(=O)[O-])cc4)c4ccc([nH]4)c(-c4ccc(S(=O)(=O)[O-])cc4)c4nc(c(-c5ccc(S(=O)(=O)[O-])cc5)c5ccc2[nH]5)C=C4)C=C3)cc1
REMARK SMILES IDX 28 1 27 2 26 3 25 4 24 5 23 6 22 7 20 8 21 9 9 10 8 11 6 12
REMARK SMILES IDX 7 13 5 15 2 16 1 17 3 18 4 19 10 20 11 21 12 22 19 23 13 24
REMARK SMILES IDX 18 25 14 26 15 27 16 28 17 29 29 30 30 31 31 32 32 33 33 34
REMARK SMILES IDX 34 35 35 36 36 37 37 38 38 39 96 40 39 41 95 42 40 43 41 44
REMARK SMILES IDX 42 45 89 46 43 47 94 48 88 49 90 50 44 51 93 52 87 53 86 54
REMARK SMILES IDX 45 56 75 57 56 58 74 59 57 60 60 61 73 62 91 63 58 64 59 65
REMARK SMILES IDX 72 67 92 68 61 69 46 70 47 71 55 72 48 73 54 74 49 75 50 76
REMARK SMILES IDX 51 77 52 78 53 79 76 80 77 81 85 82 78 83 84 84 79 85 80 86
REMARK SMILES IDX 81 87 82 88 83 89 62 90 63 91 71 92 64 93 70 94 65 95 66 96
REMARK SMILES IDX 67 97 68 98 69 99
REMARK H PARENT 8 14 90 55 60 66
REMARK Flexibility Score: inf
ROOT
ATOM      1  O   UNL A   1      49.413  43.401  29.976  1.00  0.00    -0.377 OA
ENDROOT
BRANCH   1   2
ATOM      2  C   UNL A   1      48.803  43.119  28.736  1.00  0.00     0.188 C 
BRANCH   2   3
ATOM      3  C   UNL A   1      47.839  44.175  28.185  1.00  0.00     0.188 C 
BRANCH   3   4
ATOM      4  O   UNL A   1      47.679  44.357  26.788  1.00  0.00    -0.376 OA
BRANCH   4   5
ATOM      5  C   UNL A   1      48.067  43.335  25.881  1.00  0.00     0.202 C 
BRANCH   5   6
ATOM      6  C   UNL A   1      47.008  42.552  25.076  1.00  0.00     0.261 C 
BRANCH   6   7
ATOM      7  O   UNL A   1      45.722  43.189  24.872  1.00  0.00    -0.462 OA
BRANCH   7   8
ATOM      8  C   UNL A   1      44.739  42.851  25.738  1.00  0.00     0.329 C 
ATOM      9  O   UNL A   1      44.522  43.460  26.787  1.00  0.00    -0.250 OA
BRANCH   8  10
ATOM     10  C   UNL A   1      43.942  41.560  25.408  1.00  0.00     0.199 C 
BRANCH  10  11
ATOM     11  N   UNL A   1      42.615  42.065  25.061  1.00  0.00    -0.308 N 
ATOM     12  C   UNL A   1      42.142  42.223  23.792  1.00  0.00     0.408 C 
ATOM     13  O   UNL A   1      40.965  42.485  23.595  1.00  0.00    -0.225 OA
ATOM     14  H   UNL A   1      42.016  42.311  25.802  1.00  0.00     0.168 HD
BRANCH  12  15
ATOM     15  O   UNL A   1      43.108  42.090  22.854  1.00  0.00    -0.444 OA
BRANCH  15  16
ATOM     16  C   UNL A   1      43.377  43.152  21.905  1.00  0.00     0.106 C 
ATOM     17  C   UNL A   1      44.729  42.802  21.260  1.00  0.00     0.056 C 
ATOM     18  C   UNL A   1      43.531  44.497  22.627  1.00  0.00     0.056 C 
ATOM     19  C   UNL A   1      42.308  43.186  20.812  1.00  0.00     0.056 C 
ENDBRANCH  15  16
ENDBRANCH  12  15
ENDBRANCH  10  11
BRANCH  10  20
ATOM     20  C   UNL A   1      43.906  40.281  26.296  1.00  0.00     0.072 C 
BRANCH  20  21
ATOM     21  C   UNL A   1      43.444  40.509  27.741  1.00  0.00    -0.045 A 
ATOM     22  C   UNL A   1      44.372  40.763  28.759  1.00  0.00     0.004 A 
ATOM     23  C   UNL A   1      42.097  40.394  28.112  1.00  0.00     0.004 A 
ATOM     24  C   UNL A   1      43.955  40.953  30.085  1.00  0.00     0.010 A 
ATOM     25  C   UNL A   1      41.677  40.617  29.435  1.00  0.00     0.010 A 
ATOM     26  C   UNL A   1      42.604  40.908  30.442  1.00  0.00     0.038 A 
BRANCH  26  27
ATOM     27  N   UNL A   1      42.291  41.105  31.804  1.00  0.00    -0.061 NA
ATOM     28  N   UNL A   1      42.763  40.282  32.603  1.00  0.00     0.005 N 
ATOM     29  N   UNL A   1      43.192  39.535  33.359  1.00  0.00    -0.003 NA
ENDBRANCH  26  27
ENDBRANCH  20  21
ENDBRANCH  10  20
ENDBRANCH   8  10
ENDBRANCH   7   8
ENDBRANCH   6   7
ENDBRANCH   5   6
ENDBRANCH   4   5
ENDBRANCH   3   4
ENDBRANCH   2   3
ENDBRANCH   1   2
BRANCH   1  30
ATOM     30  C   UNL A   1      50.473  42.557  30.397  1.00  0.00     0.188 C 
BRANCH  30  31
ATOM     31  C   UNL A   1      50.115  41.378  31.316  1.00  0.00     0.188 C 
BRANCH  31  32
ATOM     32  O   UNL A   1      49.331  40.382  30.678  1.00  0.00    -0.376 OA
BRANCH  32  33
ATOM     33  C   UNL A   1      48.199  39.830  31.330  1.00  0.00     0.202 C 
BRANCH  33  34
ATOM     34  C   UNL A   1      47.940  38.312  31.331  1.00  0.00     0.261 C 
BRANCH  34  35
ATOM     35  O   UNL A   1      47.416  37.715  30.140  1.00  0.00    -0.460 OA
BRANCH  35  36
ATOM     36  C   UNL A   1      46.244  37.052  30.230  1.00  0.00     0.338 C 
ATOM     37  O   UNL A   1      45.159  37.532  30.501  1.00  0.00    -0.246 OA
BRANCH  36  38
ATOM     38  C   UNL A   1      46.467  35.673  29.737  1.00  0.00     0.060 A 
ATOM     39  C   UNL A   1      46.435  35.440  28.355  1.00  0.00     0.016 A 
ATOM     40  C   UNL A   1      46.711  34.620  30.623  1.00  0.00     0.016 A 
ATOM     41  C   UNL A   1      46.598  34.147  27.858  1.00  0.00     0.010 A 
ATOM     42  C   UNL A   1      46.847  33.319  30.124  1.00  0.00     0.010 A 
ATOM     43  C   UNL A   1      46.749  33.073  28.743  1.00  0.00    -0.014 A 
BRANCH  43  44
ATOM     44  C   UNL A   1      46.567  31.688  28.242  1.00  0.00     0.031 A 
ATOM     45  C   UNL A   1      45.181  31.098  28.282  1.00  0.00     0.074 A 
ATOM     46  C   UNL A   1      47.589  30.982  27.728  1.00  0.00     0.049 A 
ATOM     47  N   UNL A   1      44.775  29.907  27.931  1.00  0.00    -0.248 NA
ATOM     48  C   UNL A   1      44.110  31.975  28.787  1.00  0.00     0.031 C 
ATOM     49  C   UNL A   1      48.962  31.462  27.581  1.00  0.00     0.029 A 
ATOM     50  N   UNL A   1      47.625  29.701  27.235  1.00  0.00    -0.354 N 
ATOM     51  C   UNL A   1      43.407  29.885  28.185  1.00  0.00     0.074 A 
ATOM     52  C   UNL A   1      43.060  31.171  28.749  1.00  0.00     0.031 C 
ATOM     53  C   UNL A   1      49.710  30.483  27.040  1.00  0.00     0.029 A 
ATOM     54  C   UNL A   1      48.878  29.297  26.838  1.00  0.00     0.049 A 
ATOM     55  H   UNL A   1      46.829  29.127  27.171  1.00  0.00     0.167 HD
ATOM     56  C   UNL A   1      42.520  28.888  27.965  1.00  0.00     0.031 A 
ATOM     57  C   UNL A   1      49.306  28.100  26.386  1.00  0.00     0.031 A 
ATOM     58  C   UNL A   1      42.874  27.606  27.418  1.00  0.00     0.049 A 
ATOM     59  C   UNL A   1      48.315  26.974  26.231  1.00  0.00     0.074 A 
ATOM     60  C   UNL A   1      42.048  26.531  27.144  1.00  0.00     0.029 A 
ATOM     61  N   UNL A   1      44.161  27.221  27.071  1.00  0.00    -0.354 N 
ATOM     62  N   UNL A   1      47.021  26.975  26.453  1.00  0.00    -0.248 NA
ATOM     63  C   UNL A   1      48.841  25.686  25.755  1.00  0.00     0.031 C 
ATOM     64  C   UNL A   1      42.845  25.472  26.701  1.00  0.00     0.029 A 
ATOM     65  C   UNL A   1      44.157  25.913  26.619  1.00  0.00     0.049 A 
ATOM     66  H   UNL A   1      44.958  27.794  27.138  1.00  0.00     0.167 HD
ATOM     67  C   UNL A   1      46.576  25.701  26.112  1.00  0.00     0.074 A 
ATOM     68  C   UNL A   1      47.734  24.962  25.655  1.00  0.00     0.031 C 
ATOM     69  C   UNL A   1      45.319  25.190  26.167  1.00  0.00     0.031 A 
BRANCH  56  70
ATOM     70  C   UNL A   1      41.086  29.132  28.357  1.00  0.00    -0.014 A 
ATOM     71  C   UNL A   1      40.723  29.393  29.691  1.00  0.00     0.010 A 
ATOM     72  C   UNL A   1      40.086  29.133  27.366  1.00  0.00     0.010 A 
ATOM     73  C   UNL A   1      39.385  29.609  30.032  1.00  0.00     0.020 A 
ATOM     74  C   UNL A   1      38.752  29.382  27.697  1.00  0.00     0.020 A 
ATOM     75  C   UNL A   1      38.408  29.603  29.031  1.00  0.00     0.054 A 
BRANCH  75  76
ATOM     76  S   UNL A   1      36.684  29.912  29.500  1.00  0.00     0.124 S 
ATOM     77  O   UNL A   1      35.964  29.469  28.309  1.00  0.00    -0.237 OA
ATOM     78  O   UNL A   1      36.519  29.071  30.682  1.00  0.00    -0.237 OA
ATOM     79  O   UNL A   1      36.644  31.351  29.750  1.00  0.00    -0.744 OA
ENDBRANCH  75  76
ENDBRANCH  56  70
BRANCH  57  80
ATOM     80  C   UNL A   1      50.748  27.894  26.069  1.00  0.00    -0.014 A 
ATOM     81  C   UNL A   1      51.233  28.082  24.762  1.00  0.00     0.010 A 
ATOM     82  C   UNL A   1      51.645  27.496  27.077  1.00  0.00     0.010 A 
ATOM     83  C   UNL A   1      52.582  27.860  24.467  1.00  0.00     0.020 A 
ATOM     84  C   UNL A   1      53.000  27.305  26.794  1.00  0.00     0.020 A 
ATOM     85  C   UNL A   1      53.458  27.478  25.487  1.00  0.00     0.054 A 
BRANCH  85  86
ATOM     86  S   UNL A   1      55.213  27.247  25.091  1.00  0.00     0.124 S 
ATOM     87  O   UNL A   1      55.668  26.412  26.198  1.00  0.00    -0.237 OA
ATOM     88  O   UNL A   1      55.154  26.593  23.785  1.00  0.00    -0.237 OA
ATOM     89  O   UNL A   1      55.742  28.609  25.074  1.00  0.00    -0.744 OA
ENDBRANCH  85  86
ENDBRANCH  57  80
BRANCH  69  90
ATOM     90  C   UNL A   1      45.115  23.776  25.683  1.00  0.00    -0.014 A 
ATOM     91  C   UNL A   1      45.656  23.329  24.465  1.00  0.00     0.010 A 
ATOM     92  C   UNL A   1      44.423  22.861  26.500  1.00  0.00     0.010 A 
ATOM     93  C   UNL A   1      45.481  22.003  24.057  1.00  0.00     0.020 A 
ATOM     94  C   UNL A   1      44.276  21.527  26.113  1.00  0.00     0.020 A 
ATOM     95  C   UNL A   1      44.795  21.109  24.887  1.00  0.00     0.054 A 
BRANCH  95  96
ATOM     96  S   UNL A   1      44.624  19.384  24.357  1.00  0.00     0.124 S 
ATOM     97  O   UNL A   1      43.511  18.920  25.179  1.00  0.00    -0.237 OA
ATOM     98  O   UNL A   1      44.340  19.515  22.929  1.00  0.00    -0.237 OA
ATOM     99  O   UNL A   1      45.922  18.792  24.675  1.00  0.00    -0.744 OA
ENDBRANCH  95  96
ENDBRANCH  69  90
ENDBRANCH  43  44
ENDBRANCH  36  38
ENDBRANCH  35  36
ENDBRANCH  34  35
ENDBRANCH  33  34
ENDBRANCH  32  33
ENDBRANCH  31  32
ENDBRANCH  30  31
ENDBRANCH   1  30
TORSDOF 29
ENDMDL
MODEL 3
REMARK VINA RESULT:      -7.2      1.448      3.677
REMARK SMILES CC(C)(C)OC(=O)N[C@H](Cc1ccc(N=[N+]=[N-])cc1)C(=O)OCCOCCOCCOCCOC(=O)c1ccc(-c2c3nc(c(-c4ccc(S(=O)(=O)[O-])cc4)c4ccc([nH]4)c(-c4ccc(S(=O)(=O)[O-])cc4)c4nc(c(-c5ccc(S(=O)(=O)[O-])cc5)c5ccc2[nH]5)C=C4)C=C3)cc1
REMARK SMILES IDX 28 1 27 2 26 3 25 4 24 5 23 6 22 7 20 8 21 9 9 10 8 11 6 12
REMARK SMILES IDX 7 13 5 15 2 16 1 17 3 18 4 19 10 20 11 21 12 22 19 23 13 24
REMARK SMILES IDX 18 25 14 26 15 27 16 28 17 29 29 30 30 31 31 32 32 33 33 34
REMARK SMILES IDX 34 35 35 36 36 37 37 38 38 39 96 40 39 41 95 42 40 43 41 44
REMARK SMILES IDX 42 45 89 46 43 47 94 48 88 49 90 50 44 51 93 52 87 53 86 54
REMARK SMILES IDX 45 56 75 57 56 58 74 59 57 60 60 61 73 62 91 63 58 64 59 65
REMARK SMILES IDX 72 67 92 68 61 69 46 70 47 71 55 72 48 73 54 74 49 75 50 76
REMARK SMILES IDX 51 77 52 78 53 79 76 80 77 81 85 82 78 83 84 84 79 85 80 86
REMARK SMILES IDX 81 87 82 88 83 89 62 90 63 91 71 92 64 93 70 94 65 95 66 96
REMARK SMILES IDX 67 97 68 98 69 99
REMARK H PARENT 8 14 90 55 60 66
REMARK Flexibility Score: inf
ROOT
ATOM      1  O   UNL A   1      34.245  32.671  29.295  1.00  0.00    -0.377 OA
ENDROOT
BRANCH   1   2
ATOM      2  C   UNL A   1      34.931  32.143  28.182  1.00  0.00     0.188 C 
BRANCH   2   3
ATOM      3  C   UNL A   1      34.195  31.081  27.359  1.00  0.00     0.188 C 
BRANCH   3   4
ATOM      4  O   UNL A   1      32.824  30.801  27.591  1.00  0.00    -0.376 OA
BRANCH   4   5
ATOM      5  C   UNL A   1      32.174  29.752  26.887  1.00  0.00     0.202 C 
BRANCH   5   6
ATOM      6  C   UNL A   1      32.783  29.176  25.592  1.00  0.00     0.261 C 
BRANCH   6   7
ATOM      7  O   UNL A   1      31.917  28.377  24.747  1.00  0.00    -0.462 OA
BRANCH   7   8
ATOM      8  C   UNL A   1      32.368  28.114  23.499  1.00  0.00     0.329 C 
ATOM      9  O   UNL A   1      33.344  28.677  23.000  1.00  0.00    -0.250 OA
BRANCH   8  10
ATOM     10  C   UNL A   1      31.520  27.129  22.651  1.00  0.00     0.199 C 
BRANCH  10  11
ATOM     11  N   UNL A   1      30.335  26.909  23.478  1.00  0.00    -0.308 N 
ATOM     12  C   UNL A   1      29.100  27.433  23.236  1.00  0.00     0.408 C 
ATOM     13  O   UNL A   1      28.129  27.060  23.876  1.00  0.00    -0.225 OA
ATOM     14  H   UNL A   1      30.437  26.338  24.272  1.00  0.00     0.168 HD
BRANCH  12  15
ATOM     15  O   UNL A   1      29.115  28.385  22.273  1.00  0.00    -0.444 OA
BRANCH  15  16
ATOM     16  C   UNL A   1      28.601  29.715  22.532  1.00  0.00     0.106 C 
ATOM     17  C   UNL A   1      27.221  29.509  23.182  1.00  0.00     0.056 C 
ATOM     18  C   UNL A   1      28.395  30.481  21.218  1.00  0.00     0.056 C 
ATOM     19  C   UNL A   1      29.499  30.462  23.518  1.00  0.00     0.056 C 
ENDBRANCH  15  16
ENDBRANCH  12  15
ENDBRANCH  10  11
BRANCH  10  20
ATOM     20  C   UNL A   1      32.061  25.829  21.984  1.00  0.00     0.072 C 
BRANCH  20  21
ATOM     21  C   UNL A   1      32.760  24.855  22.939  1.00  0.00    -0.045 A 
ATOM     22  C   UNL A   1      32.392  24.786  24.290  1.00  0.00     0.004 A 
ATOM     23  C   UNL A   1      33.836  24.059  22.524  1.00  0.00     0.004 A 
ATOM     24  C   UNL A   1      33.043  23.909  25.171  1.00  0.00     0.010 A 
ATOM     25  C   UNL A   1      34.465  23.157  23.401  1.00  0.00     0.010 A 
ATOM     26  C   UNL A   1      34.070  23.064  24.740  1.00  0.00     0.038 A 
BRANCH  26  27
ATOM     27  N   UNL A   1      34.663  22.226  25.707  1.00  0.00    -0.061 NA
ATOM     28  N   UNL A   1      34.066  22.125  26.790  1.00  0.00     0.005 N 
ATOM     29  N   UNL A   1      33.530  22.016  27.797  1.00  0.00    -0.003 NA
ENDBRANCH  26  27
ENDBRANCH  20  21
ENDBRANCH  10  20
ENDBRANCH   8  10
ENDBRANCH   7   8
ENDBRANCH   6   7
ENDBRANCH   5   6
ENDBRANCH   4   5
ENDBRANCH   3   4
ENDBRANCH   2   3
ENDBRANCH   1   2
BRANCH   1  30
ATOM     30  C   UNL A   1      34.465  34.035  29.619  1.00  0.00     0.188 C 
BRANCH  30  31
ATOM     31  C   UNL A   1      34.128  34.486  31.050  1.00  0.00     0.188 C 
BRANCH  31  32
ATOM     32  O   UNL A   1      34.140  33.426  31.993  1.00  0.00    -0.376 OA
BRANCH  32  33
ATOM     33  C   UNL A   1      34.119  33.701  33.384  1.00  0.00     0.202 C 
BRANCH  33  34
ATOM     34  C   UNL A   1      35.391  34.150  34.128  1.00  0.00     0.261 C 
BRANCH  34  35
ATOM     35  O   UNL A   1      36.603  33.428  33.890  1.00  0.00    -0.460 OA
BRANCH  35  36
ATOM     36  C   UNL A   1      37.756  33.967  34.340  1.00  0.00     0.338 C 
ATOM     37  O   UNL A   1      37.869  34.959  35.036  1.00  0.00    -0.246 OA
BRANCH  36  38
ATOM     38  C   UNL A   1      38.851  33.022  34.018  1.00  0.00     0.060 A 
ATOM     39  C   UNL A   1      38.745  31.696  34.456  1.00  0.00     0.016 A 
ATOM     40  C   UNL A   1      39.968  33.435  33.286  1.00  0.00     0.016 A 
ATOM     41  C   UNL A   1      39.777  30.791  34.208  1.00  0.00     0.010 A 
ATOM     42  C   UNL A   1      41.015  32.533  33.062  1.00  0.00     0.010 A 
ATOM     43  C   UNL A   1      40.941  31.219  33.559  1.00  0.00    -0.014 A 
BRANCH  43  44
ATOM     44  C   UNL A   1      42.157  30.371  33.611  1.00  0.00     0.031 A 
ATOM     45  C   UNL A   1      43.034  30.468  34.832  1.00  0.00     0.074 A 
ATOM     46  C   UNL A   1      42.460  29.508  32.625  1.00  0.00     0.049 A 
ATOM     47  N   UNL A   1      44.157  29.855  35.098  1.00  0.00    -0.248 NA
ATOM     48  C   UNL A   1      42.580  31.381  35.895  1.00  0.00     0.031 C 
ATOM     49  C   UNL A   1      41.661  29.280  31.422  1.00  0.00     0.029 A 
ATOM     50  N   UNL A   1      43.531  28.661  32.485  1.00  0.00    -0.354 N 
ATOM     51  C   UNL A   1      44.551  30.317  36.350  1.00  0.00     0.074 A 
ATOM     52  C   UNL A   1      43.564  31.285  36.775  1.00  0.00     0.031 C 
ATOM     53  C   UNL A   1      42.276  28.357  30.661  1.00  0.00     0.029 A 
ATOM     54  C   UNL A   1      43.527  27.958  31.303  1.00  0.00     0.049 A 
ATOM     55  H   UNL A   1      44.235  28.565  33.166  1.00  0.00     0.167 HD
ATOM     56  C   UNL A   1      45.632  29.965  37.082  1.00  0.00     0.031 A 
ATOM     57  C   UNL A   1      44.442  27.109  30.790  1.00  0.00     0.031 A 
ATOM     58  C   UNL A   1      46.620  29.014  36.647  1.00  0.00     0.049 A 
ATOM     59  C   UNL A   1      45.685  26.797  31.586  1.00  0.00     0.074 A 
ATOM     60  C   UNL A   1      47.748  28.578  37.320  1.00  0.00     0.029 A 
ATOM     61  N   UNL A   1      46.603  28.358  35.425  1.00  0.00    -0.354 N 
ATOM     62  N   UNL A   1      46.032  27.224  32.777  1.00  0.00    -0.248 NA
ATOM     63  C   UNL A   1      46.657  25.882  30.969  1.00  0.00     0.031 C 
ATOM     64  C   UNL A   1      48.451  27.716  36.474  1.00  0.00     0.029 A 
ATOM     65  C   UNL A   1      47.719  27.548  35.309  1.00  0.00     0.049 A 
ATOM     66  H   UNL A   1      45.902  28.455  34.742  1.00  0.00     0.167 HD
ATOM     67  C   UNL A   1      47.244  26.602  33.066  1.00  0.00     0.074 A 
ATOM     68  C   UNL A   1      47.562  25.760  31.931  1.00  0.00     0.031 C 
ATOM     69  C   UNL A   1      48.022  26.715  34.172  1.00  0.00     0.031 A 
BRANCH  56  70
ATOM     70  C   UNL A   1      45.826  30.647  38.412  1.00  0.00    -0.014 A 
ATOM     71  C   UNL A   1      46.518  31.867  38.518  1.00  0.00     0.010 A 
ATOM     72  C   UNL A   1      45.276  30.072  39.573  1.00  0.00     0.010 A 
ATOM     73  C   UNL A   1      46.692  32.477  39.764  1.00  0.00     0.020 A 
ATOM     74  C   UNL A   1      45.418  30.696  40.814  1.00  0.00     0.020 A 
ATOM     75  C   UNL A   1      46.139  31.887  40.904  1.00  0.00     0.054 A 
BRANCH  75  76
ATOM     76  S   UNL A   1      46.358  32.715  42.503  1.00  0.00     0.124 S 
ATOM     77  O   UNL A   1      47.047  33.943  42.114  1.00  0.00    -0.237 OA
ATOM     78  O   UNL A   1      44.983  32.885  42.964  1.00  0.00    -0.237 OA
ATOM     79  O   UNL A   1      47.161  31.771  43.276  1.00  0.00    -0.744 OA
ENDBRANCH  75  76
ENDBRANCH  56  70
BRANCH  57  80
ATOM     80  C   UNL A   1      44.229  26.507  29.443  1.00  0.00    -0.014 A 
ATOM     81  C   UNL A   1      44.633  27.184  28.279  1.00  0.00     0.010 A 
ATOM     82  C   UNL A   1      43.607  25.251  29.319  1.00  0.00     0.010 A 
ATOM     83  C   UNL A   1      44.405  26.623  27.017  1.00  0.00     0.020 A 
ATOM     84  C   UNL A   1      43.406  24.672  28.063  1.00  0.00     0.020 A 
ATOM     85  C   UNL A   1      43.798  25.369  26.918  1.00  0.00     0.054 A 
BRANCH  85  86
ATOM     86  S   UNL A   1      43.561  24.640  25.274  1.00  0.00     0.124 S 
ATOM     87  O   UNL A   1      43.104  23.293  25.602  1.00  0.00    -0.237 OA
ATOM     88  O   UNL A   1      42.559  25.524  24.683  1.00  0.00    -0.237 OA
ATOM     89  O   UNL A   1      44.888  24.722  24.669  1.00  0.00    -0.744 OA
ENDBRANCH  85  86
ENDBRANCH  57  80
BRANCH  69  90
ATOM     90  C   UNL A   1      49.275  25.877  34.237  1.00  0.00    -0.014 A 
ATOM     91  C   UNL A   1      49.254  24.556  34.718  1.00  0.00     0.010 A 
ATOM     92  C   UNL A   1      50.483  26.405  33.742  1.00  0.00     0.010 A 
ATOM     93  C   UNL A   1      50.425  23.791  34.734  1.00  0.00     0.020 A 
ATOM     94  C   UNL A   1      51.646  25.633  33.724  1.00  0.00     0.020 A 
ATOM     95  C   UNL A   1      51.613  24.334  34.233  1.00  0.00     0.054 A 
BRANCH  95  96
ATOM     96  S   UNL A   1      53.104  23.302  34.221  1.00  0.00     0.124 S 
ATOM     97  O   UNL A   1      52.607  22.041  34.761  1.00  0.00    -0.237 OA
ATOM     98  O   UNL A   1      53.466  23.282  32.805  1.00  0.00    -0.237 OA
ATOM     99  O   UNL A   1      54.035  24.026  35.085  1.00  0.00    -0.744 OA
ENDBRANCH  95  96
ENDBRANCH  69  90
ENDBRANCH  43  44
ENDBRANCH  36  38
ENDBRANCH  35  36
ENDBRANCH  34  35
ENDBRANCH  33  34
ENDBRANCH  32  33
ENDBRANCH  31  32
ENDBRANCH  30  31
ENDBRANCH   1  30
TORSDOF 29
ENDMDL
