MODEL 1
REMARK VINA RESULT:      -7.2      0.000      0.000
REMARK SMILES C#CCN(CC(=O)OCCOCCOCCOCCOC(=O)c1ccc(-c2c3nc(c(-c4ccc(S(=O)(=O)[O-])cc4)c4ccc([nH]4)c(-c4ccc(S(=O)(=O)[O-])cc4)c4nc(c(-c5ccc(S(=O)(=O)[O-])cc5)c5ccc2[nH]5)C=C4)C=C3)cc1)C(=O)[C@@H]1CC(=O)N(C2CC2)C1
REMARK SMILES IDX 13 1 12 2 11 3 10 4 9 5 8 6 6 7 7 8 5 9 4 10 3 11 2 12 1 13
REMARK SMILES IDX 83 14 84 15 85 16 86 17 93 18 87 19 89 20 88 21 90 22 91 23
REMARK SMILES IDX 92 24 14 25 15 26 16 27 17 28 18 29 19 30 20 31 21 32 22 33
REMARK SMILES IDX 23 34 24 35 82 36 25 37 81 38 26 39 27 40 28 41 75 42 29 43
REMARK SMILES IDX 80 44 74 45 76 46 30 47 79 48 73 49 72 50 31 52 61 53 42 54
REMARK SMILES IDX 60 55 43 56 46 57 59 58 77 59 44 60 45 61 58 63 78 64 47 65
REMARK SMILES IDX 32 66 33 67 41 68 34 69 40 70 35 71 36 72 37 73 38 74 39 75
REMARK SMILES IDX 62 76 63 77 71 78 64 79 70 80 65 81 66 82 67 83 68 84 69 85
REMARK SMILES IDX 48 86 49 87 57 88 50 89 56 90 51 91 52 92 53 93 54 94 55 95
REMARK H PARENT 76 51 46 62
REMARK Flexibility Score: inf
ROOT
ATOM      1  C   UNL A   1      43.311  18.578  25.884  1.00  0.00     0.188 C 
ENDROOT
BRANCH   1   2
ATOM      2  C   UNL A   1      44.184  18.893  24.655  1.00  0.00     0.188 C 
BRANCH   2   3
ATOM      3  O   UNL A   1      45.509  19.240  25.007  1.00  0.00    -0.376 OA
BRANCH   3   4
ATOM      4  C   UNL A   1      45.710  20.620  25.255  1.00  0.00     0.202 C 
BRANCH   4   5
ATOM      5  C   UNL A   1      44.939  21.656  24.398  1.00  0.00     0.261 C 
BRANCH   5   6
ATOM      6  O   UNL A   1      44.758  22.988  24.959  1.00  0.00    -0.462 OA
BRANCH   6   7
ATOM      7  C   UNL A   1      45.842  23.731  25.290  1.00  0.00     0.325 C 
ATOM      8  O   UNL A   1      46.598  24.219  24.456  1.00  0.00    -0.250 OA
BRANCH   7   9
ATOM      9  C   UNL A   1      46.064  23.966  26.832  1.00  0.00     0.243 C 
BRANCH   9  10
ATOM     10  N   UNL A   1      47.075  24.831  27.523  1.00  0.00    -0.320 N 
BRANCH  10  11
ATOM     11  C   UNL A   1      46.764  25.115  28.960  1.00  0.00     0.210 C 
BRANCH  11  12
ATOM     12  C   UNL A   1      45.555  26.029  29.073  1.00  0.00    -0.085 C 
ATOM     13  C   UNL A   1      44.517  26.813  29.170  1.00  0.00     0.006 C 
ENDBRANCH  11  12
ENDBRANCH  10  11
BRANCH  10  14
ATOM     14  C   UNL A   1      48.305  25.319  27.040  1.00  0.00     0.229 C 
ATOM     15  O   UNL A   1      49.303  24.582  26.967  1.00  0.00    -0.274 OA
BRANCH  14  16
ATOM     16  C   UNL A   1      48.618  26.775  26.664  1.00  0.00     0.107 C 
ATOM     17  C   UNL A   1      48.087  27.346  25.393  1.00  0.00     0.115 C 
ATOM     18  C   UNL A   1      50.088  27.201  26.638  1.00  0.00     0.133 C 
ATOM     19  C   UNL A   1      49.232  27.208  24.464  1.00  0.00     0.223 C 
ATOM     20  N   UNL A   1      50.369  27.436  25.232  1.00  0.00    -0.339 N 
ATOM     21  O   UNL A   1      49.121  27.096  23.255  1.00  0.00    -0.275 OA
BRANCH  20  22
ATOM     22  C   UNL A   1      51.348  28.400  24.803  1.00  0.00     0.085 C 
ATOM     23  C   UNL A   1      52.634  28.624  25.549  1.00  0.00     0.027 C 
ATOM     24  C   UNL A   1      52.666  27.909  24.229  1.00  0.00     0.027 C 
ENDBRANCH  20  22
ENDBRANCH  14  16
ENDBRANCH  10  14
ENDBRANCH   9  10
ENDBRANCH   7   9
ENDBRANCH   6   7
ENDBRANCH   5   6
ENDBRANCH   4   5
ENDBRANCH   3   4
ENDBRANCH   2   3
ENDBRANCH   1   2
BRANCH   1  25
ATOM     25  O   UNL A   1      41.916  18.469  25.695  1.00  0.00    -0.377 OA
BRANCH  25  26
ATOM     26  C   UNL A   1      41.125  19.542  26.169  1.00  0.00     0.188 C 
BRANCH  26  27
ATOM     27  C   UNL A   1      41.802  20.884  26.536  1.00  0.00     0.188 C 
BRANCH  27  28
ATOM     28  O   UNL A   1      41.079  22.060  26.186  1.00  0.00    -0.376 OA
BRANCH  28  29
ATOM     29  C   UNL A   1      41.747  23.306  26.301  1.00  0.00     0.202 C 
BRANCH  29  30
ATOM     30  C   UNL A   1      40.870  24.543  26.546  1.00  0.00     0.261 C 
BRANCH  30  31
ATOM     31  O   UNL A   1      41.448  25.551  27.382  1.00  0.00    -0.460 OA
BRANCH  31  32
ATOM     32  C   UNL A   1      41.125  26.838  27.124  1.00  0.00     0.338 C 
ATOM     33  O   UNL A   1      40.775  27.308  26.054  1.00  0.00    -0.246 OA
BRANCH  32  34
ATOM     34  C   UNL A   1      41.038  27.518  28.432  1.00  0.00     0.060 A 
ATOM     35  C   UNL A   1      41.722  28.732  28.604  1.00  0.00     0.016 A 
ATOM     36  C   UNL A   1      40.178  27.040  29.423  1.00  0.00     0.016 A 
ATOM     37  C   UNL A   1      41.498  29.497  29.746  1.00  0.00     0.010 A 
ATOM     38  C   UNL A   1      40.008  27.775  30.598  1.00  0.00     0.010 A 
ATOM     39  C   UNL A   1      40.668  29.004  30.762  1.00  0.00    -0.014 A 
BRANCH  39  40
ATOM     40  C   UNL A   1      40.697  29.656  32.089  1.00  0.00     0.031 A 
ATOM     41  C   UNL A   1      39.602  30.640  32.389  1.00  0.00     0.074 A 
ATOM     42  C   UNL A   1      41.640  29.371  33.004  1.00  0.00     0.049 A 
ATOM     43  N   UNL A   1      39.404  31.359  33.460  1.00  0.00    -0.248 NA
ATOM     44  C   UNL A   1      38.590  30.834  31.335  1.00  0.00     0.031 C 
ATOM     45  C   UNL A   1      42.715  28.392  32.842  1.00  0.00     0.029 A 
ATOM     46  N   UNL A   1      41.841  29.890  34.258  1.00  0.00    -0.354 N 
ATOM     47  C   UNL A   1      38.246  32.085  33.212  1.00  0.00     0.074 A 
ATOM     48  C   UNL A   1      37.798  31.741  31.882  1.00  0.00     0.031 C 
ATOM     49  C   UNL A   1      43.472  28.392  33.955  1.00  0.00     0.029 A 
ATOM     50  C   UNL A   1      42.957  29.392  34.890  1.00  0.00     0.049 A 
ATOM     51  H   UNL A   1      41.244  30.556  34.668  1.00  0.00     0.167 HD
ATOM     52  C   UNL A   1      37.612  32.962  34.021  1.00  0.00     0.031 A 
ATOM     53  C   UNL A   1      43.506  29.728  36.075  1.00  0.00     0.031 A 
ATOM     54  C   UNL A   1      38.088  33.332  35.325  1.00  0.00     0.049 A 
ATOM     55  C   UNL A   1      42.838  30.790  36.915  1.00  0.00     0.074 A 
ATOM     56  C   UNL A   1      37.526  34.217  36.225  1.00  0.00     0.029 A 
ATOM     57  N   UNL A   1      39.250  32.846  35.908  1.00  0.00    -0.354 N 
ATOM     58  N   UNL A   1      41.726  31.451  36.683  1.00  0.00    -0.248 NA
ATOM     59  C   UNL A   1      43.494  31.149  38.181  1.00  0.00     0.031 C 
ATOM     60  C   UNL A   1      38.383  34.320  37.324  1.00  0.00     0.029 A 
ATOM     61  C   UNL A   1      39.440  33.441  37.143  1.00  0.00     0.049 A 
ATOM     62  H   UNL A   1      39.850  32.179  35.503  1.00  0.00     0.167 HD
ATOM     63  C   UNL A   1      41.537  32.279  37.786  1.00  0.00     0.074 A 
ATOM     64  C   UNL A   1      42.638  32.023  38.692  1.00  0.00     0.031 C 
ATOM     65  C   UNL A   1      40.545  33.171  38.030  1.00  0.00     0.031 A 
BRANCH  52  66
ATOM     66  C   UNL A   1      36.365  33.614  33.494  1.00  0.00    -0.014 A 
ATOM     67  C   UNL A   1      35.093  33.072  33.751  1.00  0.00     0.010 A 
ATOM     68  C   UNL A   1      36.465  34.807  32.755  1.00  0.00     0.010 A 
ATOM     69  C   UNL A   1      33.946  33.698  33.259  1.00  0.00     0.020 A 
ATOM     70  C   UNL A   1      35.319  35.453  32.286  1.00  0.00     0.020 A 
ATOM     71  C   UNL A   1      34.066  34.888  32.533  1.00  0.00     0.054 A 
BRANCH  71  72
ATOM     72  S   UNL A   1      32.556  35.702  31.948  1.00  0.00     0.124 S 
ATOM     73  O   UNL A   1      32.774  37.083  32.371  1.00  0.00    -0.237 OA
ATOM     74  O   UNL A   1      32.608  35.472  30.508  1.00  0.00    -0.237 OA
ATOM     75  O   UNL A   1      31.486  34.998  32.652  1.00  0.00    -0.744 OA
ENDBRANCH  71  72
ENDBRANCH  52  66
BRANCH  53  76
ATOM     76  C   UNL A   1      44.774  29.089  36.529  1.00  0.00    -0.014 A 
ATOM     77  C   UNL A   1      46.009  29.748  36.387  1.00  0.00     0.010 A 
ATOM     78  C   UNL A   1      44.756  27.795  37.083  1.00  0.00     0.010 A 
ATOM     79  C   UNL A   1      47.199  29.117  36.768  1.00  0.00     0.020 A 
ATOM     80  C   UNL A   1      45.939  27.175  37.495  1.00  0.00     0.020 A 
ATOM     81  C   UNL A   1      47.156  27.835  37.323  1.00  0.00     0.054 A 
BRANCH  81  82
ATOM     82  S   UNL A   1      48.707  27.055  37.849  1.00  0.00     0.124 S 
ATOM     83  O   UNL A   1      48.696  27.299  39.288  1.00  0.00    -0.237 OA
ATOM     84  O   UNL A   1      48.513  25.666  37.441  1.00  0.00    -0.237 OA
ATOM     85  O   UNL A   1      49.727  27.781  37.098  1.00  0.00    -0.744 OA
ENDBRANCH  81  82
ENDBRANCH  53  76
BRANCH  65  86
ATOM     86  C   UNL A   1      40.578  33.913  39.341  1.00  0.00    -0.014 A 
ATOM     87  C   UNL A   1      41.205  35.166  39.458  1.00  0.00     0.010 A 
ATOM     88  C   UNL A   1      39.912  33.375  40.458  1.00  0.00     0.010 A 
ATOM     89  C   UNL A   1      41.195  35.850  40.676  1.00  0.00     0.020 A 
ATOM     90  C   UNL A   1      39.869  34.070  41.668  1.00  0.00     0.020 A 
ATOM     91  C   UNL A   1      40.525  35.298  41.773  1.00  0.00     0.054 A 
BRANCH  91  92
ATOM     92  S   UNL A   1      40.490  36.227  43.330  1.00  0.00     0.124 S 
ATOM     93  O   UNL A   1      39.056  36.393  43.553  1.00  0.00    -0.237 OA
ATOM     94  O   UNL A   1      41.168  35.323  44.256  1.00  0.00    -0.237 OA
ATOM     95  O   UNL A   1      41.218  37.455  43.020  1.00  0.00    -0.744 OA
ENDBRANCH  91  92
ENDBRANCH  65  86
ENDBRANCH  39  40
ENDBRANCH  32  34
ENDBRANCH  31  32
ENDBRANCH  30  31
ENDBRANCH  29  30
ENDBRANCH  28  29
ENDBRANCH  27  28
ENDBRANCH  26  27
ENDBRANCH  25  26
ENDBRANCH   1  25
TORSDOF 29
ENDMDL
MODEL 2
REMARK VINA RESULT:      -6.8      7.313     13.952
REMARK SMILES C#CCN(CC(=O)OCCOCCOCCOCCOC(=O)c1ccc(-c2c3nc(c(-c4ccc(S(=O)(=O)[O-])cc4)c4ccc([nH]4)c(-c4ccc(S(=O)(=O)[O-])cc4)c4nc(c(-c5ccc(S(=O)(=O)[O-])cc5)c5ccc2[nH]5)C=C4)C=C3)cc1)C(=O)[C@@H]1CC(=O)N(C2CC2)C1
REMARK SMILES IDX 13 1 12 2 11 3 10 4 9 5 8 6 6 7 7 8 5 9 4 10 3 11 2 12 1 13
REMARK SMILES IDX 83 14 84 15 85 16 86 17 93 18 87 19 89 20 88 21 90 22 91 23
REMARK SMILES IDX 92 24 14 25 15 26 16 27 17 28 18 29 19 30 20 31 21 32 22 33
REMARK SMILES IDX 23 34 24 35 82 36 25 37 81 38 26 39 27 40 28 41 75 42 29 43
REMARK SMILES IDX 80 44 74 45 76 46 30 47 79 48 73 49 72 50 31 52 61 53 42 54
REMARK SMILES IDX 60 55 43 56 46 57 59 58 77 59 44 60 45 61 58 63 78 64 47 65
REMARK SMILES IDX 32 66 33 67 41 68 34 69 40 70 35 71 36 72 37 73 38 74 39 75
REMARK SMILES IDX 62 76 63 77 71 78 64 79 70 80 65 81 66 82 67 83 68 84 69 85
REMARK SMILES IDX 48 86 49 87 57 88 50 89 56 90 51 91 52 92 53 93 54 94 55 95
REMARK H PARENT 76 51 46 62
REMARK Flexibility Score: inf
ROOT
ATOM      1  C   UNL A   1      39.100  29.309  29.838  1.00  0.00     0.188 C 
ENDROOT
BRANCH   1   2
ATOM      2  C   UNL A   1      40.396  28.479  29.890  1.00  0.00     0.188 C 
BRANCH   2   3
ATOM      3  O   UNL A   1      41.207  28.670  28.748  1.00  0.00    -0.376 OA
BRANCH   3   4
ATOM      4  C   UNL A   1      40.548  28.450  27.513  1.00  0.00     0.202 C 
BRANCH   4   5
ATOM      5  C   UNL A   1      40.939  27.212  26.666  1.00  0.00     0.261 C 
BRANCH   5   6
ATOM      6  O   UNL A   1      40.968  25.921  27.340  1.00  0.00    -0.462 OA
BRANCH   6   7
ATOM      7  C   UNL A   1      39.804  25.298  27.648  1.00  0.00     0.325 C 
ATOM      8  O   UNL A   1      39.272  25.384  28.751  1.00  0.00    -0.250 OA
BRANCH   7   9
ATOM      9  C   UNL A   1      39.143  24.470  26.482  1.00  0.00     0.243 C 
BRANCH   9  10
ATOM     10  N   UNL A   1      39.008  22.985  26.333  1.00  0.00    -0.320 N 
BRANCH  10  11
ATOM     11  C   UNL A   1      40.091  22.197  27.002  1.00  0.00     0.210 C 
BRANCH  11  12
ATOM     12  C   UNL A   1      41.399  22.334  26.238  1.00  0.00    -0.085 C 
ATOM     13  C   UNL A   1      42.520  22.451  25.583  1.00  0.00     0.006 C 
ENDBRANCH  11  12
ENDBRANCH  10  11
BRANCH  10  14
ATOM     14  C   UNL A   1      37.964  22.242  25.747  1.00  0.00     0.229 C 
ATOM     15  O   UNL A   1      38.129  21.057  25.413  1.00  0.00    -0.274 OA
BRANCH  14  16
ATOM     16  C   UNL A   1      36.583  22.782  25.344  1.00  0.00     0.107 C 
ATOM     17  C   UNL A   1      35.550  23.035  26.388  1.00  0.00     0.115 C 
ATOM     18  C   UNL A   1      35.804  22.011  24.276  1.00  0.00     0.133 C 
ATOM     19  C   UNL A   1      34.720  21.811  26.336  1.00  0.00     0.223 C 
ATOM     20  N   UNL A   1      34.677  21.441  24.996  1.00  0.00    -0.339 N 
ATOM     21  O   UNL A   1      34.087  21.374  27.282  1.00  0.00    -0.275 OA
BRANCH  20  22
ATOM     22  C   UNL A   1      33.412  21.194  24.355  1.00  0.00     0.085 C 
ATOM     23  C   UNL A   1      32.589  19.970  24.650  1.00  0.00     0.027 C 
ATOM     24  C   UNL A   1      32.136  21.302  25.173  1.00  0.00     0.027 C 
ENDBRANCH  20  22
ENDBRANCH  14  16
ENDBRANCH  10  14
ENDBRANCH   9  10
ENDBRANCH   7   9
ENDBRANCH   6   7
ENDBRANCH   5   6
ENDBRANCH   4   5
ENDBRANCH   3   4
ENDBRANCH   2   3
ENDBRANCH   1   2
BRANCH   1  25
ATOM     25  O   UNL A   1      39.084  30.555  30.501  1.00  0.00    -0.377 OA
BRANCH  25  26
ATOM     26  C   UNL A   1      38.165  30.696  31.568  1.00  0.00     0.188 C 
BRANCH  26  27
ATOM     27  C   UNL A   1      36.663  30.422  31.319  1.00  0.00     0.188 C 
BRANCH  27  28
ATOM     28  O   UNL A   1      36.046  31.218  30.311  1.00  0.00    -0.376 OA
BRANCH  28  29
ATOM     29  C   UNL A   1      35.044  32.137  30.715  1.00  0.00     0.202 C 
BRANCH  29  30
ATOM     30  C   UNL A   1      35.496  33.314  31.592  1.00  0.00     0.261 C 
BRANCH  30  31
ATOM     31  O   UNL A   1      36.600  34.071  31.085  1.00  0.00    -0.460 OA
BRANCH  31  32
ATOM     32  C   UNL A   1      37.474  34.579  31.982  1.00  0.00     0.338 C 
ATOM     33  O   UNL A   1      37.277  34.778  33.169  1.00  0.00    -0.246 OA
BRANCH  32  34
ATOM     34  C   UNL A   1      38.789  34.618  31.310  1.00  0.00     0.060 A 
ATOM     35  C   UNL A   1      39.937  34.335  32.064  1.00  0.00     0.016 A 
ATOM     36  C   UNL A   1      38.871  34.786  29.926  1.00  0.00     0.016 A 
ATOM     37  C   UNL A   1      41.162  34.163  31.424  1.00  0.00     0.010 A 
ATOM     38  C   UNL A   1      40.112  34.682  29.294  1.00  0.00     0.010 A 
ATOM     39  C   UNL A   1      41.260  34.371  30.042  1.00  0.00    -0.014 A 
BRANCH  39  40
ATOM     40  C   UNL A   1      42.600  34.509  29.432  1.00  0.00     0.031 A 
ATOM     41  C   UNL A   1      43.361  33.243  29.164  1.00  0.00     0.074 A 
ATOM     42  C   UNL A   1      43.113  35.708  29.103  1.00  0.00     0.049 A 
ATOM     43  N   UNL A   1      44.554  33.084  28.658  1.00  0.00    -0.248 NA
ATOM     44  C   UNL A   1      42.679  31.983  29.513  1.00  0.00     0.031 C 
ATOM     45  C   UNL A   1      42.440  36.996  29.264  1.00  0.00     0.029 A 
ATOM     46  N   UNL A   1      44.333  36.030  28.564  1.00  0.00    -0.354 N 
ATOM     47  C   UNL A   1      44.763  31.711  28.623  1.00  0.00     0.074 A 
ATOM     48  C   UNL A   1      43.589  31.081  29.181  1.00  0.00     0.031 C 
ATOM     49  C   UNL A   1      43.266  37.973  28.842  1.00  0.00     0.029 A 
ATOM     50  C   UNL A   1      44.534  37.382  28.417  1.00  0.00     0.049 A 
ATOM     51  H   UNL A   1      45.003  35.356  28.306  1.00  0.00     0.167 HD
ATOM     52  C   UNL A   1      45.840  31.034  28.167  1.00  0.00     0.031 A 
ATOM     53  C   UNL A   1      45.627  38.059  28.008  1.00  0.00     0.031 A 
ATOM     54  C   UNL A   1      47.022  31.669  27.654  1.00  0.00     0.049 A 
ATOM     55  C   UNL A   1      46.858  37.283  27.604  1.00  0.00     0.074 A 
ATOM     56  C   UNL A   1      48.174  31.077  27.173  1.00  0.00     0.029 A 
ATOM     57  N   UNL A   1      47.208  33.041  27.571  1.00  0.00    -0.354 N 
ATOM     58  N   UNL A   1      47.035  35.982  27.549  1.00  0.00    -0.248 NA
ATOM     59  C   UNL A   1      48.036  38.065  27.203  1.00  0.00     0.031 C 
ATOM     60  C   UNL A   1      49.084  32.090  26.862  1.00  0.00     0.029 A 
ATOM     61  C   UNL A   1      48.471  33.316  27.078  1.00  0.00     0.049 A 
ATOM     62  H   UNL A   1      46.541  33.719  27.826  1.00  0.00     0.167 HD
ATOM     63  C   UNL A   1      48.332  35.793  27.078  1.00  0.00     0.074 A 
ATOM     64  C   UNL A   1      48.887  37.112  26.848  1.00  0.00     0.031 C 
ATOM     65  C   UNL A   1      49.004  34.637  26.856  1.00  0.00     0.031 A 
BRANCH  52  66
ATOM     66  C   UNL A   1      45.802  29.534  28.251  1.00  0.00    -0.014 A 
ATOM     67  C   UNL A   1      45.195  28.762  27.244  1.00  0.00     0.010 A 
ATOM     68  C   UNL A   1      46.411  28.885  29.340  1.00  0.00     0.010 A 
ATOM     69  C   UNL A   1      45.178  27.368  27.337  1.00  0.00     0.020 A 
ATOM     70  C   UNL A   1      46.421  27.490  29.422  1.00  0.00     0.020 A 
ATOM     71  C   UNL A   1      45.796  26.742  28.424  1.00  0.00     0.054 A 
BRANCH  71  72
ATOM     72  S   UNL A   1      45.798  24.930  28.492  1.00  0.00     0.124 S 
ATOM     73  O   UNL A   1      47.116  24.608  27.952  1.00  0.00    -0.237 OA
ATOM     74  O   UNL A   1      45.622  24.665  29.917  1.00  0.00    -0.237 OA
ATOM     75  O   UNL A   1      44.669  24.549  27.646  1.00  0.00    -0.744 OA
ENDBRANCH  71  72
ENDBRANCH  52  66
BRANCH  53  76
ATOM     76  C   UNL A   1      45.632  39.549  27.993  1.00  0.00    -0.014 A 
ATOM     77  C   UNL A   1      45.397  40.263  26.804  1.00  0.00     0.010 A 
ATOM     78  C   UNL A   1      45.903  40.268  29.173  1.00  0.00     0.010 A 
ATOM     79  C   UNL A   1      45.455  41.661  26.791  1.00  0.00     0.020 A 
ATOM     80  C   UNL A   1      45.930  41.666  29.171  1.00  0.00     0.020 A 
ATOM     81  C   UNL A   1      45.719  42.354  27.976  1.00  0.00     0.054 A 
BRANCH  81  82
ATOM     82  S   UNL A   1      45.748  44.168  27.943  1.00  0.00     0.124 S 
ATOM     83  O   UNL A   1      47.154  44.454  28.206  1.00  0.00    -0.237 OA
ATOM     84  O   UNL A   1      45.283  44.464  26.590  1.00  0.00    -0.237 OA
ATOM     85  O   UNL A   1      44.822  44.544  29.008  1.00  0.00    -0.744 OA
ENDBRANCH  81  82
ENDBRANCH  53  76
BRANCH  65  86
ATOM     86  C   UNL A   1      50.403  34.736  26.305  1.00  0.00    -0.014 A 
ATOM     87  C   UNL A   1      51.526  34.745  27.150  1.00  0.00     0.010 A 
ATOM     88  C   UNL A   1      50.597  34.754  24.910  1.00  0.00     0.010 A 
ATOM     89  C   UNL A   1      52.815  34.806  26.614  1.00  0.00     0.020 A 
ATOM     90  C   UNL A   1      51.884  34.779  24.368  1.00  0.00     0.020 A 
ATOM     91  C   UNL A   1      52.985  34.820  25.225  1.00  0.00     0.054 A 
BRANCH  91  92
ATOM     92  S   UNL A   1      54.669  34.855  24.554  1.00  0.00     0.124 S 
ATOM     93  O   UNL A   1      54.681  33.670  23.701  1.00  0.00    -0.237 OA
ATOM     94  O   UNL A   1      54.706  36.135  23.852  1.00  0.00    -0.237 OA
ATOM     95  O   UNL A   1      55.518  34.775  25.740  1.00  0.00    -0.744 OA
ENDBRANCH  91  92
ENDBRANCH  65  86
ENDBRANCH  39  40
ENDBRANCH  32  34
ENDBRANCH  31  32
ENDBRANCH  30  31
ENDBRANCH  29  30
ENDBRANCH  28  29
ENDBRANCH  27  28
ENDBRANCH  26  27
ENDBRANCH  25  26
ENDBRANCH   1  25
TORSDOF 29
ENDMDL
MODEL 3
REMARK VINA RESULT:      -6.3      5.649      7.324
REMARK SMILES C#CCN(CC(=O)OCCOCCOCCOCCOC(=O)c1ccc(-c2c3nc(c(-c4ccc(S(=O)(=O)[O-])cc4)c4ccc([nH]4)c(-c4ccc(S(=O)(=O)[O-])cc4)c4nc(c(-c5ccc(S(=O)(=O)[O-])cc5)c5ccc2[nH]5)C=C4)C=C3)cc1)C(=O)[C@@H]1CC(=O)N(C2CC2)C1
REMARK SMILES IDX 13 1 12 2 11 3 10 4 9 5 8 6 6 7 7 8 5 9 4 10 3 11 2 12 1 13
REMARK SMILES IDX 83 14 84 15 85 16 86 17 93 18 87 19 89 20 88 21 90 22 91 23
REMARK SMILES IDX 92 24 14 25 15 26 16 27 17 28 18 29 19 30 20 31 21 32 22 33
REMARK SMILES IDX 23 34 24 35 82 36 25 37 81 38 26 39 27 40 28 41 75 42 29 43
REMARK SMILES IDX 80 44 74 45 76 46 30 47 79 48 73 49 72 50 31 52 61 53 42 54
REMARK SMILES IDX 60 55 43 56 46 57 59 58 77 59 44 60 45 61 58 63 78 64 47 65
REMARK SMILES IDX 32 66 33 67 41 68 34 69 40 70 35 71 36 72 37 73 38 74 39 75
REMARK SMILES IDX 62 76 63 77 71 78 64 79 70 80 65 81 66 82 67 83 68 84 69 85
REMARK SMILES IDX 48 86 49 87 57 88 50 89 56 90 51 91 52 92 53 93 54 94 55 95
REMARK H PARENT 76 51 46 62
REMARK Flexibility Score: inf
ROOT
ATOM      1  C   UNL A   1      44.102  18.846  25.409  1.00  0.00     0.188 C 
ENDROOT
BRANCH   1   2
ATOM      2  C   UNL A   1      44.903  19.427  24.230  1.00  0.00     0.188 C 
BRANCH   2   3
ATOM      3  O   UNL A   1      46.010  20.196  24.655  1.00  0.00    -0.376 OA
BRANCH   3   4
ATOM      4  C   UNL A   1      45.699  21.534  25.005  1.00  0.00     0.202 C 
BRANCH   4   5
ATOM      5  C   UNL A   1      44.914  22.409  23.996  1.00  0.00     0.261 C 
BRANCH   5   6
ATOM      6  O   UNL A   1      44.743  23.819  24.322  1.00  0.00    -0.462 OA
BRANCH   6   7
ATOM      7  C   UNL A   1      45.525  24.388  25.271  1.00  0.00     0.325 C 
ATOM      8  O   UNL A   1      45.147  24.581  26.422  1.00  0.00    -0.250 OA
BRANCH   7   9
ATOM      9  C   UNL A   1      46.986  24.765  24.816  1.00  0.00     0.243 C 
BRANCH   9  10
ATOM     10  N   UNL A   1      48.074  25.443  25.592  1.00  0.00    -0.320 N 
BRANCH  10  11
ATOM     11  C   UNL A   1      48.839  26.469  24.815  1.00  0.00     0.210 C 
BRANCH  11  12
ATOM     12  C   UNL A   1      47.888  27.390  24.068  1.00  0.00    -0.085 C 
ATOM     13  C   UNL A   1      47.071  28.179  23.427  1.00  0.00     0.006 C 
ENDBRANCH  11  12
ENDBRANCH  10  11
BRANCH  10  14
ATOM     14  C   UNL A   1      48.402  25.320  26.957  1.00  0.00     0.229 C 
ATOM     15  O   UNL A   1      48.714  24.221  27.445  1.00  0.00    -0.274 OA
BRANCH  14  16
ATOM     16  C   UNL A   1      48.315  26.431  28.014  1.00  0.00     0.107 C 
ATOM     17  C   UNL A   1      47.008  27.091  28.293  1.00  0.00     0.115 C 
ATOM     18  C   UNL A   1      49.271  27.618  27.877  1.00  0.00     0.133 C 
ATOM     19  C   UNL A   1      47.080  28.326  27.480  1.00  0.00     0.223 C 
ATOM     20  N   UNL A   1      48.409  28.736  27.536  1.00  0.00    -0.339 N 
ATOM     21  O   UNL A   1      46.107  28.907  27.032  1.00  0.00    -0.275 OA
BRANCH  20  22
ATOM     22  C   UNL A   1      48.731  30.088  27.912  1.00  0.00     0.085 C 
ATOM     23  C   UNL A   1      50.118  30.497  28.324  1.00  0.00     0.027 C 
ATOM     24  C   UNL A   1      49.593  30.927  26.986  1.00  0.00     0.027 C 
ENDBRANCH  20  22
ENDBRANCH  14  16
ENDBRANCH  10  14
ENDBRANCH   9  10
ENDBRANCH   7   9
ENDBRANCH   6   7
ENDBRANCH   5   6
ENDBRANCH   4   5
ENDBRANCH   3   4
ENDBRANCH   2   3
ENDBRANCH   1   2
BRANCH   1  25
ATOM     25  O   UNL A   1      42.712  19.093  25.453  1.00  0.00    -0.377 OA
BRANCH  25  26
ATOM     26  C   UNL A   1      42.308  20.393  25.837  1.00  0.00     0.188 C 
BRANCH  26  27
ATOM     27  C   UNL A   1      42.430  20.821  27.319  1.00  0.00     0.188 C 
BRANCH  27  28
ATOM     28  O   UNL A   1      42.970  22.119  27.548  1.00  0.00    -0.376 OA
BRANCH  28  29
ATOM     29  C   UNL A   1      42.702  22.738  28.796  1.00  0.00     0.202 C 
BRANCH  29  30
ATOM     30  C   UNL A   1      43.908  23.280  29.575  1.00  0.00     0.261 C 
BRANCH  30  31
ATOM     31  O   UNL A   1      43.880  24.684  29.855  1.00  0.00    -0.460 OA
BRANCH  31  32
ATOM     32  C   UNL A   1      42.975  25.436  29.190  1.00  0.00     0.338 C 
ATOM     33  O   UNL A   1      42.038  25.037  28.519  1.00  0.00    -0.246 OA
BRANCH  32  34
ATOM     34  C   UNL A   1      43.188  26.831  29.627  1.00  0.00     0.060 A 
ATOM     35  C   UNL A   1      42.450  27.850  29.005  1.00  0.00     0.016 A 
ATOM     36  C   UNL A   1      43.994  27.111  30.733  1.00  0.00     0.016 A 
ATOM     37  C   UNL A   1      42.475  29.141  29.527  1.00  0.00     0.010 A 
ATOM     38  C   UNL A   1      44.071  28.419  31.213  1.00  0.00     0.010 A 
ATOM     39  C   UNL A   1      43.312  29.437  30.611  1.00  0.00    -0.014 A 
BRANCH  39  40
ATOM     40  C   UNL A   1      43.578  30.853  30.943  1.00  0.00     0.031 A 
ATOM     41  C   UNL A   1      42.765  31.459  32.050  1.00  0.00     0.074 A 
ATOM     42  C   UNL A   1      44.522  31.569  30.306  1.00  0.00     0.049 A 
ATOM     43  N   UNL A   1      42.786  32.674  32.525  1.00  0.00    -0.248 NA
ATOM     44  C   UNL A   1      41.799  30.565  32.716  1.00  0.00     0.031 C 
ATOM     45  C   UNL A   1      45.409  31.069  29.257  1.00  0.00     0.029 A 
ATOM     46  N   UNL A   1      44.885  32.884  30.455  1.00  0.00    -0.354 N 
ATOM     47  C   UNL A   1      41.842  32.691  33.545  1.00  0.00     0.074 A 
ATOM     48  C   UNL A   1      41.249  31.375  33.606  1.00  0.00     0.031 C 
ATOM     49  C   UNL A   1      46.207  32.072  28.847  1.00  0.00     0.029 A 
ATOM     50  C   UNL A   1      45.864  33.291  29.579  1.00  0.00     0.049 A 
ATOM     51  H   UNL A   1      44.483  33.481  31.127  1.00  0.00     0.167 HD
ATOM     52  C   UNL A   1      41.500  33.714  34.359  1.00  0.00     0.031 A 
ATOM     53  C   UNL A   1      46.398  34.513  29.380  1.00  0.00     0.031 A 
ATOM     54  C   UNL A   1      42.063  35.032  34.263  1.00  0.00     0.049 A 
ATOM     55  C   UNL A   1      45.922  35.666  30.231  1.00  0.00     0.074 A 
ATOM     56  C   UNL A   1      41.781  36.144  35.034  1.00  0.00     0.029 A 
ATOM     57  N   UNL A   1      43.012  35.418  33.328  1.00  0.00    -0.354 N 
ATOM     58  N   UNL A   1      45.048  35.665  31.213  1.00  0.00    -0.248 NA
ATOM     59  C   UNL A   1      46.506  36.986  29.952  1.00  0.00     0.031 C 
ATOM     60  C   UNL A   1      42.510  37.221  34.523  1.00  0.00     0.029 A 
ATOM     61  C   UNL A   1      43.303  36.763  33.481  1.00  0.00     0.049 A 
ATOM     62  H   UNL A   1      43.419  34.825  32.656  1.00  0.00     0.167 HD
ATOM     63  C   UNL A   1      45.003  36.974  31.685  1.00  0.00     0.074 A 
ATOM     64  C   UNL A   1      45.949  37.734  30.894  1.00  0.00     0.031 C 
ATOM     65  C   UNL A   1      44.249  37.501  32.682  1.00  0.00     0.031 A 
BRANCH  52  66
ATOM     66  C   UNL A   1      40.434  33.454  35.386  1.00  0.00    -0.014 A 
ATOM     67  C   UNL A   1      39.123  33.934  35.215  1.00  0.00     0.010 A 
ATOM     68  C   UNL A   1      40.741  32.690  36.527  1.00  0.00     0.010 A 
ATOM     69  C   UNL A   1      38.145  33.675  36.178  1.00  0.00     0.020 A 
ATOM     70  C   UNL A   1      39.759  32.403  37.477  1.00  0.00     0.020 A 
ATOM     71  C   UNL A   1      38.469  32.906  37.301  1.00  0.00     0.054 A 
BRANCH  71  72
ATOM     72  S   UNL A   1      37.166  32.547  38.509  1.00  0.00     0.124 S 
ATOM     73  O   UNL A   1      37.639  33.268  39.688  1.00  0.00    -0.237 OA
ATOM     74  O   UNL A   1      35.977  33.103  37.869  1.00  0.00    -0.237 OA
ATOM     75  O   UNL A   1      37.187  31.090  38.620  1.00  0.00    -0.744 OA
ENDBRANCH  71  72
ENDBRANCH  52  66
BRANCH  53  76
ATOM     76  C   UNL A   1      47.414  34.729  28.311  1.00  0.00    -0.014 A 
ATOM     77  C   UNL A   1      47.027  35.033  26.993  1.00  0.00     0.010 A 
ATOM     78  C   UNL A   1      48.786  34.603  28.603  1.00  0.00     0.010 A 
ATOM     79  C   UNL A   1      47.987  35.182  25.987  1.00  0.00     0.020 A 
ATOM     80  C   UNL A   1      49.750  34.783  27.607  1.00  0.00     0.020 A 
ATOM     81  C   UNL A   1      49.344  35.058  26.301  1.00  0.00     0.054 A 
BRANCH  81  82
ATOM     82  S   UNL A   1      50.573  35.298  24.988  1.00  0.00     0.124 S 
ATOM     83  O   UNL A   1      51.695  35.872  25.723  1.00  0.00    -0.237 OA
ATOM     84  O   UNL A   1      50.770  33.939  24.491  1.00  0.00    -0.237 OA
ATOM     85  O   UNL A   1      49.906  36.204  24.056  1.00  0.00    -0.744 OA
ENDBRANCH  81  82
ENDBRANCH  53  76
BRANCH  65  86
ATOM     86  C   UNL A   1      44.436  38.962  33.002  1.00  0.00    -0.014 A 
ATOM     87  C   UNL A   1      43.604  39.947  32.443  1.00  0.00     0.010 A 
ATOM     88  C   UNL A   1      45.422  39.345  33.932  1.00  0.00     0.010 A 
ATOM     89  C   UNL A   1      43.776  41.292  32.781  1.00  0.00     0.020 A 
ATOM     90  C   UNL A   1      45.575  40.684  34.299  1.00  0.00     0.020 A 
ATOM     91  C   UNL A   1      44.760  41.651  33.708  1.00  0.00     0.054 A 
BRANCH  91  92
ATOM     92  S   UNL A   1      44.934  43.398  34.162  1.00  0.00     0.124 S 
ATOM     93  O   UNL A   1      44.689  44.069  32.889  1.00  0.00    -0.237 OA
ATOM     94  O   UNL A   1      43.893  43.570  35.173  1.00  0.00    -0.237 OA
ATOM     95  O   UNL A   1      46.303  43.493  34.662  1.00  0.00    -0.744 OA
ENDBRANCH  91  92
ENDBRANCH  65  86
ENDBRANCH  39  40
ENDBRANCH  32  34
ENDBRANCH  31  32
ENDBRANCH  30  31
ENDBRANCH  29  30
ENDBRANCH  28  29
ENDBRANCH  27  28
ENDBRANCH  26  27
ENDBRANCH  25  26
ENDBRANCH   1  25
TORSDOF 29
ENDMDL
