MODEL 1
REMARK VINA RESULT:      -8.2      0.000      0.000
REMARK SMILES Cc1cc2c(c(C)c1Br)C=C(C(=O)OCCOCCOCCOCCOC(=O)c1ccc(-c3c4nc(c(-c5ccc(S(=O)(=O)[O-])cc5)c5ccc([nH]5)c(-c5ccc(S(=O)(=O)[O-])cc5)c5nc(c(-c6ccc(S(=O)(=O)[O-])cc6)c6ccc3[nH]6)C=C5)C=C4)cc1)[C@@H](C(F)(F)F)O2
REMARK SMILES IDX 21 1 20 2 19 3 18 4 17 5 16 6 15 7 14 8 12 9 13 10 11 11
REMARK SMILES IDX 1 12 2 13 3 14 8 15 4 16 6 17 9 18 5 19 94 20 7 21 10 22
REMARK SMILES IDX 89 23 90 24 91 25 92 26 93 27 22 28 23 29 24 30 25 31 26 32
REMARK SMILES IDX 27 33 28 34 29 35 30 36 88 37 31 38 87 39 32 40 33 41 34 42
REMARK SMILES IDX 81 43 35 44 86 45 80 46 82 47 36 48 85 49 79 50 78 51 37 53
REMARK SMILES IDX 67 54 48 55 66 56 49 57 52 58 65 59 83 60 50 61 51 62 64 64
REMARK SMILES IDX 84 65 53 66 38 67 39 68 47 69 40 70 46 71 41 72 42 73 43 74
REMARK SMILES IDX 44 75 45 76 68 77 69 78 77 79 70 80 76 81 71 82 72 83 73 84
REMARK SMILES IDX 74 85 75 86 54 87 55 88 63 89 56 90 62 91 57 92 58 93 59 94
REMARK SMILES IDX 60 95 61 96
REMARK H PARENT 82 52 52 63
REMARK Flexibility Score: inf
ROOT
ATOM      1  C   UNL A   1      39.599  28.751  28.253  1.00  0.00     0.188 C 
ENDROOT
BRANCH   1   2
ATOM      2  O   UNL A   1      39.950  27.598  27.484  1.00  0.00    -0.377 OA
BRANCH   2   3
ATOM      3  C   UNL A   1      40.081  26.356  28.154  1.00  0.00     0.188 C 
BRANCH   3   4
ATOM      4  C   UNL A   1      39.027  25.314  27.737  1.00  0.00     0.188 C 
BRANCH   4   5
ATOM      5  O   UNL A   1      39.400  24.579  26.580  1.00  0.00    -0.376 OA
BRANCH   5   6
ATOM      6  C   UNL A   1      39.075  23.200  26.495  1.00  0.00     0.202 C 
BRANCH   6   7
ATOM      7  C   UNL A   1      37.841  22.723  25.710  1.00  0.00     0.261 C 
BRANCH   7   8
ATOM      8  O   UNL A   1      36.895  23.731  25.338  1.00  0.00    -0.460 OA
BRANCH   8   9
ATOM      9  C   UNL A   1      35.632  23.608  25.783  1.00  0.00     0.338 C 
ATOM     10  O   UNL A   1      35.255  22.981  26.756  1.00  0.00    -0.246 OA
BRANCH   9  11
ATOM     11  C   UNL A   1      34.788  24.535  24.992  1.00  0.00     0.087 C 
ATOM     12  C   UNL A   1      30.529  28.850  22.767  1.00  0.00     0.046 C 
ATOM     13  C   UNL A   1      31.644  28.152  23.501  1.00  0.00    -0.033 A 
ATOM     14  C   UNL A   1      32.195  27.008  22.913  1.00  0.00     0.051 A 
ATOM     15  C   UNL A   1      32.168  28.605  24.728  1.00  0.00     0.024 A 
ATOM     16  C   UNL A   1      33.150  26.248  23.583  1.00  0.00     0.128 A 
ATOM     17  C   UNL A   1      33.156  27.855  25.416  1.00  0.00    -0.026 A 
ATOM     18  Br  UNL A   1      31.501  30.247  25.454  1.00  0.00    -0.050 Br
ATOM     19  C   UNL A   1      33.587  26.624  24.856  1.00  0.00     0.021 A 
ATOM     20  O   UNL A   1      33.580  25.144  22.907  1.00  0.00    -0.475 OA
ATOM     21  C   UNL A   1      33.777  28.327  26.712  1.00  0.00     0.046 C 
ATOM     22  C   UNL A   1      34.428  25.678  25.589  1.00  0.00     0.027 C 
ATOM     23  C   UNL A   1      34.459  24.195  23.565  1.00  0.00     0.316 C 
BRANCH  23  24
ATOM     24  C   UNL A   1      33.830  22.802  23.421  1.00  0.00     0.430 C 
ATOM     25  F   UNL A   1      34.756  21.827  23.590  1.00  0.00    -0.167 F 
ATOM     26  F   UNL A   1      32.856  22.585  24.332  1.00  0.00    -0.167 F 
ATOM     27  F   UNL A   1      33.283  22.632  22.194  1.00  0.00    -0.167 F 
ENDBRANCH  23  24
ENDBRANCH   9  11
ENDBRANCH   8   9
ENDBRANCH   7   8
ENDBRANCH   6   7
ENDBRANCH   5   6
ENDBRANCH   4   5
ENDBRANCH   3   4
ENDBRANCH   2   3
ENDBRANCH   1   2
BRANCH   1  28
ATOM     28  C   UNL A   1      39.106  28.657  29.719  1.00  0.00     0.188 C 
BRANCH  28  29
ATOM     29  O   UNL A   1      37.691  28.648  29.869  1.00  0.00    -0.376 OA
BRANCH  29  30
ATOM     30  C   UNL A   1      36.957  29.630  29.155  1.00  0.00     0.202 C 
BRANCH  30  31
ATOM     31  C   UNL A   1      36.746  30.951  29.905  1.00  0.00     0.261 C 
BRANCH  31  32
ATOM     32  O   UNL A   1      35.901  30.878  31.063  1.00  0.00    -0.460 OA
BRANCH  32  33
ATOM     33  C   UNL A   1      35.367  32.034  31.515  1.00  0.00     0.338 C 
ATOM     34  O   UNL A   1      34.390  32.615  31.075  1.00  0.00    -0.246 OA
BRANCH  33  35
ATOM     35  C   UNL A   1      36.056  32.375  32.776  1.00  0.00     0.060 A 
ATOM     36  C   UNL A   1      35.718  33.562  33.437  1.00  0.00     0.016 A 
ATOM     37  C   UNL A   1      37.012  31.509  33.313  1.00  0.00     0.016 A 
ATOM     38  C   UNL A   1      36.362  33.903  34.626  1.00  0.00     0.010 A 
ATOM     39  C   UNL A   1      37.673  31.863  34.492  1.00  0.00     0.010 A 
ATOM     40  C   UNL A   1      37.374  33.077  35.135  1.00  0.00    -0.014 A 
BRANCH  40  41
ATOM     41  C   UNL A   1      38.271  33.595  36.196  1.00  0.00     0.031 A 
ATOM     42  C   UNL A   1      39.482  34.380  35.769  1.00  0.00     0.074 A 
ATOM     43  C   UNL A   1      38.000  33.418  37.501  1.00  0.00     0.049 A 
ATOM     44  N   UNL A   1      40.398  34.952  36.504  1.00  0.00    -0.248 NA
ATOM     45  C   UNL A   1      39.681  34.548  34.319  1.00  0.00     0.031 C 
ATOM     46  C   UNL A   1      36.832  32.722  38.039  1.00  0.00     0.029 A 
ATOM     47  N   UNL A   1      38.693  33.825  38.614  1.00  0.00    -0.354 N 
ATOM     48  C   UNL A   1      41.275  35.554  35.608  1.00  0.00     0.074 A 
ATOM     49  C   UNL A   1      40.806  35.244  34.277  1.00  0.00     0.031 C 
ATOM     50  C   UNL A   1      36.887  32.758  39.383  1.00  0.00     0.029 A 
ATOM     51  C   UNL A   1      38.105  33.453  39.800  1.00  0.00     0.049 A 
ATOM     52  H   UNL A   1      39.533  34.337  38.568  1.00  0.00     0.167 HD
ATOM     53  C   UNL A   1      42.364  36.312  35.870  1.00  0.00     0.031 A 
ATOM     54  C   UNL A   1      38.510  33.644  41.073  1.00  0.00     0.031 A 
ATOM     55  C   UNL A   1      42.843  36.602  37.192  1.00  0.00     0.049 A 
ATOM     56  C   UNL A   1      39.791  34.396  41.337  1.00  0.00     0.074 A 
ATOM     57  C   UNL A   1      43.940  37.361  37.560  1.00  0.00     0.029 A 
ATOM     58  N   UNL A   1      42.261  36.139  38.362  1.00  0.00    -0.354 N 
ATOM     59  N   UNL A   1      40.593  34.983  40.480  1.00  0.00    -0.248 NA
ATOM     60  C   UNL A   1      40.221  34.511  42.739  1.00  0.00     0.031 C 
ATOM     61  C   UNL A   1      44.058  37.305  38.951  1.00  0.00     0.029 A 
ATOM     62  C   UNL A   1      42.998  36.565  39.453  1.00  0.00     0.049 A 
ATOM     63  H   UNL A   1      41.446  35.589  38.410  1.00  0.00     0.167 HD
ATOM     64  C   UNL A   1      41.611  35.553  41.240  1.00  0.00     0.074 A 
ATOM     65  C   UNL A   1      41.315  35.253  42.626  1.00  0.00     0.031 C 
ATOM     66  C   UNL A   1      42.693  36.258  40.827  1.00  0.00     0.031 A 
BRANCH  53  67
ATOM     67  C   UNL A   1      43.122  36.864  34.694  1.00  0.00    -0.014 A 
ATOM     68  C   UNL A   1      42.927  38.190  34.268  1.00  0.00     0.010 A 
ATOM     69  C   UNL A   1      44.073  36.064  34.037  1.00  0.00     0.010 A 
ATOM     70  C   UNL A   1      43.649  38.698  33.185  1.00  0.00     0.020 A 
ATOM     71  C   UNL A   1      44.817  36.576  32.970  1.00  0.00     0.020 A 
ATOM     72  C   UNL A   1      44.591  37.887  32.545  1.00  0.00     0.054 A 
BRANCH  72  73
ATOM     73  S   UNL A   1      45.535  38.584  31.162  1.00  0.00     0.124 S 
ATOM     74  O   UNL A   1      46.901  38.543  31.678  1.00  0.00    -0.237 OA
ATOM     75  O   UNL A   1      45.245  37.651  30.077  1.00  0.00    -0.237 OA
ATOM     76  O   UNL A   1      44.973  39.923  30.997  1.00  0.00    -0.744 OA
ENDBRANCH  72  73
ENDBRANCH  53  67
BRANCH  54  77
ATOM     77  C   UNL A   1      37.697  33.111  42.201  1.00  0.00    -0.014 A 
ATOM     78  C   UNL A   1      37.860  31.784  42.638  1.00  0.00     0.010 A 
ATOM     79  C   UNL A   1      36.752  33.929  42.850  1.00  0.00     0.010 A 
ATOM     80  C   UNL A   1      37.094  31.285  43.695  1.00  0.00     0.020 A 
ATOM     81  C   UNL A   1      36.002  33.442  43.925  1.00  0.00     0.020 A 
ATOM     82  C   UNL A   1      36.173  32.119  44.338  1.00  0.00     0.054 A 
BRANCH  82  83
ATOM     83  S   UNL A   1      35.235  31.463  45.745  1.00  0.00     0.124 S 
ATOM     84  O   UNL A   1      35.592  30.048  45.717  1.00  0.00    -0.237 OA
ATOM     85  O   UNL A   1      35.776  32.228  46.865  1.00  0.00    -0.237 OA
ATOM     86  O   UNL A   1      33.848  31.765  45.403  1.00  0.00    -0.744 OA
ENDBRANCH  82  83
ENDBRANCH  54  77
BRANCH  66  87
ATOM     87  C   UNL A   1      43.649  36.768  41.873  1.00  0.00    -0.014 A 
ATOM     88  C   UNL A   1      44.783  36.022  42.239  1.00  0.00     0.010 A 
ATOM     89  C   UNL A   1      43.478  38.061  42.404  1.00  0.00     0.010 A 
ATOM     90  C   UNL A   1      45.727  36.558  43.119  1.00  0.00     0.020 A 
ATOM     91  C   UNL A   1      44.434  38.610  43.264  1.00  0.00     0.020 A 
ATOM     92  C   UNL A   1      45.551  37.852  43.617  1.00  0.00     0.054 A 
BRANCH  92  93
ATOM     93  S   UNL A   1      46.838  38.553  44.687  1.00  0.00     0.124 S 
ATOM     94  O   UNL A   1      47.991  37.715  44.367  1.00  0.00    -0.237 OA
ATOM     95  O   UNL A   1      46.920  39.936  44.223  1.00  0.00    -0.237 OA
ATOM     96  O   UNL A   1      46.302  38.383  46.035  1.00  0.00    -0.744 OA
ENDBRANCH  92  93
ENDBRANCH  66  87
ENDBRANCH  40  41
ENDBRANCH  33  35
ENDBRANCH  32  33
ENDBRANCH  31  32
ENDBRANCH  30  31
ENDBRANCH  29  30
ENDBRANCH  28  29
ENDBRANCH   1  28
TORSDOF 24
ENDMDL
MODEL 2
REMARK VINA RESULT:      -7.9      5.791     10.948
REMARK SMILES Cc1cc2c(c(C)c1Br)C=C(C(=O)OCCOCCOCCOCCOC(=O)c1ccc(-c3c4nc(c(-c5ccc(S(=O)(=O)[O-])cc5)c5ccc([nH]5)c(-c5ccc(S(=O)(=O)[O-])cc5)c5nc(c(-c6ccc(S(=O)(=O)[O-])cc6)c6ccc3[nH]6)C=C5)C=C4)cc1)[C@@H](C(F)(F)F)O2
REMARK SMILES IDX 21 1 20 2 19 3 18 4 17 5 16 6 15 7 14 8 12 9 13 10 11 11
REMARK SMILES IDX 1 12 2 13 3 14 8 15 4 16 6 17 9 18 5 19 94 20 7 21 10 22
REMARK SMILES IDX 89 23 90 24 91 25 92 26 93 27 22 28 23 29 24 30 25 31 26 32
REMARK SMILES IDX 27 33 28 34 29 35 30 36 88 37 31 38 87 39 32 40 33 41 34 42
REMARK SMILES IDX 81 43 35 44 86 45 80 46 82 47 36 48 85 49 79 50 78 51 37 53
REMARK SMILES IDX 67 54 48 55 66 56 49 57 52 58 65 59 83 60 50 61 51 62 64 64
REMARK SMILES IDX 84 65 53 66 38 67 39 68 47 69 40 70 46 71 41 72 42 73 43 74
REMARK SMILES IDX 44 75 45 76 68 77 69 78 77 79 70 80 76 81 71 82 72 83 73 84
REMARK SMILES IDX 74 85 75 86 54 87 55 88 63 89 56 90 62 91 57 92 58 93 59 94
REMARK SMILES IDX 60 95 61 96
REMARK H PARENT 82 52 52 63
REMARK Flexibility Score: inf
ROOT
ATOM      1  C   UNL A   1      43.070  24.595  25.666  1.00  0.00     0.188 C 
ENDROOT
BRANCH   1   2
ATOM      2  O   UNL A   1      42.844  24.450  27.070  1.00  0.00    -0.377 OA
BRANCH   2   3
ATOM      3  C   UNL A   1      41.710  25.081  27.638  1.00  0.00     0.188 C 
BRANCH   3   4
ATOM      4  C   UNL A   1      40.500  24.143  27.810  1.00  0.00     0.188 C 
BRANCH   4   5
ATOM      5  O   UNL A   1      39.996  23.656  26.575  1.00  0.00    -0.376 OA
BRANCH   5   6
ATOM      6  C   UNL A   1      38.682  24.007  26.171  1.00  0.00     0.202 C 
BRANCH   6   7
ATOM      7  C   UNL A   1      37.538  22.978  26.215  1.00  0.00     0.261 C 
BRANCH   7   8
ATOM      8  O   UNL A   1      36.278  23.405  25.684  1.00  0.00    -0.460 OA
BRANCH   8   9
ATOM      9  C   UNL A   1      36.052  23.225  24.371  1.00  0.00     0.338 C 
ATOM     10  O   UNL A   1      36.776  22.659  23.572  1.00  0.00    -0.246 OA
BRANCH   9  11
ATOM     11  C   UNL A   1      34.665  23.667  24.093  1.00  0.00     0.087 C 
ATOM     12  C   UNL A   1      28.886  26.541  23.851  1.00  0.00     0.046 C 
ATOM     13  C   UNL A   1      30.359  26.231  23.806  1.00  0.00    -0.033 A 
ATOM     14  C   UNL A   1      30.739  24.899  23.607  1.00  0.00     0.051 A 
ATOM     15  C   UNL A   1      31.362  27.212  23.932  1.00  0.00     0.024 A 
ATOM     16  C   UNL A   1      32.078  24.521  23.664  1.00  0.00     0.128 A 
ATOM     17  C   UNL A   1      32.732  26.849  23.973  1.00  0.00    -0.026 A 
ATOM     18  Br  UNL A   1      30.831  29.048  24.067  1.00  0.00    -0.050 Br
ATOM     19  C   UNL A   1      33.072  25.472  23.911  1.00  0.00     0.021 A 
ATOM     20  O   UNL A   1      32.304  23.188  23.480  1.00  0.00    -0.475 OA
ATOM     21  C   UNL A   1      33.842  27.872  24.063  1.00  0.00     0.046 C 
ATOM     22  C   UNL A   1      34.426  24.983  24.167  1.00  0.00     0.027 C 
ATOM     23  C   UNL A   1      33.640  22.652  23.668  1.00  0.00     0.316 C 
BRANCH  23  24
ATOM     24  C   UNL A   1      33.535  21.475  24.648  1.00  0.00     0.430 C 
ATOM     25  F   UNL A   1      34.393  20.482  24.314  1.00  0.00    -0.167 F 
ATOM     26  F   UNL A   1      33.825  21.840  25.916  1.00  0.00    -0.167 F 
ATOM     27  F   UNL A   1      32.287  20.948  24.653  1.00  0.00    -0.167 F 
ENDBRANCH  23  24
ENDBRANCH   9  11
ENDBRANCH   8   9
ENDBRANCH   7   8
ENDBRANCH   6   7
ENDBRANCH   5   6
ENDBRANCH   4   5
ENDBRANCH   3   4
ENDBRANCH   2   3
ENDBRANCH   1   2
BRANCH   1  28
ATOM     28  C   UNL A   1      43.535  23.420  24.771  1.00  0.00     0.188 C 
BRANCH  28  29
ATOM     29  O   UNL A   1      44.933  23.392  24.508  1.00  0.00    -0.376 OA
BRANCH  29  30
ATOM     30  C   UNL A   1      45.698  24.506  24.939  1.00  0.00     0.202 C 
BRANCH  30  31
ATOM     31  C   UNL A   1      47.144  24.533  24.430  1.00  0.00     0.261 C 
BRANCH  31  32
ATOM     32  O   UNL A   1      47.939  25.639  24.884  1.00  0.00    -0.460 OA
BRANCH  32  33
ATOM     33  C   UNL A   1      47.712  26.842  24.311  1.00  0.00     0.338 C 
ATOM     34  O   UNL A   1      47.830  27.130  23.133  1.00  0.00    -0.246 OA
BRANCH  33  35
ATOM     35  C   UNL A   1      47.095  27.708  25.336  1.00  0.00     0.060 A 
ATOM     36  C   UNL A   1      47.915  28.325  26.290  1.00  0.00     0.016 A 
ATOM     37  C   UNL A   1      45.716  27.928  25.336  1.00  0.00     0.016 A 
ATOM     38  C   UNL A   1      47.350  29.142  27.268  1.00  0.00     0.010 A 
ATOM     39  C   UNL A   1      45.148  28.727  26.331  1.00  0.00     0.010 A 
ATOM     40  C   UNL A   1      45.959  29.310  27.320  1.00  0.00    -0.014 A 
BRANCH  40  41
ATOM     41  C   UNL A   1      45.343  29.895  28.535  1.00  0.00     0.031 A 
ATOM     42  C   UNL A   1      45.202  29.012  29.746  1.00  0.00     0.074 A 
ATOM     43  C   UNL A   1      44.960  31.184  28.585  1.00  0.00     0.049 A 
ATOM     44  N   UNL A   1      44.719  29.297  30.925  1.00  0.00    -0.248 NA
ATOM     45  C   UNL A   1      45.676  27.624  29.606  1.00  0.00     0.031 C 
ATOM     46  C   UNL A   1      45.092  32.152  27.496  1.00  0.00     0.029 A 
ATOM     47  N   UNL A   1      44.387  31.901  29.606  1.00  0.00    -0.354 N 
ATOM     48  C   UNL A   1      44.841  28.129  31.671  1.00  0.00     0.074 A 
ATOM     49  C   UNL A   1      45.402  27.122  30.800  1.00  0.00     0.031 C 
ATOM     50  C   UNL A   1      44.620  33.341  27.914  1.00  0.00     0.029 A 
ATOM     51  C   UNL A   1      44.127  33.212  29.285  1.00  0.00     0.049 A 
ATOM     52  H   UNL A   1      44.183  31.512  30.488  1.00  0.00     0.167 HD
ATOM     53  C   UNL A   1      44.529  27.919  32.970  1.00  0.00     0.031 A 
ATOM     54  C   UNL A   1      43.549  34.191  30.012  1.00  0.00     0.031 A 
ATOM     55  C   UNL A   1      43.950  28.913  33.829  1.00  0.00     0.049 A 
ATOM     56  C   UNL A   1      43.104  33.899  31.424  1.00  0.00     0.074 A 
ATOM     57  C   UNL A   1      43.597  28.794  35.161  1.00  0.00     0.029 A 
ATOM     58  N   UNL A   1      43.631  30.204  33.440  1.00  0.00    -0.354 N 
ATOM     59  N   UNL A   1      43.252  32.798  32.124  1.00  0.00    -0.248 NA
ATOM     60  C   UNL A   1      42.415  34.981  32.144  1.00  0.00     0.031 C 
ATOM     61  C   UNL A   1      43.005  29.995  35.561  1.00  0.00     0.029 A 
ATOM     62  C   UNL A   1      43.049  30.883  34.497  1.00  0.00     0.049 A 
ATOM     63  H   UNL A   1      43.792  30.582  32.546  1.00  0.00     0.167 HD
ATOM     64  C   UNL A   1      42.692  33.062  33.370  1.00  0.00     0.074 A 
ATOM     65  C   UNL A   1      42.216  34.430  33.335  1.00  0.00     0.031 C 
ATOM     66  C   UNL A   1      42.580  32.244  34.447  1.00  0.00     0.031 A 
BRANCH  53  67
ATOM     67  C   UNL A   1      44.791  26.548  33.532  1.00  0.00    -0.014 A 
ATOM     68  C   UNL A   1      46.059  26.206  34.034  1.00  0.00     0.010 A 
ATOM     69  C   UNL A   1      43.748  25.609  33.600  1.00  0.00     0.010 A 
ATOM     70  C   UNL A   1      46.287  24.935  34.570  1.00  0.00     0.020 A 
ATOM     71  C   UNL A   1      43.964  24.346  34.159  1.00  0.00     0.020 A 
ATOM     72  C   UNL A   1      45.236  24.015  34.630  1.00  0.00     0.054 A 
BRANCH  72  73
ATOM     73  S   UNL A   1      45.556  22.385  35.358  1.00  0.00     0.124 S 
ATOM     74  O   UNL A   1      46.902  22.096  34.872  1.00  0.00    -0.237 OA
ATOM     75  O   UNL A   1      45.450  22.651  36.790  1.00  0.00    -0.237 OA
ATOM     76  O   UNL A   1      44.499  21.542  34.804  1.00  0.00    -0.744 OA
ENDBRANCH  72  73
ENDBRANCH  53  67
BRANCH  54  77
ATOM     77  C   UNL A   1      43.352  35.543  29.419  1.00  0.00    -0.014 A 
ATOM     78  C   UNL A   1      42.117  35.900  28.847  1.00  0.00     0.010 A 
ATOM     79  C   UNL A   1      44.399  36.484  29.422  1.00  0.00     0.010 A 
ATOM     80  C   UNL A   1      41.935  37.169  28.288  1.00  0.00     0.020 A 
ATOM     81  C   UNL A   1      44.213  37.763  28.888  1.00  0.00     0.020 A 
ATOM     82  C   UNL A   1      42.982  38.096  28.317  1.00  0.00     0.054 A 
BRANCH  82  83
ATOM     83  S   UNL A   1      42.700  39.754  27.638  1.00  0.00     0.124 S 
ATOM     84  O   UNL A   1      42.565  39.480  26.210  1.00  0.00    -0.237 OA
ATOM     85  O   UNL A   1      41.476  40.166  28.320  1.00  0.00    -0.237 OA
ATOM     86  O   UNL A   1      43.900  40.492  28.022  1.00  0.00    -0.744 OA
ENDBRANCH  82  83
ENDBRANCH  54  77
BRANCH  66  87
ATOM     87  C   UNL A   1      41.924  32.790  35.687  1.00  0.00    -0.014 A 
ATOM     88  C   UNL A   1      42.634  33.618  36.574  1.00  0.00     0.010 A 
ATOM     89  C   UNL A   1      40.550  32.575  35.903  1.00  0.00     0.010 A 
ATOM     90  C   UNL A   1      41.983  34.217  37.656  1.00  0.00     0.020 A 
ATOM     91  C   UNL A   1      39.889  33.194  36.968  1.00  0.00     0.020 A 
ATOM     92  C   UNL A   1      40.612  34.009  37.839  1.00  0.00     0.054 A 
BRANCH  92  93
ATOM     93  S   UNL A   1      39.778  34.872  39.200  1.00  0.00     0.124 S 
ATOM     94  O   UNL A   1      38.797  33.881  39.633  1.00  0.00    -0.237 OA
ATOM     95  O   UNL A   1      40.872  35.121  40.136  1.00  0.00    -0.237 OA
ATOM     96  O   UNL A   1      39.221  36.065  38.568  1.00  0.00    -0.744 OA
ENDBRANCH  92  93
ENDBRANCH  66  87
ENDBRANCH  40  41
ENDBRANCH  33  35
ENDBRANCH  32  33
ENDBRANCH  31  32
ENDBRANCH  30  31
ENDBRANCH  29  30
ENDBRANCH  28  29
ENDBRANCH   1  28
TORSDOF 24
ENDMDL
MODEL 3
REMARK VINA RESULT:      -7.9      6.402     14.446
REMARK SMILES Cc1cc2c(c(C)c1Br)C=C(C(=O)OCCOCCOCCOCCOC(=O)c1ccc(-c3c4nc(c(-c5ccc(S(=O)(=O)[O-])cc5)c5ccc([nH]5)c(-c5ccc(S(=O)(=O)[O-])cc5)c5nc(c(-c6ccc(S(=O)(=O)[O-])cc6)c6ccc3[nH]6)C=C5)C=C4)cc1)[C@@H](C(F)(F)F)O2
REMARK SMILES IDX 21 1 20 2 19 3 18 4 17 5 16 6 15 7 14 8 12 9 13 10 11 11
REMARK SMILES IDX 1 12 2 13 3 14 8 15 4 16 6 17 9 18 5 19 94 20 7 21 10 22
REMARK SMILES IDX 89 23 90 24 91 25 92 26 93 27 22 28 23 29 24 30 25 31 26 32
REMARK SMILES IDX 27 33 28 34 29 35 30 36 88 37 31 38 87 39 32 40 33 41 34 42
REMARK SMILES IDX 81 43 35 44 86 45 80 46 82 47 36 48 85 49 79 50 78 51 37 53
REMARK SMILES IDX 67 54 48 55 66 56 49 57 52 58 65 59 83 60 50 61 51 62 64 64
REMARK SMILES IDX 84 65 53 66 38 67 39 68 47 69 40 70 46 71 41 72 42 73 43 74
REMARK SMILES IDX 44 75 45 76 68 77 69 78 77 79 70 80 76 81 71 82 72 83 73 84
REMARK SMILES IDX 74 85 75 86 54 87 55 88 63 89 56 90 62 91 57 92 58 93 59 94
REMARK SMILES IDX 60 95 61 96
REMARK H PARENT 82 52 52 63
REMARK Flexibility Score: inf
ROOT
ATOM      1  C   UNL A   1      44.594  33.320  43.262  1.00  0.00     0.188 C 
ENDROOT
BRANCH   1   2
ATOM      2  O   UNL A   1      44.141  34.597  42.807  1.00  0.00    -0.377 OA
BRANCH   2   3
ATOM      3  C   UNL A   1      43.091  34.640  41.856  1.00  0.00     0.188 C 
BRANCH   3   4
ATOM      4  C   UNL A   1      43.516  34.199  40.443  1.00  0.00     0.188 C 
BRANCH   4   5
ATOM      5  O   UNL A   1      44.302  35.173  39.772  1.00  0.00    -0.376 OA
BRANCH   5   6
ATOM      6  C   UNL A   1      45.353  34.751  38.916  1.00  0.00     0.202 C 
BRANCH   6   7
ATOM      7  C   UNL A   1      45.146  33.605  37.910  1.00  0.00     0.261 C 
BRANCH   7   8
ATOM      8  O   UNL A   1      44.429  33.930  36.714  1.00  0.00    -0.460 OA
BRANCH   8   9
ATOM      9  C   UNL A   1      45.131  34.368  35.655  1.00  0.00     0.338 C 
ATOM     10  O   UNL A   1      46.165  35.011  35.676  1.00  0.00    -0.246 OA
BRANCH   9  11
ATOM     11  C   UNL A   1      44.532  33.765  34.442  1.00  0.00     0.087 C 
ATOM     12  C   UNL A   1      43.220  31.142  28.687  1.00  0.00     0.046 C 
ATOM     13  C   UNL A   1      43.754  31.433  30.065  1.00  0.00    -0.033 A 
ATOM     14  C   UNL A   1      43.002  32.277  30.890  1.00  0.00     0.051 A 
ATOM     15  C   UNL A   1      44.951  30.884  30.565  1.00  0.00     0.024 A 
ATOM     16  C   UNL A   1      43.485  32.679  32.133  1.00  0.00     0.128 A 
ATOM     17  C   UNL A   1      45.450  31.267  31.836  1.00  0.00    -0.026 A 
ATOM     18  Br  UNL A   1      45.900  29.624  29.478  1.00  0.00    -0.050 Br
ATOM     19  C   UNL A   1      44.731  32.235  32.585  1.00  0.00     0.021 A 
ATOM     20  O   UNL A   1      42.663  33.524  32.820  1.00  0.00    -0.475 OA
ATOM     21  C   UNL A   1      46.706  30.669  32.429  1.00  0.00     0.046 C 
ATOM     22  C   UNL A   1      45.271  32.855  33.794  1.00  0.00     0.027 C 
ATOM     23  C   UNL A   1      43.125  34.130  34.056  1.00  0.00     0.316 C 
BRANCH  23  24
ATOM     24  C   UNL A   1      42.922  35.646  33.934  1.00  0.00     0.430 C 
ATOM     25  F   UNL A   1      44.036  36.252  33.457  1.00  0.00    -0.167 F 
ATOM     26  F   UNL A   1      41.910  35.960  33.097  1.00  0.00    -0.167 F 
ATOM     27  F   UNL A   1      42.642  36.204  35.136  1.00  0.00    -0.167 F 
ENDBRANCH  23  24
ENDBRANCH   9  11
ENDBRANCH   8   9
ENDBRANCH   7   8
ENDBRANCH   6   7
ENDBRANCH   5   6
ENDBRANCH   4   5
ENDBRANCH   3   4
ENDBRANCH   2   3
ENDBRANCH   1   2
BRANCH   1  28
ATOM     28  C   UNL A   1      45.618  32.468  42.473  1.00  0.00     0.188 C 
BRANCH  28  29
ATOM     29  O   UNL A   1      45.188  31.144  42.180  1.00  0.00    -0.376 OA
BRANCH  29  30
ATOM     30  C   UNL A   1      46.183  30.135  42.121  1.00  0.00     0.202 C 
BRANCH  30  31
ATOM     31  C   UNL A   1      46.016  29.128  40.977  1.00  0.00     0.261 C 
BRANCH  31  32
ATOM     32  O   UNL A   1      47.073  29.114  40.006  1.00  0.00    -0.460 OA
BRANCH  32  33
ATOM     33  C   UNL A   1      47.102  28.080  39.136  1.00  0.00     0.338 C 
ATOM     34  O   UNL A   1      47.684  27.019  39.273  1.00  0.00    -0.246 OA
BRANCH  33  35
ATOM     35  C   UNL A   1      46.129  28.379  38.065  1.00  0.00     0.060 A 
ATOM     36  C   UNL A   1      46.384  29.445  37.193  1.00  0.00     0.016 A 
ATOM     37  C   UNL A   1      44.987  27.590  37.909  1.00  0.00     0.016 A 
ATOM     38  C   UNL A   1      45.475  29.745  36.179  1.00  0.00     0.010 A 
ATOM     39  C   UNL A   1      44.065  27.907  36.909  1.00  0.00     0.010 A 
ATOM     40  C   UNL A   1      44.289  29.005  36.061  1.00  0.00    -0.014 A 
BRANCH  40  41
ATOM     41  C   UNL A   1      43.190  29.526  35.214  1.00  0.00     0.031 A 
ATOM     42  C   UNL A   1      42.340  30.636  35.769  1.00  0.00     0.074 A 
ATOM     43  C   UNL A   1      42.975  29.063  33.969  1.00  0.00     0.049 A 
ATOM     44  N   UNL A   1      41.340  31.269  35.216  1.00  0.00    -0.248 NA
ATOM     45  C   UNL A   1      42.668  31.098  37.130  1.00  0.00     0.031 C 
ATOM     46  C   UNL A   1      43.762  28.027  33.300  1.00  0.00     0.029 A 
ATOM     47  N   UNL A   1      42.028  29.418  33.041  1.00  0.00    -0.354 N 
ATOM     48  C   UNL A   1      40.927  32.208  36.155  1.00  0.00     0.074 A 
ATOM     49  C   UNL A   1      41.754  32.036  37.327  1.00  0.00     0.031 C 
ATOM     50  C   UNL A   1      43.268  27.838  32.063  1.00  0.00     0.029 A 
ATOM     51  C   UNL A   1      42.115  28.716  31.862  1.00  0.00     0.049 A 
ATOM     52  H   UNL A   1      41.350  30.114  33.203  1.00  0.00     0.167 HD
ATOM     53  C   UNL A   1      39.956  33.143  36.045  1.00  0.00     0.031 A 
ATOM     54  C   UNL A   1      41.346  28.770  30.755  1.00  0.00     0.031 A 
ATOM     55  C   UNL A   1      39.118  33.300  34.889  1.00  0.00     0.049 A 
ATOM     56  C   UNL A   1      40.196  29.744  30.700  1.00  0.00     0.074 A 
ATOM     57  C   UNL A   1      38.104  34.219  34.684  1.00  0.00     0.029 A 
ATOM     58  N   UNL A   1      39.189  32.515  33.749  1.00  0.00    -0.354 N 
ATOM     59  N   UNL A   1      39.835  30.645  31.584  1.00  0.00    -0.248 NA
ATOM     60  C   UNL A   1      39.348  29.708  29.499  1.00  0.00     0.031 C 
ATOM     61  C   UNL A   1      37.520  33.949  33.443  1.00  0.00     0.029 A 
ATOM     62  C   UNL A   1      38.212  32.904  32.850  1.00  0.00     0.049 A 
ATOM     63  H   UNL A   1      39.837  31.789  33.602  1.00  0.00     0.167 HD
ATOM     64  C   UNL A   1      38.733  31.295  31.037  1.00  0.00     0.074 A 
ATOM     65  C   UNL A   1      38.493  30.695  29.741  1.00  0.00     0.031 C 
ATOM     66  C   UNL A   1      37.985  32.297  31.563  1.00  0.00     0.031 A 
BRANCH  53  67
ATOM     67  C   UNL A   1      39.737  34.057  37.220  1.00  0.00    -0.014 A 
ATOM     68  C   UNL A   1      39.438  33.536  38.492  1.00  0.00     0.010 A 
ATOM     69  C   UNL A   1      39.877  35.446  37.061  1.00  0.00     0.010 A 
ATOM     70  C   UNL A   1      39.254  34.393  39.580  1.00  0.00     0.020 A 
ATOM     71  C   UNL A   1      39.719  36.306  38.152  1.00  0.00     0.020 A 
ATOM     72  C   UNL A   1      39.398  35.773  39.402  1.00  0.00     0.054 A 
BRANCH  72  73
ATOM     73  S   UNL A   1      39.183  36.857  40.840  1.00  0.00     0.124 S 
ATOM     74  O   UNL A   1      38.399  36.013  41.739  1.00  0.00    -0.237 OA
ATOM     75  O   UNL A   1      40.560  37.108  41.257  1.00  0.00    -0.237 OA
ATOM     76  O   UNL A   1      38.476  38.016  40.301  1.00  0.00    -0.744 OA
ENDBRANCH  72  73
ENDBRANCH  53  67
BRANCH  54  77
ATOM     77  C   UNL A   1      41.635  27.870  29.603  1.00  0.00    -0.014 A 
ATOM     78  C   UNL A   1      40.779  26.795  29.303  1.00  0.00     0.010 A 
ATOM     79  C   UNL A   1      42.769  28.084  28.797  1.00  0.00     0.010 A 
ATOM     80  C   UNL A   1      41.053  25.950  28.223  1.00  0.00     0.020 A 
ATOM     81  C   UNL A   1      43.032  27.257  27.700  1.00  0.00     0.020 A 
ATOM     82  C   UNL A   1      42.175  26.190  27.423  1.00  0.00     0.054 A 
BRANCH  82  83
ATOM     83  S   UNL A   1      42.474  25.114  25.994  1.00  0.00     0.124 S 
ATOM     84  O   UNL A   1      43.932  25.108  25.915  1.00  0.00    -0.237 OA
ATOM     85  O   UNL A   1      41.860  23.857  26.415  1.00  0.00    -0.237 OA
ATOM     86  O   UNL A   1      41.791  25.798  24.899  1.00  0.00    -0.744 OA
ENDBRANCH  82  83
ENDBRANCH  54  77
BRANCH  66  87
ATOM     87  C   UNL A   1      36.834  32.825  30.748  1.00  0.00    -0.014 A 
ATOM     88  C   UNL A   1      35.509  32.473  31.059  1.00  0.00     0.010 A 
ATOM     89  C   UNL A   1      37.071  33.780  29.742  1.00  0.00     0.010 A 
ATOM     90  C   UNL A   1      34.442  33.063  30.377  1.00  0.00     0.020 A 
ATOM     91  C   UNL A   1      36.006  34.392  29.075  1.00  0.00     0.020 A 
ATOM     92  C   UNL A   1      34.698  34.027  29.395  1.00  0.00     0.054 A 
BRANCH  92  93
ATOM     93  S   UNL A   1      33.290  34.839  28.589  1.00  0.00     0.124 S 
ATOM     94  O   UNL A   1      33.943  35.909  27.840  1.00  0.00    -0.237 OA
ATOM     95  O   UNL A   1      32.723  33.763  27.780  1.00  0.00    -0.237 OA
ATOM     96  O   UNL A   1      32.456  35.280  29.704  1.00  0.00    -0.744 OA
ENDBRANCH  92  93
ENDBRANCH  66  87
ENDBRANCH  40  41
ENDBRANCH  33  35
ENDBRANCH  32  33
ENDBRANCH  31  32
ENDBRANCH  30  31
ENDBRANCH  29  30
ENDBRANCH  28  29
ENDBRANCH   1  28
TORSDOF 24
ENDMDL
