MODEL 1
REMARK VINA RESULT:      -7.1      0.000      0.000
REMARK SMILES O=C(OCCOCCOCCOCCOC(=O)c1ccc(-c2c3nc(c(-c4ccc(S(=O)(=O)[O-])cc4)c4ccc([nH]4)c(-c4ccc(S(=O)(=O)[O-])cc4)c4nc(c(-c5ccc(S(=O)(=O)[O-])cc5)c5ccc2[nH]5)C=C4)C=C3)cc1)c1ccc(NC(=O)[C@@H]2CC=CC[C@H]2C(=O)Nc2cccc([N+](=O)[O-])c2)cc1
REMARK SMILES IDX 8 1 7 2 6 3 5 4 4 5 3 6 2 7 1 8 78 9 79 10 104 11 80 12
REMARK SMILES IDX 103 13 81 14 82 15 83 16 84 18 85 19 86 20 90 21 87 22 89 23
REMARK SMILES IDX 88 24 91 25 92 26 93 27 94 29 95 30 102 31 96 32 98 33 97 34
REMARK SMILES IDX 99 35 100 36 101 37 9 38 10 39 11 40 12 41 13 42 14 43 15 44
REMARK SMILES IDX 16 45 17 46 18 47 19 48 77 49 20 50 76 51 21 52 22 53 23 54
REMARK SMILES IDX 70 55 24 56 75 57 69 58 71 59 25 60 74 61 68 62 67 63 26 65
REMARK SMILES IDX 56 66 37 67 55 68 38 69 41 70 54 71 72 72 39 73 40 74 53 76
REMARK SMILES IDX 73 77 42 78 27 79 28 80 36 81 29 82 35 83 30 84 31 85 32 86
REMARK SMILES IDX 33 87 34 88 57 89 58 90 66 91 59 92 65 93 60 94 61 95 62 96
REMARK SMILES IDX 63 97 64 98 43 99 44 100 52 101 45 102 51 103 46 104 47 105
REMARK SMILES IDX 48 106 49 107 50 108
REMARK H PARENT 82 17 93 28 71 64 41 75
REMARK Flexibility Score: inf
ROOT
ATOM      1  C   UNL A   1      49.742  29.213  35.772  1.00  0.00     0.188 C 
ENDROOT
BRANCH   1   2
ATOM      2  C   UNL A   1      48.549  30.139  35.503  1.00  0.00     0.188 C 
BRANCH   2   3
ATOM      3  O   UNL A   1      47.306  29.747  36.112  1.00  0.00    -0.376 OA
BRANCH   3   4
ATOM      4  C   UNL A   1      46.263  29.462  35.185  1.00  0.00     0.202 C 
BRANCH   4   5
ATOM      5  C   UNL A   1      45.981  27.969  35.095  1.00  0.00     0.261 C 
BRANCH   5   6
ATOM      6  O   UNL A   1      45.529  27.560  33.791  1.00  0.00    -0.460 OA
BRANCH   6   7
ATOM      7  C   UNL A   1      44.849  26.481  33.352  1.00  0.00     0.338 C 
ATOM      8  O   UNL A   1      43.810  26.692  32.723  1.00  0.00    -0.246 OA
BRANCH   7   9
ATOM      9  C   UNL A   1      45.215  25.043  33.593  1.00  0.00     0.060 A 
ATOM     10  C   UNL A   1      46.484  24.507  33.825  1.00  0.00     0.018 A 
ATOM     11  C   UNL A   1      44.149  24.128  33.521  1.00  0.00     0.018 A 
ATOM     12  C   UNL A   1      46.652  23.137  34.161  1.00  0.00     0.027 A 
ATOM     13  C   UNL A   1      44.320  22.773  33.817  1.00  0.00     0.027 A 
ATOM     14  C   UNL A   1      45.552  22.293  34.258  1.00  0.00     0.041 A 
BRANCH  14  15
ATOM     15  N   UNL A   1      45.534  20.989  34.773  1.00  0.00    -0.326 N 
ATOM     16  C   UNL A   1      45.817  20.393  35.963  1.00  0.00     0.228 C 
ATOM     17  H   UNL A   1      45.241  20.336  34.099  1.00  0.00     0.169 HD
ATOM     18  O   UNL A   1      45.682  19.161  35.955  1.00  0.00    -0.274 OA
BRANCH  16  19
ATOM     19  C   UNL A   1      46.287  21.120  37.237  1.00  0.00     0.095 C 
ATOM     20  C   UNL A   1      45.539  22.486  37.296  1.00  0.00     0.041 C 
ATOM     21  C   UNL A   1      47.811  21.338  37.370  1.00  0.00     0.095 C 
ATOM     22  C   UNL A   1      46.082  23.525  38.226  1.00  0.00    -0.030 C 
ATOM     23  C   UNL A   1      48.356  22.556  38.156  1.00  0.00     0.041 C 
ATOM     24  C   UNL A   1      47.361  23.562  38.602  1.00  0.00    -0.030 C 
BRANCH  21  25
ATOM     25  C   UNL A   1      48.595  20.150  37.880  1.00  0.00     0.228 C 
ATOM     26  O   UNL A   1      48.179  19.615  38.917  1.00  0.00    -0.274 OA
ATOM     27  N   UNL A   1      49.666  19.561  37.262  1.00  0.00    -0.326 N 
ATOM     28  H   UNL A   1      49.919  18.720  37.706  1.00  0.00     0.169 HD
BRANCH  27  29
ATOM     29  C   UNL A   1      50.505  19.835  36.159  1.00  0.00     0.048 A 
ATOM     30  C   UNL A   1      49.884  20.144  34.940  1.00  0.00     0.026 A 
ATOM     31  C   UNL A   1      51.894  19.788  36.162  1.00  0.00     0.111 A 
ATOM     32  C   UNL A   1      50.631  20.455  33.791  1.00  0.00     0.009 A 
ATOM     33  C   UNL A   1      52.649  20.064  35.012  1.00  0.00     0.271 A 
ATOM     34  C   UNL A   1      52.023  20.422  33.822  1.00  0.00     0.086 A 
BRANCH  33  35
ATOM     35  N   UNL A   1      54.111  19.950  35.077  1.00  0.00     0.062 N 
ATOM     36  O   UNL A   1      54.763  20.981  35.290  1.00  0.00    -0.258 OA
ATOM     37  O   UNL A   1      54.610  18.827  34.898  1.00  0.00    -0.258 OA
ENDBRANCH  33  35
ENDBRANCH  27  29
ENDBRANCH  21  25
ENDBRANCH  16  19
ENDBRANCH  14  15
ENDBRANCH   7   9
ENDBRANCH   6   7
ENDBRANCH   5   6
ENDBRANCH   4   5
ENDBRANCH   3   4
ENDBRANCH   2   3
ENDBRANCH   1   2
BRANCH   1  38
ATOM     38  O   UNL A   1      50.993  29.661  35.278  1.00  0.00    -0.377 OA
BRANCH  38  39
ATOM     39  C   UNL A   1      52.138  28.988  35.759  1.00  0.00     0.188 C 
BRANCH  39  40
ATOM     40  C   UNL A   1      53.480  29.530  35.231  1.00  0.00     0.188 C 
BRANCH  40  41
ATOM     41  O   UNL A   1      54.146  29.008  34.089  1.00  0.00    -0.376 OA
BRANCH  41  42
ATOM     42  C   UNL A   1      53.432  28.285  33.101  1.00  0.00     0.202 C 
BRANCH  42  43
ATOM     43  C   UNL A   1      53.720  26.783  32.956  1.00  0.00     0.261 C 
BRANCH  43  44
ATOM     44  O   UNL A   1      53.283  26.199  31.721  1.00  0.00    -0.460 OA
BRANCH  44  45
ATOM     45  C   UNL A   1      52.253  25.324  31.818  1.00  0.00     0.338 C 
ATOM     46  O   UNL A   1      52.295  24.180  32.243  1.00  0.00    -0.246 OA
BRANCH  45  47
ATOM     47  C   UNL A   1      50.986  26.035  31.528  1.00  0.00     0.060 A 
ATOM     48  C   UNL A   1      50.033  26.119  32.555  1.00  0.00     0.016 A 
ATOM     49  C   UNL A   1      50.750  26.656  30.298  1.00  0.00     0.016 A 
ATOM     50  C   UNL A   1      48.834  26.799  32.349  1.00  0.00     0.010 A 
ATOM     51  C   UNL A   1      49.535  27.315  30.082  1.00  0.00     0.010 A 
ATOM     52  C   UNL A   1      48.559  27.358  31.095  1.00  0.00    -0.014 A 
BRANCH  52  53
ATOM     53  C   UNL A   1      47.164  27.734  30.763  1.00  0.00     0.031 A 
ATOM     54  C   UNL A   1      46.722  29.131  31.110  1.00  0.00     0.074 A 
ATOM     55  C   UNL A   1      46.319  26.888  30.149  1.00  0.00     0.049 A 
ATOM     56  N   UNL A   1      45.556  29.699  30.948  1.00  0.00    -0.248 NA
ATOM     57  C   UNL A   1      47.740  30.003  31.723  1.00  0.00     0.031 C 
ATOM     58  C   UNL A   1      46.641  25.533  29.708  1.00  0.00     0.029 A 
ATOM     59  N   UNL A   1      45.003  27.055  29.790  1.00  0.00    -0.354 N 
ATOM     60  C   UNL A   1      45.697  30.988  31.450  1.00  0.00     0.074 A 
ATOM     61  C   UNL A   1      47.049  31.108  31.947  1.00  0.00     0.031 C 
ATOM     62  C   UNL A   1      45.547  24.988  29.143  1.00  0.00     0.029 A 
ATOM     63  C   UNL A   1      44.441  25.943  29.212  1.00  0.00     0.049 A 
ATOM     64  H   UNL A   1      44.509  27.895  29.933  1.00  0.00     0.167 HD
ATOM     65  C   UNL A   1      44.785  31.987  31.492  1.00  0.00     0.031 A 
ATOM     66  C   UNL A   1      43.175  25.718  28.804  1.00  0.00     0.031 A 
ATOM     67  C   UNL A   1      43.432  31.857  31.025  1.00  0.00     0.049 A 
ATOM     68  C   UNL A   1      42.147  26.813  28.943  1.00  0.00     0.074 A 
ATOM     69  C   UNL A   1      42.429  32.808  31.022  1.00  0.00     0.029 A 
ATOM     70  N   UNL A   1      42.889  30.697  30.493  1.00  0.00    -0.354 N 
ATOM     71  N   UNL A   1      42.298  28.034  29.400  1.00  0.00    -0.248 NA
ATOM     72  C   UNL A   1      40.779  26.503  28.503  1.00  0.00     0.031 C 
ATOM     73  C   UNL A   1      41.260  32.204  30.545  1.00  0.00     0.029 A 
ATOM     74  C   UNL A   1      41.555  30.899  30.183  1.00  0.00     0.049 A 
ATOM     75  H   UNL A   1      43.381  29.854  30.355  1.00  0.00     0.167 HD
ATOM     76  C   UNL A   1      41.054  28.646  29.273  1.00  0.00     0.074 A 
ATOM     77  C   UNL A   1      40.166  27.664  28.686  1.00  0.00     0.031 C 
ATOM     78  C   UNL A   1      40.683  29.909  29.602  1.00  0.00     0.031 A 
BRANCH  65  79
ATOM     79  C   UNL A   1      45.219  33.285  32.117  1.00  0.00    -0.014 A 
ATOM     80  C   UNL A   1      45.835  34.297  31.356  1.00  0.00     0.010 A 
ATOM     81  C   UNL A   1      45.016  33.492  33.493  1.00  0.00     0.010 A 
ATOM     82  C   UNL A   1      46.289  35.466  31.971  1.00  0.00     0.020 A 
ATOM     83  C   UNL A   1      45.439  34.675  34.105  1.00  0.00     0.020 A 
ATOM     84  C   UNL A   1      46.093  35.645  33.344  1.00  0.00     0.054 A 
BRANCH  84  85
ATOM     85  S   UNL A   1      46.695  37.170  34.117  1.00  0.00     0.124 S 
ATOM     86  O   UNL A   1      46.127  37.072  35.459  1.00  0.00    -0.237 OA
ATOM     87  O   UNL A   1      48.145  37.018  34.035  1.00  0.00    -0.237 OA
ATOM     88  O   UNL A   1      46.135  38.229  33.279  1.00  0.00    -0.744 OA
ENDBRANCH  84  85
ENDBRANCH  65  79
BRANCH  66  89
ATOM     89  C   UNL A   1      42.802  24.394  28.232  1.00  0.00    -0.014 A 
ATOM     90  C   UNL A   1      42.600  23.281  29.069  1.00  0.00     0.010 A 
ATOM     91  C   UNL A   1      42.639  24.239  26.843  1.00  0.00     0.010 A 
ATOM     92  C   UNL A   1      42.242  22.043  28.529  1.00  0.00     0.020 A 
ATOM     93  C   UNL A   1      42.254  23.010  26.301  1.00  0.00     0.020 A 
ATOM     94  C   UNL A   1      42.060  21.917  27.148  1.00  0.00     0.054 A 
BRANCH  94  95
ATOM     95  S   UNL A   1      41.510  20.322  26.481  1.00  0.00     0.124 S 
ATOM     96  O   UNL A   1      41.547  19.466  27.661  1.00  0.00    -0.237 OA
ATOM     97  O   UNL A   1      40.180  20.642  25.969  1.00  0.00    -0.237 OA
ATOM     98  O   UNL A   1      42.505  20.021  25.454  1.00  0.00    -0.744 OA
ENDBRANCH  94  95
ENDBRANCH  66  89
BRANCH  78  99
ATOM     99  C   UNL A   1      39.266  30.325  29.300  1.00  0.00    -0.014 A 
ATOM    100  C   UNL A   1      38.557  31.194  30.148  1.00  0.00     0.010 A 
ATOM    101  C   UNL A   1      38.660  29.889  28.106  1.00  0.00     0.010 A 
ATOM    102  C   UNL A   1      37.256  31.592  29.824  1.00  0.00     0.020 A 
ATOM    103  C   UNL A   1      37.373  30.310  27.763  1.00  0.00     0.020 A 
ATOM    104  C   UNL A   1      36.673  31.148  28.632  1.00  0.00     0.054 A 
BRANCH 104 105
ATOM    105  S   UNL A   1      35.002  31.715  28.213  1.00  0.00     0.124 S 
ATOM    106  O   UNL A   1      34.400  31.889  29.532  1.00  0.00    -0.237 OA
ATOM    107  O   UNL A   1      35.258  32.947  27.472  1.00  0.00    -0.237 OA
ATOM    108  O   UNL A   1      34.453  30.619  27.418  1.00  0.00    -0.744 OA
ENDBRANCH 104 105
ENDBRANCH  78  99
ENDBRANCH  52  53
ENDBRANCH  45  47
ENDBRANCH  44  45
ENDBRANCH  43  44
ENDBRANCH  42  43
ENDBRANCH  41  42
ENDBRANCH  40  41
ENDBRANCH  39  40
ENDBRANCH  38  39
ENDBRANCH   1  38
TORSDOF 28
ENDMDL
MODEL 2
REMARK VINA RESULT:      -6.9      4.173     11.354
REMARK SMILES O=C(OCCOCCOCCOCCOC(=O)c1ccc(-c2c3nc(c(-c4ccc(S(=O)(=O)[O-])cc4)c4ccc([nH]4)c(-c4ccc(S(=O)(=O)[O-])cc4)c4nc(c(-c5ccc(S(=O)(=O)[O-])cc5)c5ccc2[nH]5)C=C4)C=C3)cc1)c1ccc(NC(=O)[C@@H]2CC=CC[C@H]2C(=O)Nc2cccc([N+](=O)[O-])c2)cc1
REMARK SMILES IDX 8 1 7 2 6 3 5 4 4 5 3 6 2 7 1 8 78 9 79 10 104 11 80 12
REMARK SMILES IDX 103 13 81 14 82 15 83 16 84 18 85 19 86 20 90 21 87 22 89 23
REMARK SMILES IDX 88 24 91 25 92 26 93 27 94 29 95 30 102 31 96 32 98 33 97 34
REMARK SMILES IDX 99 35 100 36 101 37 9 38 10 39 11 40 12 41 13 42 14 43 15 44
REMARK SMILES IDX 16 45 17 46 18 47 19 48 77 49 20 50 76 51 21 52 22 53 23 54
REMARK SMILES IDX 70 55 24 56 75 57 69 58 71 59 25 60 74 61 68 62 67 63 26 65
REMARK SMILES IDX 56 66 37 67 55 68 38 69 41 70 54 71 72 72 39 73 40 74 53 76
REMARK SMILES IDX 73 77 42 78 27 79 28 80 36 81 29 82 35 83 30 84 31 85 32 86
REMARK SMILES IDX 33 87 34 88 57 89 58 90 66 91 59 92 65 93 60 94 61 95 62 96
REMARK SMILES IDX 63 97 64 98 43 99 44 100 52 101 45 102 51 103 46 104 47 105
REMARK SMILES IDX 48 106 49 107 50 108
REMARK H PARENT 82 17 93 28 71 64 41 75
REMARK Flexibility Score: inf
ROOT
ATOM      1  C   UNL A   1      46.011  22.600  39.016  1.00  0.00     0.188 C 
ENDROOT
BRANCH   1   2
ATOM      2  C   UNL A   1      45.348  23.354  37.857  1.00  0.00     0.188 C 
BRANCH   2   3
ATOM      3  O   UNL A   1      45.365  24.788  37.957  1.00  0.00    -0.376 OA
BRANCH   3   4
ATOM      4  C   UNL A   1      44.491  25.450  37.047  1.00  0.00     0.202 C 
BRANCH   4   5
ATOM      5  C   UNL A   1      43.222  25.932  37.735  1.00  0.00     0.261 C 
BRANCH   5   6
ATOM      6  O   UNL A   1      42.545  26.971  37.001  1.00  0.00    -0.460 OA
BRANCH   6   7
ATOM      7  C   UNL A   1      41.740  26.953  35.919  1.00  0.00     0.338 C 
ATOM      8  O   UNL A   1      41.246  25.868  35.606  1.00  0.00    -0.246 OA
BRANCH   7   9
ATOM      9  C   UNL A   1      41.421  28.124  35.032  1.00  0.00     0.060 A 
ATOM     10  C   UNL A   1      41.192  29.450  35.408  1.00  0.00     0.018 A 
ATOM     11  C   UNL A   1      41.286  27.826  33.664  1.00  0.00     0.018 A 
ATOM     12  C   UNL A   1      41.025  30.471  34.435  1.00  0.00     0.027 A 
ATOM     13  C   UNL A   1      41.086  28.826  32.708  1.00  0.00     0.027 A 
ATOM     14  C   UNL A   1      41.076  30.170  33.078  1.00  0.00     0.041 A 
BRANCH  14  15
ATOM     15  N   UNL A   1      41.134  31.082  32.016  1.00  0.00    -0.326 N 
ATOM     16  C   UNL A   1      40.420  32.165  31.603  1.00  0.00     0.228 C 
ATOM     17  H   UNL A   1      41.887  30.891  31.413  1.00  0.00     0.169 HD
ATOM     18  O   UNL A   1      40.833  32.669  30.548  1.00  0.00    -0.274 OA
BRANCH  16  19
ATOM     19  C   UNL A   1      39.189  32.750  32.321  1.00  0.00     0.095 C 
ATOM     20  C   UNL A   1      39.676  33.326  33.684  1.00  0.00     0.041 C 
ATOM     21  C   UNL A   1      38.007  31.778  32.541  1.00  0.00     0.095 C 
ATOM     22  C   UNL A   1      38.632  33.617  34.717  1.00  0.00    -0.030 C 
ATOM     23  C   UNL A   1      37.063  31.966  33.753  1.00  0.00     0.041 C 
ATOM     24  C   UNL A   1      37.456  32.989  34.754  1.00  0.00    -0.030 C 
BRANCH  21  25
ATOM     25  C   UNL A   1      37.096  31.584  31.351  1.00  0.00     0.228 C 
ATOM     26  O   UNL A   1      36.093  32.308  31.296  1.00  0.00    -0.274 OA
ATOM     27  N   UNL A   1      37.318  30.746  30.290  1.00  0.00    -0.326 N 
ATOM     28  H   UNL A   1      36.662  30.895  29.571  1.00  0.00     0.169 HD
BRANCH  27  29
ATOM     29  C   UNL A   1      38.233  29.726  29.949  1.00  0.00     0.048 A 
ATOM     30  C   UNL A   1      38.069  28.481  30.575  1.00  0.00     0.026 A 
ATOM     31  C   UNL A   1      39.307  29.854  29.077  1.00  0.00     0.111 A 
ATOM     32  C   UNL A   1      38.913  27.395  30.285  1.00  0.00     0.009 A 
ATOM     33  C   UNL A   1      40.176  28.785  28.807  1.00  0.00     0.271 A 
ATOM     34  C   UNL A   1      39.972  27.540  29.392  1.00  0.00     0.086 A 
BRANCH  33  35
ATOM     35  N   UNL A   1      41.317  29.006  27.910  1.00  0.00     0.062 N 
ATOM     36  O   UNL A   1      41.264  28.516  26.773  1.00  0.00    -0.258 OA
ATOM     37  O   UNL A   1      42.277  29.659  28.350  1.00  0.00    -0.258 OA
ENDBRANCH  33  35
ENDBRANCH  27  29
ENDBRANCH  21  25
ENDBRANCH  16  19
ENDBRANCH  14  15
ENDBRANCH   7   9
ENDBRANCH   6   7
ENDBRANCH   5   6
ENDBRANCH   4   5
ENDBRANCH   3   4
ENDBRANCH   2   3
ENDBRANCH   1   2
BRANCH   1  38
ATOM     38  O   UNL A   1      47.429  22.607  39.025  1.00  0.00    -0.377 OA
BRANCH  38  39
ATOM     39  C   UNL A   1      48.063  21.438  39.502  1.00  0.00     0.188 C 
BRANCH  39  40
ATOM     40  C   UNL A   1      47.921  20.205  38.590  1.00  0.00     0.188 C 
BRANCH  40  41
ATOM     41  O   UNL A   1      48.877  19.842  37.602  1.00  0.00    -0.376 OA
BRANCH  41  42
ATOM     42  C   UNL A   1      50.212  19.532  37.964  1.00  0.00     0.202 C 
BRANCH  42  43
ATOM     43  C   UNL A   1      51.199  19.172  36.844  1.00  0.00     0.261 C 
BRANCH  43  44
ATOM     44  O   UNL A   1      51.865  20.290  36.240  1.00  0.00    -0.460 OA
BRANCH  44  45
ATOM     45  C   UNL A   1      51.579  20.506  34.933  1.00  0.00     0.338 C 
ATOM     46  O   UNL A   1      51.801  19.755  33.996  1.00  0.00    -0.246 OA
BRANCH  45  47
ATOM     47  C   UNL A   1      50.743  21.723  34.817  1.00  0.00     0.060 A 
ATOM     48  C   UNL A   1      51.398  22.960  34.719  1.00  0.00     0.016 A 
ATOM     49  C   UNL A   1      49.348  21.660  34.749  1.00  0.00     0.016 A 
ATOM     50  C   UNL A   1      50.664  24.137  34.580  1.00  0.00     0.010 A 
ATOM     51  C   UNL A   1      48.610  22.844  34.638  1.00  0.00     0.010 A 
ATOM     52  C   UNL A   1      49.265  24.088  34.588  1.00  0.00    -0.014 A 
BRANCH  52  53
ATOM     53  C   UNL A   1      48.502  25.336  34.825  1.00  0.00     0.031 A 
ATOM     54  C   UNL A   1      47.885  26.008  33.627  1.00  0.00     0.074 A 
ATOM     55  C   UNL A   1      48.326  25.849  36.055  1.00  0.00     0.049 A 
ATOM     56  N   UNL A   1      47.193  27.115  33.559  1.00  0.00    -0.248 NA
ATOM     57  C   UNL A   1      48.080  25.335  32.331  1.00  0.00     0.031 C 
ATOM     58  C   UNL A   1      48.819  25.264  37.300  1.00  0.00     0.029 A 
ATOM     59  N   UNL A   1      47.676  26.992  36.455  1.00  0.00    -0.354 N 
ATOM     60  C   UNL A   1      46.880  27.276  32.214  1.00  0.00     0.074 A 
ATOM     61  C   UNL A   1      47.482  26.172  31.499  1.00  0.00     0.031 C 
ATOM     62  C   UNL A   1      48.460  26.058  38.326  1.00  0.00     0.029 A 
ATOM     63  C   UNL A   1      47.741  27.221  37.807  1.00  0.00     0.049 A 
ATOM     64  H   UNL A   1      47.208  27.591  35.829  1.00  0.00     0.167 HD
ATOM     65  C   UNL A   1      46.154  28.253  31.622  1.00  0.00     0.031 A 
ATOM     66  C   UNL A   1      47.288  28.261  38.538  1.00  0.00     0.031 A 
ATOM     67  C   UNL A   1      45.582  29.365  32.328  1.00  0.00     0.049 A 
ATOM     68  C   UNL A   1      46.560  29.388  37.848  1.00  0.00     0.074 A 
ATOM     69  C   UNL A   1      44.829  30.410  31.823  1.00  0.00     0.029 A 
ATOM     70  N   UNL A   1      45.714  29.587  33.691  1.00  0.00    -0.354 N 
ATOM     71  N   UNL A   1      46.253  29.519  36.579  1.00  0.00    -0.248 NA
ATOM     72  C   UNL A   1      46.109  30.505  38.692  1.00  0.00     0.031 C 
ATOM     73  C   UNL A   1      44.558  31.296  32.871  1.00  0.00     0.029 A 
ATOM     74  C   UNL A   1      45.080  30.766  34.041  1.00  0.00     0.049 A 
ATOM     75  H   UNL A   1      46.188  28.992  34.317  1.00  0.00     0.167 HD
ATOM     76  C   UNL A   1      45.547  30.714  36.478  1.00  0.00     0.074 A 
ATOM     77  C   UNL A   1      45.463  31.262  37.816  1.00  0.00     0.031 C 
ATOM     78  C   UNL A   1      45.007  31.301  35.378  1.00  0.00     0.031 A 
BRANCH  65  79
ATOM     79  C   UNL A   1      45.995  28.178  30.127  1.00  0.00    -0.014 A 
ATOM     80  C   UNL A   1      44.954  27.437  29.536  1.00  0.00     0.010 A 
ATOM     81  C   UNL A   1      46.909  28.853  29.299  1.00  0.00     0.010 A 
ATOM     82  C   UNL A   1      44.864  27.329  28.146  1.00  0.00     0.020 A 
ATOM     83  C   UNL A   1      46.803  28.773  27.908  1.00  0.00     0.020 A 
ATOM     84  C   UNL A   1      45.794  27.993  27.341  1.00  0.00     0.054 A 
BRANCH  84  85
ATOM     85  S   UNL A   1      45.658  27.832  25.540  1.00  0.00     0.124 S 
ATOM     86  O   UNL A   1      46.358  29.027  25.078  1.00  0.00    -0.237 OA
ATOM     87  O   UNL A   1      46.337  26.565  25.281  1.00  0.00    -0.237 OA
ATOM     88  O   UNL A   1      44.216  27.823  25.301  1.00  0.00    -0.744 OA
ENDBRANCH  84  85
ENDBRANCH  65  79
BRANCH  66  89
ATOM     89  C   UNL A   1      47.517  28.293  40.010  1.00  0.00    -0.014 A 
ATOM     90  C   UNL A   1      46.549  27.789  40.898  1.00  0.00     0.010 A 
ATOM     91  C   UNL A   1      48.712  28.822  40.533  1.00  0.00     0.010 A 
ATOM     92  C   UNL A   1      46.772  27.812  42.277  1.00  0.00     0.020 A 
ATOM     93  C   UNL A   1      48.950  28.822  41.910  1.00  0.00     0.020 A 
ATOM     94  C   UNL A   1      47.976  28.319  42.775  1.00  0.00     0.054 A 
BRANCH  94  95
ATOM     95  S   UNL A   1      48.277  28.259  44.563  1.00  0.00     0.124 S 
ATOM     96  O   UNL A   1      49.649  27.769  44.627  1.00  0.00    -0.237 OA
ATOM     97  O   UNL A   1      48.081  29.652  44.958  1.00  0.00    -0.237 OA
ATOM     98  O   UNL A   1      47.256  27.335  45.050  1.00  0.00    -0.744 OA
ENDBRANCH  94  95
ENDBRANCH  66  89
BRANCH  78  99
ATOM     99  C   UNL A   1      44.240  32.583  35.573  1.00  0.00    -0.014 A 
ATOM    100  C   UNL A   1      42.960  32.595  36.152  1.00  0.00     0.010 A 
ATOM    101  C   UNL A   1      44.848  33.807  35.230  1.00  0.00     0.010 A 
ATOM    102  C   UNL A   1      42.287  33.804  36.355  1.00  0.00     0.020 A 
ATOM    103  C   UNL A   1      44.192  35.019  35.461  1.00  0.00     0.020 A 
ATOM    104  C   UNL A   1      42.909  35.009  36.009  1.00  0.00     0.054 A 
BRANCH 104 105
ATOM    105  S   UNL A   1      42.033  36.566  36.323  1.00  0.00     0.124 S 
ATOM    106  O   UNL A   1      41.807  36.502  37.765  1.00  0.00    -0.237 OA
ATOM    107  O   UNL A   1      42.996  37.570  35.882  1.00  0.00    -0.237 OA
ATOM    108  O   UNL A   1      40.830  36.459  35.500  1.00  0.00    -0.744 OA
ENDBRANCH 104 105
ENDBRANCH  78  99
ENDBRANCH  52  53
ENDBRANCH  45  47
ENDBRANCH  44  45
ENDBRANCH  43  44
ENDBRANCH  42  43
ENDBRANCH  41  42
ENDBRANCH  40  41
ENDBRANCH  39  40
ENDBRANCH  38  39
ENDBRANCH   1  38
TORSDOF 28
ENDMDL
MODEL 3
REMARK VINA RESULT:      -6.8      5.385     12.353
REMARK SMILES O=C(OCCOCCOCCOCCOC(=O)c1ccc(-c2c3nc(c(-c4ccc(S(=O)(=O)[O-])cc4)c4ccc([nH]4)c(-c4ccc(S(=O)(=O)[O-])cc4)c4nc(c(-c5ccc(S(=O)(=O)[O-])cc5)c5ccc2[nH]5)C=C4)C=C3)cc1)c1ccc(NC(=O)[C@@H]2CC=CC[C@H]2C(=O)Nc2cccc([N+](=O)[O-])c2)cc1
REMARK SMILES IDX 8 1 7 2 6 3 5 4 4 5 3 6 2 7 1 8 78 9 79 10 104 11 80 12
REMARK SMILES IDX 103 13 81 14 82 15 83 16 84 18 85 19 86 20 90 21 87 22 89 23
REMARK SMILES IDX 88 24 91 25 92 26 93 27 94 29 95 30 102 31 96 32 98 33 97 34
REMARK SMILES IDX 99 35 100 36 101 37 9 38 10 39 11 40 12 41 13 42 14 43 15 44
REMARK SMILES IDX 16 45 17 46 18 47 19 48 77 49 20 50 76 51 21 52 22 53 23 54
REMARK SMILES IDX 70 55 24 56 75 57 69 58 71 59 25 60 74 61 68 62 67 63 26 65
REMARK SMILES IDX 56 66 37 67 55 68 38 69 41 70 54 71 72 72 39 73 40 74 53 76
REMARK SMILES IDX 73 77 42 78 27 79 28 80 36 81 29 82 35 83 30 84 31 85 32 86
REMARK SMILES IDX 33 87 34 88 57 89 58 90 66 91 59 92 65 93 60 94 61 95 62 96
REMARK SMILES IDX 63 97 64 98 43 99 44 100 52 101 45 102 51 103 46 104 47 105
REMARK SMILES IDX 48 106 49 107 50 108
REMARK H PARENT 82 17 93 28 71 64 41 75
REMARK Flexibility Score: inf
ROOT
ATOM      1  C   UNL A   1      47.219  24.402  24.835  1.00  0.00     0.188 C 
ENDROOT
BRANCH   1   2
ATOM      2  C   UNL A   1      46.432  24.293  26.147  1.00  0.00     0.188 C 
BRANCH   2   3
ATOM      3  O   UNL A   1      45.588  23.135  26.273  1.00  0.00    -0.376 OA
BRANCH   3   4
ATOM      4  C   UNL A   1      45.117  22.615  25.033  1.00  0.00     0.202 C 
BRANCH   4   5
ATOM      5  C   UNL A   1      44.153  21.456  25.238  1.00  0.00     0.261 C 
BRANCH   5   6
ATOM      6  O   UNL A   1      42.794  21.885  25.445  1.00  0.00    -0.460 OA
BRANCH   6   7
ATOM      7  C   UNL A   1      42.117  22.294  26.539  1.00  0.00     0.338 C 
ATOM      8  O   UNL A   1      42.093  21.525  27.502  1.00  0.00    -0.246 OA
BRANCH   7   9
ATOM      9  C   UNL A   1      41.355  23.582  26.681  1.00  0.00     0.060 A 
ATOM     10  C   UNL A   1      40.193  23.816  27.420  1.00  0.00     0.018 A 
ATOM     11  C   UNL A   1      41.853  24.663  25.931  1.00  0.00     0.018 A 
ATOM     12  C   UNL A   1      39.661  25.126  27.556  1.00  0.00     0.027 A 
ATOM     13  C   UNL A   1      41.307  25.946  26.036  1.00  0.00     0.027 A 
ATOM     14  C   UNL A   1      40.283  26.209  26.944  1.00  0.00     0.041 A 
BRANCH  14  15
ATOM     15  N   UNL A   1      40.002  27.566  27.150  1.00  0.00    -0.326 N 
ATOM     16  C   UNL A   1      39.903  28.404  28.219  1.00  0.00     0.228 C 
ATOM     17  H   UNL A   1      39.834  28.036  26.303  1.00  0.00     0.169 HD
ATOM     18  O   UNL A   1      39.594  29.567  27.921  1.00  0.00    -0.274 OA
BRANCH  16  19
ATOM     19  C   UNL A   1      40.121  28.004  29.690  1.00  0.00     0.095 C 
ATOM     20  C   UNL A   1      38.724  27.662  30.292  1.00  0.00     0.041 C 
ATOM     21  C   UNL A   1      40.845  29.044  30.575  1.00  0.00     0.095 C 
ATOM     22  C   UNL A   1      38.617  27.600  31.783  1.00  0.00    -0.030 C 
ATOM     23  C   UNL A   1      40.550  29.112  32.093  1.00  0.00     0.041 C 
ATOM     24  C   UNL A   1      39.436  28.269  32.595  1.00  0.00    -0.030 C 
BRANCH  21  25
ATOM     25  C   UNL A   1      42.352  29.058  30.459  1.00  0.00     0.228 C 
ATOM     26  O   UNL A   1      42.918  27.956  30.449  1.00  0.00    -0.274 OA
ATOM     27  N   UNL A   1      43.140  30.164  30.281  1.00  0.00    -0.326 N 
ATOM     28  H   UNL A   1      44.073  29.913  30.089  1.00  0.00     0.169 HD
BRANCH  27  29
ATOM     29  C   UNL A   1      42.976  31.566  30.298  1.00  0.00     0.048 A 
ATOM     30  C   UNL A   1      42.331  32.124  31.412  1.00  0.00     0.026 A 
ATOM     31  C   UNL A   1      43.363  32.443  29.292  1.00  0.00     0.111 A 
ATOM     32  C   UNL A   1      42.140  33.511  31.534  1.00  0.00     0.009 A 
ATOM     33  C   UNL A   1      43.147  33.827  29.389  1.00  0.00     0.271 A 
ATOM     34  C   UNL A   1      42.554  34.374  30.522  1.00  0.00     0.086 A 
BRANCH  33  35
ATOM     35  N   UNL A   1      43.540  34.688  28.266  1.00  0.00     0.062 N 
ATOM     36  O   UNL A   1      43.750  34.151  27.170  1.00  0.00    -0.258 OA
ATOM     37  O   UNL A   1      43.656  35.904  28.487  1.00  0.00    -0.258 OA
ENDBRANCH  33  35
ENDBRANCH  27  29
ENDBRANCH  21  25
ENDBRANCH  16  19
ENDBRANCH  14  15
ENDBRANCH   7   9
ENDBRANCH   6   7
ENDBRANCH   5   6
ENDBRANCH   4   5
ENDBRANCH   3   4
ENDBRANCH   2   3
ENDBRANCH   1   2
BRANCH   1  38
ATOM     38  O   UNL A   1      48.218  25.408  24.797  1.00  0.00    -0.377 OA
BRANCH  38  39
ATOM     39  C   UNL A   1      48.066  26.410  23.813  1.00  0.00     0.188 C 
BRANCH  39  40
ATOM     40  C   UNL A   1      48.548  27.811  24.233  1.00  0.00     0.188 C 
BRANCH  40  41
ATOM     41  O   UNL A   1      49.118  28.100  25.502  1.00  0.00    -0.376 OA
BRANCH  41  42
ATOM     42  C   UNL A   1      48.369  28.778  26.496  1.00  0.00     0.202 C 
BRANCH  42  43
ATOM     43  C   UNL A   1      49.077  29.146  27.809  1.00  0.00     0.261 C 
BRANCH  43  44
ATOM     44  O   UNL A   1      50.150  30.088  27.675  1.00  0.00    -0.460 OA
BRANCH  44  45
ATOM     45  C   UNL A   1      49.787  31.341  27.304  1.00  0.00     0.338 C 
ATOM     46  O   UNL A   1      49.985  31.876  26.224  1.00  0.00    -0.246 OA
BRANCH  45  47
ATOM     47  C   UNL A   1      48.903  31.915  28.344  1.00  0.00     0.060 A 
ATOM     48  C   UNL A   1      49.456  32.163  29.610  1.00  0.00     0.016 A 
ATOM     49  C   UNL A   1      47.573  32.258  28.080  1.00  0.00     0.016 A 
ATOM     50  C   UNL A   1      48.680  32.727  30.620  1.00  0.00     0.010 A 
ATOM     51  C   UNL A   1      46.786  32.799  29.102  1.00  0.00     0.010 A 
ATOM     52  C   UNL A   1      47.327  33.003  30.385  1.00  0.00    -0.014 A 
BRANCH  52  53
ATOM     53  C   UNL A   1      46.427  33.234  31.539  1.00  0.00     0.031 A 
ATOM     54  C   UNL A   1      45.908  32.022  32.266  1.00  0.00     0.074 A 
ATOM     55  C   UNL A   1      46.100  34.468  31.960  1.00  0.00     0.049 A 
ATOM     56  N   UNL A   1      45.094  31.949  33.286  1.00  0.00    -0.248 NA
ATOM     57  C   UNL A   1      46.375  30.715  31.770  1.00  0.00     0.031 C 
ATOM     58  C   UNL A   1      46.581  35.721  31.381  1.00  0.00     0.029 A 
ATOM     59  N   UNL A   1      45.273  34.866  32.982  1.00  0.00    -0.354 N 
ATOM     60  C   UNL A   1      44.942  30.591  33.545  1.00  0.00     0.074 A 
ATOM     61  C   UNL A   1      45.724  29.878  32.559  1.00  0.00     0.031 C 
ATOM     62  C   UNL A   1      46.035  36.750  32.055  1.00  0.00     0.029 A 
ATOM     63  C   UNL A   1      45.141  36.229  33.089  1.00  0.00     0.049 A 
ATOM     64  H   UNL A   1      44.818  34.233  33.584  1.00  0.00     0.167 HD
ATOM     65  C   UNL A   1      44.221  29.988  34.518  1.00  0.00     0.031 A 
ATOM     66  C   UNL A   1      44.372  36.968  33.915  1.00  0.00     0.031 A 
ATOM     67  C   UNL A   1      43.421  30.696  35.479  1.00  0.00     0.049 A 
ATOM     68  C   UNL A   1      43.502  36.275  34.934  1.00  0.00     0.074 A 
ATOM     69  C   UNL A   1      42.652  30.180  36.505  1.00  0.00     0.029 A 
ATOM     70  N   UNL A   1      43.275  32.075  35.520  1.00  0.00    -0.354 N 
ATOM     71  N   UNL A   1      43.384  34.992  35.182  1.00  0.00    -0.248 NA
ATOM     72  C   UNL A   1      42.669  37.131  35.792  1.00  0.00     0.031 C 
ATOM     73  C   UNL A   1      41.991  31.244  37.129  1.00  0.00     0.029 A 
ATOM     74  C   UNL A   1      42.405  32.427  36.538  1.00  0.00     0.049 A 
ATOM     75  H   UNL A   1      43.725  32.709  34.915  1.00  0.00     0.167 HD
ATOM     76  C   UNL A   1      42.488  34.889  36.243  1.00  0.00     0.074 A 
ATOM     77  C   UNL A   1      42.105  36.241  36.596  1.00  0.00     0.031 C 
ATOM     78  C   UNL A   1      42.031  33.778  36.875  1.00  0.00     0.031 A 
BRANCH  65  79
ATOM     79  C   UNL A   1      44.229  28.483  34.543  1.00  0.00    -0.014 A 
ATOM     80  C   UNL A   1      43.230  27.733  33.894  1.00  0.00     0.010 A 
ATOM     81  C   UNL A   1      45.249  27.807  35.236  1.00  0.00     0.010 A 
ATOM     82  C   UNL A   1      43.221  26.339  33.984  1.00  0.00     0.020 A 
ATOM     83  C   UNL A   1      45.262  26.411  35.301  1.00  0.00     0.020 A 
ATOM     84  C   UNL A   1      44.235  25.687  34.693  1.00  0.00     0.054 A 
BRANCH  84  85
ATOM     85  S   UNL A   1      44.197  23.878  34.799  1.00  0.00     0.124 S 
ATOM     86  O   UNL A   1      45.098  23.495  33.715  1.00  0.00    -0.237 OA
ATOM     87  O   UNL A   1      44.695  23.627  36.149  1.00  0.00    -0.237 OA
ATOM     88  O   UNL A   1      42.790  23.547  34.586  1.00  0.00    -0.744 OA
ENDBRANCH  84  85
ENDBRANCH  65  79
BRANCH  66  89
ATOM     89  C   UNL A   1      44.380  38.454  33.808  1.00  0.00    -0.014 A 
ATOM     90  C   UNL A   1      45.284  39.223  34.564  1.00  0.00     0.010 A 
ATOM     91  C   UNL A   1      43.486  39.111  32.942  1.00  0.00     0.010 A 
ATOM     92  C   UNL A   1      45.295  40.617  34.454  1.00  0.00     0.020 A 
ATOM     93  C   UNL A   1      43.512  40.502  32.809  1.00  0.00     0.020 A 
ATOM     94  C   UNL A   1      44.415  41.247  33.569  1.00  0.00     0.054 A 
BRANCH  94  95
ATOM     95  S   UNL A   1      44.508  43.050  33.380  1.00  0.00     0.124 S 
ATOM     96  O   UNL A   1      45.873  43.333  33.809  1.00  0.00    -0.237 OA
ATOM     97  O   UNL A   1      44.240  43.226  31.955  1.00  0.00    -0.237 OA
ATOM     98  O   UNL A   1      43.456  43.540  34.267  1.00  0.00    -0.744 OA
ENDBRANCH  94  95
ENDBRANCH  66  89
BRANCH  78  99
ATOM     99  C   UNL A   1      41.097  33.969  38.042  1.00  0.00    -0.014 A 
ATOM    100  C   UNL A   1      39.703  34.008  37.871  1.00  0.00     0.010 A 
ATOM    101  C   UNL A   1      41.628  34.040  39.345  1.00  0.00     0.010 A 
ATOM    102  C   UNL A   1      38.858  34.148  38.976  1.00  0.00     0.020 A 
ATOM    103  C   UNL A   1      40.786  34.148  40.454  1.00  0.00     0.020 A 
ATOM    104  C   UNL A   1      39.406  34.216  40.262  1.00  0.00     0.054 A 
BRANCH 104 105
ATOM    105  S   UNL A   1      38.287  34.353  41.683  1.00  0.00     0.124 S 
ATOM    106  O   UNL A   1      37.918  35.766  41.643  1.00  0.00    -0.237 OA
ATOM    107  O   UNL A   1      37.221  33.415  41.343  1.00  0.00    -0.237 OA
ATOM    108  O   UNL A   1      39.118  33.959  42.818  1.00  0.00    -0.744 OA
ENDBRANCH 104 105
ENDBRANCH  78  99
ENDBRANCH  52  53
ENDBRANCH  45  47
ENDBRANCH  44  45
ENDBRANCH  43  44
ENDBRANCH  42  43
ENDBRANCH  41  42
ENDBRANCH  40  41
ENDBRANCH  39  40
ENDBRANCH  38  39
ENDBRANCH   1  38
TORSDOF 28
ENDMDL
