MODEL 1
REMARK VINA RESULT:      -6.9      0.000      0.000
REMARK SMILES Cc1ccc([C@@]23C[C@@H]4C[C@@H](C[C@@](C(=O)N5CCC(C(=O)OCCOCCOCCOCCOC(=O)c6ccc(-c7c8nc(c(-c9ccc(S(=O)(=O)[O-])cc9)c9ccc([nH]9)c(-c9ccc(S(=O)(=O)[O-])cc9)c9nc(c(-c%10ccc(S(=O)(=O)[O-])cc%10)c%10ccc7[nH]%10)C=C9)C=C8)cc6)CC5)(C4)C2)C3)cc1
REMARK SMILES IDX 28 1 27 2 26 3 25 4 24 5 23 6 22 7 21 8 19 9 20 10 18 11
REMARK SMILES IDX 13 12 14 13 15 14 16 15 97 16 17 17 96 18 12 19 6 20 7 21
REMARK SMILES IDX 99 22 100 23 8 24 10 25 9 26 98 27 11 28 5 29 1 30 2 31 3 32
REMARK SMILES IDX 102 33 4 34 101 35 29 36 30 37 31 38 32 39 33 40 34 41 35 42
REMARK SMILES IDX 36 43 37 44 95 45 38 46 94 47 39 48 40 49 41 50 88 51 42 52
REMARK SMILES IDX 93 53 87 54 89 55 43 56 92 57 86 58 85 59 44 61 74 62 55 63
REMARK SMILES IDX 73 64 56 65 59 66 72 67 90 68 57 69 58 70 71 72 91 73 60 74
REMARK SMILES IDX 45 75 46 76 54 77 47 78 53 79 48 80 49 81 50 82 51 83 52 84
REMARK SMILES IDX 75 85 76 86 84 87 77 88 83 89 78 90 79 91 80 92 81 93 82 94
REMARK SMILES IDX 61 95 62 96 70 97 63 98 69 99 64 100 65 101 66 102 67 103
REMARK SMILES IDX 68 104
REMARK H PARENT 89 60 59 71
REMARK Flexibility Score: inf
ROOT
ATOM      1  C   UNL A   1      46.415  39.182  26.951  1.00  0.00     0.188 C 
ENDROOT
BRANCH   1   2
ATOM      2  O   UNL A   1      45.758  39.510  28.155  1.00  0.00    -0.377 OA
BRANCH   2   3
ATOM      3  C   UNL A   1      45.079  38.507  28.873  1.00  0.00     0.188 C 
BRANCH   3   4
ATOM      4  C   UNL A   1      43.547  38.599  28.910  1.00  0.00     0.188 C 
BRANCH   4   5
ATOM      5  O   UNL A   1      42.793  37.388  28.852  1.00  0.00    -0.376 OA
BRANCH   5   6
ATOM      6  C   UNL A   1      43.527  36.175  28.911  1.00  0.00     0.202 C 
BRANCH   6   7
ATOM      7  C   UNL A   1      43.052  35.122  27.938  1.00  0.00     0.261 C 
BRANCH   7   8
ATOM      8  O   UNL A   1      43.600  35.382  26.646  1.00  0.00    -0.463 OA
BRANCH   8   9
ATOM      9  C   UNL A   1      43.707  34.314  25.844  1.00  0.00     0.309 C 
ATOM     10  O   UNL A   1      43.397  34.267  24.657  1.00  0.00    -0.252 OA
BRANCH   9  11
ATOM     11  C   UNL A   1      44.482  33.228  26.519  1.00  0.00     0.103 C 
ATOM     12  C   UNL A   1      46.696  29.596  26.668  1.00  0.00     0.228 C 
ATOM     13  O   UNL A   1      47.892  29.665  26.368  1.00  0.00    -0.274 OA
ATOM     14  N   UNL A   1      45.918  30.752  26.816  1.00  0.00    -0.342 N 
ATOM     15  C   UNL A   1      46.611  32.031  27.021  1.00  0.00     0.120 C 
ATOM     16  C   UNL A   1      44.459  30.823  26.985  1.00  0.00     0.120 C 
ATOM     17  C   UNL A   1      45.981  33.170  26.220  1.00  0.00     0.037 C 
ATOM     18  C   UNL A   1      43.853  31.899  26.126  1.00  0.00     0.037 C 
BRANCH  12  19
ATOM     19  C   UNL A   1      46.077  28.216  27.001  1.00  0.00     0.051 C 
ATOM     20  C   UNL A   1      44.949  27.008  28.986  1.00  0.00    -0.003 C 
ATOM     21  C   UNL A   1      43.762  26.748  28.011  1.00  0.00     0.015 C 
ATOM     22  C   UNL A   1      45.675  28.259  28.484  1.00  0.00     0.028 C 
ATOM     23  C   UNL A   1      45.974  25.855  28.862  1.00  0.00     0.015 C 
ATOM     24  C   UNL A   1      44.248  26.542  26.560  1.00  0.00    -0.009 C 
ATOM     25  C   UNL A   1      46.470  25.727  27.402  1.00  0.00    -0.009 C 
ATOM     26  C   UNL A   1      45.262  25.390  26.513  1.00  0.00     0.007 C 
ATOM     27  C   UNL A   1      44.934  27.815  26.046  1.00  0.00     0.020 C 
ATOM     28  C   UNL A   1      47.113  27.054  26.919  1.00  0.00     0.020 C 
BRANCH  20  29
ATOM     29  C   UNL A   1      44.441  27.225  30.427  1.00  0.00    -0.042 A 
ATOM     30  C   UNL A   1      42.795  27.716  34.421  1.00  0.00     0.044 C 
ATOM     31  C   UNL A   1      43.383  27.537  33.055  1.00  0.00    -0.051 A 
ATOM     32  C   UNL A   1      43.161  28.511  32.088  1.00  0.00     0.004 A 
ATOM     33  C   UNL A   1      44.141  26.413  32.713  1.00  0.00     0.004 A 
ATOM     34  C   UNL A   1      43.691  28.361  30.806  1.00  0.00     0.004 A 
ATOM     35  C   UNL A   1      44.661  26.258  31.418  1.00  0.00     0.004 A 
ENDBRANCH  20  29
ENDBRANCH  12  19
ENDBRANCH   9  11
ENDBRANCH   8   9
ENDBRANCH   7   8
ENDBRANCH   6   7
ENDBRANCH   5   6
ENDBRANCH   4   5
ENDBRANCH   3   4
ENDBRANCH   2   3
ENDBRANCH   1   2
BRANCH   1  36
ATOM     36  C   UNL A   1      46.348  37.675  26.709  1.00  0.00     0.188 C 
BRANCH  36  37
ATOM     37  O   UNL A   1      47.585  36.984  26.650  1.00  0.00    -0.376 OA
BRANCH  37  38
ATOM     38  C   UNL A   1      48.058  36.361  27.850  1.00  0.00     0.202 C 
BRANCH  38  39
ATOM     39  C   UNL A   1      47.130  35.419  28.670  1.00  0.00     0.261 C 
BRANCH  39  40
ATOM     40  O   UNL A   1      47.789  34.916  29.860  1.00  0.00    -0.460 OA
BRANCH  40  41
ATOM     41  C   UNL A   1      47.557  35.556  31.049  1.00  0.00     0.338 C 
ATOM     42  O   UNL A   1      47.734  36.751  31.224  1.00  0.00    -0.246 OA
BRANCH  41  43
ATOM     43  C   UNL A   1      46.694  34.760  31.971  1.00  0.00     0.060 A 
ATOM     44  C   UNL A   1      46.751  33.369  32.020  1.00  0.00     0.016 A 
ATOM     45  C   UNL A   1      45.784  35.413  32.794  1.00  0.00     0.016 A 
ATOM     46  C   UNL A   1      45.725  32.653  32.655  1.00  0.00     0.010 A 
ATOM     47  C   UNL A   1      44.697  34.717  33.312  1.00  0.00     0.010 A 
ATOM     48  C   UNL A   1      44.600  33.334  33.142  1.00  0.00    -0.014 A 
BRANCH  48  49
ATOM     49  C   UNL A   1      43.242  32.740  33.131  1.00  0.00     0.031 A 
ATOM     50  C   UNL A   1      42.552  32.279  31.882  1.00  0.00     0.074 A 
ATOM     51  C   UNL A   1      42.760  32.342  34.341  1.00  0.00     0.049 A 
ATOM     52  N   UNL A   1      41.340  31.833  31.853  1.00  0.00    -0.248 NA
ATOM     53  C   UNL A   1      43.160  32.236  30.552  1.00  0.00     0.031 C 
ATOM     54  C   UNL A   1      41.646  31.447  34.642  1.00  0.00     0.029 A 
ATOM     55  N   UNL A   1      43.181  32.721  35.615  1.00  0.00    -0.354 N 
ATOM     56  C   UNL A   1      41.143  31.144  30.673  1.00  0.00     0.074 A 
ATOM     57  C   UNL A   1      42.277  31.502  29.859  1.00  0.00     0.031 C 
ATOM     58  C   UNL A   1      41.418  31.404  35.964  1.00  0.00     0.029 A 
ATOM     59  C   UNL A   1      42.158  32.497  36.545  1.00  0.00     0.049 A 
ATOM     60  H   UNL A   1      44.067  33.093  35.829  1.00  0.00     0.167 HD
ATOM     61  C   UNL A   1      40.117  30.238  30.587  1.00  0.00     0.031 A 
ATOM     62  C   UNL A   1      41.502  33.590  37.045  1.00  0.00     0.031 A 
ATOM     63  C   UNL A   1      39.156  30.377  31.710  1.00  0.00     0.049 A 
ATOM     64  C   UNL A   1      40.123  33.831  36.394  1.00  0.00     0.074 A 
ATOM     65  C   UNL A   1      38.519  29.520  32.594  1.00  0.00     0.029 A 
ATOM     66  N   UNL A   1      38.861  31.662  32.184  1.00  0.00    -0.354 N 
ATOM     67  N   UNL A   1      39.679  33.151  35.358  1.00  0.00    -0.248 NA
ATOM     68  C   UNL A   1      39.107  34.772  36.850  1.00  0.00     0.031 C 
ATOM     69  C   UNL A   1      38.001  30.302  33.681  1.00  0.00     0.029 A 
ATOM     70  C   UNL A   1      38.234  31.643  33.414  1.00  0.00     0.049 A 
ATOM     71  H   UNL A   1      39.078  32.487  31.693  1.00  0.00     0.167 HD
ATOM     72  C   UNL A   1      38.399  33.494  35.015  1.00  0.00     0.074 A 
ATOM     73  C   UNL A   1      38.090  34.529  35.992  1.00  0.00     0.031 C 
ATOM     74  C   UNL A   1      37.714  32.902  33.976  1.00  0.00     0.031 A 
BRANCH  61  75
ATOM     75  C   UNL A   1      40.115  29.070  29.588  1.00  0.00    -0.014 A 
ATOM     76  C   UNL A   1      40.193  27.732  30.034  1.00  0.00     0.010 A 
ATOM     77  C   UNL A   1      40.153  29.235  28.182  1.00  0.00     0.010 A 
ATOM     78  C   UNL A   1      40.265  26.637  29.140  1.00  0.00     0.020 A 
ATOM     79  C   UNL A   1      40.185  28.153  27.278  1.00  0.00     0.020 A 
ATOM     80  C   UNL A   1      40.243  26.853  27.763  1.00  0.00     0.054 A 
BRANCH  80  81
ATOM     81  S   UNL A   1      40.271  25.435  26.621  1.00  0.00     0.124 S 
ATOM     82  O   UNL A   1      41.168  24.502  27.295  1.00  0.00    -0.237 OA
ATOM     83  O   UNL A   1      38.867  25.036  26.574  1.00  0.00    -0.237 OA
ATOM     84  O   UNL A   1      40.789  26.001  25.376  1.00  0.00    -0.744 OA
ENDBRANCH  80  81
ENDBRANCH  61  75
BRANCH  62  85
ATOM     85  C   UNL A   1      42.460  34.416  37.868  1.00  0.00    -0.014 A 
ATOM     86  C   UNL A   1      42.701  35.716  37.351  1.00  0.00     0.010 A 
ATOM     87  C   UNL A   1      42.537  34.268  39.269  1.00  0.00     0.010 A 
ATOM     88  C   UNL A   1      42.745  36.845  38.187  1.00  0.00     0.020 A 
ATOM     89  C   UNL A   1      42.606  35.402  40.114  1.00  0.00     0.020 A 
ATOM     90  C   UNL A   1      42.624  36.685  39.563  1.00  0.00     0.054 A 
BRANCH  90  91
ATOM     91  S   UNL A   1      42.210  38.148  40.581  1.00  0.00     0.124 S 
ATOM     92  O   UNL A   1      42.487  39.253  39.671  1.00  0.00    -0.237 OA
ATOM     93  O   UNL A   1      40.800  37.927  40.902  1.00  0.00    -0.237 OA
ATOM     94  O   UNL A   1      43.110  38.018  41.724  1.00  0.00    -0.744 OA
ENDBRANCH  90  91
ENDBRANCH  62  85
BRANCH  74  95
ATOM     95  C   UNL A   1      36.446  33.418  33.293  1.00  0.00    -0.014 A 
ATOM     96  C   UNL A   1      35.153  32.931  33.504  1.00  0.00     0.010 A 
ATOM     97  C   UNL A   1      36.541  34.580  32.469  1.00  0.00     0.010 A 
ATOM     98  C   UNL A   1      34.031  33.571  32.950  1.00  0.00     0.020 A 
ATOM     99  C   UNL A   1      35.435  35.253  31.952  1.00  0.00     0.020 A 
ATOM    100  C   UNL A   1      34.176  34.739  32.198  1.00  0.00     0.054 A 
BRANCH 100 101
ATOM    101  S   UNL A   1      32.706  35.600  31.599  1.00  0.00     0.124 S 
ATOM    102  O   UNL A   1      33.099  37.000  31.736  1.00  0.00    -0.237 OA
ATOM    103  O   UNL A   1      32.595  35.109  30.228  1.00  0.00    -0.237 OA
ATOM    104  O   UNL A   1      31.647  35.158  32.502  1.00  0.00    -0.744 OA
ENDBRANCH 100 101
ENDBRANCH  74  95
ENDBRANCH  48  49
ENDBRANCH  41  43
ENDBRANCH  40  41
ENDBRANCH  39  40
ENDBRANCH  38  39
ENDBRANCH  37  38
ENDBRANCH  36  37
ENDBRANCH   1  36
TORSDOF 25
ENDMDL
MODEL 2
REMARK VINA RESULT:      -6.9      3.940      9.328
REMARK SMILES Cc1ccc([C@@]23C[C@@H]4C[C@@H](C[C@@](C(=O)N5CCC(C(=O)OCCOCCOCCOCCOC(=O)c6ccc(-c7c8nc(c(-c9ccc(S(=O)(=O)[O-])cc9)c9ccc([nH]9)c(-c9ccc(S(=O)(=O)[O-])cc9)c9nc(c(-c%10ccc(S(=O)(=O)[O-])cc%10)c%10ccc7[nH]%10)C=C9)C=C8)cc6)CC5)(C4)C2)C3)cc1
REMARK SMILES IDX 28 1 27 2 26 3 25 4 24 5 23 6 22 7 21 8 19 9 20 10 18 11
REMARK SMILES IDX 13 12 14 13 15 14 16 15 97 16 17 17 96 18 12 19 6 20 7 21
REMARK SMILES IDX 99 22 100 23 8 24 10 25 9 26 98 27 11 28 5 29 1 30 2 31 3 32
REMARK SMILES IDX 102 33 4 34 101 35 29 36 30 37 31 38 32 39 33 40 34 41 35 42
REMARK SMILES IDX 36 43 37 44 95 45 38 46 94 47 39 48 40 49 41 50 88 51 42 52
REMARK SMILES IDX 93 53 87 54 89 55 43 56 92 57 86 58 85 59 44 61 74 62 55 63
REMARK SMILES IDX 73 64 56 65 59 66 72 67 90 68 57 69 58 70 71 72 91 73 60 74
REMARK SMILES IDX 45 75 46 76 54 77 47 78 53 79 48 80 49 81 50 82 51 83 52 84
REMARK SMILES IDX 75 85 76 86 84 87 77 88 83 89 78 90 79 91 80 92 81 93 82 94
REMARK SMILES IDX 61 95 62 96 70 97 63 98 69 99 64 100 65 101 66 102 67 103
REMARK SMILES IDX 68 104
REMARK H PARENT 89 60 59 71
REMARK Flexibility Score: inf
ROOT
ATOM      1  C   UNL A   1      39.465  34.448  31.362  1.00  0.00     0.188 C 
ENDROOT
BRANCH   1   2
ATOM      2  O   UNL A   1      39.526  33.515  32.419  1.00  0.00    -0.377 OA
BRANCH   2   3
ATOM      3  C   UNL A   1      39.717  33.969  33.738  1.00  0.00     0.188 C 
BRANCH   3   4
ATOM      4  C   UNL A   1      38.499  34.582  34.443  1.00  0.00     0.188 C 
BRANCH   4   5
ATOM      5  O   UNL A   1      37.322  34.827  33.673  1.00  0.00    -0.376 OA
BRANCH   5   6
ATOM      6  C   UNL A   1      36.186  34.032  33.971  1.00  0.00     0.202 C 
BRANCH   6   7
ATOM      7  C   UNL A   1      35.376  33.640  32.757  1.00  0.00     0.261 C 
BRANCH   7   8
ATOM      8  O   UNL A   1      36.204  32.925  31.840  1.00  0.00    -0.463 OA
BRANCH   8   9
ATOM      9  C   UNL A   1      35.573  32.428  30.768  1.00  0.00     0.309 C 
ATOM     10  O   UNL A   1      34.410  32.652  30.444  1.00  0.00    -0.252 OA
BRANCH   9  11
ATOM     11  C   UNL A   1      36.541  31.733  29.865  1.00  0.00     0.103 C 
ATOM     12  C   UNL A   1      39.041  28.512  28.643  1.00  0.00     0.228 C 
ATOM     13  O   UNL A   1      38.490  27.579  28.052  1.00  0.00    -0.274 OA
ATOM     14  N   UNL A   1      38.348  29.694  28.938  1.00  0.00    -0.342 N 
ATOM     15  C   UNL A   1      37.116  29.978  28.189  1.00  0.00     0.120 C 
ATOM     16  C   UNL A   1      38.806  30.802  29.787  1.00  0.00     0.120 C 
ATOM     17  C   UNL A   1      36.006  30.533  29.083  1.00  0.00     0.037 C 
ATOM     18  C   UNL A   1      37.720  31.278  30.713  1.00  0.00     0.037 C 
BRANCH  12  19
ATOM     19  C   UNL A   1      40.555  28.422  28.958  1.00  0.00     0.051 C 
ATOM     20  C   UNL A   1      42.189  28.983  30.877  1.00  0.00    -0.003 C 
ATOM     21  C   UNL A   1      42.625  27.489  30.796  1.00  0.00     0.015 C 
ATOM     22  C   UNL A   1      40.758  29.062  30.341  1.00  0.00     0.028 C 
ATOM     23  C   UNL A   1      43.048  29.819  29.897  1.00  0.00     0.015 C 
ATOM     24  C   UNL A   1      42.563  26.952  29.350  1.00  0.00    -0.009 C 
ATOM     25  C   UNL A   1      42.907  29.274  28.456  1.00  0.00    -0.009 C 
ATOM     26  C   UNL A   1      43.430  27.829  28.436  1.00  0.00     0.007 C 
ATOM     27  C   UNL A   1      41.118  26.991  28.834  1.00  0.00     0.020 C 
ATOM     28  C   UNL A   1      41.423  29.293  28.001  1.00  0.00     0.020 C 
BRANCH  20  29
ATOM     29  C   UNL A   1      42.246  29.495  32.333  1.00  0.00    -0.042 A 
ATOM     30  C   UNL A   1      42.177  31.044  36.394  1.00  0.00     0.044 C 
ATOM     31  C   UNL A   1      42.206  30.487  35.004  1.00  0.00    -0.051 A 
ATOM     32  C   UNL A   1      42.751  31.252  33.978  1.00  0.00     0.004 A 
ATOM     33  C   UNL A   1      41.691  29.224  34.697  1.00  0.00     0.004 A 
ATOM     34  C   UNL A   1      42.780  30.758  32.673  1.00  0.00     0.004 A 
ATOM     35  C   UNL A   1      41.709  28.736  33.381  1.00  0.00     0.004 A 
ENDBRANCH  20  29
ENDBRANCH  12  19
ENDBRANCH   9  11
ENDBRANCH   8   9
ENDBRANCH   7   8
ENDBRANCH   6   7
ENDBRANCH   5   6
ENDBRANCH   4   5
ENDBRANCH   3   4
ENDBRANCH   2   3
ENDBRANCH   1   2
BRANCH   1  36
ATOM     36  C   UNL A   1      40.705  34.323  30.479  1.00  0.00     0.188 C 
BRANCH  36  37
ATOM     37  O   UNL A   1      41.135  35.500  29.816  1.00  0.00    -0.376 OA
BRANCH  37  38
ATOM     38  C   UNL A   1      41.525  35.386  28.442  1.00  0.00     0.202 C 
BRANCH  38  39
ATOM     39  C   UNL A   1      43.019  35.530  28.031  1.00  0.00     0.261 C 
BRANCH  39  40
ATOM     40  O   UNL A   1      43.872  35.787  29.176  1.00  0.00    -0.460 OA
BRANCH  40  41
ATOM     41  C   UNL A   1      45.227  35.676  29.013  1.00  0.00     0.338 C 
ATOM     42  O   UNL A   1      45.957  36.614  28.729  1.00  0.00    -0.246 OA
BRANCH  41  43
ATOM     43  C   UNL A   1      45.777  34.421  29.604  1.00  0.00     0.060 A 
ATOM     44  C   UNL A   1      47.135  34.116  29.559  1.00  0.00     0.016 A 
ATOM     45  C   UNL A   1      44.914  33.508  30.200  1.00  0.00     0.016 A 
ATOM     46  C   UNL A   1      47.563  32.808  29.837  1.00  0.00     0.010 A 
ATOM     47  C   UNL A   1      45.307  32.183  30.352  1.00  0.00     0.010 A 
ATOM     48  C   UNL A   1      46.616  31.799  30.056  1.00  0.00    -0.014 A 
BRANCH  48  49
ATOM     49  C   UNL A   1      46.837  30.394  29.634  1.00  0.00     0.031 A 
ATOM     50  C   UNL A   1      46.690  29.924  28.218  1.00  0.00     0.074 A 
ATOM     51  C   UNL A   1      47.483  29.600  30.533  1.00  0.00     0.049 A 
ATOM     52  N   UNL A   1      46.804  28.690  27.854  1.00  0.00    -0.248 NA
ATOM     53  C   UNL A   1      46.440  30.790  27.065  1.00  0.00     0.031 C 
ATOM     54  C   UNL A   1      48.138  28.312  30.324  1.00  0.00     0.029 A 
ATOM     55  N   UNL A   1      47.648  29.793  31.904  1.00  0.00    -0.354 N 
ATOM     56  C   UNL A   1      47.005  28.640  26.489  1.00  0.00     0.074 A 
ATOM     57  C   UNL A   1      46.679  29.967  26.033  1.00  0.00     0.031 C 
ATOM     58  C   UNL A   1      48.554  27.798  31.492  1.00  0.00     0.029 A 
ATOM     59  C   UNL A   1      47.916  28.569  32.531  1.00  0.00     0.049 A 
ATOM     60  H   UNL A   1      47.586  30.661  32.363  1.00  0.00     0.167 HD
ATOM     61  C   UNL A   1      47.566  27.519  25.933  1.00  0.00     0.031 A 
ATOM     62  C   UNL A   1      46.923  28.015  33.295  1.00  0.00     0.031 A 
ATOM     63  C   UNL A   1      47.577  26.375  26.879  1.00  0.00     0.049 A 
ATOM     64  C   UNL A   1      46.166  26.872  32.585  1.00  0.00     0.074 A 
ATOM     65  C   UNL A   1      48.501  25.424  27.289  1.00  0.00     0.029 A 
ATOM     66  N   UNL A   1      46.486  26.206  27.740  1.00  0.00    -0.354 N 
ATOM     67  N   UNL A   1      46.347  26.555  31.320  1.00  0.00    -0.248 NA
ATOM     68  C   UNL A   1      45.214  25.956  33.201  1.00  0.00     0.031 C 
ATOM     69  C   UNL A   1      48.016  24.823  28.499  1.00  0.00     0.029 A 
ATOM     70  C   UNL A   1      46.756  25.332  28.775  1.00  0.00     0.049 A 
ATOM     71  H   UNL A   1      45.621  26.661  27.619  1.00  0.00     0.167 HD
ATOM     72  C   UNL A   1      45.621  25.457  30.946  1.00  0.00     0.074 A 
ATOM     73  C   UNL A   1      44.918  25.124  32.177  1.00  0.00     0.031 C 
ATOM     74  C   UNL A   1      45.664  24.925  29.675  1.00  0.00     0.031 A 
BRANCH  61  75
ATOM     75  C   UNL A   1      48.310  27.535  24.588  1.00  0.00    -0.014 A 
ATOM     76  C   UNL A   1      47.610  27.686  23.371  1.00  0.00     0.010 A 
ATOM     77  C   UNL A   1      49.698  27.290  24.453  1.00  0.00     0.010 A 
ATOM     78  C   UNL A   1      48.254  27.634  22.112  1.00  0.00     0.020 A 
ATOM     79  C   UNL A   1      50.361  27.273  23.208  1.00  0.00     0.020 A 
ATOM     80  C   UNL A   1      49.633  27.444  22.038  1.00  0.00     0.054 A 
BRANCH  80  81
ATOM     81  S   UNL A   1      50.463  27.443  20.418  1.00  0.00     0.124 S 
ATOM     82  O   UNL A   1      50.827  28.845  20.245  1.00  0.00    -0.237 OA
ATOM     83  O   UNL A   1      51.579  26.525  20.631  1.00  0.00    -0.237 OA
ATOM     84  O   UNL A   1      49.434  26.953  19.500  1.00  0.00    -0.744 OA
ENDBRANCH  80  81
ENDBRANCH  61  75
BRANCH  62  85
ATOM     85  C   UNL A   1      46.659  28.898  34.490  1.00  0.00    -0.014 A 
ATOM     86  C   UNL A   1      45.359  28.760  35.041  1.00  0.00     0.010 A 
ATOM     87  C   UNL A   1      47.694  29.243  35.387  1.00  0.00     0.010 A 
ATOM     88  C   UNL A   1      45.149  28.700  36.430  1.00  0.00     0.020 A 
ATOM     89  C   UNL A   1      47.480  29.209  36.786  1.00  0.00     0.020 A 
ATOM     90  C   UNL A   1      46.228  28.854  37.294  1.00  0.00     0.054 A 
BRANCH  90  91
ATOM     91  S   UNL A   1      46.041  28.313  39.032  1.00  0.00     0.124 S 
ATOM     92  O   UNL A   1      47.357  28.597  39.592  1.00  0.00    -0.237 OA
ATOM     93  O   UNL A   1      44.949  29.159  39.515  1.00  0.00    -0.237 OA
ATOM     94  O   UNL A   1      45.691  26.902  38.901  1.00  0.00    -0.744 OA
ENDBRANCH  90  91
ENDBRANCH  62  85
BRANCH  74  95
ATOM     95  C   UNL A   1      44.670  23.941  29.052  1.00  0.00    -0.014 A 
ATOM     96  C   UNL A   1      43.522  23.441  29.672  1.00  0.00     0.010 A 
ATOM     97  C   UNL A   1      44.831  23.592  27.677  1.00  0.00     0.010 A 
ATOM     98  C   UNL A   1      42.587  22.666  28.965  1.00  0.00     0.020 A 
ATOM     99  C   UNL A   1      43.889  22.864  26.950  1.00  0.00     0.020 A 
ATOM    100  C   UNL A   1      42.765  22.402  27.606  1.00  0.00     0.054 A 
BRANCH 100 101
ATOM    101  S   UNL A   1      41.488  21.501  26.701  1.00  0.00     0.124 S 
ATOM    102  O   UNL A   1      42.272  20.803  25.685  1.00  0.00    -0.237 OA
ATOM    103  O   UNL A   1      40.909  20.653  27.741  1.00  0.00    -0.237 OA
ATOM    104  O   UNL A   1      40.606  22.550  26.197  1.00  0.00    -0.744 OA
ENDBRANCH 100 101
ENDBRANCH  74  95
ENDBRANCH  48  49
ENDBRANCH  41  43
ENDBRANCH  40  41
ENDBRANCH  39  40
ENDBRANCH  38  39
ENDBRANCH  37  38
ENDBRANCH  36  37
ENDBRANCH   1  36
TORSDOF 25
ENDMDL
MODEL 3
REMARK VINA RESULT:      -6.8      5.849     15.139
REMARK SMILES Cc1ccc([C@@]23C[C@@H]4C[C@@H](C[C@@](C(=O)N5CCC(C(=O)OCCOCCOCCOCCOC(=O)c6ccc(-c7c8nc(c(-c9ccc(S(=O)(=O)[O-])cc9)c9ccc([nH]9)c(-c9ccc(S(=O)(=O)[O-])cc9)c9nc(c(-c%10ccc(S(=O)(=O)[O-])cc%10)c%10ccc7[nH]%10)C=C9)C=C8)cc6)CC5)(C4)C2)C3)cc1
REMARK SMILES IDX 28 1 27 2 26 3 25 4 24 5 23 6 22 7 21 8 19 9 20 10 18 11
REMARK SMILES IDX 13 12 14 13 15 14 16 15 97 16 17 17 96 18 12 19 6 20 7 21
REMARK SMILES IDX 99 22 100 23 8 24 10 25 9 26 98 27 11 28 5 29 1 30 2 31 3 32
REMARK SMILES IDX 102 33 4 34 101 35 29 36 30 37 31 38 32 39 33 40 34 41 35 42
REMARK SMILES IDX 36 43 37 44 95 45 38 46 94 47 39 48 40 49 41 50 88 51 42 52
REMARK SMILES IDX 93 53 87 54 89 55 43 56 92 57 86 58 85 59 44 61 74 62 55 63
REMARK SMILES IDX 73 64 56 65 59 66 72 67 90 68 57 69 58 70 71 72 91 73 60 74
REMARK SMILES IDX 45 75 46 76 54 77 47 78 53 79 48 80 49 81 50 82 51 83 52 84
REMARK SMILES IDX 75 85 76 86 84 87 77 88 83 89 78 90 79 91 80 92 81 93 82 94
REMARK SMILES IDX 61 95 62 96 70 97 63 98 69 99 64 100 65 101 66 102 67 103
REMARK SMILES IDX 68 104
REMARK H PARENT 89 60 59 71
REMARK Flexibility Score: inf
ROOT
ATOM      1  C   UNL A   1      39.033  34.951  30.119  1.00  0.00     0.188 C 
ENDROOT
BRANCH   1   2
ATOM      2  O   UNL A   1      40.308  34.911  29.516  1.00  0.00    -0.377 OA
BRANCH   2   3
ATOM      3  C   UNL A   1      40.572  35.716  28.392  1.00  0.00     0.188 C 
BRANCH   3   4
ATOM      4  C   UNL A   1      41.917  35.497  27.683  1.00  0.00     0.188 C 
BRANCH   4   5
ATOM      5  O   UNL A   1      42.715  36.640  27.374  1.00  0.00    -0.376 OA
BRANCH   5   6
ATOM      6  C   UNL A   1      43.311  37.318  28.468  1.00  0.00     0.202 C 
BRANCH   6   7
ATOM      7  C   UNL A   1      44.360  38.329  28.067  1.00  0.00     0.261 C 
BRANCH   7   8
ATOM      8  O   UNL A   1      43.817  39.219  27.092  1.00  0.00    -0.463 OA
BRANCH   8   9
ATOM      9  C   UNL A   1      43.555  40.457  27.532  1.00  0.00     0.309 C 
ATOM     10  O   UNL A   1      43.697  40.862  28.683  1.00  0.00    -0.252 OA
BRANCH   9  11
ATOM     11  C   UNL A   1      43.281  41.375  26.383  1.00  0.00     0.103 C 
ATOM     12  C   UNL A   1      43.215  42.493  22.277  1.00  0.00     0.228 C 
ATOM     13  O   UNL A   1      42.265  42.076  21.606  1.00  0.00    -0.274 OA
ATOM     14  N   UNL A   1      43.247  42.328  23.668  1.00  0.00    -0.342 N 
ATOM     15  C   UNL A   1      41.984  42.038  24.360  1.00  0.00     0.120 C 
ATOM     16  C   UNL A   1      44.377  42.601  24.567  1.00  0.00     0.120 C 
ATOM     17  C   UNL A   1      42.144  40.971  25.443  1.00  0.00     0.037 C 
ATOM     18  C   UNL A   1      44.564  41.498  25.574  1.00  0.00     0.037 C 
BRANCH  12  19
ATOM     19  C   UNL A   1      44.329  43.316  21.584  1.00  0.00     0.051 C 
ATOM     20  C   UNL A   1      44.579  45.094  19.728  1.00  0.00    -0.003 C 
ATOM     21  C   UNL A   1      45.300  45.959  20.805  1.00  0.00     0.015 C 
ATOM     22  C   UNL A   1      43.649  44.133  20.474  1.00  0.00     0.028 C 
ATOM     23  C   UNL A   1      45.619  44.197  19.013  1.00  0.00     0.015 C 
ATOM     24  C   UNL A   1      46.107  45.087  21.791  1.00  0.00    -0.009 C 
ATOM     25  C   UNL A   1      46.359  43.306  20.038  1.00  0.00    -0.009 C 
ATOM     26  C   UNL A   1      47.111  44.224  21.016  1.00  0.00     0.007 C 
ATOM     27  C   UNL A   1      45.164  44.158  22.569  1.00  0.00     0.020 C 
ATOM     28  C   UNL A   1      45.358  42.422  20.827  1.00  0.00     0.020 C 
BRANCH  20  29
ATOM     29  C   UNL A   1      43.767  45.983  18.761  1.00  0.00    -0.042 A 
ATOM     30  C   UNL A   1      41.624  48.396  15.848  1.00  0.00     0.044 C 
ATOM     31  C   UNL A   1      42.341  47.555  16.860  1.00  0.00    -0.051 A 
ATOM     32  C   UNL A   1      43.467  48.069  17.492  1.00  0.00     0.004 A 
ATOM     33  C   UNL A   1      41.921  46.262  17.184  1.00  0.00     0.004 A 
ATOM     34  C   UNL A   1      44.157  47.300  18.432  1.00  0.00     0.004 A 
ATOM     35  C   UNL A   1      42.624  45.486  18.120  1.00  0.00     0.004 A 
ENDBRANCH  20  29
ENDBRANCH  12  19
ENDBRANCH   9  11
ENDBRANCH   8   9
ENDBRANCH   7   8
ENDBRANCH   6   7
ENDBRANCH   5   6
ENDBRANCH   4   5
ENDBRANCH   3   4
ENDBRANCH   2   3
ENDBRANCH   1   2
BRANCH   1  36
ATOM     36  C   UNL A   1      38.575  33.537  30.473  1.00  0.00     0.188 C 
BRANCH  36  37
ATOM     37  O   UNL A   1      37.971  32.785  29.434  1.00  0.00    -0.376 OA
BRANCH  37  38
ATOM     38  C   UNL A   1      37.740  31.391  29.668  1.00  0.00     0.202 C 
BRANCH  38  39
ATOM     39  C   UNL A   1      38.674  30.583  30.613  1.00  0.00     0.261 C 
BRANCH  39  40
ATOM     40  O   UNL A   1      38.333  29.173  30.632  1.00  0.00    -0.460 OA
BRANCH  40  41
ATOM     41  C   UNL A   1      39.022  28.328  29.802  1.00  0.00     0.338 C 
ATOM     42  O   UNL A   1      38.580  27.264  29.395  1.00  0.00    -0.246 OA
BRANCH  41  43
ATOM     43  C   UNL A   1      40.167  28.999  29.121  1.00  0.00     0.060 A 
ATOM     44  C   UNL A   1      40.423  28.827  27.762  1.00  0.00     0.016 A 
ATOM     45  C   UNL A   1      41.027  29.805  29.858  1.00  0.00     0.016 A 
ATOM     46  C   UNL A   1      41.666  29.211  27.235  1.00  0.00     0.010 A 
ATOM     47  C   UNL A   1      42.306  30.071  29.379  1.00  0.00     0.010 A 
ATOM     48  C   UNL A   1      42.675  29.667  28.095  1.00  0.00    -0.014 A 
BRANCH  48  49
ATOM     49  C   UNL A   1      44.112  29.400  27.849  1.00  0.00     0.031 A 
ATOM     50  C   UNL A   1      45.052  30.410  27.263  1.00  0.00     0.074 A 
ATOM     51  C   UNL A   1      44.623  28.296  28.464  1.00  0.00     0.049 A 
ATOM     52  N   UNL A   1      46.286  30.161  26.973  1.00  0.00    -0.248 NA
ATOM     53  C   UNL A   1      44.718  31.805  26.978  1.00  0.00     0.031 C 
ATOM     54  C   UNL A   1      46.018  27.937  28.705  1.00  0.00     0.029 A 
ATOM     55  N   UNL A   1      43.943  27.198  28.987  1.00  0.00    -0.354 N 
ATOM     56  C   UNL A   1      46.964  31.355  26.831  1.00  0.00     0.074 A 
ATOM     57  C   UNL A   1      45.924  32.348  26.755  1.00  0.00     0.031 C 
ATOM     58  C   UNL A   1      46.103  26.707  29.237  1.00  0.00     0.029 A 
ATOM     59  C   UNL A   1      44.806  26.097  29.075  1.00  0.00     0.049 A 
ATOM     60  H   UNL A   1      42.996  27.196  29.255  1.00  0.00     0.167 HD
ATOM     61  C   UNL A   1      48.331  31.370  26.945  1.00  0.00     0.031 A 
ATOM     62  C   UNL A   1      44.627  25.076  28.180  1.00  0.00     0.031 A 
ATOM     63  C   UNL A   1      48.909  30.003  26.887  1.00  0.00     0.049 A 
ATOM     64  C   UNL A   1      45.640  25.094  27.015  1.00  0.00     0.074 A 
ATOM     65  C   UNL A   1      49.848  29.282  27.609  1.00  0.00     0.029 A 
ATOM     66  N   UNL A   1      48.331  29.068  26.019  1.00  0.00    -0.354 N 
ATOM     67  N   UNL A   1      46.496  26.073  26.811  1.00  0.00    -0.248 NA
ATOM     68  C   UNL A   1      45.842  24.036  26.032  1.00  0.00     0.031 C 
ATOM     69  C   UNL A   1      49.691  27.893  27.283  1.00  0.00     0.029 A 
ATOM     70  C   UNL A   1      48.728  27.773  26.293  1.00  0.00     0.049 A 
ATOM     71  H   UNL A   1      47.709  29.308  25.294  1.00  0.00     0.167 HD
ATOM     72  C   UNL A   1      47.341  25.821  25.764  1.00  0.00     0.074 A 
ATOM     73  C   UNL A   1      46.876  24.519  25.306  1.00  0.00     0.031 C 
ATOM     74  C   UNL A   1      48.335  26.692  25.373  1.00  0.00     0.031 A 
BRANCH  61  75
ATOM     75  C   UNL A   1      49.125  32.627  27.335  1.00  0.00    -0.014 A 
ATOM     76  C   UNL A   1      49.295  32.988  28.689  1.00  0.00     0.010 A 
ATOM     77  C   UNL A   1      49.633  33.560  26.398  1.00  0.00     0.010 A 
ATOM     78  C   UNL A   1      49.958  34.176  29.081  1.00  0.00     0.020 A 
ATOM     79  C   UNL A   1      50.330  34.728  26.773  1.00  0.00     0.020 A 
ATOM     80  C   UNL A   1      50.488  35.033  28.118  1.00  0.00     0.054 A 
BRANCH  80  81
ATOM     81  S   UNL A   1      51.396  36.525  28.632  1.00  0.00     0.124 S 
ATOM     82  O   UNL A   1      52.274  36.018  29.681  1.00  0.00    -0.237 OA
ATOM     83  O   UNL A   1      52.060  36.936  27.398  1.00  0.00    -0.237 OA
ATOM     84  O   UNL A   1      50.343  37.431  29.091  1.00  0.00    -0.744 OA
ENDBRANCH  80  81
ENDBRANCH  61  75
BRANCH  62  85
ATOM     85  C   UNL A   1      43.294  24.415  28.434  1.00  0.00    -0.014 A 
ATOM     86  C   UNL A   1      42.347  24.594  27.392  1.00  0.00     0.010 A 
ATOM     87  C   UNL A   1      43.201  23.218  29.176  1.00  0.00     0.010 A 
ATOM     88  C   UNL A   1      41.538  23.537  26.942  1.00  0.00     0.020 A 
ATOM     89  C   UNL A   1      42.367  22.160  28.739  1.00  0.00     0.020 A 
ATOM     90  C   UNL A   1      41.607  22.301  27.576  1.00  0.00     0.054 A 
BRANCH  90  91
ATOM     91  S   UNL A   1      40.932  20.835  26.714  1.00  0.00     0.124 S 
ATOM     92  O   UNL A   1      39.702  21.355  26.129  1.00  0.00    -0.237 OA
ATOM     93  O   UNL A   1      41.996  20.503  25.766  1.00  0.00    -0.237 OA
ATOM     94  O   UNL A   1      40.769  19.866  27.793  1.00  0.00    -0.744 OA
ENDBRANCH  90  91
ENDBRANCH  62  85
BRANCH  74  95
ATOM     95  C   UNL A   1      49.099  26.687  24.047  1.00  0.00    -0.014 A 
ATOM     96  C   UNL A   1      48.521  26.634  22.776  1.00  0.00     0.010 A 
ATOM     97  C   UNL A   1      50.511  26.888  24.075  1.00  0.00     0.010 A 
ATOM     98  C   UNL A   1      49.295  26.793  21.613  1.00  0.00     0.020 A 
ATOM     99  C   UNL A   1      51.285  27.095  22.933  1.00  0.00     0.020 A 
ATOM    100  C   UNL A   1      50.665  27.045  21.699  1.00  0.00     0.054 A 
BRANCH 100 101
ATOM    101  S   UNL A   1      51.608  27.359  20.192  1.00  0.00     0.124 S 
ATOM    102  O   UNL A   1      52.658  26.346  20.275  1.00  0.00    -0.237 OA
ATOM    103  O   UNL A   1      50.608  27.144  19.149  1.00  0.00    -0.237 OA
ATOM    104  O   UNL A   1      52.060  28.739  20.339  1.00  0.00    -0.744 OA
ENDBRANCH 100 101
ENDBRANCH  74  95
ENDBRANCH  48  49
ENDBRANCH  41  43
ENDBRANCH  40  41
ENDBRANCH  39  40
ENDBRANCH  38  39
ENDBRANCH  37  38
ENDBRANCH  36  37
ENDBRANCH   1  36
TORSDOF 25
ENDMDL
