MODEL 1
REMARK VINA RESULT:      -9.9      0.000      0.000
REMARK SMILES Cc1c(C)c2c(c(C)c1O)CC[C@@](C)(C(=O)OCCOCCOCCOCCOC(=O)c1ccc(-c3c4nc(c(-c5ccc(S(=O)(=O)[O-])cc5)c5ccc([nH]5)c(-c5ccc(S(=O)(=O)[O-])cc5)c5nc(c(-c6ccc(S(=O)(=O)[O-])cc6)c6ccc3[nH]6)C=C5)C=C4)cc1)O2
REMARK SMILES IDX 24 1 23 2 22 3 21 4 20 5 19 6 18 7 17 8 15 9 16 10 13 11
REMARK SMILES IDX 1 12 2 13 3 14 9 15 4 16 5 17 7 18 6 19 92 20 8 21 11 22
REMARK SMILES IDX 12 23 14 24 10 25 25 27 26 28 27 29 28 30 29 31 30 32 31 33
REMARK SMILES IDX 32 34 33 35 91 36 34 37 90 38 35 39 36 40 37 41 84 42 38 43
REMARK SMILES IDX 89 44 83 45 85 46 39 47 88 48 82 49 81 50 40 52 70 53 51 54
REMARK SMILES IDX 69 55 52 56 55 57 68 58 86 59 53 60 54 61 67 63 87 64 56 65
REMARK SMILES IDX 41 66 42 67 50 68 43 69 49 70 44 71 45 72 46 73 47 74 48 75
REMARK SMILES IDX 71 76 72 77 80 78 73 79 79 80 74 81 75 82 76 83 77 84 78 85
REMARK SMILES IDX 57 86 58 87 66 88 59 89 65 90 60 91 61 92 62 93 63 94 64 95
REMARK H PARENT 10 26 85 51 55 62
REMARK Flexibility Score: inf
ROOT
ATOM      1  C   UNL A   1      36.683  22.656  25.646  1.00  0.00     0.188 C 
ENDROOT
BRANCH   1   2
ATOM      2  O   UNL A   1      35.525  22.058  26.223  1.00  0.00    -0.377 OA
BRANCH   2   3
ATOM      3  C   UNL A   1      34.460  22.921  26.563  1.00  0.00     0.188 C 
BRANCH   3   4
ATOM      4  C   UNL A   1      33.294  22.277  27.323  1.00  0.00     0.188 C 
BRANCH   4   5
ATOM      5  O   UNL A   1      32.102  22.991  27.604  1.00  0.00    -0.376 OA
BRANCH   5   6
ATOM      6  C   UNL A   1      30.953  22.881  26.778  1.00  0.00     0.202 C 
BRANCH   6   7
ATOM      7  C   UNL A   1      31.040  22.793  25.244  1.00  0.00     0.261 C 
BRANCH   7   8
ATOM      8  O   UNL A   1      30.859  24.006  24.489  1.00  0.00    -0.460 OA
BRANCH   8   9
ATOM      9  C   UNL A   1      31.989  24.502  23.927  1.00  0.00     0.350 C 
ATOM     10  O   UNL A   1      32.649  23.885  23.090  1.00  0.00    -0.247 OA
BRANCH   9  11
ATOM     11  C   UNL A   1      32.420  25.878  24.473  1.00  0.00     0.203 C 
ATOM     12  C   UNL A   1      29.269  31.099  23.517  1.00  0.00     0.049 C 
ATOM     13  C   UNL A   1      30.198  30.160  24.246  1.00  0.00    -0.002 A 
ATOM     14  C   UNL A   1      30.251  28.787  23.923  1.00  0.00    -0.002 A 
ATOM     15  C   UNL A   1      31.032  30.637  25.276  1.00  0.00     0.122 A 
ATOM     16  C   UNL A   1      29.325  28.195  22.885  1.00  0.00     0.049 C 
ATOM     17  C   UNL A   1      31.202  27.964  24.564  1.00  0.00     0.127 A 
ATOM     18  C   UNL A   1      31.921  29.795  25.973  1.00  0.00    -0.002 A 
ATOM     19  C   UNL A   1      32.001  28.434  25.614  1.00  0.00     0.001 A 
ATOM     20  O   UNL A   1      31.289  26.686  24.091  1.00  0.00    -0.475 OA
ATOM     21  C   UNL A   1      32.758  30.332  27.107  1.00  0.00     0.049 C 
ATOM     22  C   UNL A   1      32.954  27.495  26.320  1.00  0.00     0.044 C 
ATOM     23  C   UNL A   1      32.683  26.032  25.972  1.00  0.00     0.065 C 
ATOM     24  C   UNL A   1      33.664  26.249  23.653  1.00  0.00     0.069 C 
BRANCH  15  25
ATOM     25  O   UNL A   1      31.011  31.957  25.651  1.00  0.00    -0.507 OA
ATOM     26  H   UNL A   1      30.497  32.227  26.386  1.00  0.00     0.293 HD
ENDBRANCH  15  25
ENDBRANCH   9  11
ENDBRANCH   8   9
ENDBRANCH   7   8
ENDBRANCH   6   7
ENDBRANCH   5   6
ENDBRANCH   4   5
ENDBRANCH   3   4
ENDBRANCH   2   3
ENDBRANCH   1   2
BRANCH   1  27
ATOM     27  C   UNL A   1      37.925  21.768  25.436  1.00  0.00     0.188 C 
BRANCH  27  28
ATOM     28  O   UNL A   1      39.078  22.205  26.144  1.00  0.00    -0.376 OA
BRANCH  28  29
ATOM     29  C   UNL A   1      40.090  21.263  26.469  1.00  0.00     0.202 C 
BRANCH  29  30
ATOM     30  C   UNL A   1      41.550  21.599  26.116  1.00  0.00     0.261 C 
BRANCH  30  31
ATOM     31  O   UNL A   1      42.160  22.677  26.842  1.00  0.00    -0.460 OA
BRANCH  31  32
ATOM     32  C   UNL A   1      42.438  23.815  26.176  1.00  0.00     0.338 C 
ATOM     33  O   UNL A   1      42.820  23.917  25.023  1.00  0.00    -0.246 OA
BRANCH  32  34
ATOM     34  C   UNL A   1      42.005  24.947  27.019  1.00  0.00     0.060 A 
ATOM     35  C   UNL A   1      42.695  26.164  26.927  1.00  0.00     0.016 A 
ATOM     36  C   UNL A   1      40.934  24.803  27.904  1.00  0.00     0.016 A 
ATOM     37  C   UNL A   1      42.347  27.229  27.757  1.00  0.00     0.010 A 
ATOM     38  C   UNL A   1      40.605  25.861  28.755  1.00  0.00     0.010 A 
ATOM     39  C   UNL A   1      41.337  27.060  28.711  1.00  0.00    -0.014 A 
BRANCH  39  40
ATOM     40  C   UNL A   1      41.184  28.042  29.808  1.00  0.00     0.031 A 
ATOM     41  C   UNL A   1      42.111  27.931  30.988  1.00  0.00     0.074 A 
ATOM     42  C   UNL A   1      40.252  29.008  29.761  1.00  0.00     0.049 A 
ATOM     43  N   UNL A   1      42.101  28.589  32.116  1.00  0.00    -0.248 NA
ATOM     44  C   UNL A   1      43.199  26.943  30.876  1.00  0.00     0.031 C 
ATOM     45  C   UNL A   1      39.355  29.267  28.636  1.00  0.00     0.029 A 
ATOM     46  N   UNL A   1      39.903  29.949  30.697  1.00  0.00    -0.354 N 
ATOM     47  C   UNL A   1      43.170  28.092  32.853  1.00  0.00     0.074 A 
ATOM     48  C   UNL A   1      43.793  27.059  32.054  1.00  0.00     0.031 C 
ATOM     49  C   UNL A   1      38.547  30.294  28.953  1.00  0.00     0.029 A 
ATOM     50  C   UNL A   1      38.838  30.730  30.319  1.00  0.00     0.049 A 
ATOM     51  H   UNL A   1      40.370  30.055  31.556  1.00  0.00     0.167 HD
ATOM     52  C   UNL A   1      43.594  28.462  34.083  1.00  0.00     0.031 A 
ATOM     53  C   UNL A   1      38.157  31.667  31.009  1.00  0.00     0.031 A 
ATOM     54  C   UNL A   1      42.948  29.472  34.880  1.00  0.00     0.049 A 
ATOM     55  C   UNL A   1      38.578  31.988  32.420  1.00  0.00     0.074 A 
ATOM     56  C   UNL A   1      43.282  29.908  36.149  1.00  0.00     0.029 A 
ATOM     57  N   UNL A   1      41.838  30.203  34.484  1.00  0.00    -0.354 N 
ATOM     58  N   UNL A   1      39.567  31.484  33.122  1.00  0.00    -0.248 NA
ATOM     59  C   UNL A   1      37.793  33.006  33.131  1.00  0.00     0.031 C 
ATOM     60  C   UNL A   1      42.338  30.860  36.545  1.00  0.00     0.029 A 
ATOM     61  C   UNL A   1      41.462  31.074  35.492  1.00  0.00     0.049 A 
ATOM     62  H   UNL A   1      41.385  30.115  33.615  1.00  0.00     0.167 HD
ATOM     63  C   UNL A   1      39.548  32.156  34.341  1.00  0.00     0.074 A 
ATOM     64  C   UNL A   1      38.454  33.103  34.277  1.00  0.00     0.031 C 
ATOM     65  C   UNL A   1      40.368  32.010  35.414  1.00  0.00     0.031 A 
BRANCH  52  66
ATOM     66  C   UNL A   1      44.787  27.746  34.658  1.00  0.00    -0.014 A 
ATOM     67  C   UNL A   1      46.042  28.375  34.747  1.00  0.00     0.010 A 
ATOM     68  C   UNL A   1      44.638  26.443  35.166  1.00  0.00     0.010 A 
ATOM     69  C   UNL A   1      47.131  27.704  35.312  1.00  0.00     0.020 A 
ATOM     70  C   UNL A   1      45.717  25.780  35.760  1.00  0.00     0.020 A 
ATOM     71  C   UNL A   1      46.960  26.412  35.819  1.00  0.00     0.054 A 
BRANCH  71  72
ATOM     72  S   UNL A   1      48.380  25.586  36.584  1.00  0.00     0.124 S 
ATOM     73  O   UNL A   1      48.425  26.219  37.901  1.00  0.00    -0.237 OA
ATOM     74  O   UNL A   1      47.973  24.183  36.577  1.00  0.00    -0.237 OA
ATOM     75  O   UNL A   1      49.494  25.914  35.700  1.00  0.00    -0.744 OA
ENDBRANCH  71  72
ENDBRANCH  52  66
BRANCH  53  76
ATOM     76  C   UNL A   1      37.004  32.364  30.376  1.00  0.00    -0.014 A 
ATOM     77  C   UNL A   1      35.685  32.021  30.720  1.00  0.00     0.010 A 
ATOM     78  C   UNL A   1      37.220  33.389  29.436  1.00  0.00     0.010 A 
ATOM     79  C   UNL A   1      34.603  32.686  30.134  1.00  0.00     0.020 A 
ATOM     80  C   UNL A   1      36.142  34.078  28.871  1.00  0.00     0.020 A 
ATOM     81  C   UNL A   1      34.839  33.717  29.220  1.00  0.00     0.054 A 
BRANCH  81  82
ATOM     82  S   UNL A   1      33.420  34.609  28.528  1.00  0.00     0.124 S 
ATOM     83  O   UNL A   1      34.040  35.834  28.032  1.00  0.00    -0.237 OA
ATOM     84  O   UNL A   1      32.938  33.683  27.507  1.00  0.00    -0.237 OA
ATOM     85  O   UNL A   1      32.529  34.780  29.675  1.00  0.00    -0.744 OA
ENDBRANCH  81  82
ENDBRANCH  53  76
BRANCH  65  86
ATOM     86  C   UNL A   1      40.154  32.933  36.587  1.00  0.00    -0.014 A 
ATOM     87  C   UNL A   1      39.186  32.666  37.570  1.00  0.00     0.010 A 
ATOM     88  C   UNL A   1      40.976  34.067  36.726  1.00  0.00     0.010 A 
ATOM     89  C   UNL A   1      39.011  33.544  38.644  1.00  0.00     0.020 A 
ATOM     90  C   UNL A   1      40.829  34.927  37.816  1.00  0.00     0.020 A 
ATOM     91  C   UNL A   1      39.833  34.670  38.759  1.00  0.00     0.054 A 
BRANCH  91  92
ATOM     92  S   UNL A   1      39.591  35.785  40.168  1.00  0.00     0.124 S 
ATOM     93  O   UNL A   1      38.779  34.968  41.066  1.00  0.00    -0.237 OA
ATOM     94  O   UNL A   1      40.960  36.036  40.613  1.00  0.00    -0.237 OA
ATOM     95  O   UNL A   1      38.909  36.938  39.587  1.00  0.00    -0.744 OA
ENDBRANCH  91  92
ENDBRANCH  65  86
ENDBRANCH  39  40
ENDBRANCH  32  34
ENDBRANCH  31  32
ENDBRANCH  30  31
ENDBRANCH  29  30
ENDBRANCH  28  29
ENDBRANCH  27  28
ENDBRANCH   1  27
TORSDOF 24
ENDMDL
MODEL 2
REMARK VINA RESULT:      -9.6      1.478      8.200
REMARK SMILES Cc1c(C)c2c(c(C)c1O)CC[C@@](C)(C(=O)OCCOCCOCCOCCOC(=O)c1ccc(-c3c4nc(c(-c5ccc(S(=O)(=O)[O-])cc5)c5ccc([nH]5)c(-c5ccc(S(=O)(=O)[O-])cc5)c5nc(c(-c6ccc(S(=O)(=O)[O-])cc6)c6ccc3[nH]6)C=C5)C=C4)cc1)O2
REMARK SMILES IDX 24 1 23 2 22 3 21 4 20 5 19 6 18 7 17 8 15 9 16 10 13 11
REMARK SMILES IDX 1 12 2 13 3 14 9 15 4 16 5 17 7 18 6 19 92 20 8 21 11 22
REMARK SMILES IDX 12 23 14 24 10 25 25 27 26 28 27 29 28 30 29 31 30 32 31 33
REMARK SMILES IDX 32 34 33 35 91 36 34 37 90 38 35 39 36 40 37 41 84 42 38 43
REMARK SMILES IDX 89 44 83 45 85 46 39 47 88 48 82 49 81 50 40 52 70 53 51 54
REMARK SMILES IDX 69 55 52 56 55 57 68 58 86 59 53 60 54 61 67 63 87 64 56 65
REMARK SMILES IDX 41 66 42 67 50 68 43 69 49 70 44 71 45 72 46 73 47 74 48 75
REMARK SMILES IDX 71 76 72 77 80 78 73 79 79 80 74 81 75 82 76 83 77 84 78 85
REMARK SMILES IDX 57 86 58 87 66 88 59 89 65 90 60 91 61 92 62 93 63 94 64 95
REMARK H PARENT 10 26 85 51 55 62
REMARK Flexibility Score: inf
ROOT
ATOM      1  C   UNL A   1      35.873  21.873  25.019  1.00  0.00     0.188 C 
ENDROOT
BRANCH   1   2
ATOM      2  O   UNL A   1      35.339  22.556  26.150  1.00  0.00    -0.377 OA
BRANCH   2   3
ATOM      3  C   UNL A   1      34.446  21.834  26.972  1.00  0.00     0.188 C 
BRANCH   3   4
ATOM      4  C   UNL A   1      32.956  22.124  26.757  1.00  0.00     0.188 C 
BRANCH   4   5
ATOM      5  O   UNL A   1      32.370  22.095  25.466  1.00  0.00    -0.376 OA
BRANCH   5   6
ATOM      6  C   UNL A   1      32.172  23.278  24.708  1.00  0.00     0.202 C 
BRANCH   6   7
ATOM      7  C   UNL A   1      31.254  23.329  23.474  1.00  0.00     0.261 C 
BRANCH   7   8
ATOM      8  O   UNL A   1      30.377  24.463  23.334  1.00  0.00    -0.460 OA
BRANCH   8   9
ATOM      9  C   UNL A   1      30.966  25.583  22.847  1.00  0.00     0.350 C 
ATOM     10  O   UNL A   1      31.672  25.586  21.839  1.00  0.00    -0.247 OA
BRANCH   9  11
ATOM     11  C   UNL A   1      30.736  26.846  23.703  1.00  0.00     0.203 C 
ATOM     12  C   UNL A   1      34.895  29.126  27.653  1.00  0.00     0.049 C 
ATOM     13  C   UNL A   1      33.728  29.170  26.699  1.00  0.00    -0.002 A 
ATOM     14  C   UNL A   1      33.459  28.096  25.823  1.00  0.00    -0.002 A 
ATOM     15  C   UNL A   1      32.880  30.294  26.658  1.00  0.00     0.122 A 
ATOM     16  C   UNL A   1      34.375  26.896  25.758  1.00  0.00     0.049 C 
ATOM     17  C   UNL A   1      32.302  28.138  25.016  1.00  0.00     0.127 A 
ATOM     18  C   UNL A   1      31.774  30.369  25.789  1.00  0.00    -0.002 A 
ATOM     19  C   UNL A   1      31.485  29.273  24.949  1.00  0.00     0.001 A 
ATOM     20  O   UNL A   1      32.036  27.001  24.308  1.00  0.00    -0.475 OA
ATOM     21  C   UNL A   1      30.922  31.612  25.735  1.00  0.00     0.049 C 
ATOM     22  C   UNL A   1      30.297  29.299  24.014  1.00  0.00     0.044 C 
ATOM     23  C   UNL A   1      30.330  28.147  23.010  1.00  0.00     0.065 C 
ATOM     24  C   UNL A   1      29.690  26.423  24.744  1.00  0.00     0.069 C 
BRANCH  15  25
ATOM     25  O   UNL A   1      33.101  31.378  27.469  1.00  0.00    -0.507 OA
ATOM     26  H   UNL A   1      33.908  31.455  27.939  1.00  0.00     0.293 HD
ENDBRANCH  15  25
ENDBRANCH   9  11
ENDBRANCH   8   9
ENDBRANCH   7   8
ENDBRANCH   6   7
ENDBRANCH   5   6
ENDBRANCH   4   5
ENDBRANCH   3   4
ENDBRANCH   2   3
ENDBRANCH   1   2
BRANCH   1  27
ATOM     27  C   UNL A   1      37.378  22.034  24.723  1.00  0.00     0.188 C 
BRANCH  27  28
ATOM     28  O   UNL A   1      38.215  21.172  25.482  1.00  0.00    -0.376 OA
BRANCH  28  29
ATOM     29  C   UNL A   1      39.315  21.723  26.191  1.00  0.00     0.202 C 
BRANCH  29  30
ATOM     30  C   UNL A   1      39.267  23.209  26.587  1.00  0.00     0.261 C 
BRANCH  30  31
ATOM     31  O   UNL A   1      40.281  23.671  27.491  1.00  0.00    -0.460 OA
BRANCH  31  32
ATOM     32  C   UNL A   1      41.046  24.714  27.109  1.00  0.00     0.338 C 
ATOM     33  O   UNL A   1      41.707  24.806  26.088  1.00  0.00    -0.246 OA
BRANCH  32  34
ATOM     34  C   UNL A   1      40.790  25.826  28.045  1.00  0.00     0.060 A 
ATOM     35  C   UNL A   1      41.761  26.827  28.192  1.00  0.00     0.016 A 
ATOM     36  C   UNL A   1      39.606  25.873  28.784  1.00  0.00     0.016 A 
ATOM     37  C   UNL A   1      41.571  27.854  29.115  1.00  0.00     0.010 A 
ATOM     38  C   UNL A   1      39.430  26.885  29.729  1.00  0.00     0.010 A 
ATOM     39  C   UNL A   1      40.430  27.854  29.925  1.00  0.00    -0.014 A 
BRANCH  39  40
ATOM     40  C   UNL A   1      40.372  28.723  31.122  1.00  0.00     0.031 A 
ATOM     41  C   UNL A   1      39.409  29.880  31.107  1.00  0.00     0.074 A 
ATOM     42  C   UNL A   1      41.148  28.495  32.194  1.00  0.00     0.049 A 
ATOM     43  N   UNL A   1      39.259  30.844  31.974  1.00  0.00    -0.248 NA
ATOM     44  C   UNL A   1      38.492  29.954  29.956  1.00  0.00     0.031 C 
ATOM     45  C   UNL A   1      42.056  27.360  32.358  1.00  0.00     0.029 A 
ATOM     46  N   UNL A   1      41.299  29.219  33.349  1.00  0.00    -0.354 N 
ATOM     47  C   UNL A   1      38.239  31.646  31.473  1.00  0.00     0.074 A 
ATOM     48  C   UNL A   1      37.824  31.068  30.213  1.00  0.00     0.031 C 
ATOM     49  C   UNL A   1      42.680  27.473  33.543  1.00  0.00     0.029 A 
ATOM     50  C   UNL A   1      42.253  28.710  34.196  1.00  0.00     0.049 A 
ATOM     51  H   UNL A   1      40.775  30.027  33.552  1.00  0.00     0.167 HD
ATOM     52  C   UNL A   1      37.697  32.761  32.014  1.00  0.00     0.031 A 
ATOM     53  C   UNL A   1      42.745  29.203  35.351  1.00  0.00     0.031 A 
ATOM     54  C   UNL A   1      38.138  33.342  33.255  1.00  0.00     0.049 A 
ATOM     55  C   UNL A   1      42.204  30.506  35.881  1.00  0.00     0.074 A 
ATOM     56  C   UNL A   1      37.673  34.485  33.881  1.00  0.00     0.029 A 
ATOM     57  N   UNL A   1      39.144  32.826  34.057  1.00  0.00    -0.354 N 
ATOM     58  N   UNL A   1      41.266  31.276  35.380  1.00  0.00    -0.248 NA
ATOM     59  C   UNL A   1      42.785  31.004  37.134  1.00  0.00     0.031 C 
ATOM     60  C   UNL A   1      38.440  34.693  35.032  1.00  0.00     0.029 A 
ATOM     61  C   UNL A   1      39.329  33.637  35.164  1.00  0.00     0.049 A 
ATOM     62  H   UNL A   1      39.653  32.005  33.868  1.00  0.00     0.167 HD
ATOM     63  C   UNL A   1      41.116  32.327  36.280  1.00  0.00     0.074 A 
ATOM     64  C   UNL A   1      42.056  32.089  37.356  1.00  0.00     0.031 C 
ATOM     65  C   UNL A   1      40.271  33.388  36.226  1.00  0.00     0.031 A 
BRANCH  52  66
ATOM     66  C   UNL A   1      36.597  33.448  31.249  1.00  0.00    -0.014 A 
ATOM     67  C   UNL A   1      36.783  33.861  29.917  1.00  0.00     0.010 A 
ATOM     68  C   UNL A   1      35.342  33.638  31.855  1.00  0.00     0.010 A 
ATOM     69  C   UNL A   1      35.740  34.470  29.213  1.00  0.00     0.020 A 
ATOM     70  C   UNL A   1      34.287  34.220  31.145  1.00  0.00     0.020 A 
ATOM     71  C   UNL A   1      34.497  34.642  29.831  1.00  0.00     0.054 A 
BRANCH  71  72
ATOM     72  S   UNL A   1      33.152  35.397  28.878  1.00  0.00     0.124 S 
ATOM     73  O   UNL A   1      32.314  35.963  29.933  1.00  0.00    -0.237 OA
ATOM     74  O   UNL A   1      33.858  36.370  28.048  1.00  0.00    -0.237 OA
ATOM     75  O   UNL A   1      32.563  34.274  28.155  1.00  0.00    -0.744 OA
ENDBRANCH  71  72
ENDBRANCH  52  66
BRANCH  53  76
ATOM     76  C   UNL A   1      43.812  28.462  36.080  1.00  0.00    -0.014 A 
ATOM     77  C   UNL A   1      45.151  28.883  36.005  1.00  0.00     0.010 A 
ATOM     78  C   UNL A   1      43.491  27.341  36.867  1.00  0.00     0.010 A 
ATOM     79  C   UNL A   1      46.150  28.194  36.701  1.00  0.00     0.020 A 
ATOM     80  C   UNL A   1      44.481  26.668  37.588  1.00  0.00     0.020 A 
ATOM     81  C   UNL A   1      45.807  27.097  37.496  1.00  0.00     0.054 A 
BRANCH  81  82
ATOM     82  S   UNL A   1      47.112  26.265  38.442  1.00  0.00     0.124 S 
ATOM     83  O   UNL A   1      46.414  25.902  39.672  1.00  0.00    -0.237 OA
ATOM     84  O   UNL A   1      47.472  25.154  37.565  1.00  0.00    -0.237 OA
ATOM     85  O   UNL A   1      48.140  27.294  38.587  1.00  0.00    -0.744 OA
ENDBRANCH  81  82
ENDBRANCH  53  76
BRANCH  65  86
ATOM     86  C   UNL A   1      40.278  34.346  37.391  1.00  0.00    -0.014 A 
ATOM     87  C   UNL A   1      39.379  34.212  38.463  1.00  0.00     0.010 A 
ATOM     88  C   UNL A   1      41.240  35.373  37.428  1.00  0.00     0.010 A 
ATOM     89  C   UNL A   1      39.411  35.119  39.527  1.00  0.00     0.020 A 
ATOM     90  C   UNL A   1      41.298  36.259  38.506  1.00  0.00     0.020 A 
ATOM     91  C   UNL A   1      40.368  36.138  39.540  1.00  0.00     0.054 A 
BRANCH  91  92
ATOM     92  S   UNL A   1      40.393  37.293  40.938  1.00  0.00     0.124 S 
ATOM     93  O   UNL A   1      41.725  37.068  41.494  1.00  0.00    -0.237 OA
ATOM     94  O   UNL A   1      40.194  38.585  40.287  1.00  0.00    -0.237 OA
ATOM     95  O   UNL A   1      39.285  36.847  41.778  1.00  0.00    -0.744 OA
ENDBRANCH  91  92
ENDBRANCH  65  86
ENDBRANCH  39  40
ENDBRANCH  32  34
ENDBRANCH  31  32
ENDBRANCH  30  31
ENDBRANCH  29  30
ENDBRANCH  28  29
ENDBRANCH  27  28
ENDBRANCH   1  27
TORSDOF 24
ENDMDL
MODEL 3
REMARK VINA RESULT:      -9.6      1.287      8.060
REMARK SMILES Cc1c(C)c2c(c(C)c1O)CC[C@@](C)(C(=O)OCCOCCOCCOCCOC(=O)c1ccc(-c3c4nc(c(-c5ccc(S(=O)(=O)[O-])cc5)c5ccc([nH]5)c(-c5ccc(S(=O)(=O)[O-])cc5)c5nc(c(-c6ccc(S(=O)(=O)[O-])cc6)c6ccc3[nH]6)C=C5)C=C4)cc1)O2
REMARK SMILES IDX 24 1 23 2 22 3 21 4 20 5 19 6 18 7 17 8 15 9 16 10 13 11
REMARK SMILES IDX 1 12 2 13 3 14 9 15 4 16 5 17 7 18 6 19 92 20 8 21 11 22
REMARK SMILES IDX 12 23 14 24 10 25 25 27 26 28 27 29 28 30 29 31 30 32 31 33
REMARK SMILES IDX 32 34 33 35 91 36 34 37 90 38 35 39 36 40 37 41 84 42 38 43
REMARK SMILES IDX 89 44 83 45 85 46 39 47 88 48 82 49 81 50 40 52 70 53 51 54
REMARK SMILES IDX 69 55 52 56 55 57 68 58 86 59 53 60 54 61 67 63 87 64 56 65
REMARK SMILES IDX 41 66 42 67 50 68 43 69 49 70 44 71 45 72 46 73 47 74 48 75
REMARK SMILES IDX 71 76 72 77 80 78 73 79 79 80 74 81 75 82 76 83 77 84 78 85
REMARK SMILES IDX 57 86 58 87 66 88 59 89 65 90 60 91 61 92 62 93 63 94 64 95
REMARK H PARENT 10 26 85 51 55 62
REMARK Flexibility Score: inf
ROOT
ATOM      1  C   UNL A   1      37.242  21.732  25.222  1.00  0.00     0.188 C 
ENDROOT
BRANCH   1   2
ATOM      2  O   UNL A   1      36.254  20.730  25.447  1.00  0.00    -0.377 OA
BRANCH   2   3
ATOM      3  C   UNL A   1      34.907  21.154  25.478  1.00  0.00     0.188 C 
BRANCH   3   4
ATOM      4  C   UNL A   1      33.860  20.080  25.155  1.00  0.00     0.188 C 
BRANCH   4   5
ATOM      5  O   UNL A   1      32.566  20.418  24.685  1.00  0.00    -0.376 OA
BRANCH   5   6
ATOM      6  C   UNL A   1      32.316  20.689  23.315  1.00  0.00     0.202 C 
BRANCH   6   7
ATOM      7  C   UNL A   1      32.491  22.089  22.701  1.00  0.00     0.261 C 
BRANCH   7   8
ATOM      8  O   UNL A   1      32.840  23.172  23.582  1.00  0.00    -0.460 OA
BRANCH   8   9
ATOM      9  C   UNL A   1      31.887  24.127  23.719  1.00  0.00     0.350 C 
ATOM     10  O   UNL A   1      30.718  23.963  23.368  1.00  0.00    -0.247 OA
BRANCH   9  11
ATOM     11  C   UNL A   1      32.402  25.464  24.289  1.00  0.00     0.203 C 
ATOM     12  C   UNL A   1      29.442  30.842  23.653  1.00  0.00     0.049 C 
ATOM     13  C   UNL A   1      30.361  29.841  24.306  1.00  0.00    -0.002 A 
ATOM     14  C   UNL A   1      30.339  28.478  23.936  1.00  0.00    -0.002 A 
ATOM     15  C   UNL A   1      31.262  30.246  25.311  1.00  0.00     0.122 A 
ATOM     16  C   UNL A   1      29.342  27.962  22.925  1.00  0.00     0.049 C 
ATOM     17  C   UNL A   1      31.282  27.595  24.505  1.00  0.00     0.127 A 
ATOM     18  C   UNL A   1      32.143  29.344  25.937  1.00  0.00    -0.002 A 
ATOM     19  C   UNL A   1      32.148  27.994  25.531  1.00  0.00     0.001 A 
ATOM     20  O   UNL A   1      31.291  26.331  23.987  1.00  0.00    -0.475 OA
ATOM     21  C   UNL A   1      33.055  29.806  27.047  1.00  0.00     0.049 C 
ATOM     22  C   UNL A   1      33.090  26.992  26.160  1.00  0.00     0.044 C 
ATOM     23  C   UNL A   1      32.740  25.554  25.778  1.00  0.00     0.065 C 
ATOM     24  C   UNL A   1      33.622  25.809  23.423  1.00  0.00     0.069 C 
BRANCH  15  25
ATOM     25  O   UNL A   1      31.316  31.552  25.729  1.00  0.00    -0.507 OA
ATOM     26  H   UNL A   1      30.562  31.952  26.116  1.00  0.00     0.293 HD
ENDBRANCH  15  25
ENDBRANCH   9  11
ENDBRANCH   8   9
ENDBRANCH   7   8
ENDBRANCH   6   7
ENDBRANCH   5   6
ENDBRANCH   4   5
ENDBRANCH   3   4
ENDBRANCH   2   3
ENDBRANCH   1   2
BRANCH   1  27
ATOM     27  C   UNL A   1      38.670  21.465  25.740  1.00  0.00     0.188 C 
BRANCH  27  28
ATOM     28  O   UNL A   1      39.311  22.610  26.289  1.00  0.00    -0.376 OA
BRANCH  28  29
ATOM     29  C   UNL A   1      40.548  22.451  26.969  1.00  0.00     0.202 C 
BRANCH  29  30
ATOM     30  C   UNL A   1      41.812  23.076  26.354  1.00  0.00     0.261 C 
BRANCH  30  31
ATOM     31  O   UNL A   1      42.344  24.239  27.007  1.00  0.00    -0.460 OA
BRANCH  31  32
ATOM     32  C   UNL A   1      42.176  25.435  26.409  1.00  0.00     0.338 C 
ATOM     33  O   UNL A   1      42.222  25.673  25.214  1.00  0.00    -0.246 OA
BRANCH  32  34
ATOM     34  C   UNL A   1      41.722  26.392  27.438  1.00  0.00     0.060 A 
ATOM     35  C   UNL A   1      42.431  27.588  27.612  1.00  0.00     0.016 A 
ATOM     36  C   UNL A   1      40.612  26.103  28.234  1.00  0.00     0.016 A 
ATOM     37  C   UNL A   1      42.061  28.480  28.618  1.00  0.00     0.010 A 
ATOM     38  C   UNL A   1      40.259  26.982  29.260  1.00  0.00     0.010 A 
ATOM     39  C   UNL A   1      41.008  28.152  29.480  1.00  0.00    -0.014 A 
BRANCH  39  40
ATOM     40  C   UNL A   1      40.820  28.906  30.739  1.00  0.00     0.031 A 
ATOM     41  C   UNL A   1      39.752  29.964  30.775  1.00  0.00     0.074 A 
ATOM     42  C   UNL A   1      41.574  28.659  31.824  1.00  0.00     0.049 A 
ATOM     43  N   UNL A   1      39.475  30.833  31.710  1.00  0.00    -0.248 NA
ATOM     44  C   UNL A   1      38.876  30.051  29.593  1.00  0.00     0.031 C 
ATOM     45  C   UNL A   1      42.580  27.605  31.936  1.00  0.00     0.029 A 
ATOM     46  N   UNL A   1      41.610  29.293  33.040  1.00  0.00    -0.354 N 
ATOM     47  C   UNL A   1      38.402  31.575  31.230  1.00  0.00     0.074 A 
ATOM     48  C   UNL A   1      38.094  31.072  29.909  1.00  0.00     0.031 C 
ATOM     49  C   UNL A   1      43.145  27.673  33.154  1.00  0.00     0.029 A 
ATOM     50  C   UNL A   1      42.575  28.804  33.886  1.00  0.00     0.049 A 
ATOM     51  H   UNL A   1      41.002  30.028  33.284  1.00  0.00     0.167 HD
ATOM     52  C   UNL A   1      37.735  32.585  31.835  1.00  0.00     0.031 A 
ATOM     53  C   UNL A   1      42.973  29.239  35.098  1.00  0.00     0.031 A 
ATOM     54  C   UNL A   1      38.070  33.096  33.138  1.00  0.00     0.049 A 
ATOM     55  C   UNL A   1      42.289  30.436  35.708  1.00  0.00     0.074 A 
ATOM     56  C   UNL A   1      37.473  34.132  33.834  1.00  0.00     0.029 A 
ATOM     57  N   UNL A   1      39.090  32.609  33.941  1.00  0.00    -0.354 N 
ATOM     58  N   UNL A   1      41.300  31.155  35.229  1.00  0.00    -0.248 NA
ATOM     59  C   UNL A   1      42.771  30.876  37.023  1.00  0.00     0.031 C 
ATOM     60  C   UNL A   1      38.171  34.311  35.032  1.00  0.00     0.029 A 
ATOM     61  C   UNL A   1      39.152  33.335  35.118  1.00  0.00     0.049 A 
ATOM     62  H   UNL A   1      39.682  31.858  33.709  1.00  0.00     0.167 HD
ATOM     63  C   UNL A   1      41.015  32.107  36.204  1.00  0.00     0.074 A 
ATOM     64  C   UNL A   1      41.932  31.866  37.300  1.00  0.00     0.031 C 
ATOM     65  C   UNL A   1      40.074  33.085  36.199  1.00  0.00     0.031 A 
BRANCH  52  66
ATOM     66  C   UNL A   1      36.604  33.229  31.079  1.00  0.00    -0.014 A 
ATOM     67  C   UNL A   1      35.265  33.046  31.473  1.00  0.00     0.010 A 
ATOM     68  C   UNL A   1      36.886  34.073  29.990  1.00  0.00     0.010 A 
ATOM     69  C   UNL A   1      34.230  33.677  30.776  1.00  0.00     0.020 A 
ATOM     70  C   UNL A   1      35.855  34.730  29.310  1.00  0.00     0.020 A 
ATOM     71  C   UNL A   1      34.533  34.518  29.702  1.00  0.00     0.054 A 
BRANCH  71  72
ATOM     72  S   UNL A   1      33.171  35.356  28.846  1.00  0.00     0.124 S 
ATOM     73  O   UNL A   1      33.885  36.323  28.016  1.00  0.00    -0.237 OA
ATOM     74  O   UNL A   1      32.530  34.261  28.122  1.00  0.00    -0.237 OA
ATOM     75  O   UNL A   1      32.380  35.933  29.929  1.00  0.00    -0.744 OA
ENDBRANCH  71  72
ENDBRANCH  52  66
BRANCH  53  76
ATOM     76  C   UNL A   1      44.078  28.542  35.812  1.00  0.00    -0.014 A 
ATOM     77  C   UNL A   1      45.411  28.956  35.643  1.00  0.00     0.010 A 
ATOM     78  C   UNL A   1      43.801  27.469  36.680  1.00  0.00     0.010 A 
ATOM     79  C   UNL A   1      46.446  28.308  36.325  1.00  0.00     0.020 A 
ATOM     80  C   UNL A   1      44.829  26.839  37.387  1.00  0.00     0.020 A 
ATOM     81  C   UNL A   1      46.147  27.260  37.200  1.00  0.00     0.054 A 
BRANCH  81  82
ATOM     82  S   UNL A   1      47.502  26.484  38.124  1.00  0.00     0.124 S 
ATOM     83  O   UNL A   1      47.997  25.497  37.170  1.00  0.00    -0.237 OA
ATOM     84  O   UNL A   1      48.388  27.615  38.384  1.00  0.00    -0.237 OA
ATOM     85  O   UNL A   1      46.841  25.934  39.306  1.00  0.00    -0.744 OA
ENDBRANCH  81  82
ENDBRANCH  53  76
BRANCH  65  86
ATOM     86  C   UNL A   1      39.943  33.935  37.437  1.00  0.00    -0.014 A 
ATOM     87  C   UNL A   1      39.118  33.557  38.510  1.00  0.00     0.010 A 
ATOM     88  C   UNL A   1      40.704  35.116  37.541  1.00  0.00     0.010 A 
ATOM     89  C   UNL A   1      39.017  34.371  39.643  1.00  0.00     0.020 A 
ATOM     90  C   UNL A   1      40.634  35.912  38.687  1.00  0.00     0.020 A 
ATOM     91  C   UNL A   1      39.774  35.544  39.723  1.00  0.00     0.054 A 
BRANCH  91  92
ATOM     92  S   UNL A   1      39.633  36.573  41.209  1.00  0.00     0.124 S 
ATOM     93  O   UNL A   1      38.440  36.023  41.847  1.00  0.00    -0.237 OA
ATOM     94  O   UNL A   1      40.893  36.309  41.900  1.00  0.00    -0.237 OA
ATOM     95  O   UNL A   1      39.489  37.927  40.682  1.00  0.00    -0.744 OA
ENDBRANCH  91  92
ENDBRANCH  65  86
ENDBRANCH  39  40
ENDBRANCH  32  34
ENDBRANCH  31  32
ENDBRANCH  30  31
ENDBRANCH  29  30
ENDBRANCH  28  29
ENDBRANCH  27  28
ENDBRANCH   1  27
TORSDOF 24
ENDMDL
