MODEL 1
REMARK VINA RESULT:      -7.3      0.000      0.000
REMARK SMILES CCCOc1ccc(NC(=O)CCC(=O)OCCOCCOCCOCCOC(=O)c2ccc(-c3c4nc(c(-c5ccc(S(=O)(=O)[O-])cc5)c5ccc([nH]5)c(-c5ccc(S(=O)(=O)[O-])cc5)c5nc(c(-c6ccc(S(=O)(=O)[O-])cc6)c6ccc3[nH]6)C=C5)C=C4)cc2)cc1
REMARK SMILES IDX 20 1 19 2 18 3 17 4 16 5 14 6 15 7 13 8 12 9 10 10 9 11
REMARK SMILES IDX 11 13 8 14 5 15 6 16 92 17 7 18 91 19 4 20 3 21 2 22 1 23
REMARK SMILES IDX 21 24 22 25 23 26 24 27 25 28 26 29 27 30 28 31 29 32 30 33
REMARK SMILES IDX 31 34 32 35 90 36 33 37 89 38 34 39 35 40 36 41 83 42 37 43
REMARK SMILES IDX 88 44 82 45 84 46 38 47 87 48 81 49 80 50 39 52 69 53 50 54
REMARK SMILES IDX 68 55 51 56 54 57 67 58 85 59 52 60 53 61 66 63 86 64 55 65
REMARK SMILES IDX 40 66 41 67 49 68 42 69 48 70 43 71 44 72 45 73 46 74 47 75
REMARK SMILES IDX 70 76 71 77 79 78 72 79 78 80 73 81 74 82 75 83 76 84 77 85
REMARK SMILES IDX 56 86 57 87 65 88 58 89 64 90 59 91 60 92 61 93 62 94 63 95
REMARK H PARENT 9 12 84 51 54 62
REMARK Flexibility Score: inf
ROOT
ATOM      1  C   UNL A   1      39.031  23.642  26.838  1.00  0.00     0.188 C 
ENDROOT
BRANCH   1   2
ATOM      2  O   UNL A   1      38.171  23.633  25.687  1.00  0.00    -0.376 OA
BRANCH   2   3
ATOM      3  C   UNL A   1      37.139  22.639  25.721  1.00  0.00     0.202 C 
BRANCH   3   4
ATOM      4  C   UNL A   1      35.954  22.958  24.791  1.00  0.00     0.261 C 
BRANCH   4   5
ATOM      5  O   UNL A   1      35.558  24.339  24.801  1.00  0.00    -0.463 OA
BRANCH   5   6
ATOM      6  C   UNL A   1      34.482  24.685  25.534  1.00  0.00     0.306 C 
ATOM      7  O   UNL A   1      34.035  24.031  26.467  1.00  0.00    -0.252 OA
BRANCH   6   8
ATOM      8  C   UNL A   1      33.878  25.982  25.050  1.00  0.00     0.132 C 
BRANCH   8   9
ATOM      9  C   UNL A   1      33.644  26.052  23.538  1.00  0.00     0.112 C 
BRANCH   9  10
ATOM     10  C   UNL A   1      32.193  25.845  23.166  1.00  0.00     0.224 C 
ATOM     11  N   UNL A   1      31.483  24.688  23.256  1.00  0.00    -0.326 N 
ATOM     12  H   UNL A   1      30.557  24.813  22.944  1.00  0.00     0.169 HD
ATOM     13  O   UNL A   1      31.572  26.832  22.741  1.00  0.00    -0.275 OA
BRANCH  11  14
ATOM     14  C   UNL A   1      31.705  23.361  23.672  1.00  0.00     0.041 A 
ATOM     15  C   UNL A   1      32.163  20.762  24.713  1.00  0.00     0.119 A 
ATOM     16  C   UNL A   1      32.648  21.116  23.475  1.00  0.00     0.048 A 
ATOM     17  C   UNL A   1      31.440  21.696  25.443  1.00  0.00     0.048 A 
ATOM     18  C   UNL A   1      32.419  22.405  22.976  1.00  0.00     0.030 A 
ATOM     19  C   UNL A   1      31.191  22.975  24.917  1.00  0.00     0.030 A 
BRANCH  15  20
ATOM     20  O   UNL A   1      32.459  19.569  25.298  1.00  0.00    -0.494 OA
BRANCH  20  21
ATOM     21  C   UNL A   1      32.491  18.445  24.407  1.00  0.00     0.229 C 
BRANCH  21  22
ATOM     22  C   UNL A   1      33.928  17.936  24.385  1.00  0.00     0.038 C 
ATOM     23  C   UNL A   1      34.121  16.828  23.356  1.00  0.00     0.007 C 
ENDBRANCH  21  22
ENDBRANCH  20  21
ENDBRANCH  15  20
ENDBRANCH  11  14
ENDBRANCH   9  10
ENDBRANCH   8   9
ENDBRANCH   6   8
ENDBRANCH   5   6
ENDBRANCH   4   5
ENDBRANCH   3   4
ENDBRANCH   2   3
ENDBRANCH   1   2
BRANCH   1  24
ATOM     24  C   UNL A   1      40.004  22.442  26.777  1.00  0.00     0.188 C 
BRANCH  24  25
ATOM     25  O   UNL A   1      41.212  22.817  27.432  1.00  0.00    -0.377 OA
BRANCH  25  26
ATOM     26  C   UNL A   1      42.445  22.158  27.148  1.00  0.00     0.188 C 
BRANCH  26  27
ATOM     27  C   UNL A   1      42.511  21.146  25.997  1.00  0.00     0.188 C 
BRANCH  27  28
ATOM     28  O   UNL A   1      43.531  21.379  25.024  1.00  0.00    -0.376 OA
BRANCH  28  29
ATOM     29  C   UNL A   1      43.967  22.725  24.857  1.00  0.00     0.202 C 
BRANCH  29  30
ATOM     30  C   UNL A   1      45.264  22.966  24.064  1.00  0.00     0.261 C 
BRANCH  30  31
ATOM     31  O   UNL A   1      46.350  23.542  24.818  1.00  0.00    -0.460 OA
BRANCH  31  32
ATOM     32  C   UNL A   1      46.169  24.847  25.160  1.00  0.00     0.338 C 
ATOM     33  O   UNL A   1      45.683  25.715  24.456  1.00  0.00    -0.246 OA
BRANCH  32  34
ATOM     34  C   UNL A   1      46.548  25.109  26.568  1.00  0.00     0.060 A 
ATOM     35  C   UNL A   1      46.066  24.226  27.545  1.00  0.00     0.016 A 
ATOM     36  C   UNL A   1      47.212  26.276  26.952  1.00  0.00     0.016 A 
ATOM     37  C   UNL A   1      46.178  24.540  28.903  1.00  0.00     0.010 A 
ATOM     38  C   UNL A   1      47.319  26.592  28.316  1.00  0.00     0.010 A 
ATOM     39  C   UNL A   1      46.760  25.752  29.297  1.00  0.00    -0.014 A 
BRANCH  39  40
ATOM     40  C   UNL A   1      46.595  26.241  30.695  1.00  0.00     0.031 A 
ATOM     41  C   UNL A   1      47.710  25.998  31.684  1.00  0.00     0.074 A 
ATOM     42  C   UNL A   1      45.495  26.908  31.093  1.00  0.00     0.049 A 
ATOM     43  N   UNL A   1      47.755  26.255  32.966  1.00  0.00    -0.248 NA
ATOM     44  C   UNL A   1      48.937  25.386  31.148  1.00  0.00     0.031 C 
ATOM     45  C   UNL A   1      44.370  27.278  30.239  1.00  0.00     0.029 A 
ATOM     46  N   UNL A   1      45.147  27.384  32.335  1.00  0.00    -0.354 N 
ATOM     47  C   UNL A   1      49.005  25.821  33.395  1.00  0.00     0.074 A 
ATOM     48  C   UNL A   1      49.678  25.265  32.240  1.00  0.00     0.031 C 
ATOM     49  C   UNL A   1      43.449  27.915  30.985  1.00  0.00     0.029 A 
ATOM     50  C   UNL A   1      43.901  27.963  32.375  1.00  0.00     0.049 A 
ATOM     51  H   UNL A   1      45.736  27.319  33.121  1.00  0.00     0.167 HD
ATOM     52  C   UNL A   1      49.551  25.877  34.634  1.00  0.00     0.031 A 
ATOM     53  C   UNL A   1      43.193  28.449  33.417  1.00  0.00     0.031 A 
ATOM     54  C   UNL A   1      48.889  26.415  35.792  1.00  0.00     0.049 A 
ATOM     55  C   UNL A   1      43.779  28.415  34.807  1.00  0.00     0.074 A 
ATOM     56  C   UNL A   1      49.364  26.508  37.089  1.00  0.00     0.029 A 
ATOM     57  N   UNL A   1      47.609  26.947  35.796  1.00  0.00    -0.354 N 
ATOM     58  N   UNL A   1      44.959  27.993  35.197  1.00  0.00    -0.248 NA
ATOM     59  C   UNL A   1      42.934  28.925  35.899  1.00  0.00     0.031 C 
ATOM     60  C   UNL A   1      48.352  27.051  37.889  1.00  0.00     0.029 A 
ATOM     61  C   UNL A   1      47.269  27.349  37.078  1.00  0.00     0.049 A 
ATOM     62  H   UNL A   1      47.028  27.027  35.006  1.00  0.00     0.167 HD
ATOM     63  C   UNL A   1      45.007  28.216  36.572  1.00  0.00     0.074 A 
ATOM     64  C   UNL A   1      43.744  28.816  36.944  1.00  0.00     0.031 C 
ATOM     65  C   UNL A   1      46.011  27.951  37.443  1.00  0.00     0.031 A 
BRANCH  52  66
ATOM     66  C   UNL A   1      50.929  25.295  34.808  1.00  0.00    -0.014 A 
ATOM     67  C   UNL A   1      51.112  23.939  35.133  1.00  0.00     0.010 A 
ATOM     68  C   UNL A   1      52.056  26.114  34.622  1.00  0.00     0.010 A 
ATOM     69  C   UNL A   1      52.399  23.424  35.317  1.00  0.00     0.020 A 
ATOM     70  C   UNL A   1      53.346  25.597  34.778  1.00  0.00     0.020 A 
ATOM     71  C   UNL A   1      53.507  24.260  35.144  1.00  0.00     0.054 A 
BRANCH  71  72
ATOM     72  S   UNL A   1      55.167  23.568  35.387  1.00  0.00     0.124 S 
ATOM     73  O   UNL A   1      56.019  24.674  34.959  1.00  0.00    -0.237 OA
ATOM     74  O   UNL A   1      55.187  23.277  36.818  1.00  0.00    -0.237 OA
ATOM     75  O   UNL A   1      55.185  22.396  34.516  1.00  0.00    -0.744 OA
ENDBRANCH  71  72
ENDBRANCH  52  66
BRANCH  53  76
ATOM     76  C   UNL A   1      41.825  28.994  33.196  1.00  0.00    -0.014 A 
ATOM     77  C   UNL A   1      40.707  28.141  33.184  1.00  0.00     0.010 A 
ATOM     78  C   UNL A   1      41.635  30.372  32.981  1.00  0.00     0.010 A 
ATOM     79  C   UNL A   1      39.428  28.653  32.948  1.00  0.00     0.020 A 
ATOM     80  C   UNL A   1      40.354  30.890  32.772  1.00  0.00     0.020 A 
ATOM     81  C   UNL A   1      39.259  30.026  32.747  1.00  0.00     0.054 A 
BRANCH  81  82
ATOM     82  S   UNL A   1      37.582  30.674  32.500  1.00  0.00     0.124 S 
ATOM     83  O   UNL A   1      37.779  31.618  31.404  1.00  0.00    -0.237 OA
ATOM     84  O   UNL A   1      36.824  29.469  32.169  1.00  0.00    -0.237 OA
ATOM     85  O   UNL A   1      37.254  31.271  33.792  1.00  0.00    -0.744 OA
ENDBRANCH  81  82
ENDBRANCH  53  76
BRANCH  65  86
ATOM     86  C   UNL A   1      45.814  28.344  38.886  1.00  0.00    -0.014 A 
ATOM     87  C   UNL A   1      45.380  27.414  39.846  1.00  0.00     0.010 A 
ATOM     88  C   UNL A   1      46.135  29.652  39.297  1.00  0.00     0.010 A 
ATOM     89  C   UNL A   1      45.244  27.793  41.186  1.00  0.00     0.020 A 
ATOM     90  C   UNL A   1      46.024  30.027  40.637  1.00  0.00     0.020 A 
ATOM     91  C   UNL A   1      45.566  29.097  41.574  1.00  0.00     0.054 A 
BRANCH  91  92
ATOM     92  S   UNL A   1      45.427  29.552  43.325  1.00  0.00     0.124 S 
ATOM     93  O   UNL A   1      46.105  28.439  43.984  1.00  0.00    -0.237 OA
ATOM     94  O   UNL A   1      46.124  30.835  43.381  1.00  0.00    -0.237 OA
ATOM     95  O   UNL A   1      43.984  29.625  43.551  1.00  0.00    -0.744 OA
ENDBRANCH  91  92
ENDBRANCH  65  86
ENDBRANCH  39  40
ENDBRANCH  32  34
ENDBRANCH  31  32
ENDBRANCH  30  31
ENDBRANCH  29  30
ENDBRANCH  28  29
ENDBRANCH  27  28
ENDBRANCH  26  27
ENDBRANCH  25  26
ENDBRANCH  24  25
ENDBRANCH   1  24
TORSDOF 29
ENDMDL
MODEL 2
REMARK VINA RESULT:      -7.0      7.368     10.169
REMARK SMILES CCCOc1ccc(NC(=O)CCC(=O)OCCOCCOCCOCCOC(=O)c2ccc(-c3c4nc(c(-c5ccc(S(=O)(=O)[O-])cc5)c5ccc([nH]5)c(-c5ccc(S(=O)(=O)[O-])cc5)c5nc(c(-c6ccc(S(=O)(=O)[O-])cc6)c6ccc3[nH]6)C=C5)C=C4)cc2)cc1
REMARK SMILES IDX 20 1 19 2 18 3 17 4 16 5 14 6 15 7 13 8 12 9 10 10 9 11
REMARK SMILES IDX 11 13 8 14 5 15 6 16 92 17 7 18 91 19 4 20 3 21 2 22 1 23
REMARK SMILES IDX 21 24 22 25 23 26 24 27 25 28 26 29 27 30 28 31 29 32 30 33
REMARK SMILES IDX 31 34 32 35 90 36 33 37 89 38 34 39 35 40 36 41 83 42 37 43
REMARK SMILES IDX 88 44 82 45 84 46 38 47 87 48 81 49 80 50 39 52 69 53 50 54
REMARK SMILES IDX 68 55 51 56 54 57 67 58 85 59 52 60 53 61 66 63 86 64 55 65
REMARK SMILES IDX 40 66 41 67 49 68 42 69 48 70 43 71 44 72 45 73 46 74 47 75
REMARK SMILES IDX 70 76 71 77 79 78 72 79 78 80 73 81 74 82 75 83 76 84 77 85
REMARK SMILES IDX 56 86 57 87 65 88 58 89 64 90 59 91 60 92 61 93 62 94 63 95
REMARK H PARENT 9 12 84 51 54 62
REMARK Flexibility Score: inf
ROOT
ATOM      1  C   UNL A   1      37.367  23.742  25.451  1.00  0.00     0.188 C 
ENDROOT
BRANCH   1   2
ATOM      2  O   UNL A   1      36.743  22.454  25.578  1.00  0.00    -0.376 OA
BRANCH   2   3
ATOM      3  C   UNL A   1      35.447  22.477  26.189  1.00  0.00     0.202 C 
BRANCH   3   4
ATOM      4  C   UNL A   1      34.594  21.239  25.857  1.00  0.00     0.261 C 
BRANCH   4   5
ATOM      5  O   UNL A   1      33.996  21.274  24.551  1.00  0.00    -0.463 OA
BRANCH   5   6
ATOM      6  C   UNL A   1      32.653  21.327  24.468  1.00  0.00     0.306 C 
ATOM      7  O   UNL A   1      31.924  20.351  24.351  1.00  0.00    -0.252 OA
BRANCH   6   8
ATOM      8  C   UNL A   1      32.152  22.750  24.518  1.00  0.00     0.132 C 
BRANCH   8   9
ATOM      9  C   UNL A   1      31.936  23.400  23.148  1.00  0.00     0.112 C 
BRANCH   9  10
ATOM     10  C   UNL A   1      33.227  23.876  22.521  1.00  0.00     0.224 C 
ATOM     11  N   UNL A   1      33.919  25.005  22.832  1.00  0.00    -0.326 N 
ATOM     12  H   UNL A   1      34.726  25.094  22.274  1.00  0.00     0.169 HD
ATOM     13  O   UNL A   1      33.723  23.161  21.636  1.00  0.00    -0.275 OA
BRANCH  11  14
ATOM     14  C   UNL A   1      33.800  26.084  23.730  1.00  0.00     0.041 A 
ATOM     15  C   UNL A   1      33.474  28.119  25.680  1.00  0.00     0.119 A 
ATOM     16  C   UNL A   1      33.352  28.407  24.340  1.00  0.00     0.048 A 
ATOM     17  C   UNL A   1      33.765  26.816  26.063  1.00  0.00     0.048 A 
ATOM     18  C   UNL A   1      33.509  27.391  23.388  1.00  0.00     0.030 A 
ATOM     19  C   UNL A   1      33.952  25.813  25.095  1.00  0.00     0.030 A 
BRANCH  15  20
ATOM     20  O   UNL A   1      33.210  29.036  26.650  1.00  0.00    -0.494 OA
BRANCH  20  21
ATOM     21  C   UNL A   1      34.316  29.875  27.012  1.00  0.00     0.229 C 
BRANCH  21  22
ATOM     22  C   UNL A   1      33.729  31.150  27.609  1.00  0.00     0.038 C 
ATOM     23  C   UNL A   1      34.810  32.179  27.919  1.00  0.00     0.007 C 
ENDBRANCH  21  22
ENDBRANCH  20  21
ENDBRANCH  15  20
ENDBRANCH  11  14
ENDBRANCH   9  10
ENDBRANCH   8   9
ENDBRANCH   6   8
ENDBRANCH   5   6
ENDBRANCH   4   5
ENDBRANCH   3   4
ENDBRANCH   2   3
ENDBRANCH   1   2
BRANCH   1  24
ATOM     24  C   UNL A   1      38.088  24.110  26.768  1.00  0.00     0.188 C 
BRANCH  24  25
ATOM     25  O   UNL A   1      39.417  24.512  26.449  1.00  0.00    -0.377 OA
BRANCH  25  26
ATOM     26  C   UNL A   1      40.544  23.751  26.878  1.00  0.00     0.188 C 
BRANCH  26  27
ATOM     27  C   UNL A   1      40.340  22.316  27.379  1.00  0.00     0.188 C 
BRANCH  27  28
ATOM     28  O   UNL A   1      41.418  21.413  27.131  1.00  0.00    -0.376 OA
BRANCH  28  29
ATOM     29  C   UNL A   1      42.130  21.580  25.908  1.00  0.00     0.202 C 
BRANCH  29  30
ATOM     30  C   UNL A   1      43.664  21.461  25.949  1.00  0.00     0.261 C 
BRANCH  30  31
ATOM     31  O   UNL A   1      44.384  22.692  25.737  1.00  0.00    -0.460 OA
BRANCH  31  32
ATOM     32  C   UNL A   1      44.777  23.320  26.879  1.00  0.00     0.338 C 
ATOM     33  O   UNL A   1      44.378  23.080  28.006  1.00  0.00    -0.246 OA
BRANCH  32  34
ATOM     34  C   UNL A   1      45.856  24.303  26.630  1.00  0.00     0.060 A 
ATOM     35  C   UNL A   1      46.513  24.842  27.745  1.00  0.00     0.016 A 
ATOM     36  C   UNL A   1      46.110  24.818  25.356  1.00  0.00     0.016 A 
ATOM     37  C   UNL A   1      47.367  25.941  27.603  1.00  0.00     0.010 A 
ATOM     38  C   UNL A   1      46.963  25.924  25.217  1.00  0.00     0.010 A 
ATOM     39  C   UNL A   1      47.557  26.524  26.344  1.00  0.00    -0.014 A 
BRANCH  39  40
ATOM     40  C   UNL A   1      48.190  27.867  26.230  1.00  0.00     0.031 A 
ATOM     41  C   UNL A   1      49.652  27.951  25.864  1.00  0.00     0.074 A 
ATOM     42  C   UNL A   1      47.494  29.004  26.422  1.00  0.00     0.049 A 
ATOM     43  N   UNL A   1      50.434  28.998  25.791  1.00  0.00    -0.248 NA
ATOM     44  C   UNL A   1      50.318  26.679  25.535  1.00  0.00     0.031 C 
ATOM     45  C   UNL A   1      46.064  29.086  26.710  1.00  0.00     0.029 A 
ATOM     46  N   UNL A   1      47.912  30.314  26.409  1.00  0.00    -0.354 N 
ATOM     47  C   UNL A   1      51.685  28.513  25.425  1.00  0.00     0.074 A 
ATOM     48  C   UNL A   1      51.562  27.074  25.313  1.00  0.00     0.031 C 
ATOM     49  C   UNL A   1      45.725  30.380  26.860  1.00  0.00     0.029 A 
ATOM     50  C   UNL A   1      46.918  31.213  26.716  1.00  0.00     0.049 A 
ATOM     51  H   UNL A   1      48.835  30.582  26.199  1.00  0.00     0.167 HD
ATOM     52  C   UNL A   1      52.834  29.194  25.201  1.00  0.00     0.031 A 
ATOM     53  C   UNL A   1      46.970  32.551  26.891  1.00  0.00     0.031 A 
ATOM     54  C   UNL A   1      52.972  30.621  25.320  1.00  0.00     0.049 A 
ATOM     55  C   UNL A   1      48.280  33.281  26.730  1.00  0.00     0.074 A 
ATOM     56  C   UNL A   1      54.101  31.396  25.117  1.00  0.00     0.029 A 
ATOM     57  N   UNL A   1      51.952  31.487  25.680  1.00  0.00    -0.354 N 
ATOM     58  N   UNL A   1      49.456  32.806  26.393  1.00  0.00    -0.248 NA
ATOM     59  C   UNL A   1      48.269  34.732  26.975  1.00  0.00     0.031 C 
ATOM     60  C   UNL A   1      53.776  32.727  25.401  1.00  0.00     0.029 A 
ATOM     61  C   UNL A   1      52.430  32.787  25.726  1.00  0.00     0.049 A 
ATOM     62  H   UNL A   1      51.025  31.219  25.873  1.00  0.00     0.167 HD
ATOM     63  C   UNL A   1      50.314  33.904  26.356  1.00  0.00     0.074 A 
ATOM     64  C   UNL A   1      49.522  35.066  26.697  1.00  0.00     0.031 C 
ATOM     65  C   UNL A   1      51.637  33.942  26.061  1.00  0.00     0.031 A 
BRANCH  52  66
ATOM     66  C   UNL A   1      54.055  28.388  24.843  1.00  0.00    -0.014 A 
ATOM     67  C   UNL A   1      54.777  27.683  25.823  1.00  0.00     0.010 A 
ATOM     68  C   UNL A   1      54.473  28.319  23.502  1.00  0.00     0.010 A 
ATOM     69  C   UNL A   1      55.923  26.963  25.474  1.00  0.00     0.020 A 
ATOM     70  C   UNL A   1      55.603  27.577  23.145  1.00  0.00     0.020 A 
ATOM     71  C   UNL A   1      56.332  26.921  24.137  1.00  0.00     0.054 A 
BRANCH  71  72
ATOM     72  S   UNL A   1      57.822  25.978  23.710  1.00  0.00     0.124 S 
ATOM     73  O   UNL A   1      58.880  26.824  24.259  1.00  0.00    -0.237 OA
ATOM     74  O   UNL A   1      57.610  24.710  24.404  1.00  0.00    -0.237 OA
ATOM     75  O   UNL A   1      57.779  25.903  22.253  1.00  0.00    -0.744 OA
ENDBRANCH  71  72
ENDBRANCH  52  66
BRANCH  53  76
ATOM     76  C   UNL A   1      45.739  33.300  27.266  1.00  0.00    -0.014 A 
ATOM     77  C   UNL A   1      45.354  33.417  28.613  1.00  0.00     0.010 A 
ATOM     78  C   UNL A   1      44.934  33.887  26.272  1.00  0.00     0.010 A 
ATOM     79  C   UNL A   1      44.182  34.097  28.959  1.00  0.00     0.020 A 
ATOM     80  C   UNL A   1      43.776  34.591  26.617  1.00  0.00     0.020 A 
ATOM     81  C   UNL A   1      43.402  34.682  27.958  1.00  0.00     0.054 A 
BRANCH  81  82
ATOM     82  S   UNL A   1      41.916  35.608  28.436  1.00  0.00     0.124 S 
ATOM     83  O   UNL A   1      42.464  36.925  28.746  1.00  0.00    -0.237 OA
ATOM     84  O   UNL A   1      41.096  35.531  27.228  1.00  0.00    -0.237 OA
ATOM     85  O   UNL A   1      41.400  34.858  29.578  1.00  0.00    -0.744 OA
ENDBRANCH  81  82
ENDBRANCH  53  76
BRANCH  65  86
ATOM     86  C   UNL A   1      52.317  35.288  26.047  1.00  0.00    -0.014 A 
ATOM     87  C   UNL A   1      53.049  35.751  27.154  1.00  0.00     0.010 A 
ATOM     88  C   UNL A   1      52.275  36.072  24.878  1.00  0.00     0.010 A 
ATOM     89  C   UNL A   1      53.705  36.985  27.102  1.00  0.00     0.020 A 
ATOM     90  C   UNL A   1      52.949  37.294  24.813  1.00  0.00     0.020 A 
ATOM     91  C   UNL A   1      53.651  37.750  25.932  1.00  0.00     0.054 A 
BRANCH  91  92
ATOM     92  S   UNL A   1      54.548  39.326  25.871  1.00  0.00     0.124 S 
ATOM     93  O   UNL A   1      53.747  40.167  26.756  1.00  0.00    -0.237 OA
ATOM     94  O   UNL A   1      55.871  38.963  26.376  1.00  0.00    -0.237 OA
ATOM     95  O   UNL A   1      54.510  39.694  24.457  1.00  0.00    -0.744 OA
ENDBRANCH  91  92
ENDBRANCH  65  86
ENDBRANCH  39  40
ENDBRANCH  32  34
ENDBRANCH  31  32
ENDBRANCH  30  31
ENDBRANCH  29  30
ENDBRANCH  28  29
ENDBRANCH  27  28
ENDBRANCH  26  27
ENDBRANCH  25  26
ENDBRANCH  24  25
ENDBRANCH   1  24
TORSDOF 29
ENDMDL
MODEL 3
REMARK VINA RESULT:      -6.6      7.471     10.814
REMARK SMILES CCCOc1ccc(NC(=O)CCC(=O)OCCOCCOCCOCCOC(=O)c2ccc(-c3c4nc(c(-c5ccc(S(=O)(=O)[O-])cc5)c5ccc([nH]5)c(-c5ccc(S(=O)(=O)[O-])cc5)c5nc(c(-c6ccc(S(=O)(=O)[O-])cc6)c6ccc3[nH]6)C=C5)C=C4)cc2)cc1
REMARK SMILES IDX 20 1 19 2 18 3 17 4 16 5 14 6 15 7 13 8 12 9 10 10 9 11
REMARK SMILES IDX 11 13 8 14 5 15 6 16 92 17 7 18 91 19 4 20 3 21 2 22 1 23
REMARK SMILES IDX 21 24 22 25 23 26 24 27 25 28 26 29 27 30 28 31 29 32 30 33
REMARK SMILES IDX 31 34 32 35 90 36 33 37 89 38 34 39 35 40 36 41 83 42 37 43
REMARK SMILES IDX 88 44 82 45 84 46 38 47 87 48 81 49 80 50 39 52 69 53 50 54
REMARK SMILES IDX 68 55 51 56 54 57 67 58 85 59 52 60 53 61 66 63 86 64 55 65
REMARK SMILES IDX 40 66 41 67 49 68 42 69 48 70 43 71 44 72 45 73 46 74 47 75
REMARK SMILES IDX 70 76 71 77 79 78 72 79 78 80 73 81 74 82 75 83 76 84 77 85
REMARK SMILES IDX 56 86 57 87 65 88 58 89 64 90 59 91 60 92 61 93 62 94 63 95
REMARK H PARENT 9 12 84 51 54 62
REMARK Flexibility Score: inf
ROOT
ATOM      1  C   UNL A   1      37.120  23.985  25.969  1.00  0.00     0.188 C 
ENDROOT
BRANCH   1   2
ATOM      2  O   UNL A   1      36.253  22.840  26.006  1.00  0.00    -0.376 OA
BRANCH   2   3
ATOM      3  C   UNL A   1      35.090  22.998  26.829  1.00  0.00     0.202 C 
BRANCH   3   4
ATOM      4  C   UNL A   1      33.874  22.200  26.328  1.00  0.00     0.261 C 
BRANCH   4   5
ATOM      5  O   UNL A   1      33.516  22.473  24.964  1.00  0.00    -0.463 OA
BRANCH   5   6
ATOM      6  C   UNL A   1      32.293  22.102  24.541  1.00  0.00     0.306 C 
ATOM      7  O   UNL A   1      31.921  20.942  24.415  1.00  0.00    -0.252 OA
BRANCH   6   8
ATOM      8  C   UNL A   1      31.432  23.300  24.221  1.00  0.00     0.132 C 
BRANCH   8   9
ATOM      9  C   UNL A   1      31.615  23.857  22.806  1.00  0.00     0.112 C 
BRANCH   9  10
ATOM     10  C   UNL A   1      33.065  24.116  22.466  1.00  0.00     0.224 C 
ATOM     11  N   UNL A   1      33.854  25.113  22.951  1.00  0.00    -0.326 N 
ATOM     12  H   UNL A   1      34.760  25.069  22.569  1.00  0.00     0.169 HD
ATOM     13  O   UNL A   1      33.607  23.333  21.670  1.00  0.00    -0.275 OA
BRANCH  11  14
ATOM     14  C   UNL A   1      33.732  26.191  23.849  1.00  0.00     0.041 A 
ATOM     15  C   UNL A   1      33.570  28.491  25.503  1.00  0.00     0.119 A 
ATOM     16  C   UNL A   1      33.816  27.251  26.048  1.00  0.00     0.048 A 
ATOM     17  C   UNL A   1      33.396  28.597  24.130  1.00  0.00     0.048 A 
ATOM     18  C   UNL A   1      33.900  26.126  25.219  1.00  0.00     0.030 A 
ATOM     19  C   UNL A   1      33.451  27.454  23.313  1.00  0.00     0.030 A 
BRANCH  15  20
ATOM     20  O   UNL A   1      33.601  29.632  26.244  1.00  0.00    -0.494 OA
BRANCH  20  21
ATOM     21  C   UNL A   1      34.209  29.502  27.537  1.00  0.00     0.229 C 
BRANCH  21  22
ATOM     22  C   UNL A   1      35.637  30.022  27.412  1.00  0.00     0.038 C 
ATOM     23  C   UNL A   1      36.543  29.455  28.498  1.00  0.00     0.007 C 
ENDBRANCH  21  22
ENDBRANCH  20  21
ENDBRANCH  15  20
ENDBRANCH  11  14
ENDBRANCH   9  10
ENDBRANCH   8   9
ENDBRANCH   6   8
ENDBRANCH   5   6
ENDBRANCH   4   5
ENDBRANCH   3   4
ENDBRANCH   2   3
ENDBRANCH   1   2
BRANCH   1  24
ATOM     24  C   UNL A   1      38.261  23.814  26.999  1.00  0.00     0.188 C 
BRANCH  24  25
ATOM     25  O   UNL A   1      39.446  24.378  26.444  1.00  0.00    -0.377 OA
BRANCH  25  26
ATOM     26  C   UNL A   1      40.687  23.675  26.478  1.00  0.00     0.188 C 
BRANCH  26  27
ATOM     27  C   UNL A   1      40.735  22.258  27.064  1.00  0.00     0.188 C 
BRANCH  27  28
ATOM     28  O   UNL A   1      41.976  21.567  26.915  1.00  0.00    -0.376 OA
BRANCH  28  29
ATOM     29  C   UNL A   1      42.698  21.792  25.707  1.00  0.00     0.202 C 
BRANCH  29  30
ATOM     30  C   UNL A   1      44.152  21.293  25.636  1.00  0.00     0.261 C 
BRANCH  30  31
ATOM     31  O   UNL A   1      45.144  22.315  25.405  1.00  0.00    -0.460 OA
BRANCH  31  32
ATOM     32  C   UNL A   1      45.599  22.924  26.534  1.00  0.00     0.338 C 
ATOM     33  O   UNL A   1      45.301  22.633  27.679  1.00  0.00    -0.246 OA
BRANCH  32  34
ATOM     34  C   UNL A   1      46.613  23.962  26.234  1.00  0.00     0.060 A 
ATOM     35  C   UNL A   1      47.331  24.498  27.311  1.00  0.00     0.016 A 
ATOM     36  C   UNL A   1      46.744  24.525  24.962  1.00  0.00     0.016 A 
ATOM     37  C   UNL A   1      48.123  25.638  27.141  1.00  0.00     0.010 A 
ATOM     38  C   UNL A   1      47.535  25.672  24.793  1.00  0.00     0.010 A 
ATOM     39  C   UNL A   1      48.189  26.265  25.890  1.00  0.00    -0.014 A 
BRANCH  39  40
ATOM     40  C   UNL A   1      48.753  27.638  25.771  1.00  0.00     0.031 A 
ATOM     41  C   UNL A   1      50.001  27.841  24.944  1.00  0.00     0.074 A 
ATOM     42  C   UNL A   1      48.174  28.702  26.359  1.00  0.00     0.049 A 
ATOM     43  N   UNL A   1      50.716  28.922  24.768  1.00  0.00    -0.248 NA
ATOM     44  C   UNL A   1      50.503  26.661  24.220  1.00  0.00     0.031 C 
ATOM     45  C   UNL A   1      46.933  28.677  27.128  1.00  0.00     0.029 A 
ATOM     46  N   UNL A   1      48.571  30.018  26.403  1.00  0.00    -0.354 N 
ATOM     47  C   UNL A   1      51.761  28.552  23.928  1.00  0.00     0.074 A 
ATOM     48  C   UNL A   1      51.597  27.141  23.648  1.00  0.00     0.031 C 
ATOM     49  C   UNL A   1      46.675  29.918  27.578  1.00  0.00     0.029 A 
ATOM     50  C   UNL A   1      47.751  30.817  27.163  1.00  0.00     0.049 A 
ATOM     51  H   UNL A   1      49.367  30.356  25.933  1.00  0.00     0.167 HD
ATOM     52  C   UNL A   1      52.767  29.310  23.430  1.00  0.00     0.031 A 
ATOM     53  C   UNL A   1      47.869  32.117  27.510  1.00  0.00     0.031 A 
ATOM     54  C   UNL A   1      52.948  30.710  23.709  1.00  0.00     0.049 A 
ATOM     55  C   UNL A   1      49.049  32.922  27.024  1.00  0.00     0.074 A 
ATOM     56  C   UNL A   1      53.943  31.557  23.252  1.00  0.00     0.029 A 
ATOM     57  N   UNL A   1      52.120  31.468  24.522  1.00  0.00    -0.354 N 
ATOM     58  N   UNL A   1      50.033  32.554  26.237  1.00  0.00    -0.248 NA
ATOM     59  C   UNL A   1      49.133  34.320  27.474  1.00  0.00     0.031 C 
ATOM     60  C   UNL A   1      53.745  32.817  23.828  1.00  0.00     0.029 A 
ATOM     61  C   UNL A   1      52.594  32.767  24.599  1.00  0.00     0.049 A 
ATOM     62  H   UNL A   1      51.315  31.132  24.978  1.00  0.00     0.167 HD
ATOM     63  C   UNL A   1      50.833  33.684  26.075  1.00  0.00     0.074 A 
ATOM     64  C   UNL A   1      50.215  34.747  26.838  1.00  0.00     0.031 C 
ATOM     65  C   UNL A   1      51.973  33.825  25.356  1.00  0.00     0.031 A 
BRANCH  52  66
ATOM     66  C   UNL A   1      53.784  28.621  22.558  1.00  0.00    -0.014 A 
ATOM     67  C   UNL A   1      54.925  28.012  23.110  1.00  0.00     0.010 A 
ATOM     68  C   UNL A   1      53.582  28.565  21.168  1.00  0.00     0.010 A 
ATOM     69  C   UNL A   1      55.871  27.401  22.282  1.00  0.00     0.020 A 
ATOM     70  C   UNL A   1      54.512  27.931  20.338  1.00  0.00     0.020 A 
ATOM     71  C   UNL A   1      55.660  27.371  20.900  1.00  0.00     0.054 A 
BRANCH  71  72
ATOM     72  S   UNL A   1      56.902  26.571  19.846  1.00  0.00     0.124 S 
ATOM     73  O   UNL A   1      56.987  27.502  18.723  1.00  0.00    -0.237 OA
ATOM     74  O   UNL A   1      58.077  26.525  20.713  1.00  0.00    -0.237 OA
ATOM     75  O   UNL A   1      56.309  25.274  19.535  1.00  0.00    -0.744 OA
ENDBRANCH  71  72
ENDBRANCH  52  66
BRANCH  53  76
ATOM     76  C   UNL A   1      46.848  32.746  28.392  1.00  0.00    -0.014 A 
ATOM     77  C   UNL A   1      46.998  32.726  29.790  1.00  0.00     0.010 A 
ATOM     78  C   UNL A   1      45.709  33.358  27.837  1.00  0.00     0.010 A 
ATOM     79  C   UNL A   1      46.023  33.293  30.616  1.00  0.00     0.020 A 
ATOM     80  C   UNL A   1      44.745  33.950  28.659  1.00  0.00     0.020 A 
ATOM     81  C   UNL A   1      44.904  33.904  30.044  1.00  0.00     0.054 A 
BRANCH  81  82
ATOM     82  S   UNL A   1      43.680  34.684  31.134  1.00  0.00     0.124 S 
ATOM     83  O   UNL A   1      42.641  35.082  30.190  1.00  0.00    -0.237 OA
ATOM     84  O   UNL A   1      43.328  33.594  32.043  1.00  0.00    -0.237 OA
ATOM     85  O   UNL A   1      44.423  35.782  31.750  1.00  0.00    -0.744 OA
ENDBRANCH  81  82
ENDBRANCH  53  76
BRANCH  65  86
ATOM     86  C   UNL A   1      52.616  35.189  25.313  1.00  0.00    -0.014 A 
ATOM     87  C   UNL A   1      52.273  36.129  24.326  1.00  0.00     0.010 A 
ATOM     88  C   UNL A   1      53.530  35.555  26.319  1.00  0.00     0.010 A 
ATOM     89  C   UNL A   1      52.853  37.402  24.331  1.00  0.00     0.020 A 
ATOM     90  C   UNL A   1      54.093  36.833  26.342  1.00  0.00     0.020 A 
ATOM     91  C   UNL A   1      53.760  37.747  25.339  1.00  0.00     0.054 A 
BRANCH  91  92
ATOM     92  S   UNL A   1      54.463  39.420  25.352  1.00  0.00     0.124 S 
ATOM     93  O   UNL A   1      53.920  39.969  26.590  1.00  0.00    -0.237 OA
ATOM     94  O   UNL A   1      55.902  39.163  25.355  1.00  0.00    -0.237 OA
ATOM     95  O   UNL A   1      53.949  40.022  24.123  1.00  0.00    -0.744 OA
ENDBRANCH  91  92
ENDBRANCH  65  86
ENDBRANCH  39  40
ENDBRANCH  32  34
ENDBRANCH  31  32
ENDBRANCH  30  31
ENDBRANCH  29  30
ENDBRANCH  28  29
ENDBRANCH  27  28
ENDBRANCH  26  27
ENDBRANCH  25  26
ENDBRANCH  24  25
ENDBRANCH   1  24
TORSDOF 29
ENDMDL
