MODEL 1
REMARK VINA RESULT:      -8.3      0.000      0.000
REMARK SMILES CCSc1nc(CC(=O)N[C@@H](C(=O)OCCOCCOCCOCCOC(=O)c2ccc(-c3c4nc(c(-c5ccc(S(=O)(=O)[O-])cc5)c5ccc([nH]5)c(-c5ccc(S(=O)(=O)[O-])cc5)c5nc(c(-c6ccc(S(=O)(=O)[O-])cc6)c6ccc3[nH]6)C=C5)C=C4)cc2)C2=C(C)N=N[C@@H]2C)cs1
REMARK SMILES IDX 19 1 18 2 17 3 16 4 15 5 14 6 12 7 13 8 11 9 10 10 8 11 9 12
REMARK SMILES IDX 7 14 6 15 4 16 5 17 97 18 96 19 3 20 2 21 1 22 89 23 90 24
REMARK SMILES IDX 94 25 91 26 92 27 93 28 95 29 20 30 21 31 22 32 23 33 24 34
REMARK SMILES IDX 25 35 26 36 27 37 28 38 29 39 30 40 88 41 31 42 87 43 32 44
REMARK SMILES IDX 33 45 34 46 81 47 35 48 86 49 80 50 82 51 36 52 85 53 79 54
REMARK SMILES IDX 78 55 37 57 67 58 48 59 66 60 49 61 52 62 65 63 83 64 50 65
REMARK SMILES IDX 51 66 64 68 84 69 53 70 38 71 39 72 47 73 40 74 46 75 41 76
REMARK SMILES IDX 42 77 43 78 44 79 45 80 68 81 69 82 77 83 70 84 76 85 71 86
REMARK SMILES IDX 72 87 73 88 74 89 75 90 54 91 55 92 63 93 56 94 62 95 57 96
REMARK SMILES IDX 58 97 59 98 60 99 61 100
REMARK H PARENT 10 13 82 56 52 67
REMARK Flexibility Score: inf
ROOT
ATOM      1  C   UNL A   1      33.574  30.916  27.354  1.00  0.00     0.188 C 
ENDROOT
BRANCH   1   2
ATOM      2  C   UNL A   1      32.749  30.407  26.152  1.00  0.00     0.188 C 
BRANCH   2   3
ATOM      3  O   UNL A   1      31.608  29.585  26.339  1.00  0.00    -0.376 OA
BRANCH   3   4
ATOM      4  C   UNL A   1      31.702  28.474  27.213  1.00  0.00     0.202 C 
BRANCH   4   5
ATOM      5  C   UNL A   1      31.282  27.072  26.728  1.00  0.00     0.261 C 
BRANCH   5   6
ATOM      6  O   UNL A   1      32.322  26.086  26.542  1.00  0.00    -0.461 OA
BRANCH   6   7
ATOM      7  C   UNL A   1      31.954  24.774  26.504  1.00  0.00     0.333 C 
ATOM      8  O   UNL A   1      31.135  24.277  27.272  1.00  0.00    -0.249 OA
BRANCH   7   9
ATOM      9  C   UNL A   1      32.667  23.943  25.367  1.00  0.00     0.223 C 
BRANCH   9  10
ATOM     10  N   UNL A   1      31.919  23.221  24.332  1.00  0.00    -0.339 N 
ATOM     11  C   UNL A   1      31.984  23.296  22.974  1.00  0.00     0.226 C 
ATOM     12  O   UNL A   1      31.306  22.498  22.323  1.00  0.00    -0.275 OA
ATOM     13  H   UNL A   1      31.260  22.576  24.677  1.00  0.00     0.164 HD
BRANCH  11  14
ATOM     14  C   UNL A   1      32.905  24.278  22.287  1.00  0.00     0.157 C 
BRANCH  14  15
ATOM     15  C   UNL A   1      32.514  25.677  22.582  1.00  0.00     0.062 A 
ATOM     16  C   UNL A   1      30.994  27.226  23.039  1.00  0.00     0.150 A 
ATOM     17  N   UNL A   1      31.179  25.940  22.833  1.00  0.00    -0.234 NA
ATOM     18  S   UNL A   1      32.418  28.179  22.964  1.00  0.00    -0.116 S 
ATOM     19  C   UNL A   1      33.338  26.785  22.607  1.00  0.00     0.092 A 
BRANCH  16  20
ATOM     20  S   UNL A   1      29.354  27.784  23.293  1.00  0.00    -0.096 SA
BRANCH  20  21
ATOM     21  C   UNL A   1      29.430  29.582  23.111  1.00  0.00     0.074 C 
ATOM     22  C   UNL A   1      29.794  29.984  21.693  1.00  0.00     0.016 C 
ENDBRANCH  20  21
ENDBRANCH  16  20
ENDBRANCH  14  15
ENDBRANCH  11  14
ENDBRANCH   9  10
BRANCH   9  23
ATOM     23  C   UNL A   1      33.654  22.942  25.912  1.00  0.00     0.012 C 
ATOM     24  C   UNL A   1      34.981  23.078  26.015  1.00  0.00     0.064 C 
ATOM     25  C   UNL A   1      33.369  21.612  26.537  1.00  0.00     0.156 C 
ATOM     26  C   UNL A   1      35.841  24.149  25.448  1.00  0.00     0.069 C 
ATOM     27  N   UNL A   1      35.561  22.075  26.749  1.00  0.00    -0.160 NA
ATOM     28  N   UNL A   1      34.679  21.277  27.164  1.00  0.00    -0.181 NA
ATOM     29  C   UNL A   1      33.091  20.475  25.544  1.00  0.00     0.040 C 
ENDBRANCH   9  23
ENDBRANCH   7   9
ENDBRANCH   6   7
ENDBRANCH   5   6
ENDBRANCH   4   5
ENDBRANCH   3   4
ENDBRANCH   2   3
ENDBRANCH   1   2
BRANCH   1  30
ATOM     30  O   UNL A   1      34.884  30.395  27.426  1.00  0.00    -0.377 OA
BRANCH  30  31
ATOM     31  C   UNL A   1      35.505  30.536  28.694  1.00  0.00     0.188 C 
BRANCH  31  32
ATOM     32  C   UNL A   1      35.457  31.947  29.309  1.00  0.00     0.188 C 
BRANCH  32  33
ATOM     33  O   UNL A   1      34.917  31.971  30.629  1.00  0.00    -0.376 OA
BRANCH  33  34
ATOM     34  C   UNL A   1      35.726  31.617  31.739  1.00  0.00     0.202 C 
BRANCH  34  35
ATOM     35  C   UNL A   1      37.199  32.061  31.755  1.00  0.00     0.261 C 
BRANCH  35  36
ATOM     36  O   UNL A   1      38.123  31.279  30.990  1.00  0.00    -0.460 OA
BRANCH  36  37
ATOM     37  C   UNL A   1      38.271  29.980  31.324  1.00  0.00     0.338 C 
ATOM     38  O   UNL A   1      37.506  29.310  32.000  1.00  0.00    -0.246 OA
BRANCH  37  39
ATOM     39  C   UNL A   1      39.392  29.435  30.529  1.00  0.00     0.060 A 
ATOM     40  C   UNL A   1      40.404  28.737  31.199  1.00  0.00     0.016 A 
ATOM     41  C   UNL A   1      39.437  29.582  29.138  1.00  0.00     0.016 A 
ATOM     42  C   UNL A   1      41.492  28.232  30.493  1.00  0.00     0.010 A 
ATOM     43  C   UNL A   1      40.547  29.106  28.434  1.00  0.00     0.010 A 
ATOM     44  C   UNL A   1      41.600  28.476  29.120  1.00  0.00    -0.014 A 
BRANCH  44  45
ATOM     45  C   UNL A   1      42.936  28.334  28.493  1.00  0.00     0.031 A 
ATOM     46  C   UNL A   1      43.901  29.482  28.649  1.00  0.00     0.074 A 
ATOM     47  C   UNL A   1      43.322  27.194  27.894  1.00  0.00     0.049 A 
ATOM     48  N   UNL A   1      45.141  29.583  28.250  1.00  0.00    -0.248 NA
ATOM     49  C   UNL A   1      43.399  30.671  29.358  1.00  0.00     0.031 C 
ATOM     50  C   UNL A   1      42.499  25.996  27.739  1.00  0.00     0.029 A 
ATOM     51  N   UNL A   1      44.521  26.858  27.317  1.00  0.00    -0.354 N 
ATOM     52  C   UNL A   1      45.562  30.845  28.656  1.00  0.00     0.074 A 
ATOM     53  C   UNL A   1      44.438  31.486  29.297  1.00  0.00     0.031 C 
ATOM     54  C   UNL A   1      43.222  25.053  27.107  1.00  0.00     0.029 A 
ATOM     55  C   UNL A   1      44.545  25.589  26.790  1.00  0.00     0.049 A 
ATOM     56  H   UNL A   1      45.292  27.470  27.283  1.00  0.00     0.167 HD
ATOM     57  C   UNL A   1      46.781  31.418  28.518  1.00  0.00     0.031 A 
ATOM     58  C   UNL A   1      45.521  24.944  26.121  1.00  0.00     0.031 A 
ATOM     59  C   UNL A   1      47.894  30.783  27.867  1.00  0.00     0.049 A 
ATOM     60  C   UNL A   1      46.845  25.634  25.907  1.00  0.00     0.074 A 
ATOM     61  C   UNL A   1      49.172  31.275  27.675  1.00  0.00     0.029 A 
ATOM     62  N   UNL A   1      47.859  29.520  27.295  1.00  0.00    -0.354 N 
ATOM     63  N   UNL A   1      47.235  26.821  26.311  1.00  0.00    -0.248 NA
ATOM     64  C   UNL A   1      47.868  24.888  25.160  1.00  0.00     0.031 C 
ATOM     65  C   UNL A   1      49.891  30.336  26.928  1.00  0.00     0.029 A 
ATOM     66  C   UNL A   1      49.086  29.227  26.723  1.00  0.00     0.049 A 
ATOM     67  H   UNL A   1      47.078  28.921  27.295  1.00  0.00     0.167 HD
ATOM     68  C   UNL A   1      48.558  26.949  25.895  1.00  0.00     0.074 A 
ATOM     69  C   UNL A   1      48.904  25.711  25.226  1.00  0.00     0.031 C 
ATOM     70  C   UNL A   1      49.411  27.992  26.055  1.00  0.00     0.031 A 
BRANCH  57  71
ATOM     71  C   UNL A   1      46.953  32.818  29.044  1.00  0.00    -0.014 A 
ATOM     72  C   UNL A   1      46.540  33.939  28.301  1.00  0.00     0.010 A 
ATOM     73  C   UNL A   1      47.520  33.013  30.316  1.00  0.00     0.010 A 
ATOM     74  C   UNL A   1      46.725  35.230  28.804  1.00  0.00     0.020 A 
ATOM     75  C   UNL A   1      47.678  34.300  30.838  1.00  0.00     0.020 A 
ATOM     76  C   UNL A   1      47.292  35.401  30.071  1.00  0.00     0.054 A 
BRANCH  76  77
ATOM     77  S   UNL A   1      47.494  37.085  30.712  1.00  0.00     0.124 S 
ATOM     78  O   UNL A   1      46.107  37.507  30.894  1.00  0.00    -0.237 OA
ATOM     79  O   UNL A   1      48.250  36.869  31.943  1.00  0.00    -0.237 OA
ATOM     80  O   UNL A   1      48.221  37.778  29.651  1.00  0.00    -0.744 OA
ENDBRANCH  76  77
ENDBRANCH  57  71
BRANCH  58  81
ATOM     81  C   UNL A   1      45.281  23.573  25.588  1.00  0.00    -0.014 A 
ATOM     82  C   UNL A   1      44.426  23.360  24.492  1.00  0.00     0.010 A 
ATOM     83  C   UNL A   1      45.902  22.464  26.191  1.00  0.00     0.010 A 
ATOM     84  C   UNL A   1      44.181  22.065  24.024  1.00  0.00     0.020 A 
ATOM     85  C   UNL A   1      45.686  21.171  25.706  1.00  0.00     0.020 A 
ATOM     86  C   UNL A   1      44.818  20.979  24.631  1.00  0.00     0.054 A 
BRANCH  86  87
ATOM     87  S   UNL A   1      44.528  19.313  23.972  1.00  0.00     0.124 S 
ATOM     88  O   UNL A   1      43.278  18.940  24.625  1.00  0.00    -0.237 OA
ATOM     89  O   UNL A   1      44.446  19.556  22.534  1.00  0.00    -0.237 OA
ATOM     90  O   UNL A   1      45.708  18.565  24.403  1.00  0.00    -0.744 OA
ENDBRANCH  86  87
ENDBRANCH  58  81
BRANCH  70  91
ATOM     91  C   UNL A   1      50.818  27.825  25.538  1.00  0.00    -0.014 A 
ATOM     92  C   UNL A   1      51.847  27.318  26.351  1.00  0.00     0.010 A 
ATOM     93  C   UNL A   1      51.104  28.149  24.199  1.00  0.00     0.010 A 
ATOM     94  C   UNL A   1      53.145  27.188  25.851  1.00  0.00     0.020 A 
ATOM     95  C   UNL A   1      52.392  27.987  23.683  1.00  0.00     0.020 A 
ATOM     96  C   UNL A   1      53.410  27.527  24.520  1.00  0.00     0.054 A 
BRANCH  96  97
ATOM     97  S   UNL A   1      55.100  27.338  23.890  1.00  0.00     0.124 S 
ATOM     98  O   UNL A   1      54.868  27.092  22.469  1.00  0.00    -0.237 OA
ATOM     99  O   UNL A   1      55.708  28.626  24.213  1.00  0.00    -0.237 OA
ATOM    100  O   UNL A   1      55.626  26.202  24.642  1.00  0.00    -0.744 OA
ENDBRANCH  96  97
ENDBRANCH  70  91
ENDBRANCH  44  45
ENDBRANCH  37  39
ENDBRANCH  36  37
ENDBRANCH  35  36
ENDBRANCH  34  35
ENDBRANCH  33  34
ENDBRANCH  32  33
ENDBRANCH  31  32
ENDBRANCH  30  31
ENDBRANCH   1  30
TORSDOF 29
ENDMDL
MODEL 2
REMARK VINA RESULT:      -7.8      8.157     13.858
REMARK SMILES CCSc1nc(CC(=O)N[C@@H](C(=O)OCCOCCOCCOCCOC(=O)c2ccc(-c3c4nc(c(-c5ccc(S(=O)(=O)[O-])cc5)c5ccc([nH]5)c(-c5ccc(S(=O)(=O)[O-])cc5)c5nc(c(-c6ccc(S(=O)(=O)[O-])cc6)c6ccc3[nH]6)C=C5)C=C4)cc2)C2=C(C)N=N[C@@H]2C)cs1
REMARK SMILES IDX 19 1 18 2 17 3 16 4 15 5 14 6 12 7 13 8 11 9 10 10 8 11 9 12
REMARK SMILES IDX 7 14 6 15 4 16 5 17 97 18 96 19 3 20 2 21 1 22 89 23 90 24
REMARK SMILES IDX 94 25 91 26 92 27 93 28 95 29 20 30 21 31 22 32 23 33 24 34
REMARK SMILES IDX 25 35 26 36 27 37 28 38 29 39 30 40 88 41 31 42 87 43 32 44
REMARK SMILES IDX 33 45 34 46 81 47 35 48 86 49 80 50 82 51 36 52 85 53 79 54
REMARK SMILES IDX 78 55 37 57 67 58 48 59 66 60 49 61 52 62 65 63 83 64 50 65
REMARK SMILES IDX 51 66 64 68 84 69 53 70 38 71 39 72 47 73 40 74 46 75 41 76
REMARK SMILES IDX 42 77 43 78 44 79 45 80 68 81 69 82 77 83 70 84 76 85 71 86
REMARK SMILES IDX 72 87 73 88 74 89 75 90 54 91 55 92 63 93 56 94 62 95 57 96
REMARK SMILES IDX 58 97 59 98 60 99 61 100
REMARK H PARENT 10 13 82 56 52 67
REMARK Flexibility Score: inf
ROOT
ATOM      1  C   UNL A   1      39.880  25.892  28.575  1.00  0.00     0.188 C 
ENDROOT
BRANCH   1   2
ATOM      2  C   UNL A   1      39.324  25.345  27.242  1.00  0.00     0.188 C 
BRANCH   2   3
ATOM      3  O   UNL A   1      38.841  24.016  27.137  1.00  0.00    -0.376 OA
BRANCH   3   4
ATOM      4  C   UNL A   1      38.158  23.628  25.959  1.00  0.00     0.202 C 
BRANCH   4   5
ATOM      5  C   UNL A   1      36.624  23.476  25.970  1.00  0.00     0.261 C 
BRANCH   5   6
ATOM      6  O   UNL A   1      35.860  24.300  25.061  1.00  0.00    -0.461 OA
BRANCH   6   7
ATOM      7  C   UNL A   1      35.144  23.674  24.084  1.00  0.00     0.333 C 
ATOM      8  O   UNL A   1      35.581  23.453  22.959  1.00  0.00    -0.249 OA
BRANCH   7   9
ATOM      9  C   UNL A   1      33.695  23.238  24.536  1.00  0.00     0.223 C 
BRANCH   9  10
ATOM     10  N   UNL A   1      33.097  23.685  25.799  1.00  0.00    -0.339 N 
ATOM     11  C   UNL A   1      31.840  24.132  26.076  1.00  0.00     0.226 C 
ATOM     12  O   UNL A   1      31.559  24.355  27.256  1.00  0.00    -0.275 OA
ATOM     13  H   UNL A   1      33.704  23.658  26.574  1.00  0.00     0.164 HD
BRANCH  11  14
ATOM     14  C   UNL A   1      30.805  24.286  24.986  1.00  0.00     0.157 C 
BRANCH  14  15
ATOM     15  C   UNL A   1      31.039  25.516  24.193  1.00  0.00     0.062 A 
ATOM     16  C   UNL A   1      31.192  27.720  24.007  1.00  0.00     0.150 A 
ATOM     17  N   UNL A   1      31.004  26.732  24.854  1.00  0.00    -0.234 NA
ATOM     18  S   UNL A   1      31.443  27.238  22.380  1.00  0.00    -0.116 S 
ATOM     19  C   UNL A   1      31.263  25.601  22.833  1.00  0.00     0.092 A 
BRANCH  16  20
ATOM     20  S   UNL A   1      31.101  29.355  24.629  1.00  0.00    -0.096 SA
BRANCH  20  21
ATOM     21  C   UNL A   1      32.761  29.722  25.246  1.00  0.00     0.074 C 
ATOM     22  C   UNL A   1      33.083  28.919  26.493  1.00  0.00     0.016 C 
ENDBRANCH  20  21
ENDBRANCH  16  20
ENDBRANCH  14  15
ENDBRANCH  11  14
ENDBRANCH   9  10
BRANCH   9  23
ATOM     23  C   UNL A   1      33.508  21.742  24.518  1.00  0.00     0.012 C 
ATOM     24  C   UNL A   1      32.787  21.021  23.652  1.00  0.00     0.064 C 
ATOM     25  C   UNL A   1      34.148  20.721  25.407  1.00  0.00     0.156 C 
ATOM     26  C   UNL A   1      31.838  21.508  22.617  1.00  0.00     0.069 C 
ATOM     27  N   UNL A   1      32.996  19.672  23.782  1.00  0.00    -0.160 NA
ATOM     28  N   UNL A   1      33.844  19.451  24.689  1.00  0.00    -0.181 NA
ATOM     29  C   UNL A   1      33.502  20.570  26.791  1.00  0.00     0.040 C 
ENDBRANCH   9  23
ENDBRANCH   7   9
ENDBRANCH   6   7
ENDBRANCH   5   6
ENDBRANCH   4   5
ENDBRANCH   3   4
ENDBRANCH   2   3
ENDBRANCH   1   2
BRANCH   1  30
ATOM     30  O   UNL A   1      40.322  27.231  28.518  1.00  0.00    -0.377 OA
BRANCH  30  31
ATOM     31  C   UNL A   1      39.454  28.165  29.139  1.00  0.00     0.188 C 
BRANCH  31  32
ATOM     32  C   UNL A   1      38.996  29.342  28.256  1.00  0.00     0.188 C 
BRANCH  32  33
ATOM     33  O   UNL A   1      38.201  30.298  28.955  1.00  0.00    -0.376 OA
BRANCH  33  34
ATOM     34  C   UNL A   1      36.943  29.924  29.493  1.00  0.00     0.202 C 
BRANCH  34  35
ATOM     35  C   UNL A   1      35.918  31.025  29.818  1.00  0.00     0.261 C 
BRANCH  35  36
ATOM     36  O   UNL A   1      36.327  32.042  30.740  1.00  0.00    -0.460 OA
BRANCH  36  37
ATOM     37  C   UNL A   1      35.399  32.522  31.593  1.00  0.00     0.338 C 
ATOM     38  O   UNL A   1      34.202  32.630  31.383  1.00  0.00    -0.246 OA
BRANCH  37  39
ATOM     39  C   UNL A   1      36.038  32.666  32.920  1.00  0.00     0.060 A 
ATOM     40  C   UNL A   1      35.670  33.755  33.720  1.00  0.00     0.016 A 
ATOM     41  C   UNL A   1      36.967  31.729  33.385  1.00  0.00     0.016 A 
ATOM     42  C   UNL A   1      36.268  33.944  34.962  1.00  0.00     0.010 A 
ATOM     43  C   UNL A   1      37.594  31.939  34.618  1.00  0.00     0.010 A 
ATOM     44  C   UNL A   1      37.281  33.076  35.383  1.00  0.00    -0.014 A 
BRANCH  44  45
ATOM     45  C   UNL A   1      38.189  33.539  36.459  1.00  0.00     0.031 A 
ATOM     46  C   UNL A   1      39.407  34.327  36.048  1.00  0.00     0.074 A 
ATOM     47  C   UNL A   1      37.899  33.361  37.759  1.00  0.00     0.049 A 
ATOM     48  N   UNL A   1      40.320  34.892  36.792  1.00  0.00    -0.248 NA
ATOM     49  C   UNL A   1      39.615  34.506  34.601  1.00  0.00     0.031 C 
ATOM     50  C   UNL A   1      36.719  32.672  38.279  1.00  0.00     0.029 A 
ATOM     51  N   UNL A   1      38.577  33.765  38.882  1.00  0.00    -0.354 N 
ATOM     52  C   UNL A   1      41.210  35.487  35.904  1.00  0.00     0.074 A 
ATOM     53  C   UNL A   1      40.751  35.183  34.569  1.00  0.00     0.031 C 
ATOM     54  C   UNL A   1      36.756  32.703  39.624  1.00  0.00     0.029 A 
ATOM     55  C   UNL A   1      37.973  33.388  40.058  1.00  0.00     0.049 A 
ATOM     56  H   UNL A   1      39.418  34.276  38.848  1.00  0.00     0.167 HD
ATOM     57  C   UNL A   1      42.308  36.230  36.175  1.00  0.00     0.031 A 
ATOM     58  C   UNL A   1      38.367  33.569  41.335  1.00  0.00     0.031 A 
ATOM     59  C   UNL A   1      42.772  36.519  37.504  1.00  0.00     0.049 A 
ATOM     60  C   UNL A   1      39.639  34.331  41.610  1.00  0.00     0.074 A 
ATOM     61  C   UNL A   1      43.872  37.264  37.889  1.00  0.00     0.029 A 
ATOM     62  N   UNL A   1      42.164  36.069  38.667  1.00  0.00    -0.354 N 
ATOM     63  N   UNL A   1      40.462  34.902  40.761  1.00  0.00    -0.248 NA
ATOM     64  C   UNL A   1      40.027  34.487  43.019  1.00  0.00     0.031 C 
ATOM     65  C   UNL A   1      43.968  37.208  39.282  1.00  0.00     0.029 A 
ATOM     66  C   UNL A   1      42.884  36.496  39.770  1.00  0.00     0.049 A 
ATOM     67  H   UNL A   1      41.344  35.526  38.703  1.00  0.00     0.167 HD
ATOM     68  C   UNL A   1      41.446  35.513  41.537  1.00  0.00     0.074 A 
ATOM     69  C   UNL A   1      41.102  35.255  42.920  1.00  0.00     0.031 C 
ATOM     70  C   UNL A   1      42.531  36.225  41.142  1.00  0.00     0.031 A 
BRANCH  57  71
ATOM     71  C   UNL A   1      43.105  36.743  35.004  1.00  0.00    -0.014 A 
ATOM     72  C   UNL A   1      42.843  38.001  34.431  1.00  0.00     0.010 A 
ATOM     73  C   UNL A   1      44.149  35.959  34.482  1.00  0.00     0.010 A 
ATOM     74  C   UNL A   1      43.586  38.448  33.334  1.00  0.00     0.020 A 
ATOM     75  C   UNL A   1      44.916  36.415  33.406  1.00  0.00     0.020 A 
ATOM     76  C   UNL A   1      44.618  37.651  32.830  1.00  0.00     0.054 A 
BRANCH  76  77
ATOM     77  S   UNL A   1      45.585  38.268  31.425  1.00  0.00     0.124 S 
ATOM     78  O   UNL A   1      46.240  37.052  30.952  1.00  0.00    -0.237 OA
ATOM     79  O   UNL A   1      44.555  38.810  30.542  1.00  0.00    -0.237 OA
ATOM     80  O   UNL A   1      46.474  39.261  32.023  1.00  0.00    -0.744 OA
ENDBRANCH  76  77
ENDBRANCH  57  71
BRANCH  58  81
ATOM     81  C   UNL A   1      37.560  33.005  42.453  1.00  0.00    -0.014 A 
ATOM     82  C   UNL A   1      37.759  31.687  42.899  1.00  0.00     0.010 A 
ATOM     83  C   UNL A   1      36.567  33.789  43.071  1.00  0.00     0.010 A 
ATOM     84  C   UNL A   1      36.970  31.158  43.926  1.00  0.00     0.020 A 
ATOM     85  C   UNL A   1      35.798  33.275  44.118  1.00  0.00     0.020 A 
ATOM     86  C   UNL A   1      35.998  31.958  44.533  1.00  0.00     0.054 A 
BRANCH  86  87
ATOM     87  S   UNL A   1      35.023  31.270  45.899  1.00  0.00     0.124 S 
ATOM     88  O   UNL A   1      36.001  31.229  46.982  1.00  0.00    -0.237 OA
ATOM     89  O   UNL A   1      33.953  32.253  46.047  1.00  0.00    -0.237 OA
ATOM     90  O   UNL A   1      34.595  29.968  45.392  1.00  0.00    -0.744 OA
ENDBRANCH  86  87
ENDBRANCH  58  81
BRANCH  70  91
ATOM     91  C   UNL A   1      43.404  36.817  42.219  1.00  0.00    -0.014 A 
ATOM     92  C   UNL A   1      44.530  36.135  42.714  1.00  0.00     0.010 A 
ATOM     93  C   UNL A   1      43.110  38.099  42.719  1.00  0.00     0.010 A 
ATOM     94  C   UNL A   1      45.313  36.701  43.723  1.00  0.00     0.020 A 
ATOM     95  C   UNL A   1      43.910  38.685  43.703  1.00  0.00     0.020 A 
ATOM     96  C   UNL A   1      44.995  37.972  44.214  1.00  0.00     0.054 A 
BRANCH  96  97
ATOM     97  S   UNL A   1      46.034  38.690  45.515  1.00  0.00     0.124 S 
ATOM     98  O   UNL A   1      45.184  39.763  46.023  1.00  0.00    -0.237 OA
ATOM     99  O   UNL A   1      46.234  37.563  46.424  1.00  0.00    -0.237 OA
ATOM    100  O   UNL A   1      47.231  39.127  44.802  1.00  0.00    -0.744 OA
ENDBRANCH  96  97
ENDBRANCH  70  91
ENDBRANCH  44  45
ENDBRANCH  37  39
ENDBRANCH  36  37
ENDBRANCH  35  36
ENDBRANCH  34  35
ENDBRANCH  33  34
ENDBRANCH  32  33
ENDBRANCH  31  32
ENDBRANCH  30  31
ENDBRANCH   1  30
TORSDOF 29
ENDMDL
MODEL 3
REMARK VINA RESULT:      -7.8      2.597      9.152
REMARK SMILES CCSc1nc(CC(=O)N[C@@H](C(=O)OCCOCCOCCOCCOC(=O)c2ccc(-c3c4nc(c(-c5ccc(S(=O)(=O)[O-])cc5)c5ccc([nH]5)c(-c5ccc(S(=O)(=O)[O-])cc5)c5nc(c(-c6ccc(S(=O)(=O)[O-])cc6)c6ccc3[nH]6)C=C5)C=C4)cc2)C2=C(C)N=N[C@@H]2C)cs1
REMARK SMILES IDX 19 1 18 2 17 3 16 4 15 5 14 6 12 7 13 8 11 9 10 10 8 11 9 12
REMARK SMILES IDX 7 14 6 15 4 16 5 17 97 18 96 19 3 20 2 21 1 22 89 23 90 24
REMARK SMILES IDX 94 25 91 26 92 27 93 28 95 29 20 30 21 31 22 32 23 33 24 34
REMARK SMILES IDX 25 35 26 36 27 37 28 38 29 39 30 40 88 41 31 42 87 43 32 44
REMARK SMILES IDX 33 45 34 46 81 47 35 48 86 49 80 50 82 51 36 52 85 53 79 54
REMARK SMILES IDX 78 55 37 57 67 58 48 59 66 60 49 61 52 62 65 63 83 64 50 65
REMARK SMILES IDX 51 66 64 68 84 69 53 70 38 71 39 72 47 73 40 74 46 75 41 76
REMARK SMILES IDX 42 77 43 78 44 79 45 80 68 81 69 82 77 83 70 84 76 85 71 86
REMARK SMILES IDX 72 87 73 88 74 89 75 90 54 91 55 92 63 93 56 94 62 95 57 96
REMARK SMILES IDX 58 97 59 98 60 99 61 100
REMARK H PARENT 10 13 82 56 52 67
REMARK Flexibility Score: inf
ROOT
ATOM      1  C   UNL A   1      35.161  23.249  24.766  1.00  0.00     0.188 C 
ENDROOT
BRANCH   1   2
ATOM      2  C   UNL A   1      33.824  22.787  25.386  1.00  0.00     0.188 C 
BRANCH   2   3
ATOM      3  O   UNL A   1      33.097  23.620  26.273  1.00  0.00    -0.376 OA
BRANCH   3   4
ATOM      4  C   UNL A   1      31.991  23.077  26.971  1.00  0.00     0.202 C 
BRANCH   4   5
ATOM      5  C   UNL A   1      30.556  23.473  26.571  1.00  0.00     0.261 C 
BRANCH   5   6
ATOM      6  O   UNL A   1      30.373  24.160  25.313  1.00  0.00    -0.461 OA
BRANCH   6   7
ATOM      7  C   UNL A   1      30.417  25.523  25.321  1.00  0.00     0.333 C 
ATOM      8  O   UNL A   1      30.182  26.203  26.315  1.00  0.00    -0.249 OA
BRANCH   7   9
ATOM      9  C   UNL A   1      30.815  26.156  23.930  1.00  0.00     0.223 C 
BRANCH   9  10
ATOM     10  N   UNL A   1      32.207  26.437  23.563  1.00  0.00    -0.339 N 
ATOM     11  C   UNL A   1      33.297  26.689  24.341  1.00  0.00     0.226 C 
ATOM     12  O   UNL A   1      34.389  26.796  23.779  1.00  0.00    -0.275 OA
ATOM     13  H   UNL A   1      32.383  26.445  22.594  1.00  0.00     0.164 HD
BRANCH  11  14
ATOM     14  C   UNL A   1      33.184  26.767  25.845  1.00  0.00     0.157 C 
BRANCH  14  15
ATOM     15  C   UNL A   1      33.247  28.171  26.317  1.00  0.00     0.062 A 
ATOM     16  C   UNL A   1      34.329  29.877  27.232  1.00  0.00     0.150 A 
ATOM     17  N   UNL A   1      34.449  28.632  26.827  1.00  0.00    -0.234 NA
ATOM     18  S   UNL A   1      32.774  30.564  26.999  1.00  0.00    -0.116 S 
ATOM     19  C   UNL A   1      32.218  29.092  26.337  1.00  0.00     0.092 A 
BRANCH  16  20
ATOM     20  S   UNL A   1      35.718  30.625  27.991  1.00  0.00    -0.096 SA
BRANCH  20  21
ATOM     21  C   UNL A   1      35.263  32.362  28.208  1.00  0.00     0.074 C 
ATOM     22  C   UNL A   1      36.479  33.228  28.486  1.00  0.00     0.016 C 
ENDBRANCH  20  21
ENDBRANCH  16  20
ENDBRANCH  14  15
ENDBRANCH  11  14
ENDBRANCH   9  10
BRANCH   9  23
ATOM     23  C   UNL A   1      30.065  27.432  23.639  1.00  0.00     0.012 C 
ATOM     24  C   UNL A   1      28.740  27.616  23.639  1.00  0.00     0.064 C 
ATOM     25  C   UNL A   1      30.629  28.792  23.370  1.00  0.00     0.156 C 
ATOM     26  C   UNL A   1      27.669  26.590  23.728  1.00  0.00     0.069 C 
ATOM     27  N   UNL A   1      28.390  28.939  23.546  1.00  0.00    -0.160 NA
ATOM     28  N   UNL A   1      29.423  29.659  23.503  1.00  0.00    -0.181 NA
ATOM     29  C   UNL A   1      31.132  29.013  21.936  1.00  0.00     0.040 C 
ENDBRANCH   9  23
ENDBRANCH   7   9
ENDBRANCH   6   7
ENDBRANCH   5   6
ENDBRANCH   4   5
ENDBRANCH   3   4
ENDBRANCH   2   3
ENDBRANCH   1   2
BRANCH   1  30
ATOM     30  O   UNL A   1      35.678  22.384  23.778  1.00  0.00    -0.377 OA
BRANCH  30  31
ATOM     31  C   UNL A   1      37.036  22.021  23.965  1.00  0.00     0.188 C 
BRANCH  31  32
ATOM     32  C   UNL A   1      37.572  22.152  25.404  1.00  0.00     0.188 C 
BRANCH  32  33
ATOM     33  O   UNL A   1      38.026  20.917  25.954  1.00  0.00    -0.376 OA
BRANCH  33  34
ATOM     34  C   UNL A   1      38.781  20.016  25.160  1.00  0.00     0.202 C 
BRANCH  34  35
ATOM     35  C   UNL A   1      40.098  19.455  25.725  1.00  0.00     0.261 C 
BRANCH  35  36
ATOM     36  O   UNL A   1      41.121  20.403  26.052  1.00  0.00    -0.460 OA
BRANCH  36  37
ATOM     37  C   UNL A   1      41.228  20.788  27.340  1.00  0.00     0.338 C 
ATOM     38  O   UNL A   1      40.865  20.159  28.321  1.00  0.00    -0.246 OA
BRANCH  37  39
ATOM     39  C   UNL A   1      42.086  21.992  27.381  1.00  0.00     0.060 A 
ATOM     40  C   UNL A   1      42.836  22.234  28.539  1.00  0.00     0.016 A 
ATOM     41  C   UNL A   1      42.175  22.860  26.288  1.00  0.00     0.016 A 
ATOM     42  C   UNL A   1      43.634  23.370  28.631  1.00  0.00     0.010 A 
ATOM     43  C   UNL A   1      42.948  24.021  26.394  1.00  0.00     0.010 A 
ATOM     44  C   UNL A   1      43.637  24.302  27.587  1.00  0.00    -0.014 A 
BRANCH  44  45
ATOM     45  C   UNL A   1      44.114  25.674  27.883  1.00  0.00     0.031 A 
ATOM     46  C   UNL A   1      45.511  26.032  27.446  1.00  0.00     0.074 A 
ATOM     47  C   UNL A   1      43.309  26.604  28.425  1.00  0.00     0.049 A 
ATOM     48  N   UNL A   1      46.140  27.175  27.531  1.00  0.00    -0.248 NA
ATOM     49  C   UNL A   1      46.300  24.957  26.821  1.00  0.00     0.031 C 
ATOM     50  C   UNL A   1      41.920  26.393  28.830  1.00  0.00     0.029 A 
ATOM     51  N   UNL A   1      43.548  27.924  28.714  1.00  0.00    -0.354 N 
ATOM     52  C   UNL A   1      47.396  26.952  26.977  1.00  0.00     0.074 A 
ATOM     53  C   UNL A   1      47.455  25.560  26.594  1.00  0.00     0.031 C 
ATOM     54  C   UNL A   1      41.429  27.548  29.314  1.00  0.00     0.029 A 
ATOM     55  C   UNL A   1      42.475  28.569  29.280  1.00  0.00     0.049 A 
ATOM     56  H   UNL A   1      44.409  28.366  28.533  1.00  0.00     0.167 HD
ATOM     57  C   UNL A   1      48.409  27.830  26.792  1.00  0.00     0.031 A 
ATOM     58  C   UNL A   1      42.359  29.837  29.726  1.00  0.00     0.031 A 
ATOM     59  C   UNL A   1      48.354  29.210  27.187  1.00  0.00     0.049 A 
ATOM     60  C   UNL A   1      43.531  30.776  29.583  1.00  0.00     0.074 A 
ATOM     61  C   UNL A   1      49.324  30.185  27.044  1.00  0.00     0.029 A 
ATOM     62  N   UNL A   1      47.270  29.810  27.810  1.00  0.00    -0.354 N 
ATOM     63  N   UNL A   1      44.707  30.556  29.042  1.00  0.00    -0.248 NA
ATOM     64  C   UNL A   1      43.352  32.140  30.099  1.00  0.00     0.031 C 
ATOM     65  C   UNL A   1      48.852  31.358  27.641  1.00  0.00     0.029 A 
ATOM     66  C   UNL A   1      47.559  31.136  28.085  1.00  0.00     0.049 A 
ATOM     67  H   UNL A   1      46.421  29.360  28.025  1.00  0.00     0.167 HD
ATOM     68  C   UNL A   1      45.394  31.765  29.123  1.00  0.00     0.074 A 
ATOM     69  C   UNL A   1      44.494  32.713  29.748  1.00  0.00     0.031 C 
ATOM     70  C   UNL A   1      46.653  32.065  28.714  1.00  0.00     0.031 A 
BRANCH  57  71
ATOM     71  C   UNL A   1      49.678  27.305  26.173  1.00  0.00    -0.014 A 
ATOM     72  C   UNL A   1      50.769  26.899  26.965  1.00  0.00     0.010 A 
ATOM     73  C   UNL A   1      49.772  27.196  24.774  1.00  0.00     0.010 A 
ATOM     74  C   UNL A   1      51.942  26.430  26.366  1.00  0.00     0.020 A 
ATOM     75  C   UNL A   1      50.930  26.697  24.172  1.00  0.00     0.020 A 
ATOM     76  C   UNL A   1      52.014  26.331  24.973  1.00  0.00     0.054 A 
BRANCH  76  77
ATOM     77  S   UNL A   1      53.536  25.692  24.225  1.00  0.00     0.124 S 
ATOM     78  O   UNL A   1      54.563  26.460  24.925  1.00  0.00    -0.237 OA
ATOM     79  O   UNL A   1      53.482  24.270  24.556  1.00  0.00    -0.237 OA
ATOM     80  O   UNL A   1      53.385  26.004  22.806  1.00  0.00    -0.744 OA
ENDBRANCH  76  77
ENDBRANCH  57  71
BRANCH  58  81
ATOM     81  C   UNL A   1      41.092  30.290  30.366  1.00  0.00    -0.014 A 
ATOM     82  C   UNL A   1      40.916  30.217  31.759  1.00  0.00     0.010 A 
ATOM     83  C   UNL A   1      40.041  30.788  29.573  1.00  0.00     0.010 A 
ATOM     84  C   UNL A   1      39.708  30.613  32.343  1.00  0.00     0.020 A 
ATOM     85  C   UNL A   1      38.845  31.215  30.156  1.00  0.00     0.020 A 
ATOM     86  C   UNL A   1      38.682  31.115  31.538  1.00  0.00     0.054 A 
BRANCH  86  87
ATOM     87  S   UNL A   1      37.145  31.674  32.323  1.00  0.00     0.124 S 
ATOM     88  O   UNL A   1      36.138  30.890  31.615  1.00  0.00    -0.237 OA
ATOM     89  O   UNL A   1      37.360  31.314  33.722  1.00  0.00    -0.237 OA
ATOM     90  O   UNL A   1      37.126  33.110  32.053  1.00  0.00    -0.744 OA
ENDBRANCH  86  87
ENDBRANCH  58  81
BRANCH  70  91
ATOM     91  C   UNL A   1      47.119  33.489  28.886  1.00  0.00    -0.014 A 
ATOM     92  C   UNL A   1      46.652  34.524  28.055  1.00  0.00     0.010 A 
ATOM     93  C   UNL A   1      48.014  33.801  29.926  1.00  0.00     0.010 A 
ATOM     94  C   UNL A   1      47.112  35.832  28.228  1.00  0.00     0.020 A 
ATOM     95  C   UNL A   1      48.449  35.114  30.126  1.00  0.00     0.020 A 
ATOM     96  C   UNL A   1      48.011  36.118  29.261  1.00  0.00     0.054 A 
BRANCH  96  97
ATOM     97  S   UNL A   1      48.584  37.825  29.474  1.00  0.00     0.124 S 
ATOM     98  O   UNL A   1      47.330  38.541  29.685  1.00  0.00    -0.237 OA
ATOM     99  O   UNL A   1      49.456  37.727  30.641  1.00  0.00    -0.237 OA
ATOM    100  O   UNL A   1      49.267  38.121  28.217  1.00  0.00    -0.744 OA
ENDBRANCH  96  97
ENDBRANCH  70  91
ENDBRANCH  44  45
ENDBRANCH  37  39
ENDBRANCH  36  37
ENDBRANCH  35  36
ENDBRANCH  34  35
ENDBRANCH  33  34
ENDBRANCH  32  33
ENDBRANCH  31  32
ENDBRANCH  30  31
ENDBRANCH   1  30
TORSDOF 29
ENDMDL
