MODEL 1
REMARK VINA RESULT:      -6.5      0.000      0.000
REMARK SMILES Cc1cc(-c2ccc(/C=C/C(=O)OCCOCCOCCOCCOC(=O)c3ccc(-c4c5nc(c(-c6ccc(S(=O)(=O)[O-])cc6)c6ccc([nH]6)c(-c6ccc(S(=O)(=O)[O-])cc6)c6nc(c(-c7ccc(S(=O)(=O)[O-])cc7)c7ccc4[nH]7)C=C6)C=C5)cc3)o2)c(C)cc1Br
REMARK SMILES IDX 20 1 19 2 18 3 17 4 16 5 15 6 14 7 13 8 11 9 12 10 10 11
REMARK SMILES IDX 9 12 8 13 5 14 6 15 88 16 7 17 4 18 1 19 2 20 3 21 92 22
REMARK SMILES IDX 91 23 93 24 89 25 90 26 21 27 22 28 23 29 24 30 25 31 26 32
REMARK SMILES IDX 27 33 28 34 29 35 87 36 30 37 86 38 31 39 32 40 33 41 80 42
REMARK SMILES IDX 34 43 85 44 79 45 81 46 35 47 84 48 78 49 77 50 36 52 66 53
REMARK SMILES IDX 47 54 65 55 48 56 51 57 64 58 82 59 49 60 50 61 63 63 83 64
REMARK SMILES IDX 52 65 37 66 38 67 46 68 39 69 45 70 40 71 41 72 42 73 43 74
REMARK SMILES IDX 44 75 67 76 68 77 76 78 69 79 75 80 70 81 71 82 72 83 73 84
REMARK SMILES IDX 74 85 53 86 54 87 62 88 55 89 61 90 56 91 57 92 58 93 59 94
REMARK SMILES IDX 60 95
REMARK H PARENT 81 51 51 62
REMARK Flexibility Score: inf
ROOT
ATOM      1  C   UNL A   1      38.950  34.564  32.988  1.00  0.00     0.188 C 
ENDROOT
BRANCH   1   2
ATOM      2  O   UNL A   1      38.012  34.256  31.957  1.00  0.00    -0.377 OA
BRANCH   2   3
ATOM      3  C   UNL A   1      36.995  33.293  32.191  1.00  0.00     0.188 C 
BRANCH   3   4
ATOM      4  C   UNL A   1      36.407  32.579  30.961  1.00  0.00     0.188 C 
BRANCH   4   5
ATOM      5  O   UNL A   1      35.882  31.294  31.252  1.00  0.00    -0.376 OA
BRANCH   5   6
ATOM      6  C   UNL A   1      36.781  30.204  31.368  1.00  0.00     0.202 C 
BRANCH   6   7
ATOM      7  C   UNL A   1      37.878  30.018  30.309  1.00  0.00     0.261 C 
BRANCH   7   8
ATOM      8  O   UNL A   1      39.216  29.866  30.798  1.00  0.00    -0.460 OA
BRANCH   8   9
ATOM      9  C   UNL A   1      39.671  28.614  31.013  1.00  0.00     0.330 C 
ATOM     10  O   UNL A   1      39.174  27.783  31.756  1.00  0.00    -0.247 OA
BRANCH   9  11
ATOM     11  C   UNL A   1      40.799  28.309  30.103  1.00  0.00     0.097 C 
ATOM     12  C   UNL A   1      41.182  29.129  29.114  1.00  0.00     0.054 C 
BRANCH  12  13
ATOM     13  C   UNL A   1      42.274  28.799  28.266  1.00  0.00     0.127 A 
ATOM     14  C   UNL A   1      43.709  27.587  27.080  1.00  0.00     0.135 A 
ATOM     15  C   UNL A   1      44.142  28.887  26.983  1.00  0.00     0.051 A 
ATOM     16  O   UNL A   1      42.588  27.520  27.848  1.00  0.00    -0.457 OA
ATOM     17  C   UNL A   1      43.214  29.662  27.713  1.00  0.00     0.051 A 
BRANCH  14  18
ATOM     18  C   UNL A   1      44.237  26.327  26.581  1.00  0.00     0.020 A 
ATOM     19  C   UNL A   1      47.509  24.430  27.025  1.00  0.00     0.045 C 
ATOM     20  C   UNL A   1      46.131  24.760  26.528  1.00  0.00    -0.036 A 
ATOM     21  C   UNL A   1      45.513  25.926  27.013  1.00  0.00     0.016 A 
ATOM     22  C   UNL A   1      45.455  24.011  25.558  1.00  0.00     0.021 A 
ATOM     23  C   UNL A   1      44.174  24.389  25.132  1.00  0.00     0.020 A 
ATOM     24  Br  UNL A   1      46.221  22.472  24.747  1.00  0.00    -0.051 Br
ATOM     25  C   UNL A   1      43.550  25.542  25.638  1.00  0.00    -0.039 A 
ATOM     26  C   UNL A   1      42.177  25.910  25.149  1.00  0.00     0.045 C 
ENDBRANCH  14  18
ENDBRANCH  12  13
ENDBRANCH   9  11
ENDBRANCH   8   9
ENDBRANCH   7   8
ENDBRANCH   6   7
ENDBRANCH   5   6
ENDBRANCH   4   5
ENDBRANCH   3   4
ENDBRANCH   2   3
ENDBRANCH   1   2
BRANCH   1  27
ATOM     27  C   UNL A   1      38.624  34.429  34.496  1.00  0.00     0.188 C 
BRANCH  27  28
ATOM     28  O   UNL A   1      37.263  34.649  34.835  1.00  0.00    -0.376 OA
BRANCH  28  29
ATOM     29  C   UNL A   1      36.618  33.642  35.596  1.00  0.00     0.202 C 
BRANCH  29  30
ATOM     30  C   UNL A   1      37.011  33.587  37.077  1.00  0.00     0.261 C 
BRANCH  30  31
ATOM     31  O   UNL A   1      38.217  32.869  37.376  1.00  0.00    -0.460 OA
BRANCH  31  32
ATOM     32  C   UNL A   1      38.244  31.541  37.088  1.00  0.00     0.338 C 
ATOM     33  O   UNL A   1      37.481  30.693  37.480  1.00  0.00    -0.246 OA
BRANCH  32  34
ATOM     34  C   UNL A   1      39.272  31.360  36.034  1.00  0.00     0.060 A 
ATOM     35  C   UNL A   1      40.587  31.777  36.255  1.00  0.00     0.016 A 
ATOM     36  C   UNL A   1      38.899  30.819  34.797  1.00  0.00     0.016 A 
ATOM     37  C   UNL A   1      41.536  31.634  35.241  1.00  0.00     0.010 A 
ATOM     38  C   UNL A   1      39.851  30.685  33.780  1.00  0.00     0.010 A 
ATOM     39  C   UNL A   1      41.181  31.071  34.002  1.00  0.00    -0.014 A 
BRANCH  39  40
ATOM     40  C   UNL A   1      42.242  30.710  33.028  1.00  0.00     0.031 A 
ATOM     41  C   UNL A   1      42.713  31.654  31.963  1.00  0.00     0.074 A 
ATOM     42  C   UNL A   1      42.782  29.479  33.126  1.00  0.00     0.049 A 
ATOM     43  N   UNL A   1      43.694  31.494  31.111  1.00  0.00    -0.248 NA
ATOM     44  C   UNL A   1      42.001  32.932  31.829  1.00  0.00     0.031 C 
ATOM     45  C   UNL A   1      42.383  28.473  34.113  1.00  0.00     0.029 A 
ATOM     46  N   UNL A   1      43.781  28.868  32.410  1.00  0.00    -0.354 N 
ATOM     47  C   UNL A   1      43.735  32.656  30.351  1.00  0.00     0.074 A 
ATOM     48  C   UNL A   1      42.648  33.494  30.812  1.00  0.00     0.031 C 
ATOM     49  C   UNL A   1      43.153  27.386  33.965  1.00  0.00     0.029 A 
ATOM     50  C   UNL A   1      44.074  27.600  32.852  1.00  0.00     0.049 A 
ATOM     51  H   UNL A   1      44.242  29.297  31.653  1.00  0.00     0.167 HD
ATOM     52  C   UNL A   1      44.613  32.991  29.373  1.00  0.00     0.031 A 
ATOM     53  C   UNL A   1      44.988  26.704  32.425  1.00  0.00     0.031 A 
ATOM     54  C   UNL A   1      45.681  32.132  28.914  1.00  0.00     0.049 A 
ATOM     55  C   UNL A   1      45.921  27.085  31.311  1.00  0.00     0.074 A 
ATOM     56  C   UNL A   1      46.649  32.409  27.963  1.00  0.00     0.029 A 
ATOM     57  N   UNL A   1      45.920  30.838  29.354  1.00  0.00    -0.354 N 
ATOM     58  N   UNL A   1      46.003  28.223  30.665  1.00  0.00    -0.248 NA
ATOM     59  C   UNL A   1      46.895  26.074  30.879  1.00  0.00     0.031 C 
ATOM     60  C   UNL A   1      47.415  31.259  27.766  1.00  0.00     0.029 A 
ATOM     61  C   UNL A   1      46.990  30.292  28.662  1.00  0.00     0.049 A 
ATOM     62  H   UNL A   1      45.405  30.376  30.055  1.00  0.00     0.167 HD
ATOM     63  C   UNL A   1      47.052  28.072  29.764  1.00  0.00     0.074 A 
ATOM     64  C   UNL A   1      47.586  26.741  29.963  1.00  0.00     0.031 C 
ATOM     65  C   UNL A   1      47.522  28.962  28.856  1.00  0.00     0.031 A 
BRANCH  52  66
ATOM     66  C   UNL A   1      44.500  34.352  28.729  1.00  0.00    -0.014 A 
ATOM     67  C   UNL A   1      45.080  35.475  29.350  1.00  0.00     0.010 A 
ATOM     68  C   UNL A   1      43.678  34.546  27.603  1.00  0.00     0.010 A 
ATOM     69  C   UNL A   1      44.805  36.766  28.886  1.00  0.00     0.020 A 
ATOM     70  C   UNL A   1      43.427  35.833  27.118  1.00  0.00     0.020 A 
ATOM     71  C   UNL A   1      43.969  36.937  27.780  1.00  0.00     0.054 A 
BRANCH  71  72
ATOM     72  S   UNL A   1      43.584  38.621  27.224  1.00  0.00     0.124 S 
ATOM     73  O   UNL A   1      42.317  38.433  26.524  1.00  0.00    -0.237 OA
ATOM     74  O   UNL A   1      43.508  39.361  28.482  1.00  0.00    -0.237 OA
ATOM     75  O   UNL A   1      44.721  38.970  26.375  1.00  0.00    -0.744 OA
ENDBRANCH  71  72
ENDBRANCH  52  66
BRANCH  53  76
ATOM     76  C   UNL A   1      45.082  25.388  33.116  1.00  0.00    -0.014 A 
ATOM     77  C   UNL A   1      45.937  25.224  34.222  1.00  0.00     0.010 A 
ATOM     78  C   UNL A   1      44.406  24.268  32.604  1.00  0.00     0.010 A 
ATOM     79  C   UNL A   1      46.166  23.956  34.761  1.00  0.00     0.020 A 
ATOM     80  C   UNL A   1      44.605  23.001  33.165  1.00  0.00     0.020 A 
ATOM     81  C   UNL A   1      45.509  22.850  34.217  1.00  0.00     0.054 A 
BRANCH  81  82
ATOM     82  S   UNL A   1      45.880  21.205  34.885  1.00  0.00     0.124 S 
ATOM     83  O   UNL A   1      46.321  21.525  36.240  1.00  0.00    -0.237 OA
ATOM     84  O   UNL A   1      44.592  20.525  34.787  1.00  0.00    -0.237 OA
ATOM     85  O   UNL A   1      46.920  20.699  33.993  1.00  0.00    -0.744 OA
ENDBRANCH  81  82
ENDBRANCH  53  76
BRANCH  65  86
ATOM     86  C   UNL A   1      48.678  28.548  27.978  1.00  0.00    -0.014 A 
ATOM     87  C   UNL A   1      48.428  27.970  26.719  1.00  0.00     0.010 A 
ATOM     88  C   UNL A   1      50.001  28.594  28.456  1.00  0.00     0.010 A 
ATOM     89  C   UNL A   1      49.467  27.401  25.978  1.00  0.00     0.020 A 
ATOM     90  C   UNL A   1      51.048  28.058  27.700  1.00  0.00     0.020 A 
ATOM     91  C   UNL A   1      50.769  27.436  26.481  1.00  0.00     0.054 A 
BRANCH  91  92
ATOM     92  S   UNL A   1      52.094  26.637  25.533  1.00  0.00     0.124 S 
ATOM     93  O   UNL A   1      53.293  27.126  26.207  1.00  0.00    -0.237 OA
ATOM     94  O   UNL A   1      51.804  25.216  25.712  1.00  0.00    -0.237 OA
ATOM     95  O   UNL A   1      51.895  27.138  24.175  1.00  0.00    -0.744 OA
ENDBRANCH  91  92
ENDBRANCH  65  86
ENDBRANCH  39  40
ENDBRANCH  32  34
ENDBRANCH  31  32
ENDBRANCH  30  31
ENDBRANCH  29  30
ENDBRANCH  28  29
ENDBRANCH  27  28
ENDBRANCH   1  27
TORSDOF 25
ENDMDL
MODEL 2
REMARK VINA RESULT:      -6.0      3.914     10.434
REMARK SMILES Cc1cc(-c2ccc(/C=C/C(=O)OCCOCCOCCOCCOC(=O)c3ccc(-c4c5nc(c(-c6ccc(S(=O)(=O)[O-])cc6)c6ccc([nH]6)c(-c6ccc(S(=O)(=O)[O-])cc6)c6nc(c(-c7ccc(S(=O)(=O)[O-])cc7)c7ccc4[nH]7)C=C6)C=C5)cc3)o2)c(C)cc1Br
REMARK SMILES IDX 20 1 19 2 18 3 17 4 16 5 15 6 14 7 13 8 11 9 12 10 10 11
REMARK SMILES IDX 9 12 8 13 5 14 6 15 88 16 7 17 4 18 1 19 2 20 3 21 92 22
REMARK SMILES IDX 91 23 93 24 89 25 90 26 21 27 22 28 23 29 24 30 25 31 26 32
REMARK SMILES IDX 27 33 28 34 29 35 87 36 30 37 86 38 31 39 32 40 33 41 80 42
REMARK SMILES IDX 34 43 85 44 79 45 81 46 35 47 84 48 78 49 77 50 36 52 66 53
REMARK SMILES IDX 47 54 65 55 48 56 51 57 64 58 82 59 49 60 50 61 63 63 83 64
REMARK SMILES IDX 52 65 37 66 38 67 46 68 39 69 45 70 40 71 41 72 42 73 43 74
REMARK SMILES IDX 44 75 67 76 68 77 76 78 69 79 75 80 70 81 71 82 72 83 73 84
REMARK SMILES IDX 74 85 53 86 54 87 62 88 55 89 61 90 56 91 57 92 58 93 59 94
REMARK SMILES IDX 60 95
REMARK H PARENT 81 51 51 62
REMARK Flexibility Score: inf
ROOT
ATOM      1  C   UNL A   1      46.825  23.260  34.439  1.00  0.00     0.188 C 
ENDROOT
BRANCH   1   2
ATOM      2  O   UNL A   1      47.594  24.453  34.585  1.00  0.00    -0.377 OA
BRANCH   2   3
ATOM      3  C   UNL A   1      47.625  25.408  33.535  1.00  0.00     0.188 C 
BRANCH   3   4
ATOM      4  C   UNL A   1      46.385  25.495  32.627  1.00  0.00     0.188 C 
BRANCH   4   5
ATOM      5  O   UNL A   1      46.702  25.655  31.254  1.00  0.00    -0.376 OA
BRANCH   5   6
ATOM      6  C   UNL A   1      45.675  26.056  30.363  1.00  0.00     0.202 C 
BRANCH   6   7
ATOM      7  C   UNL A   1      44.278  25.429  30.495  1.00  0.00     0.261 C 
BRANCH   7   8
ATOM      8  O   UNL A   1      44.078  24.173  29.837  1.00  0.00    -0.460 OA
BRANCH   8   9
ATOM      9  C   UNL A   1      42.986  24.036  29.057  1.00  0.00     0.330 C 
ATOM     10  O   UNL A   1      42.385  22.997  28.832  1.00  0.00    -0.247 OA
BRANCH   9  11
ATOM     11  C   UNL A   1      42.500  25.359  28.606  1.00  0.00     0.097 C 
ATOM     12  C   UNL A   1      41.211  25.611  28.333  1.00  0.00     0.054 C 
BRANCH  12  13
ATOM     13  C   UNL A   1      40.788  26.900  27.908  1.00  0.00     0.127 A 
ATOM     14  C   UNL A   1      39.710  28.842  27.875  1.00  0.00     0.135 A 
ATOM     15  C   UNL A   1      40.452  28.802  26.719  1.00  0.00     0.051 A 
ATOM     16  O   UNL A   1      39.903  27.705  28.598  1.00  0.00    -0.457 OA
ATOM     17  C   UNL A   1      41.160  27.580  26.753  1.00  0.00     0.051 A 
BRANCH  14  18
ATOM     18  C   UNL A   1      38.762  29.806  28.411  1.00  0.00     0.020 A 
ATOM     19  C   UNL A   1      35.142  30.710  27.649  1.00  0.00     0.045 C 
ATOM     20  C   UNL A   1      36.499  30.759  28.292  1.00  0.00    -0.036 A 
ATOM     21  C   UNL A   1      37.459  29.817  27.884  1.00  0.00     0.016 A 
ATOM     22  C   UNL A   1      36.884  31.732  29.221  1.00  0.00     0.021 A 
ATOM     23  C   UNL A   1      38.175  31.722  29.768  1.00  0.00     0.020 A 
ATOM     24  Br  UNL A   1      35.716  33.123  29.779  1.00  0.00    -0.051 Br
ATOM     25  C   UNL A   1      39.123  30.762  29.376  1.00  0.00    -0.039 A 
ATOM     26  C   UNL A   1      40.497  30.793  29.987  1.00  0.00     0.045 C 
ENDBRANCH  14  18
ENDBRANCH  12  13
ENDBRANCH   9  11
ENDBRANCH   8   9
ENDBRANCH   7   8
ENDBRANCH   6   7
ENDBRANCH   5   6
ENDBRANCH   4   5
ENDBRANCH   3   4
ENDBRANCH   2   3
ENDBRANCH   1   2
BRANCH   1  27
ATOM     27  C   UNL A   1      46.337  22.417  35.643  1.00  0.00     0.188 C 
BRANCH  27  28
ATOM     28  O   UNL A   1      45.015  22.702  36.077  1.00  0.00    -0.376 OA
BRANCH  28  29
ATOM     29  C   UNL A   1      44.002  22.721  35.087  1.00  0.00     0.202 C 
BRANCH  29  30
ATOM     30  C   UNL A   1      43.410  24.102  34.782  1.00  0.00     0.261 C 
BRANCH  30  31
ATOM     31  O   UNL A   1      42.004  24.246  35.027  1.00  0.00    -0.460 OA
BRANCH  31  32
ATOM     32  C   UNL A   1      41.626  25.062  36.045  1.00  0.00     0.338 C 
ATOM     33  O   UNL A   1      41.300  24.736  37.160  1.00  0.00    -0.246 OA
BRANCH  32  34
ATOM     34  C   UNL A   1      41.884  26.451  35.590  1.00  0.00     0.060 A 
ATOM     35  C   UNL A   1      42.828  27.242  36.249  1.00  0.00     0.016 A 
ATOM     36  C   UNL A   1      41.133  26.977  34.532  1.00  0.00     0.016 A 
ATOM     37  C   UNL A   1      43.036  28.559  35.833  1.00  0.00     0.010 A 
ATOM     38  C   UNL A   1      41.337  28.300  34.122  1.00  0.00     0.010 A 
ATOM     39  C   UNL A   1      42.306  29.093  34.756  1.00  0.00    -0.014 A 
BRANCH  39  40
ATOM     40  C   UNL A   1      42.701  30.403  34.179  1.00  0.00     0.031 A 
ATOM     41  C   UNL A   1      43.404  30.523  32.861  1.00  0.00     0.074 A 
ATOM     42  C   UNL A   1      42.408  31.508  34.891  1.00  0.00     0.049 A 
ATOM     43  N   UNL A   1      43.721  31.611  32.205  1.00  0.00    -0.248 NA
ATOM     44  C   UNL A   1      43.807  29.278  32.192  1.00  0.00     0.031 C 
ATOM     45  C   UNL A   1      41.743  31.504  36.196  1.00  0.00     0.029 A 
ATOM     46  N   UNL A   1      42.609  32.839  34.622  1.00  0.00    -0.354 N 
ATOM     47  C   UNL A   1      44.341  31.188  31.036  1.00  0.00     0.074 A 
ATOM     48  C   UNL A   1      44.399  29.742  31.096  1.00  0.00     0.031 C 
ATOM     49  C   UNL A   1      41.559  32.769  36.597  1.00  0.00     0.029 A 
ATOM     50  C   UNL A   1      42.123  33.675  35.600  1.00  0.00     0.049 A 
ATOM     51  H   UNL A   1      43.059  33.164  33.809  1.00  0.00     0.167 HD
ATOM     52  C   UNL A   1      44.801  31.942  30.007  1.00  0.00     0.031 A 
ATOM     53  C   UNL A   1      42.116  35.021  35.689  1.00  0.00     0.031 A 
ATOM     54  C   UNL A   1      44.752  33.385  29.975  1.00  0.00     0.049 A 
ATOM     55  C   UNL A   1      42.670  35.832  34.552  1.00  0.00     0.074 A 
ATOM     56  C   UNL A   1      45.148  34.230  28.951  1.00  0.00     0.029 A 
ATOM     57  N   UNL A   1      44.292  34.199  31.001  1.00  0.00    -0.354 N 
ATOM     58  N   UNL A   1      43.171  35.414  33.416  1.00  0.00    -0.248 NA
ATOM     59  C   UNL A   1      42.643  37.294  34.699  1.00  0.00     0.031 C 
ATOM     60  C   UNL A   1      45.011  35.547  29.389  1.00  0.00     0.029 A 
ATOM     61  C   UNL A   1      44.438  35.532  30.651  1.00  0.00     0.049 A 
ATOM     62  H   UNL A   1      43.917  33.876  31.853  1.00  0.00     0.167 HD
ATOM     63  C   UNL A   1      43.500  36.561  32.702  1.00  0.00     0.074 A 
ATOM     64  C   UNL A   1      43.122  37.690  33.527  1.00  0.00     0.031 C 
ATOM     65  C   UNL A   1      44.066  36.660  31.474  1.00  0.00     0.031 A 
BRANCH  52  66
ATOM     66  C   UNL A   1      45.383  31.246  28.799  1.00  0.00    -0.014 A 
ATOM     67  C   UNL A   1      44.530  30.758  27.790  1.00  0.00     0.010 A 
ATOM     68  C   UNL A   1      46.752  30.927  28.746  1.00  0.00     0.010 A 
ATOM     69  C   UNL A   1      45.027  29.929  26.778  1.00  0.00     0.020 A 
ATOM     70  C   UNL A   1      47.257  30.124  27.719  1.00  0.00     0.020 A 
ATOM     71  C   UNL A   1      46.386  29.607  26.757  1.00  0.00     0.054 A 
BRANCH  71  72
ATOM     72  S   UNL A   1      47.002  28.490  25.466  1.00  0.00     0.124 S 
ATOM     73  O   UNL A   1      46.256  27.265  25.736  1.00  0.00    -0.237 OA
ATOM     74  O   UNL A   1      46.640  29.193  24.238  1.00  0.00    -0.237 OA
ATOM     75  O   UNL A   1      48.437  28.418  25.732  1.00  0.00    -0.744 OA
ENDBRANCH  71  72
ENDBRANCH  52  66
BRANCH  53  76
ATOM     76  C   UNL A   1      41.500  35.659  36.885  1.00  0.00    -0.014 A 
ATOM     77  C   UNL A   1      40.102  35.794  36.981  1.00  0.00     0.010 A 
ATOM     78  C   UNL A   1      42.310  36.233  37.880  1.00  0.00     0.010 A 
ATOM     79  C   UNL A   1      39.529  36.547  38.008  1.00  0.00     0.020 A 
ATOM     80  C   UNL A   1      41.738  36.958  38.931  1.00  0.00     0.020 A 
ATOM     81  C   UNL A   1      40.354  37.138  38.968  1.00  0.00     0.054 A 
BRANCH  81  82
ATOM     82  S   UNL A   1      39.592  38.172  40.249  1.00  0.00     0.124 S 
ATOM     83  O   UNL A   1      39.480  37.234  41.362  1.00  0.00    -0.237 OA
ATOM     84  O   UNL A   1      40.575  39.239  40.421  1.00  0.00    -0.237 OA
ATOM     85  O   UNL A   1      38.326  38.584  39.648  1.00  0.00    -0.744 OA
ENDBRANCH  81  82
ENDBRANCH  53  76
BRANCH  65  86
ATOM     86  C   UNL A   1      44.334  38.037  30.917  1.00  0.00    -0.014 A 
ATOM     87  C   UNL A   1      45.555  38.680  31.198  1.00  0.00     0.010 A 
ATOM     88  C   UNL A   1      43.327  38.753  30.243  1.00  0.00     0.010 A 
ATOM     89  C   UNL A   1      45.746  40.023  30.863  1.00  0.00     0.020 A 
ATOM     90  C   UNL A   1      43.529  40.087  29.875  1.00  0.00     0.020 A 
ATOM     91  C   UNL A   1      44.725  40.722  30.216  1.00  0.00     0.054 A 
BRANCH  91  92
ATOM     92  S   UNL A   1      44.969  42.482  29.846  1.00  0.00     0.124 S 
ATOM     93  O   UNL A   1      44.601  42.553  28.435  1.00  0.00    -0.237 OA
ATOM     94  O   UNL A   1      44.047  43.135  30.772  1.00  0.00    -0.237 OA
ATOM     95  O   UNL A   1      46.386  42.700  30.131  1.00  0.00    -0.744 OA
ENDBRANCH  91  92
ENDBRANCH  65  86
ENDBRANCH  39  40
ENDBRANCH  32  34
ENDBRANCH  31  32
ENDBRANCH  30  31
ENDBRANCH  29  30
ENDBRANCH  28  29
ENDBRANCH  27  28
ENDBRANCH   1  27
TORSDOF 25
ENDMDL
MODEL 3
REMARK VINA RESULT:      -5.8      4.021      9.825
REMARK SMILES Cc1cc(-c2ccc(/C=C/C(=O)OCCOCCOCCOCCOC(=O)c3ccc(-c4c5nc(c(-c6ccc(S(=O)(=O)[O-])cc6)c6ccc([nH]6)c(-c6ccc(S(=O)(=O)[O-])cc6)c6nc(c(-c7ccc(S(=O)(=O)[O-])cc7)c7ccc4[nH]7)C=C6)C=C5)cc3)o2)c(C)cc1Br
REMARK SMILES IDX 20 1 19 2 18 3 17 4 16 5 15 6 14 7 13 8 11 9 12 10 10 11
REMARK SMILES IDX 9 12 8 13 5 14 6 15 88 16 7 17 4 18 1 19 2 20 3 21 92 22
REMARK SMILES IDX 91 23 93 24 89 25 90 26 21 27 22 28 23 29 24 30 25 31 26 32
REMARK SMILES IDX 27 33 28 34 29 35 87 36 30 37 86 38 31 39 32 40 33 41 80 42
REMARK SMILES IDX 34 43 85 44 79 45 81 46 35 47 84 48 78 49 77 50 36 52 66 53
REMARK SMILES IDX 47 54 65 55 48 56 51 57 64 58 82 59 49 60 50 61 63 63 83 64
REMARK SMILES IDX 52 65 37 66 38 67 46 68 39 69 45 70 40 71 41 72 42 73 43 74
REMARK SMILES IDX 44 75 67 76 68 77 76 78 69 79 75 80 70 81 71 82 72 83 73 84
REMARK SMILES IDX 74 85 53 86 54 87 62 88 55 89 61 90 56 91 57 92 58 93 59 94
REMARK SMILES IDX 60 95
REMARK H PARENT 81 51 51 62
REMARK Flexibility Score: inf
ROOT
ATOM      1  C   UNL A   1      43.100  25.391  25.290  1.00  0.00     0.188 C 
ENDROOT
BRANCH   1   2
ATOM      2  O   UNL A   1      42.444  25.595  26.541  1.00  0.00    -0.377 OA
BRANCH   2   3
ATOM      3  C   UNL A   1      41.329  24.791  26.895  1.00  0.00     0.188 C 
BRANCH   3   4
ATOM      4  C   UNL A   1      40.397  25.328  27.996  1.00  0.00     0.188 C 
BRANCH   4   5
ATOM      5  O   UNL A   1      40.591  26.704  28.278  1.00  0.00    -0.376 OA
BRANCH   5   6
ATOM      6  C   UNL A   1      39.560  27.412  28.945  1.00  0.00     0.202 C 
BRANCH   6   7
ATOM      7  C   UNL A   1      39.663  28.939  29.083  1.00  0.00     0.261 C 
BRANCH   7   8
ATOM      8  O   UNL A   1      38.924  29.715  28.134  1.00  0.00    -0.460 OA
BRANCH   8   9
ATOM      9  C   UNL A   1      37.772  30.285  28.544  1.00  0.00     0.330 C 
ATOM     10  O   UNL A   1      37.663  31.183  29.363  1.00  0.00    -0.247 OA
BRANCH   9  11
ATOM     11  C   UNL A   1      36.630  29.775  27.751  1.00  0.00     0.097 C 
ATOM     12  C   UNL A   1      35.384  30.257  27.871  1.00  0.00     0.054 C 
BRANCH  12  13
ATOM     13  C   UNL A   1      34.317  29.741  27.086  1.00  0.00     0.127 A 
ATOM     14  C   UNL A   1      33.186  28.415  25.709  1.00  0.00     0.135 A 
ATOM     15  C   UNL A   1      32.346  29.463  26.000  1.00  0.00     0.051 A 
ATOM     16  O   UNL A   1      34.373  28.569  26.355  1.00  0.00    -0.457 OA
ATOM     17  C   UNL A   1      33.055  30.292  26.898  1.00  0.00     0.051 A 
BRANCH  14  18
ATOM     18  C   UNL A   1      33.060  27.258  24.836  1.00  0.00     0.020 A 
ATOM     19  C   UNL A   1      34.739  23.846  24.654  1.00  0.00     0.045 C 
ATOM     20  C   UNL A   1      33.841  24.993  24.288  1.00  0.00    -0.036 A 
ATOM     21  C   UNL A   1      33.846  26.128  25.117  1.00  0.00     0.016 A 
ATOM     22  C   UNL A   1      33.053  25.025  23.133  1.00  0.00     0.021 A 
ATOM     23  C   UNL A   1      32.249  26.138  22.850  1.00  0.00     0.020 A 
ATOM     24  Br  UNL A   1      33.034  23.599  21.876  1.00  0.00    -0.051 Br
ATOM     25  C   UNL A   1      32.239  27.261  23.695  1.00  0.00    -0.039 A 
ATOM     26  C   UNL A   1      31.363  28.433  23.349  1.00  0.00     0.045 C 
ENDBRANCH  14  18
ENDBRANCH  12  13
ENDBRANCH   9  11
ENDBRANCH   8   9
ENDBRANCH   7   8
ENDBRANCH   6   7
ENDBRANCH   5   6
ENDBRANCH   4   5
ENDBRANCH   3   4
ENDBRANCH   2   3
ENDBRANCH   1   2
BRANCH   1  27
ATOM     27  C   UNL A   1      44.239  24.361  25.091  1.00  0.00     0.188 C 
BRANCH  27  28
ATOM     28  O   UNL A   1      45.409  24.874  24.472  1.00  0.00    -0.376 OA
BRANCH  28  29
ATOM     29  C   UNL A   1      46.634  24.228  24.774  1.00  0.00     0.202 C 
BRANCH  29  30
ATOM     30  C   UNL A   1      47.663  25.089  25.516  1.00  0.00     0.261 C 
BRANCH  30  31
ATOM     31  O   UNL A   1      48.541  25.864  24.688  1.00  0.00    -0.460 OA
BRANCH  31  32
ATOM     32  C   UNL A   1      48.028  26.975  24.097  1.00  0.00     0.338 C 
ATOM     33  O   UNL A   1      47.916  27.188  22.915  1.00  0.00    -0.246 OA
BRANCH  32  34
ATOM     34  C   UNL A   1      47.440  27.797  25.184  1.00  0.00     0.060 A 
ATOM     35  C   UNL A   1      46.053  27.904  25.314  1.00  0.00     0.016 A 
ATOM     36  C   UNL A   1      48.289  28.508  26.042  1.00  0.00     0.016 A 
ATOM     37  C   UNL A   1      45.514  28.709  26.318  1.00  0.00     0.010 A 
ATOM     38  C   UNL A   1      47.746  29.321  27.043  1.00  0.00     0.010 A 
ATOM     39  C   UNL A   1      46.355  29.410  27.202  1.00  0.00    -0.014 A 
BRANCH  39  40
ATOM     40  C   UNL A   1      45.775  30.067  28.401  1.00  0.00     0.031 A 
ATOM     41  C   UNL A   1      45.256  31.473  28.378  1.00  0.00     0.074 A 
ATOM     42  C   UNL A   1      45.731  29.350  29.541  1.00  0.00     0.049 A 
ATOM     43  N   UNL A   1      44.644  32.130  29.331  1.00  0.00    -0.248 NA
ATOM     44  C   UNL A   1      45.447  32.244  27.142  1.00  0.00     0.031 C 
ATOM     45  C   UNL A   1      46.227  27.979  29.680  1.00  0.00     0.029 A 
ATOM     46  N   UNL A   1      45.238  29.655  30.785  1.00  0.00    -0.354 N 
ATOM     47  C   UNL A   1      44.355  33.384  28.808  1.00  0.00     0.074 A 
ATOM     48  C   UNL A   1      44.902  33.412  27.468  1.00  0.00     0.031 C 
ATOM     49  C   UNL A   1      45.981  27.549  30.925  1.00  0.00     0.029 A 
ATOM     50  C   UNL A   1      45.345  28.621  31.685  1.00  0.00     0.049 A 
ATOM     51  H   UNL A   1      44.847  30.530  31.011  1.00  0.00     0.167 HD
ATOM     52  C   UNL A   1      43.679  34.403  29.394  1.00  0.00     0.031 A 
ATOM     53  C   UNL A   1      44.966  28.531  32.977  1.00  0.00     0.031 A 
ATOM     54  C   UNL A   1      43.157  34.362  30.740  1.00  0.00     0.049 A 
ATOM     55  C   UNL A   1      44.256  29.692  33.614  1.00  0.00     0.074 A 
ATOM     56  C   UNL A   1      42.416  35.330  31.398  1.00  0.00     0.029 A 
ATOM     57  N   UNL A   1      43.322  33.315  31.637  1.00  0.00    -0.354 N 
ATOM     58  N   UNL A   1      43.912  30.837  33.076  1.00  0.00    -0.248 NA
ATOM     59  C   UNL A   1      43.868  29.546  35.024  1.00  0.00     0.031 C 
ATOM     60  C   UNL A   1      42.209  34.909  32.712  1.00  0.00     0.029 A 
ATOM     61  C   UNL A   1      42.736  33.635  32.852  1.00  0.00     0.049 A 
ATOM     62  H   UNL A   1      43.787  32.470  31.439  1.00  0.00     0.167 HD
ATOM     63  C   UNL A   1      43.248  31.540  34.074  1.00  0.00     0.074 A 
ATOM     64  C   UNL A   1      43.221  30.684  35.242  1.00  0.00     0.031 C 
ATOM     65  C   UNL A   1      42.712  32.785  34.020  1.00  0.00     0.031 A 
BRANCH  52  66
ATOM     66  C   UNL A   1      43.425  35.660  28.596  1.00  0.00    -0.014 A 
ATOM     67  C   UNL A   1      44.327  36.740  28.677  1.00  0.00     0.010 A 
ATOM     68  C   UNL A   1      42.213  35.838  27.905  1.00  0.00     0.010 A 
ATOM     69  C   UNL A   1      44.003  37.981  28.121  1.00  0.00     0.020 A 
ATOM     70  C   UNL A   1      41.900  37.069  27.321  1.00  0.00     0.020 A 
ATOM     71  C   UNL A   1      42.784  38.141  27.457  1.00  0.00     0.054 A 
BRANCH  71  72
ATOM     72  S   UNL A   1      42.359  39.773  26.787  1.00  0.00     0.124 S 
ATOM     73  O   UNL A   1      41.064  39.523  26.161  1.00  0.00    -0.237 OA
ATOM     74  O   UNL A   1      42.332  40.611  27.983  1.00  0.00    -0.237 OA
ATOM     75  O   UNL A   1      43.454  40.060  25.862  1.00  0.00    -0.744 OA
ENDBRANCH  71  72
ENDBRANCH  52  66
BRANCH  53  76
ATOM     76  C   UNL A   1      45.208  27.258  33.710  1.00  0.00    -0.014 A 
ATOM     77  C   UNL A   1      44.294  26.192  33.610  1.00  0.00     0.010 A 
ATOM     78  C   UNL A   1      46.293  27.145  34.597  1.00  0.00     0.010 A 
ATOM     79  C   UNL A   1      44.419  25.069  34.429  1.00  0.00     0.020 A 
ATOM     80  C   UNL A   1      46.442  26.004  35.394  1.00  0.00     0.020 A 
ATOM     81  C   UNL A   1      45.485  24.990  35.328  1.00  0.00     0.054 A 
BRANCH  81  82
ATOM     82  S   UNL A   1      45.584  23.555  36.434  1.00  0.00     0.124 S 
ATOM     83  O   UNL A   1      46.988  23.585  36.837  1.00  0.00    -0.237 OA
ATOM     84  O   UNL A   1      44.622  23.894  37.479  1.00  0.00    -0.237 OA
ATOM     85  O   UNL A   1      45.204  22.436  35.577  1.00  0.00    -0.744 OA
ENDBRANCH  81  82
ENDBRANCH  53  76
BRANCH  65  86
ATOM     86  C   UNL A   1      42.044  33.332  35.257  1.00  0.00    -0.014 A 
ATOM     87  C   UNL A   1      40.649  33.214  35.410  1.00  0.00     0.010 A 
ATOM     88  C   UNL A   1      42.769  34.091  36.195  1.00  0.00     0.010 A 
ATOM     89  C   UNL A   1      39.986  33.881  36.443  1.00  0.00     0.020 A 
ATOM     90  C   UNL A   1      42.113  34.732  37.250  1.00  0.00     0.020 A 
ATOM     91  C   UNL A   1      40.722  34.649  37.348  1.00  0.00     0.054 A 
BRANCH  91  92
ATOM     92  S   UNL A   1      39.836  35.558  38.645  1.00  0.00     0.124 S 
ATOM     93  O   UNL A   1      39.626  36.860  38.020  1.00  0.00    -0.237 OA
ATOM     94  O   UNL A   1      38.634  34.750  38.838  1.00  0.00    -0.237 OA
ATOM     95  O   UNL A   1      40.769  35.550  39.770  1.00  0.00    -0.744 OA
ENDBRANCH  91  92
ENDBRANCH  65  86
ENDBRANCH  39  40
ENDBRANCH  32  34
ENDBRANCH  31  32
ENDBRANCH  30  31
ENDBRANCH  29  30
ENDBRANCH  28  29
ENDBRANCH  27  28
ENDBRANCH   1  27
TORSDOF 25
ENDMDL
