MODEL 1
REMARK VINA RESULT:      -9.8      0.000      0.000
REMARK SMILES Cc1c(CC(=O)OCCOCCOCCOCCOC(=O)c2ccc(-c3c4nc(c(-c5ccc(S(=O)(=O)[O-])cc5)c5ccc([nH]5)c(-c5ccc(S(=O)(=O)[O-])cc5)c5nc(c(-c6ccc(S(=O)(=O)[O-])cc6)c6ccc3[nH]6)C=C5)C=C4)cc2)cc(-c2ccc(S(C)(=O)=O)cc2)n1-c1cccc(F)c1
REMARK SMILES IDX 13 1 12 2 11 3 10 4 9 5 8 6 7 7 5 8 6 9 4 10 3 11 1 12 2 13
REMARK SMILES IDX 94 14 82 15 83 16 95 17 96 18 101 19 97 20 99 21 98 22
REMARK SMILES IDX 100 23 84 24 85 25 93 26 86 27 92 28 87 29 88 30 89 31 90 32
REMARK SMILES IDX 91 33 14 34 15 35 16 36 17 37 18 38 19 39 20 40 21 41 22 42
REMARK SMILES IDX 23 43 81 44 24 45 80 46 25 47 26 48 27 49 74 50 28 51 79 52
REMARK SMILES IDX 73 53 75 54 29 55 78 56 72 57 71 58 30 60 60 61 41 62 59 63
REMARK SMILES IDX 42 64 45 65 58 66 76 67 43 68 44 69 57 71 77 72 46 73 31 74
REMARK SMILES IDX 32 75 40 76 33 77 39 78 34 79 35 80 36 81 37 82 38 83 61 84
REMARK SMILES IDX 62 85 70 86 63 87 69 88 64 89 65 90 66 91 67 92 68 93 47 94
REMARK SMILES IDX 48 95 56 96 49 97 55 98 50 99 51 100 52 101 53 102 54 103
REMARK H PARENT 75 59 45 70
REMARK Flexibility Score: inf
ROOT
ATOM      1  O   UNL A   1      35.271  20.987  25.886  1.00  0.00    -0.377 OA
ENDROOT
BRANCH   1   2
ATOM      2  C   UNL A   1      33.879  20.858  26.108  1.00  0.00     0.188 C 
BRANCH   2   3
ATOM      3  C   UNL A   1      33.341  19.418  25.969  1.00  0.00     0.188 C 
BRANCH   3   4
ATOM      4  O   UNL A   1      32.191  19.080  25.198  1.00  0.00    -0.376 OA
BRANCH   4   5
ATOM      5  C   UNL A   1      32.355  18.659  23.857  1.00  0.00     0.202 C 
BRANCH   5   6
ATOM      6  C   UNL A   1      32.107  19.730  22.781  1.00  0.00     0.261 C 
BRANCH   6   7
ATOM      7  O   UNL A   1      32.936  20.910  22.867  1.00  0.00    -0.463 OA
BRANCH   7   8
ATOM      8  C   UNL A   1      32.294  22.076  23.122  1.00  0.00     0.310 C 
ATOM      9  O   UNL A   1      31.333  22.171  23.886  1.00  0.00    -0.252 OA
BRANCH   8  10
ATOM     10  C   UNL A   1      32.772  23.285  22.339  1.00  0.00     0.160 C 
BRANCH  10  11
ATOM     11  C   UNL A   1      32.531  24.697  22.824  1.00  0.00    -0.015 A 
ATOM     12  C   UNL A   1      33.377  24.623  25.308  1.00  0.00     0.065 C 
ATOM     13  C   UNL A   1      32.775  25.240  24.090  1.00  0.00     0.024 A 
ATOM     14  N   UNL A   1      32.311  26.550  24.098  1.00  0.00    -0.313 N 
ATOM     15  C   UNL A   1      31.786  25.690  22.114  1.00  0.00     0.033 A 
ATOM     16  C   UNL A   1      31.587  26.784  22.940  1.00  0.00     0.053 A 
BRANCH  14  17
ATOM     17  C   UNL A   1      32.509  27.507  25.120  1.00  0.00     0.049 A 
ATOM     18  C   UNL A   1      33.696  28.243  25.179  1.00  0.00     0.027 A 
ATOM     19  C   UNL A   1      31.572  27.569  26.153  1.00  0.00     0.065 A 
ATOM     20  C   UNL A   1      33.933  29.066  26.285  1.00  0.00     0.005 A 
ATOM     21  C   UNL A   1      31.826  28.393  27.240  1.00  0.00     0.125 A 
ATOM     22  C   UNL A   1      32.995  29.142  27.318  1.00  0.00     0.039 A 
ATOM     23  F   UNL A   1      30.939  28.448  28.242  1.00  0.00    -0.207 F 
ENDBRANCH  14  17
BRANCH  16  24
ATOM     24  C   UNL A   1      30.705  27.940  22.759  1.00  0.00    -0.001 A 
ATOM     25  C   UNL A   1      31.176  29.151  22.235  1.00  0.00     0.011 A 
ATOM     26  C   UNL A   1      29.367  27.844  23.168  1.00  0.00     0.011 A 
ATOM     27  C   UNL A   1      30.322  30.254  22.123  1.00  0.00     0.021 A 
ATOM     28  C   UNL A   1      28.509  28.941  23.060  1.00  0.00     0.021 A 
ATOM     29  C   UNL A   1      28.994  30.144  22.538  1.00  0.00     0.067 A 
BRANCH  29  30
ATOM     30  S   UNL A   1      27.874  31.513  22.341  1.00  0.00     0.175 S 
ATOM     31  C   UNL A   1      28.883  32.958  22.551  1.00  0.00     0.163 C 
ATOM     32  O   UNL A   1      27.427  31.470  20.936  1.00  0.00    -0.224 OA
ATOM     33  O   UNL A   1      26.930  31.473  23.406  1.00  0.00    -0.224 OA
ENDBRANCH  29  30
ENDBRANCH  16  24
ENDBRANCH  10  11
ENDBRANCH   8  10
ENDBRANCH   7   8
ENDBRANCH   6   7
ENDBRANCH   5   6
ENDBRANCH   4   5
ENDBRANCH   3   4
ENDBRANCH   2   3
ENDBRANCH   1   2
BRANCH   1  34
ATOM     34  C   UNL A   1      35.728  22.211  25.329  1.00  0.00     0.188 C 
BRANCH  34  35
ATOM     35  C   UNL A   1      37.150  22.104  24.783  1.00  0.00     0.188 C 
BRANCH  35  36
ATOM     36  O   UNL A   1      38.031  21.317  25.571  1.00  0.00    -0.376 OA
BRANCH  36  37
ATOM     37  C   UNL A   1      39.214  21.960  26.051  1.00  0.00     0.202 C 
BRANCH  37  38
ATOM     38  C   UNL A   1      40.509  21.136  26.411  1.00  0.00     0.261 C 
BRANCH  38  39
ATOM     39  O   UNL A   1      41.791  21.730  26.910  1.00  0.00    -0.460 OA
BRANCH  39  40
ATOM     40  C   UNL A   1      42.476  22.655  26.101  1.00  0.00     0.338 C 
ATOM     41  O   UNL A   1      42.634  22.425  24.907  1.00  0.00    -0.246 OA
BRANCH  40  42
ATOM     42  C   UNL A   1      43.027  24.003  26.737  1.00  0.00     0.060 A 
ATOM     43  C   UNL A   1      42.422  24.858  27.719  1.00  0.00     0.016 A 
ATOM     44  C   UNL A   1      44.204  24.548  26.351  1.00  0.00     0.016 A 
ATOM     45  C   UNL A   1      43.005  26.209  28.330  1.00  0.00     0.010 A 
ATOM     46  C   UNL A   1      44.697  25.805  26.979  1.00  0.00     0.010 A 
ATOM     47  C   UNL A   1      44.226  26.835  27.965  1.00  0.00    -0.014 A 
BRANCH  47  48
ATOM     48  C   UNL A   1      45.362  27.888  29.025  1.00  0.00     0.031 A 
ATOM     49  C   UNL A   1      46.511  27.917  28.038  1.00  0.00     0.074 A 
ATOM     50  C   UNL A   1      45.514  29.022  30.087  1.00  0.00     0.049 A 
ATOM     51  N   UNL A   1      46.080  27.958  26.794  1.00  0.00    -0.248 NA
ATOM     52  C   UNL A   1      47.704  28.741  28.139  1.00  0.00     0.031 C 
ATOM     53  C   UNL A   1      44.534  29.656  31.076  1.00  0.00     0.029 A 
ATOM     54  N   UNL A   1      46.643  30.044  30.443  1.00  0.00    -0.354 N 
ATOM     55  C   UNL A   1      45.976  29.318  26.721  1.00  0.00     0.074 A 
ATOM     56  C   UNL A   1      47.359  29.625  27.183  1.00  0.00     0.031 C 
ATOM     57  C   UNL A   1      44.980  30.782  31.746  1.00  0.00     0.029 A 
ATOM     58  C   UNL A   1      46.363  31.189  31.426  1.00  0.00     0.049 A 
ATOM     59  H   UNL A   1      47.535  29.952  30.036  1.00  0.00     0.167 HD
ATOM     60  C   UNL A   1      44.852  30.108  27.006  1.00  0.00     0.031 A 
ATOM     61  C   UNL A   1      47.089  32.425  31.781  1.00  0.00     0.031 A 
ATOM     62  C   UNL A   1      45.219  31.447  26.951  1.00  0.00     0.049 A 
ATOM     63  C   UNL A   1      46.511  33.229  30.655  1.00  0.00     0.074 A 
ATOM     64  C   UNL A   1      46.056  32.267  26.251  1.00  0.00     0.029 A 
ATOM     65  N   UNL A   1      44.778  32.121  28.017  1.00  0.00    -0.354 N 
ATOM     66  N   UNL A   1      45.319  33.758  30.746  1.00  0.00    -0.248 NA
ATOM     67  C   UNL A   1      47.409  33.833  29.653  1.00  0.00     0.031 C 
ATOM     68  C   UNL A   1      45.795  33.553  26.767  1.00  0.00     0.029 A 
ATOM     69  C   UNL A   1      44.782  33.442  27.729  1.00  0.00     0.049 A 
ATOM     70  H   UNL A   1      44.497  31.721  28.871  1.00  0.00     0.167 HD
ATOM     71  C   UNL A   1      45.212  34.560  29.633  1.00  0.00     0.074 A 
ATOM     72  C   UNL A   1      46.593  34.787  29.189  1.00  0.00     0.031 C 
ATOM     73  C   UNL A   1      44.199  34.203  28.800  1.00  0.00     0.031 A 
BRANCH  60  74
ATOM     74  C   UNL A   1      43.214  29.908  27.451  1.00  0.00    -0.014 A 
ATOM     75  C   UNL A   1      42.637  30.031  28.755  1.00  0.00     0.010 A 
ATOM     76  C   UNL A   1      42.277  29.435  26.516  1.00  0.00     0.010 A 
ATOM     77  C   UNL A   1      41.395  29.509  29.181  1.00  0.00     0.020 A 
ATOM     78  C   UNL A   1      41.003  28.907  26.914  1.00  0.00     0.020 A 
ATOM     79  C   UNL A   1      40.617  28.858  28.259  1.00  0.00     0.054 A 
BRANCH  79  80
ATOM     80  S   UNL A   1      39.232  27.826  28.841  1.00  0.00     0.124 S 
ATOM     81  O   UNL A   1      39.482  26.571  28.131  1.00  0.00    -0.237 OA
ATOM     82  O   UNL A   1      39.421  27.748  30.288  1.00  0.00    -0.237 OA
ATOM     83  O   UNL A   1      38.053  28.560  28.396  1.00  0.00    -0.744 OA
ENDBRANCH  79  80
ENDBRANCH  60  74
BRANCH  61  84
ATOM     84  C   UNL A   1      47.494  33.880  32.754  1.00  0.00    -0.014 A 
ATOM     85  C   UNL A   1      46.700  34.653  33.637  1.00  0.00     0.010 A 
ATOM     86  C   UNL A   1      48.885  34.264  33.016  1.00  0.00     0.010 A 
ATOM     87  C   UNL A   1      47.268  35.535  34.710  1.00  0.00     0.020 A 
ATOM     88  C   UNL A   1      49.465  35.013  34.084  1.00  0.00     0.020 A 
ATOM     89  C   UNL A   1      48.646  35.645  34.971  1.00  0.00     0.054 A 
BRANCH  89  90
ATOM     90  S   UNL A   1      49.425  36.458  36.434  1.00  0.00     0.124 S 
ATOM     91  O   UNL A   1      49.881  37.742  35.909  1.00  0.00    -0.237 OA
ATOM     92  O   UNL A   1      48.335  36.526  37.403  1.00  0.00    -0.237 OA
ATOM     93  O   UNL A   1      50.502  35.536  36.806  1.00  0.00    -0.744 OA
ENDBRANCH  89  90
ENDBRANCH  61  84
BRANCH  73  94
ATOM     94  C   UNL A   1      42.893  33.871  29.561  1.00  0.00    -0.014 A 
ATOM     95  C   UNL A   1      41.725  34.533  29.155  1.00  0.00     0.010 A 
ATOM     96  C   UNL A   1      42.776  33.091  30.737  1.00  0.00     0.010 A 
ATOM     97  C   UNL A   1      40.532  34.455  29.897  1.00  0.00     0.020 A 
ATOM     98  C   UNL A   1      41.598  33.013  31.500  1.00  0.00     0.020 A 
ATOM     99  C   UNL A   1      40.477  33.704  31.072  1.00  0.00     0.054 A 
BRANCH  99 100
ATOM    100  S   UNL A   1      38.976  33.721  32.091  1.00  0.00     0.124 S 
ATOM    101  O   UNL A   1      39.477  34.104  33.410  1.00  0.00    -0.237 OA
ATOM    102  O   UNL A   1      38.162  34.734  31.425  1.00  0.00    -0.237 OA
ATOM    103  O   UNL A   1      38.485  32.348  32.006  1.00  0.00    -0.744 OA
ENDBRANCH  99 100
ENDBRANCH  73  94
ENDBRANCH  47  48
ENDBRANCH  40  42
ENDBRANCH  39  40
ENDBRANCH  38  39
ENDBRANCH  37  38
ENDBRANCH  36  37
ENDBRANCH  35  36
ENDBRANCH  34  35
ENDBRANCH   1  34
TORSDOF 27
ENDMDL
MODEL 2
REMARK VINA RESULT:      -9.6      1.656      2.158
REMARK SMILES Cc1c(CC(=O)OCCOCCOCCOCCOC(=O)c2ccc(-c3c4nc(c(-c5ccc(S(=O)(=O)[O-])cc5)c5ccc([nH]5)c(-c5ccc(S(=O)(=O)[O-])cc5)c5nc(c(-c6ccc(S(=O)(=O)[O-])cc6)c6ccc3[nH]6)C=C5)C=C4)cc2)cc(-c2ccc(S(C)(=O)=O)cc2)n1-c1cccc(F)c1
REMARK SMILES IDX 13 1 12 2 11 3 10 4 9 5 8 6 7 7 5 8 6 9 4 10 3 11 1 12 2 13
REMARK SMILES IDX 94 14 82 15 83 16 95 17 96 18 101 19 97 20 99 21 98 22
REMARK SMILES IDX 100 23 84 24 85 25 93 26 86 27 92 28 87 29 88 30 89 31 90 32
REMARK SMILES IDX 91 33 14 34 15 35 16 36 17 37 18 38 19 39 20 40 21 41 22 42
REMARK SMILES IDX 23 43 81 44 24 45 80 46 25 47 26 48 27 49 74 50 28 51 79 52
REMARK SMILES IDX 73 53 75 54 29 55 78 56 72 57 71 58 30 60 60 61 41 62 59 63
REMARK SMILES IDX 42 64 45 65 58 66 76 67 43 68 44 69 57 71 77 72 46 73 31 74
REMARK SMILES IDX 32 75 40 76 33 77 39 78 34 79 35 80 36 81 37 82 38 83 61 84
REMARK SMILES IDX 62 85 70 86 63 87 69 88 64 89 65 90 66 91 67 92 68 93 47 94
REMARK SMILES IDX 48 95 56 96 49 97 55 98 50 99 51 100 52 101 53 102 54 103
REMARK H PARENT 75 59 45 70
REMARK Flexibility Score: inf
ROOT
ATOM      1  O   UNL A   1      35.321  20.879  25.730  1.00  0.00    -0.377 OA
ENDROOT
BRANCH   1   2
ATOM      2  C   UNL A   1      33.931  20.845  25.997  1.00  0.00     0.188 C 
BRANCH   2   3
ATOM      3  C   UNL A   1      33.290  19.446  25.870  1.00  0.00     0.188 C 
BRANCH   3   4
ATOM      4  O   UNL A   1      32.155  19.173  25.051  1.00  0.00    -0.376 OA
BRANCH   4   5
ATOM      5  C   UNL A   1      32.349  18.745  23.717  1.00  0.00     0.202 C 
BRANCH   5   6
ATOM      6  C   UNL A   1      32.152  19.815  22.631  1.00  0.00     0.261 C 
BRANCH   6   7
ATOM      7  O   UNL A   1      33.010  20.974  22.730  1.00  0.00    -0.463 OA
BRANCH   7   8
ATOM      8  C   UNL A   1      32.398  22.150  23.012  1.00  0.00     0.310 C 
ATOM      9  O   UNL A   1      31.381  22.240  23.701  1.00  0.00    -0.252 OA
BRANCH   8  10
ATOM     10  C   UNL A   1      32.988  23.384  22.353  1.00  0.00     0.160 C 
BRANCH  10  11
ATOM     11  C   UNL A   1      32.699  24.777  22.865  1.00  0.00    -0.015 A 
ATOM     12  C   UNL A   1      33.514  24.675  25.358  1.00  0.00     0.065 C 
ATOM     13  C   UNL A   1      32.910  25.300  24.145  1.00  0.00     0.024 A 
ATOM     14  N   UNL A   1      32.407  26.596  24.174  1.00  0.00    -0.313 N 
ATOM     15  C   UNL A   1      31.935  25.762  22.166  1.00  0.00     0.033 A 
ATOM     16  C   UNL A   1      31.692  26.832  23.012  1.00  0.00     0.053 A 
BRANCH  14  17
ATOM     17  C   UNL A   1      32.564  27.536  25.218  1.00  0.00     0.049 A 
ATOM     18  C   UNL A   1      33.710  28.333  25.286  1.00  0.00     0.027 A 
ATOM     19  C   UNL A   1      31.635  27.521  26.260  1.00  0.00     0.065 A 
ATOM     20  C   UNL A   1      33.913  29.140  26.411  1.00  0.00     0.005 A 
ATOM     21  C   UNL A   1      31.854  28.330  27.366  1.00  0.00     0.125 A 
ATOM     22  C   UNL A   1      32.982  29.139  27.453  1.00  0.00     0.039 A 
ATOM     23  F   UNL A   1      30.975  28.312  28.376  1.00  0.00    -0.207 F 
ENDBRANCH  14  17
BRANCH  16  24
ATOM     24  C   UNL A   1      30.779  27.966  22.842  1.00  0.00    -0.001 A 
ATOM     25  C   UNL A   1      31.084  29.038  21.993  1.00  0.00     0.011 A 
ATOM     26  C   UNL A   1      29.593  28.000  23.590  1.00  0.00     0.011 A 
ATOM     27  C   UNL A   1      30.217  30.131  21.893  1.00  0.00     0.021 A 
ATOM     28  C   UNL A   1      28.722  29.089  23.496  1.00  0.00     0.021 A 
ATOM     29  C   UNL A   1      29.042  30.151  22.646  1.00  0.00     0.067 A 
BRANCH  29  30
ATOM     30  S   UNL A   1      27.892  31.500  22.481  1.00  0.00     0.175 S 
ATOM     31  C   UNL A   1      28.848  32.956  22.825  1.00  0.00     0.163 C 
ATOM     32  O   UNL A   1      27.510  31.533  21.057  1.00  0.00    -0.224 OA
ATOM     33  O   UNL A   1      26.903  31.369  23.496  1.00  0.00    -0.224 OA
ENDBRANCH  29  30
ENDBRANCH  16  24
ENDBRANCH  10  11
ENDBRANCH   8  10
ENDBRANCH   7   8
ENDBRANCH   6   7
ENDBRANCH   5   6
ENDBRANCH   4   5
ENDBRANCH   3   4
ENDBRANCH   2   3
ENDBRANCH   1   2
BRANCH   1  34
ATOM     34  C   UNL A   1      35.826  22.030  25.068  1.00  0.00     0.188 C 
BRANCH  34  35
ATOM     35  C   UNL A   1      37.255  21.831  24.569  1.00  0.00     0.188 C 
BRANCH  35  36
ATOM     36  O   UNL A   1      38.088  21.076  25.436  1.00  0.00    -0.376 OA
BRANCH  36  37
ATOM     37  C   UNL A   1      39.204  21.757  26.013  1.00  0.00     0.202 C 
BRANCH  37  38
ATOM     38  C   UNL A   1      40.503  20.982  26.455  1.00  0.00     0.261 C 
BRANCH  38  39
ATOM     39  O   UNL A   1      41.725  21.621  27.042  1.00  0.00    -0.460 OA
BRANCH  39  40
ATOM     40  C   UNL A   1      42.343  22.677  26.349  1.00  0.00     0.338 C 
ATOM     41  O   UNL A   1      42.600  22.560  25.155  1.00  0.00    -0.246 OA
BRANCH  40  42
ATOM     42  C   UNL A   1      42.688  24.027  27.114  1.00  0.00     0.060 A 
ATOM     43  C   UNL A   1      41.869  24.802  28.002  1.00  0.00     0.016 A 
ATOM     44  C   UNL A   1      43.876  24.655  26.957  1.00  0.00     0.016 A 
ATOM     45  C   UNL A   1      42.250  26.158  28.748  1.00  0.00     0.010 A 
ATOM     46  C   UNL A   1      44.172  25.910  27.702  1.00  0.00     0.010 A 
ATOM     47  C   UNL A   1      43.473  26.868  28.622  1.00  0.00    -0.014 A 
BRANCH  47  48
ATOM     48  C   UNL A   1      44.339  27.938  29.898  1.00  0.00     0.031 A 
ATOM     49  C   UNL A   1      45.542  28.264  29.035  1.00  0.00     0.074 A 
ATOM     50  C   UNL A   1      44.224  28.940  31.089  1.00  0.00     0.049 A 
ATOM     51  N   UNL A   1      45.208  28.396  27.768  1.00  0.00    -0.248 NA
ATOM     52  C   UNL A   1      46.575  29.238  29.342  1.00  0.00     0.031 C 
ATOM     53  C   UNL A   1      43.082  29.291  32.045  1.00  0.00     0.029 A 
ATOM     54  N   UNL A   1      45.143  30.067  31.664  1.00  0.00    -0.354 N 
ATOM     55  C   UNL A   1      44.892  29.722  27.838  1.00  0.00     0.074 A 
ATOM     56  C   UNL A   1      46.168  30.174  28.462  1.00  0.00     0.031 C 
ATOM     57  C   UNL A   1      43.287  30.378  32.876  1.00  0.00     0.029 A 
ATOM     58  C   UNL A   1      44.608  31.025  32.738  1.00  0.00     0.049 A 
ATOM     59  H   UNL A   1      46.067  30.163  31.337  1.00  0.00     0.167 HD
ATOM     60  C   UNL A   1      43.637  30.292  28.100  1.00  0.00     0.031 A 
ATOM     61  C   UNL A   1      45.095  32.302  33.297  1.00  0.00     0.031 A 
ATOM     62  C   UNL A   1      43.787  31.667  28.230  1.00  0.00     0.049 A 
ATOM     63  C   UNL A   1      44.485  33.145  32.217  1.00  0.00     0.074 A 
ATOM     64  C   UNL A   1      44.532  32.685  27.711  1.00  0.00     0.029 A 
ATOM     65  N   UNL A   1      43.162  32.128  29.318  1.00  0.00    -0.354 N 
ATOM     66  N   UNL A   1      43.220  33.473  32.251  1.00  0.00    -0.248 NA
ATOM     67  C   UNL A   1      45.349  33.998  31.380  1.00  0.00     0.031 C 
ATOM     68  C   UNL A   1      44.029  33.843  28.339  1.00  0.00     0.029 A 
ATOM     69  C   UNL A   1      42.975  33.460  29.180  1.00  0.00     0.049 A 
ATOM     70  H   UNL A   1      42.884  31.587  30.091  1.00  0.00     0.167 HD
ATOM     71  C   UNL A   1      43.071  34.383  31.230  1.00  0.00     0.074 A 
ATOM     72  C   UNL A   1      44.428  34.869  30.949  1.00  0.00     0.031 C 
ATOM     73  C   UNL A   1      42.197  33.985  30.269  1.00  0.00     0.031 A 
BRANCH  60  74
ATOM     74  C   UNL A   1      42.023  29.794  28.360  1.00  0.00    -0.014 A 
ATOM     75  C   UNL A   1      41.155  29.117  27.445  1.00  0.00     0.010 A 
ATOM     76  C   UNL A   1      41.343  30.173  29.531  1.00  0.00     0.010 A 
ATOM     77  C   UNL A   1      39.745  29.047  27.514  1.00  0.00     0.020 A 
ATOM     78  C   UNL A   1      39.913  30.105  29.637  1.00  0.00     0.020 A 
ATOM     79  C   UNL A   1      39.120  29.633  28.583  1.00  0.00     0.054 A 
BRANCH  79  80
ATOM     80  S   UNL A   1      37.323  29.928  28.505  1.00  0.00     0.124 S 
ATOM     81  O   UNL A   1      36.823  28.951  29.474  1.00  0.00    -0.237 OA
ATOM     82  O   UNL A   1      37.166  31.321  28.919  1.00  0.00    -0.237 OA
ATOM     83  O   UNL A   1      36.993  29.640  27.115  1.00  0.00    -0.744 OA
ENDBRANCH  79  80
ENDBRANCH  60  74
BRANCH  61  84
ATOM     84  C   UNL A   1      45.184  33.668  34.461  1.00  0.00    -0.014 A 
ATOM     85  C   UNL A   1      46.290  34.432  34.908  1.00  0.00     0.010 A 
ATOM     86  C   UNL A   1      43.986  34.416  34.858  1.00  0.00     0.010 A 
ATOM     87  C   UNL A   1      46.167  35.802  35.507  1.00  0.00     0.020 A 
ATOM     88  C   UNL A   1      43.831  35.754  35.330  1.00  0.00     0.020 A 
ATOM     89  C   UNL A   1      44.942  36.480  35.639  1.00  0.00     0.054 A 
BRANCH  89  90
ATOM     90  S   UNL A   1      44.714  38.258  36.081  1.00  0.00     0.124 S 
ATOM     91  O   UNL A   1      46.065  38.806  36.001  1.00  0.00    -0.237 OA
ATOM     92  O   UNL A   1      43.777  38.740  35.070  1.00  0.00    -0.237 OA
ATOM     93  O   UNL A   1      44.159  38.205  37.437  1.00  0.00    -0.744 OA
ENDBRANCH  89  90
ENDBRANCH  61  84
BRANCH  73  94
ATOM     94  C   UNL A   1      40.907  33.367  30.859  1.00  0.00    -0.014 A 
ATOM     95  C   UNL A   1      39.692  33.705  30.244  1.00  0.00     0.010 A 
ATOM     96  C   UNL A   1      40.797  32.625  32.060  1.00  0.00     0.010 A 
ATOM     97  C   UNL A   1      38.452  33.359  30.813  1.00  0.00     0.020 A 
ATOM     98  C   UNL A   1      39.569  32.286  32.652  1.00  0.00     0.020 A 
ATOM     99  C   UNL A   1      38.395  32.661  32.020  1.00  0.00     0.054 A 
BRANCH  99 100
ATOM    100  S   UNL A   1      36.794  32.343  32.811  1.00  0.00     0.124 S 
ATOM    101  O   UNL A   1      37.087  32.527  34.232  1.00  0.00    -0.237 OA
ATOM    102  O   UNL A   1      35.946  33.374  32.219  1.00  0.00    -0.237 OA
ATOM    103  O   UNL A   1      36.489  30.966  32.431  1.00  0.00    -0.744 OA
ENDBRANCH  99 100
ENDBRANCH  73  94
ENDBRANCH  47  48
ENDBRANCH  40  42
ENDBRANCH  39  40
ENDBRANCH  38  39
ENDBRANCH  37  38
ENDBRANCH  36  37
ENDBRANCH  35  36
ENDBRANCH  34  35
ENDBRANCH   1  34
TORSDOF 27
ENDMDL
MODEL 3
REMARK VINA RESULT:      -9.1      6.327     11.344
REMARK SMILES Cc1c(CC(=O)OCCOCCOCCOCCOC(=O)c2ccc(-c3c4nc(c(-c5ccc(S(=O)(=O)[O-])cc5)c5ccc([nH]5)c(-c5ccc(S(=O)(=O)[O-])cc5)c5nc(c(-c6ccc(S(=O)(=O)[O-])cc6)c6ccc3[nH]6)C=C5)C=C4)cc2)cc(-c2ccc(S(C)(=O)=O)cc2)n1-c1cccc(F)c1
REMARK SMILES IDX 13 1 12 2 11 3 10 4 9 5 8 6 7 7 5 8 6 9 4 10 3 11 1 12 2 13
REMARK SMILES IDX 94 14 82 15 83 16 95 17 96 18 101 19 97 20 99 21 98 22
REMARK SMILES IDX 100 23 84 24 85 25 93 26 86 27 92 28 87 29 88 30 89 31 90 32
REMARK SMILES IDX 91 33 14 34 15 35 16 36 17 37 18 38 19 39 20 40 21 41 22 42
REMARK SMILES IDX 23 43 81 44 24 45 80 46 25 47 26 48 27 49 74 50 28 51 79 52
REMARK SMILES IDX 73 53 75 54 29 55 78 56 72 57 71 58 30 60 60 61 41 62 59 63
REMARK SMILES IDX 42 64 45 65 58 66 76 67 43 68 44 69 57 71 77 72 46 73 31 74
REMARK SMILES IDX 32 75 40 76 33 77 39 78 34 79 35 80 36 81 37 82 38 83 61 84
REMARK SMILES IDX 62 85 70 86 63 87 69 88 64 89 65 90 66 91 67 92 68 93 47 94
REMARK SMILES IDX 48 95 56 96 49 97 55 98 50 99 51 100 52 101 53 102 54 103
REMARK H PARENT 75 59 45 70
REMARK Flexibility Score: inf
ROOT
ATOM      1  O   UNL A   1      34.511  34.590  29.935  1.00  0.00    -0.377 OA
ENDROOT
BRANCH   1   2
ATOM      2  C   UNL A   1      33.792  34.886  31.117  1.00  0.00     0.188 C 
BRANCH   2   3
ATOM      3  C   UNL A   1      34.518  34.496  32.422  1.00  0.00     0.188 C 
BRANCH   3   4
ATOM      4  O   UNL A   1      34.895  33.159  32.743  1.00  0.00    -0.376 OA
BRANCH   4   5
ATOM      5  C   UNL A   1      36.051  32.603  32.147  1.00  0.00     0.202 C 
BRANCH   5   6
ATOM      6  C   UNL A   1      37.363  33.373  32.375  1.00  0.00     0.261 C 
BRANCH   6   7
ATOM      7  O   UNL A   1      38.242  32.827  33.384  1.00  0.00    -0.463 OA
BRANCH   7   8
ATOM      8  C   UNL A   1      39.552  32.728  33.047  1.00  0.00     0.310 C 
ATOM      9  O   UNL A   1      40.474  32.935  33.836  1.00  0.00    -0.252 OA
BRANCH   8  10
ATOM     10  C   UNL A   1      39.844  32.424  31.589  1.00  0.00     0.160 C 
BRANCH  10  11
ATOM     11  C   UNL A   1      40.866  33.211  30.799  1.00  0.00    -0.015 A 
ATOM     12  C   UNL A   1      39.409  35.024  29.583  1.00  0.00     0.065 C 
ATOM     13  C   UNL A   1      40.661  34.295  29.940  1.00  0.00     0.024 A 
ATOM     14  N   UNL A   1      41.882  34.633  29.367  1.00  0.00    -0.313 N 
ATOM     15  C   UNL A   1      42.232  32.828  30.620  1.00  0.00     0.033 A 
ATOM     16  C   UNL A   1      42.815  33.657  29.676  1.00  0.00     0.053 A 
BRANCH  14  17
ATOM     17  C   UNL A   1      42.153  35.770  28.572  1.00  0.00     0.049 A 
ATOM     18  C   UNL A   1      42.237  35.658  27.181  1.00  0.00     0.027 A 
ATOM     19  C   UNL A   1      42.501  36.957  29.221  1.00  0.00     0.065 A 
ATOM     20  C   UNL A   1      42.660  36.762  26.433  1.00  0.00     0.005 A 
ATOM     21  C   UNL A   1      42.916  38.040  28.460  1.00  0.00     0.125 A 
ATOM     22  C   UNL A   1      43.000  37.957  27.074  1.00  0.00     0.039 A 
ATOM     23  F   UNL A   1      43.264  39.178  29.075  1.00  0.00    -0.207 F 
ENDBRANCH  14  17
BRANCH  16  24
ATOM     24  C   UNL A   1      44.105  33.528  28.993  1.00  0.00    -0.001 A 
ATOM     25  C   UNL A   1      45.252  34.187  29.453  1.00  0.00     0.011 A 
ATOM     26  C   UNL A   1      44.178  32.765  27.818  1.00  0.00     0.011 A 
ATOM     27  C   UNL A   1      46.457  34.087  28.749  1.00  0.00     0.021 A 
ATOM     28  C   UNL A   1      45.378  32.661  27.109  1.00  0.00     0.021 A 
ATOM     29  C   UNL A   1      46.513  33.327  27.580  1.00  0.00     0.067 A 
BRANCH  29  30
ATOM     30  S   UNL A   1      48.052  33.131  26.708  1.00  0.00     0.175 S 
ATOM     31  C   UNL A   1      49.297  33.647  27.862  1.00  0.00     0.163 C 
ATOM     32  O   UNL A   1      48.209  31.681  26.486  1.00  0.00    -0.224 OA
ATOM     33  O   UNL A   1      48.060  34.039  25.611  1.00  0.00    -0.224 OA
ENDBRANCH  29  30
ENDBRANCH  16  24
ENDBRANCH  10  11
ENDBRANCH   8  10
ENDBRANCH   7   8
ENDBRANCH   6   7
ENDBRANCH   5   6
ENDBRANCH   4   5
ENDBRANCH   3   4
ENDBRANCH   2   3
ENDBRANCH   1   2
BRANCH   1  34
ATOM     34  C   UNL A   1      34.270  33.328  29.328  1.00  0.00     0.188 C 
BRANCH  34  35
ATOM     35  C   UNL A   1      34.699  33.299  27.863  1.00  0.00     0.188 C 
BRANCH  35  36
ATOM     36  O   UNL A   1      36.059  32.949  27.649  1.00  0.00    -0.376 OA
BRANCH  36  37
ATOM     37  C   UNL A   1      36.585  31.888  28.448  1.00  0.00     0.202 C 
BRANCH  37  38
ATOM     38  C   UNL A   1      36.712  30.420  27.887  1.00  0.00     0.261 C 
BRANCH  38  39
ATOM     39  O   UNL A   1      36.662  29.176  28.722  1.00  0.00    -0.460 OA
BRANCH  39  40
ATOM     40  C   UNL A   1      37.169  29.213  30.033  1.00  0.00     0.338 C 
ATOM     41  O   UNL A   1      36.399  29.232  30.988  1.00  0.00    -0.246 OA
BRANCH  40  42
ATOM     42  C   UNL A   1      38.740  29.211  30.272  1.00  0.00     0.060 A 
ATOM     43  C   UNL A   1      39.802  29.420  29.330  1.00  0.00     0.016 A 
ATOM     44  C   UNL A   1      39.279  28.949  31.486  1.00  0.00     0.016 A 
ATOM     45  C   UNL A   1      41.372  29.406  29.608  1.00  0.00     0.010 A 
ATOM     46  C   UNL A   1      40.756  28.972  31.677  1.00  0.00     0.010 A 
ATOM     47  C   UNL A   1      41.999  29.133  30.852  1.00  0.00    -0.014 A 
BRANCH  47  48
ATOM     48  C   UNL A   1      43.631  29.790  31.506  1.00  0.00     0.031 A 
ATOM     49  C   UNL A   1      43.473  29.230  32.905  1.00  0.00     0.074 A 
ATOM     50  C   UNL A   1      45.119  30.168  31.225  1.00  0.00     0.049 A 
ATOM     51  N   UNL A   1      42.867  28.061  32.894  1.00  0.00    -0.248 NA
ATOM     52  C   UNL A   1      44.495  29.208  33.938  1.00  0.00     0.031 C 
ATOM     53  C   UNL A   1      45.893  30.450  29.936  1.00  0.00     0.029 A 
ATOM     54  N   UNL A   1      46.412  30.248  32.101  1.00  0.00    -0.354 N 
ATOM     55  C   UNL A   1      43.996  27.314  32.716  1.00  0.00     0.074 A 
ATOM     56  C   UNL A   1      44.769  27.892  33.852  1.00  0.00     0.031 C 
ATOM     57  C   UNL A   1      47.266  30.574  30.058  1.00  0.00     0.029 A 
ATOM     58  C   UNL A   1      47.781  30.448  31.436  1.00  0.00     0.049 A 
ATOM     59  H   UNL A   1      46.348  30.170  33.081  1.00  0.00     0.167 HD
ATOM     60  C   UNL A   1      44.565  26.893  31.505  1.00  0.00     0.031 A 
ATOM     61  C   UNL A   1      49.173  30.324  31.915  1.00  0.00     0.031 A 
ATOM     62  C   UNL A   1      45.787  26.287  31.769  1.00  0.00     0.049 A 
ATOM     63  C   UNL A   1      49.252  28.847  31.670  1.00  0.00     0.074 A 
ATOM     64  C   UNL A   1      46.376  25.507  32.721  1.00  0.00     0.029 A 
ATOM     65  N   UNL A   1      46.746  26.746  30.960  1.00  0.00    -0.354 N 
ATOM     66  N   UNL A   1      49.492  28.373  30.475  1.00  0.00    -0.248 NA
ATOM     67  C   UNL A   1      49.532  27.934  32.793  1.00  0.00     0.031 C 
ATOM     68  C   UNL A   1      47.666  25.252  32.213  1.00  0.00     0.029 A 
ATOM     69  C   UNL A   1      47.771  25.863  30.957  1.00  0.00     0.049 A 
ATOM     70  H   UNL A   1      46.713  27.587  30.452  1.00  0.00     0.167 HD
ATOM     71  C   UNL A   1      49.677  27.024  30.670  1.00  0.00     0.074 A 
ATOM     72  C   UNL A   1      49.980  26.880  32.099  1.00  0.00     0.031 C 
ATOM     73  C   UNL A   1      48.778  26.250  30.007  1.00  0.00     0.031 A 
BRANCH  60  74
ATOM     74  C   UNL A   1      44.229  26.961  29.830  1.00  0.00    -0.014 A 
ATOM     75  C   UNL A   1      44.809  27.832  28.853  1.00  0.00     0.010 A 
ATOM     76  C   UNL A   1      43.177  26.204  29.286  1.00  0.00     0.010 A 
ATOM     77  C   UNL A   1      44.278  28.145  27.581  1.00  0.00     0.020 A 
ATOM     78  C   UNL A   1      42.621  26.490  27.993  1.00  0.00     0.020 A 
ATOM     79  C   UNL A   1      43.117  27.529  27.195  1.00  0.00     0.054 A 
BRANCH  79  80
ATOM     80  S   UNL A   1      42.189  28.197  25.776  1.00  0.00     0.124 S 
ATOM     81  O   UNL A   1      42.401  29.636  25.937  1.00  0.00    -0.237 OA
ATOM     82  O   UNL A   1      42.849  27.618  24.607  1.00  0.00    -0.237 OA
ATOM     83  O   UNL A   1      40.825  27.744  26.020  1.00  0.00    -0.744 OA
ENDBRANCH  79  80
ENDBRANCH  60  74
BRANCH  61  84
ATOM     84  C   UNL A   1      50.957  30.533  31.877  1.00  0.00    -0.014 A 
ATOM     85  C   UNL A   1      51.820  30.930  30.826  1.00  0.00     0.010 A 
ATOM     86  C   UNL A   1      51.742  30.644  33.112  1.00  0.00     0.010 A 
ATOM     87  C   UNL A   1      53.191  31.498  31.045  1.00  0.00     0.020 A 
ATOM     88  C   UNL A   1      52.999  31.269  33.369  1.00  0.00     0.020 A 
ATOM     89  C   UNL A   1      53.735  31.733  32.321  1.00  0.00     0.054 A 
BRANCH  89  90
ATOM     90  S   UNL A   1      55.269  32.687  32.700  1.00  0.00     0.124 S 
ATOM     91  O   UNL A   1      55.042  33.175  34.058  1.00  0.00    -0.237 OA
ATOM     92  O   UNL A   1      56.330  31.693  32.558  1.00  0.00    -0.237 OA
ATOM     93  O   UNL A   1      55.286  33.732  31.673  1.00  0.00    -0.744 OA
ENDBRANCH  89  90
ENDBRANCH  61  84
BRANCH  73  94
ATOM     94  C   UNL A   1      48.539  26.728  28.555  1.00  0.00    -0.014 A 
ATOM     95  C   UNL A   1      47.625  26.000  27.779  1.00  0.00     0.010 A 
ATOM     96  C   UNL A   1      49.267  27.727  27.864  1.00  0.00     0.010 A 
ATOM     97  C   UNL A   1      47.479  26.226  26.398  1.00  0.00     0.020 A 
ATOM     98  C   UNL A   1      49.147  27.957  26.483  1.00  0.00     0.020 A 
ATOM     99  C   UNL A   1      48.248  27.196  25.753  1.00  0.00     0.054 A 
BRANCH  99 100
ATOM    100  S   UNL A   1      48.149  27.384  23.952  1.00  0.00     0.124 S 
ATOM    101  O   UNL A   1      47.042  28.324  23.778  1.00  0.00    -0.237 OA
ATOM    102  O   UNL A   1      49.467  27.920  23.624  1.00  0.00    -0.237 OA
ATOM    103  O   UNL A   1      47.872  26.030  23.478  1.00  0.00    -0.744 OA
ENDBRANCH  99 100
ENDBRANCH  73  94
ENDBRANCH  47  48
ENDBRANCH  40  42
ENDBRANCH  39  40
ENDBRANCH  38  39
ENDBRANCH  37  38
ENDBRANCH  36  37
ENDBRANCH  35  36
ENDBRANCH  34  35
ENDBRANCH   1  34
TORSDOF 27
ENDMDL
