MODEL 1
REMARK VINA RESULT:      -7.2      0.000      0.000
REMARK SMILES Cc1cc(N2CC[NH+]([C@@H](C(=O)OCCOCCOCCOCCOC(=O)c3ccc(-c4c5nc(c(-c6ccc(S(=O)(=O)[O-])cc6)c6ccc([nH]6)c(-c6ccc(S(=O)(=O)[O-])cc6)c6nc(c(-c7ccc(S(=O)(=O)[O-])cc7)c7ccc4[nH]7)C=C6)C=C5)cc3)c3c[nH]c4ccccc34)CC2)nc2ccccc12
REMARK SMILES IDX 19 1 18 2 17 3 16 4 15 5 14 6 13 7 12 8 10 9 11 10 9 11 8 12
REMARK SMILES IDX 5 13 6 14 97 15 7 16 96 17 4 19 1 20 2 21 3 22 104 23 99 24
REMARK SMILES IDX 103 25 98 26 100 27 102 28 101 29 87 30 88 31 95 32 89 33
REMARK SMILES IDX 90 34 94 35 91 37 93 38 92 39 20 40 21 41 22 42 23 43 24 44
REMARK SMILES IDX 25 45 26 46 27 47 28 48 86 49 29 50 85 51 30 52 31 53 32 54
REMARK SMILES IDX 79 55 33 56 84 57 78 58 80 59 34 60 83 61 77 62 76 63 35 65
REMARK SMILES IDX 65 66 46 67 64 68 47 69 50 70 63 71 81 72 48 73 49 74 62 76
REMARK SMILES IDX 82 77 51 78 36 79 37 80 45 81 38 82 44 83 39 84 40 85 41 86
REMARK SMILES IDX 42 87 43 88 66 89 67 90 75 91 68 92 74 93 69 94 70 95 71 96
REMARK SMILES IDX 72 97 73 98 52 99 53 100 61 101 54 102 60 103 55 104 56 105
REMARK SMILES IDX 57 106 58 107 59 108
REMARK H PARENT 8 18 89 36 80 64 50 75
REMARK Flexibility Score: inf
ROOT
ATOM      1  C   UNL A   1      41.154  33.857  30.601  1.00  0.00     0.188 C 
ENDROOT
BRANCH   1   2
ATOM      2  O   UNL A   1      42.067  34.627  29.859  1.00  0.00    -0.377 OA
BRANCH   2   3
ATOM      3  C   UNL A   1      41.418  35.257  28.789  1.00  0.00     0.188 C 
BRANCH   3   4
ATOM      4  C   UNL A   1      42.295  35.973  27.770  1.00  0.00     0.188 C 
BRANCH   4   5
ATOM      5  O   UNL A   1      43.591  36.363  28.177  1.00  0.00    -0.376 OA
BRANCH   5   6
ATOM      6  C   UNL A   1      43.828  37.753  28.411  1.00  0.00     0.202 C 
BRANCH   6   7
ATOM      7  C   UNL A   1      43.296  38.459  29.678  1.00  0.00     0.261 C 
BRANCH   7   8
ATOM      8  O   UNL A   1      43.951  39.708  30.022  1.00  0.00    -0.459 OA
BRANCH   8   9
ATOM      9  C   UNL A   1      43.344  40.882  29.696  1.00  0.00     0.370 C 
ATOM     10  O   UNL A   1      42.161  40.935  29.360  1.00  0.00    -0.245 OA
BRANCH   9  11
ATOM     11  C   UNL A   1      44.254  42.146  29.751  1.00  0.00     0.328 C 
BRANCH  11  12
ATOM     12  N   UNL A   1      45.015  42.566  28.489  1.00  0.00    -0.316 N 
ATOM     13  N   UNL A   1      46.811  40.361  27.820  1.00  0.00    -0.345 N 
ATOM     14  C   UNL A   1      47.144  41.360  28.796  1.00  0.00     0.179 C 
ATOM     15  C   UNL A   1      45.567  40.423  27.051  1.00  0.00     0.179 C 
ATOM     16  C   UNL A   1      46.472  42.678  28.500  1.00  0.00     0.285 C 
ATOM     17  C   UNL A   1      44.724  41.733  27.285  1.00  0.00     0.285 C 
ATOM     18  H   UNL A   1      44.631  43.511  28.458  1.00  0.00     0.349 HD
BRANCH  13  19
ATOM     19  C   UNL A   1      47.719  39.325  27.636  1.00  0.00     0.129 A 
ATOM     20  C   UNL A   1      51.822  39.414  28.173  1.00  0.00     0.045 C 
ATOM     21  C   UNL A   1      50.546  38.560  27.657  1.00  0.00    -0.038 A 
ATOM     22  C   UNL A   1      49.281  39.762  27.938  1.00  0.00     0.051 A 
ATOM     23  C   UNL A   1      50.077  36.665  27.004  1.00  0.00     0.003 A 
ATOM     24  C   UNL A   1      48.339  36.430  26.639  1.00  0.00     0.073 A 
ATOM     25  C   UNL A   1      50.599  35.255  26.674  1.00  0.00     0.010 A 
ATOM     26  N   UNL A   1      47.262  37.760  27.058  1.00  0.00    -0.231 NA
ATOM     27  C   UNL A   1      47.935  35.295  25.892  1.00  0.00     0.029 A 
ATOM     28  C   UNL A   1      50.009  34.142  26.038  1.00  0.00     0.001 A 
ATOM     29  C   UNL A   1      48.718  34.192  25.593  1.00  0.00     0.002 A 
ENDBRANCH  13  19
ENDBRANCH  11  12
BRANCH  11  30
ATOM     30  C   UNL A   1      44.542  42.848  31.187  1.00  0.00     0.046 A 
ATOM     31  C   UNL A   1      45.437  42.235  32.083  1.00  0.00     0.094 A 
ATOM     32  C   UNL A   1      43.729  43.498  32.231  1.00  0.00     0.009 A 
ATOM     33  N   UNL A   1      44.452  41.536  32.814  1.00  0.00    -0.361 N 
ATOM     34  C   UNL A   1      43.480  42.463  33.135  1.00  0.00     0.046 A 
ATOM     35  C   UNL A   1      43.295  44.787  32.652  1.00  0.00     0.011 A 
ATOM     36  H   UNL A   1      44.458  40.580  33.048  1.00  0.00     0.166 HD
ATOM     37  C   UNL A   1      42.478  42.498  34.106  1.00  0.00     0.026 A 
ATOM     38  C   UNL A   1      42.421  44.903  33.754  1.00  0.00     0.001 A 
ATOM     39  C   UNL A   1      41.972  43.762  34.424  1.00  0.00     0.002 A 
ENDBRANCH  11  30
ENDBRANCH   9  11
ENDBRANCH   8   9
ENDBRANCH   7   8
ENDBRANCH   6   7
ENDBRANCH   5   6
ENDBRANCH   4   5
ENDBRANCH   3   4
ENDBRANCH   2   3
ENDBRANCH   1   2
BRANCH   1  40
ATOM     40  C   UNL A   1      39.665  33.891  30.145  1.00  0.00     0.188 C 
BRANCH  40  41
ATOM     41  O   UNL A   1      38.814  32.756  30.122  1.00  0.00    -0.376 OA
BRANCH  41  42
ATOM     42  C   UNL A   1      37.615  32.877  29.366  1.00  0.00     0.202 C 
BRANCH  42  43
ATOM     43  C   UNL A   1      36.621  31.734  29.109  1.00  0.00     0.261 C 
BRANCH  43  44
ATOM     44  O   UNL A   1      37.014  30.535  29.787  1.00  0.00    -0.460 OA
BRANCH  44  45
ATOM     45  C   UNL A   1      37.027  29.464  28.984  1.00  0.00     0.338 C 
ATOM     46  O   UNL A   1      36.034  28.997  28.435  1.00  0.00    -0.246 OA
BRANCH  45  47
ATOM     47  C   UNL A   1      38.413  28.772  28.854  1.00  0.00     0.060 A 
ATOM     48  C   UNL A   1      39.877  28.195  30.138  1.00  0.00     0.016 A 
ATOM     49  C   UNL A   1      38.923  29.398  27.250  1.00  0.00     0.016 A 
ATOM     50  C   UNL A   1      41.548  28.460  29.724  1.00  0.00     0.010 A 
ATOM     51  C   UNL A   1      40.638  29.492  26.920  1.00  0.00     0.010 A 
ATOM     52  C   UNL A   1      41.903  29.040  28.118  1.00  0.00    -0.014 A 
BRANCH  52  53
ATOM     53  C   UNL A   1      43.319  28.930  27.739  1.00  0.00     0.031 A 
ATOM     54  C   UNL A   1      43.771  27.680  27.070  1.00  0.00     0.074 A 
ATOM     55  C   UNL A   1      44.143  29.946  28.093  1.00  0.00     0.049 A 
ATOM     56  N   UNL A   1      44.987  27.300  26.814  1.00  0.00    -0.248 NA
ATOM     57  C   UNL A   1      42.768  26.664  26.722  1.00  0.00     0.031 C 
ATOM     58  C   UNL A   1      43.788  31.157  28.866  1.00  0.00     0.029 A 
ATOM     59  N   UNL A   1      45.468  30.156  27.843  1.00  0.00    -0.354 N 
ATOM     60  C   UNL A   1      44.866  25.999  26.351  1.00  0.00     0.074 A 
ATOM     61  C   UNL A   1      43.496  25.615  26.423  1.00  0.00     0.031 C 
ATOM     62  C   UNL A   1      44.774  32.052  28.827  1.00  0.00     0.029 A 
ATOM     63  C   UNL A   1      45.929  31.372  28.301  1.00  0.00     0.049 A 
ATOM     64  H   UNL A   1      46.040  29.501  27.381  1.00  0.00     0.167 HD
ATOM     65  C   UNL A   1      45.832  25.175  25.917  1.00  0.00     0.031 A 
ATOM     66  C   UNL A   1      47.177  31.851  28.401  1.00  0.00     0.031 A 
ATOM     67  C   UNL A   1      47.195  25.581  25.951  1.00  0.00     0.049 A 
ATOM     68  C   UNL A   1      48.240  30.905  27.968  1.00  0.00     0.074 A 
ATOM     69  C   UNL A   1      48.313  24.875  25.579  1.00  0.00     0.029 A 
ATOM     70  N   UNL A   1      47.611  26.819  26.431  1.00  0.00    -0.354 N 
ATOM     71  N   UNL A   1      48.099  29.680  27.511  1.00  0.00    -0.248 NA
ATOM     72  C   UNL A   1      49.616  31.374  28.073  1.00  0.00     0.031 C 
ATOM     73  C   UNL A   1      49.417  25.657  25.919  1.00  0.00     0.029 A 
ATOM     74  C   UNL A   1      48.982  26.891  26.395  1.00  0.00     0.049 A 
ATOM     75  H   UNL A   1      47.014  27.535  26.746  1.00  0.00     0.167 HD
ATOM     76  C   UNL A   1      49.375  29.232  27.241  1.00  0.00     0.074 A 
ATOM     77  C   UNL A   1      50.268  30.332  27.576  1.00  0.00     0.031 C 
ATOM     78  C   UNL A   1      49.782  28.034  26.758  1.00  0.00     0.031 A 
BRANCH  65  79
ATOM     79  C   UNL A   1      45.406  23.791  25.521  1.00  0.00    -0.014 A 
ATOM     80  C   UNL A   1      45.207  22.772  26.478  1.00  0.00     0.010 A 
ATOM     81  C   UNL A   1      45.337  23.470  24.157  1.00  0.00     0.010 A 
ATOM     82  C   UNL A   1      44.985  21.455  26.074  1.00  0.00     0.020 A 
ATOM     83  C   UNL A   1      45.066  22.163  23.749  1.00  0.00     0.020 A 
ATOM     84  C   UNL A   1      44.902  21.163  24.709  1.00  0.00     0.054 A 
BRANCH  84  85
ATOM     85  S   UNL A   1      44.529  19.462  24.213  1.00  0.00     0.124 S 
ATOM     86  O   UNL A   1      43.274  19.207  24.915  1.00  0.00    -0.237 OA
ATOM     87  O   UNL A   1      44.425  19.577  22.761  1.00  0.00    -0.237 OA
ATOM     88  O   UNL A   1      45.679  18.702  24.695  1.00  0.00    -0.744 OA
ENDBRANCH  84  85
ENDBRANCH  65  79
BRANCH  66  89
ATOM     89  C   UNL A   1      47.434  33.196  28.986  1.00  0.00    -0.014 A 
ATOM     90  C   UNL A   1      46.380  34.104  29.173  1.00  0.00     0.010 A 
ATOM     91  C   UNL A   1      48.720  33.548  29.452  1.00  0.00     0.010 A 
ATOM     92  C   UNL A   1      46.605  35.334  29.800  1.00  0.00     0.020 A 
ATOM     93  C   UNL A   1      48.940  34.758  30.117  1.00  0.00     0.020 A 
ATOM     94  C   UNL A   1      47.880  35.649  30.277  1.00  0.00     0.054 A 
BRANCH  94  95
ATOM     95  S   UNL A   1      48.126  37.227  31.138  1.00  0.00     0.124 S 
ATOM     96  O   UNL A   1      47.092  38.064  30.541  1.00  0.00    -0.237 OA
ATOM     97  O   UNL A   1      47.913  36.855  32.535  1.00  0.00    -0.237 OA
ATOM     98  O   UNL A   1      49.501  37.592  30.800  1.00  0.00    -0.744 OA
ENDBRANCH  94  95
ENDBRANCH  66  89
BRANCH  78  99
ATOM     99  C   UNL A   1      51.243  27.901  26.505  1.00  0.00    -0.014 A 
ATOM    100  C   UNL A   1      51.867  28.596  25.461  1.00  0.00     0.010 A 
ATOM    101  C   UNL A   1      51.998  27.128  27.403  1.00  0.00     0.010 A 
ATOM    102  C   UNL A   1      53.241  28.490  25.297  1.00  0.00     0.020 A 
ATOM    103  C   UNL A   1      53.378  27.067  27.275  1.00  0.00     0.020 A 
ATOM    104  C   UNL A   1      53.987  27.736  26.213  1.00  0.00     0.054 A 
BRANCH 104 105
ATOM    105  S   UNL A   1      55.780  27.676  26.014  1.00  0.00     0.124 S 
ATOM    106  O   UNL A   1      55.932  26.642  24.994  1.00  0.00    -0.237 OA
ATOM    107  O   UNL A   1      56.093  29.037  25.588  1.00  0.00    -0.237 OA
ATOM    108  O   UNL A   1      56.262  27.315  27.344  1.00  0.00    -0.744 OA
ENDBRANCH 104 105
ENDBRANCH  78  99
ENDBRANCH  52  53
ENDBRANCH  45  47
ENDBRANCH  44  45
ENDBRANCH  43  44
ENDBRANCH  42  43
ENDBRANCH  41  42
ENDBRANCH  40  41
ENDBRANCH   1  40
TORSDOF 26
ENDMDL
MODEL 2
REMARK VINA RESULT:      -7.0      6.106     13.349
REMARK SMILES Cc1cc(N2CC[NH+]([C@@H](C(=O)OCCOCCOCCOCCOC(=O)c3ccc(-c4c5nc(c(-c6ccc(S(=O)(=O)[O-])cc6)c6ccc([nH]6)c(-c6ccc(S(=O)(=O)[O-])cc6)c6nc(c(-c7ccc(S(=O)(=O)[O-])cc7)c7ccc4[nH]7)C=C6)C=C5)cc3)c3c[nH]c4ccccc34)CC2)nc2ccccc12
REMARK SMILES IDX 19 1 18 2 17 3 16 4 15 5 14 6 13 7 12 8 10 9 11 10 9 11 8 12
REMARK SMILES IDX 5 13 6 14 97 15 7 16 96 17 4 19 1 20 2 21 3 22 104 23 99 24
REMARK SMILES IDX 103 25 98 26 100 27 102 28 101 29 87 30 88 31 95 32 89 33
REMARK SMILES IDX 90 34 94 35 91 37 93 38 92 39 20 40 21 41 22 42 23 43 24 44
REMARK SMILES IDX 25 45 26 46 27 47 28 48 86 49 29 50 85 51 30 52 31 53 32 54
REMARK SMILES IDX 79 55 33 56 84 57 78 58 80 59 34 60 83 61 77 62 76 63 35 65
REMARK SMILES IDX 65 66 46 67 64 68 47 69 50 70 63 71 81 72 48 73 49 74 62 76
REMARK SMILES IDX 82 77 51 78 36 79 37 80 45 81 38 82 44 83 39 84 40 85 41 86
REMARK SMILES IDX 42 87 43 88 66 89 67 90 75 91 68 92 74 93 69 94 70 95 71 96
REMARK SMILES IDX 72 97 73 98 52 99 53 100 61 101 54 102 60 103 55 104 56 105
REMARK SMILES IDX 57 106 58 107 59 108
REMARK H PARENT 8 18 89 36 80 64 50 75
REMARK Flexibility Score: inf
ROOT
ATOM      1  C   UNL A   1      52.746  26.835  31.084  1.00  0.00     0.188 C 
ENDROOT
BRANCH   1   2
ATOM      2  O   UNL A   1      52.877  26.393  29.756  1.00  0.00    -0.377 OA
BRANCH   2   3
ATOM      3  C   UNL A   1      52.256  27.292  28.879  1.00  0.00     0.188 C 
BRANCH   3   4
ATOM      4  C   UNL A   1      51.656  26.715  27.604  1.00  0.00     0.188 C 
BRANCH   4   5
ATOM      5  O   UNL A   1      50.264  26.472  27.584  1.00  0.00    -0.376 OA
BRANCH   5   6
ATOM      6  C   UNL A   1      49.410  27.416  28.234  1.00  0.00     0.202 C 
BRANCH   6   7
ATOM      7  C   UNL A   1      47.890  27.173  28.361  1.00  0.00     0.261 C 
BRANCH   7   8
ATOM      8  O   UNL A   1      47.048  28.334  28.126  1.00  0.00    -0.459 OA
BRANCH   8   9
ATOM      9  C   UNL A   1      46.449  28.479  26.913  1.00  0.00     0.370 C 
ATOM     10  O   UNL A   1      47.097  28.656  25.880  1.00  0.00    -0.245 OA
BRANCH   9  11
ATOM     11  C   UNL A   1      44.891  28.433  26.924  1.00  0.00     0.328 C 
BRANCH  11  12
ATOM     12  N   UNL A   1      44.114  29.746  27.074  1.00  0.00    -0.316 N 
ATOM     13  N   UNL A   1      45.296  31.167  29.335  1.00  0.00    -0.345 N 
ATOM     14  C   UNL A   1      44.310  30.137  29.501  1.00  0.00     0.179 C 
ATOM     15  C   UNL A   1      45.727  31.613  28.009  1.00  0.00     0.179 C 
ATOM     16  C   UNL A   1      43.391  30.046  28.308  1.00  0.00     0.285 C 
ATOM     17  C   UNL A   1      44.919  30.976  26.817  1.00  0.00     0.285 C 
ATOM     18  H   UNL A   1      43.423  29.528  26.355  1.00  0.00     0.349 HD
BRANCH  13  19
ATOM     19  C   UNL A   1      45.833  31.725  30.490  1.00  0.00     0.129 A 
ATOM     20  C   UNL A   1      49.605  31.128  32.085  1.00  0.00     0.045 C 
ATOM     21  C   UNL A   1      48.143  31.792  32.290  1.00  0.00    -0.038 A 
ATOM     22  C   UNL A   1      47.374  31.224  30.803  1.00  0.00     0.051 A 
ATOM     23  C   UNL A   1      47.154  33.064  33.571  1.00  0.00     0.003 A 
ATOM     24  C   UNL A   1      45.460  33.402  33.099  1.00  0.00     0.073 A 
ATOM     25  C   UNL A   1      47.238  33.922  34.847  1.00  0.00     0.010 A 
ATOM     26  N   UNL A   1      44.938  32.768  31.539  1.00  0.00    -0.231 NA
ATOM     27  C   UNL A   1      44.582  33.993  34.042  1.00  0.00     0.029 A 
ATOM     28  C   UNL A   1      46.262  34.594  35.613  1.00  0.00     0.001 A 
ATOM     29  C   UNL A   1      44.945  34.567  35.250  1.00  0.00     0.002 A 
ENDBRANCH  13  19
ENDBRANCH  11  12
BRANCH  11  30
ATOM     30  C   UNL A   1      44.145  26.993  26.999  1.00  0.00     0.046 A 
ATOM     31  C   UNL A   1      43.770  26.479  28.254  1.00  0.00     0.094 A 
ATOM     32  C   UNL A   1      44.317  25.676  26.359  1.00  0.00     0.009 A 
ATOM     33  N   UNL A   1      44.930  25.697  28.441  1.00  0.00    -0.361 N 
ATOM     34  C   UNL A   1      45.099  24.972  27.278  1.00  0.00     0.046 A 
ATOM     35  C   UNL A   1      43.834  24.908  25.261  1.00  0.00     0.011 A 
ATOM     36  H   UNL A   1      45.503  25.673  29.242  1.00  0.00     0.166 HD
ATOM     37  C   UNL A   1      45.804  23.806  26.973  1.00  0.00     0.026 A 
ATOM     38  C   UNL A   1      44.381  23.632  25.009  1.00  0.00     0.001 A 
ATOM     39  C   UNL A   1      45.399  23.125  25.821  1.00  0.00     0.002 A 
ENDBRANCH  11  30
ENDBRANCH   9  11
ENDBRANCH   8   9
ENDBRANCH   7   8
ENDBRANCH   6   7
ENDBRANCH   5   6
ENDBRANCH   4   5
ENDBRANCH   3   4
ENDBRANCH   2   3
ENDBRANCH   1   2
BRANCH   1  40
ATOM     40  C   UNL A   1      51.332  27.299  31.540  1.00  0.00     0.188 C 
BRANCH  40  41
ATOM     41  O   UNL A   1      50.662  26.804  32.688  1.00  0.00    -0.376 OA
BRANCH  41  42
ATOM     42  C   UNL A   1      51.053  27.355  33.939  1.00  0.00     0.202 C 
BRANCH  42  43
ATOM     43  C   UNL A   1      50.153  28.215  34.839  1.00  0.00     0.261 C 
BRANCH  43  44
ATOM     44  O   UNL A   1      49.650  27.463  35.950  1.00  0.00    -0.460 OA
BRANCH  44  45
ATOM     45  C   UNL A   1      48.801  26.495  35.582  1.00  0.00     0.338 C 
ATOM     46  O   UNL A   1      48.990  25.298  35.771  1.00  0.00    -0.246 OA
BRANCH  45  47
ATOM     47  C   UNL A   1      47.557  26.994  34.794  1.00  0.00     0.060 A 
ATOM     48  C   UNL A   1      47.184  28.463  33.443  1.00  0.00     0.016 A 
ATOM     49  C   UNL A   1      46.267  26.625  35.986  1.00  0.00     0.016 A 
ATOM     50  C   UNL A   1      45.726  29.408  33.568  1.00  0.00     0.010 A 
ATOM     51  C   UNL A   1      44.798  27.571  35.917  1.00  0.00     0.010 A 
ATOM     52  C   UNL A   1      44.541  28.917  34.748  1.00  0.00    -0.014 A 
BRANCH  52  53
ATOM     53  C   UNL A   1      43.224  29.547  34.577  1.00  0.00     0.031 A 
ATOM     54  C   UNL A   1      42.338  29.037  33.496  1.00  0.00     0.074 A 
ATOM     55  C   UNL A   1      42.930  30.609  35.366  1.00  0.00     0.049 A 
ATOM     56  N   UNL A   1      41.228  29.552  33.057  1.00  0.00    -0.248 NA
ATOM     57  C   UNL A   1      42.769  27.863  32.725  1.00  0.00     0.031 C 
ATOM     58  C   UNL A   1      43.809  31.245  36.372  1.00  0.00     0.029 A 
ATOM     59  N   UNL A   1      41.794  31.356  35.479  1.00  0.00    -0.354 N 
ATOM     60  C   UNL A   1      40.901  28.798  31.940  1.00  0.00     0.074 A 
ATOM     61  C   UNL A   1      41.938  27.849  31.710  1.00  0.00     0.031 C 
ATOM     62  C   UNL A   1      43.125  32.102  37.128  1.00  0.00     0.029 A 
ATOM     63  C   UNL A   1      41.857  32.306  36.477  1.00  0.00     0.049 A 
ATOM     64  H   UNL A   1      41.006  31.230  34.903  1.00  0.00     0.167 HD
ATOM     65  C   UNL A   1      39.822  28.904  31.149  1.00  0.00     0.031 A 
ATOM     66  C   UNL A   1      41.033  33.322  36.767  1.00  0.00     0.031 A 
ATOM     67  C   UNL A   1      38.863  29.930  31.373  1.00  0.00     0.049 A 
ATOM     68  C   UNL A   1      39.872  33.461  35.847  1.00  0.00     0.074 A 
ATOM     69  C   UNL A   1      37.722  30.212  30.662  1.00  0.00     0.029 A 
ATOM     70  N   UNL A   1      38.975  30.872  32.391  1.00  0.00    -0.354 N 
ATOM     71  N   UNL A   1      39.570  32.719  34.804  1.00  0.00    -0.248 NA
ATOM     72  C   UNL A   1      38.955  34.562  36.112  1.00  0.00     0.031 C 
ATOM     73  C   UNL A   1      37.189  31.385  31.198  1.00  0.00     0.029 A 
ATOM     74  C   UNL A   1      37.934  31.764  32.311  1.00  0.00     0.049 A 
ATOM     75  H   UNL A   1      39.691  30.895  33.066  1.00  0.00     0.167 HD
ATOM     76  C   UNL A   1      38.401  33.244  34.297  1.00  0.00     0.074 A 
ATOM     77  C   UNL A   1      38.051  34.360  35.164  1.00  0.00     0.031 C 
ATOM     78  C   UNL A   1      37.676  32.850  33.223  1.00  0.00     0.031 A 
BRANCH  65  79
ATOM     79  C   UNL A   1      39.760  27.976  29.971  1.00  0.00    -0.014 A 
ATOM     80  C   UNL A   1      39.190  26.688  30.070  1.00  0.00     0.010 A 
ATOM     81  C   UNL A   1      40.405  28.348  28.782  1.00  0.00     0.010 A 
ATOM     82  C   UNL A   1      39.302  25.781  29.015  1.00  0.00     0.020 A 
ATOM     83  C   UNL A   1      40.476  27.461  27.707  1.00  0.00     0.020 A 
ATOM     84  C   UNL A   1      39.933  26.181  27.834  1.00  0.00     0.054 A 
BRANCH  84  85
ATOM     85  S   UNL A   1      39.991  25.015  26.449  1.00  0.00     0.124 S 
ATOM     86  O   UNL A   1      38.580  24.687  26.268  1.00  0.00    -0.237 OA
ATOM     87  O   UNL A   1      40.591  25.821  25.389  1.00  0.00    -0.237 OA
ATOM     88  O   UNL A   1      40.826  23.926  26.950  1.00  0.00    -0.744 OA
ENDBRANCH  84  85
ENDBRANCH  65  79
BRANCH  66  89
ATOM     89  C   UNL A   1      41.343  34.264  37.878  1.00  0.00    -0.014 A 
ATOM     90  C   UNL A   1      42.091  35.427  37.637  1.00  0.00     0.010 A 
ATOM     91  C   UNL A   1      40.812  34.058  39.170  1.00  0.00     0.010 A 
ATOM     92  C   UNL A   1      42.312  36.355  38.661  1.00  0.00     0.020 A 
ATOM     93  C   UNL A   1      40.994  35.003  40.185  1.00  0.00     0.020 A 
ATOM     94  C   UNL A   1      41.753  36.143  39.924  1.00  0.00     0.054 A 
BRANCH  94  95
ATOM     95  S   UNL A   1      42.006  37.394  41.213  1.00  0.00     0.124 S 
ATOM     96  O   UNL A   1      43.196  36.894  41.893  1.00  0.00    -0.237 OA
ATOM     97  O   UNL A   1      42.189  38.614  40.431  1.00  0.00    -0.237 OA
ATOM     98  O   UNL A   1      40.771  37.340  41.992  1.00  0.00    -0.744 OA
ENDBRANCH  94  95
ENDBRANCH  66  89
BRANCH  78  99
ATOM     99  C   UNL A   1      36.406  33.594  32.992  1.00  0.00    -0.014 A 
ATOM    100  C   UNL A   1      35.311  33.450  33.854  1.00  0.00     0.010 A 
ATOM    101  C   UNL A   1      36.369  34.517  31.933  1.00  0.00     0.010 A 
ATOM    102  C   UNL A   1      34.168  34.207  33.636  1.00  0.00     0.020 A 
ATOM    103  C   UNL A   1      35.249  35.315  31.749  1.00  0.00     0.020 A 
ATOM    104  C   UNL A   1      34.151  35.141  32.592  1.00  0.00     0.054 A 
BRANCH 104 105
ATOM    105  S   UNL A   1      32.677  36.160  32.379  1.00  0.00     0.124 S 
ATOM    106  O   UNL A   1      31.633  35.148  32.233  1.00  0.00    -0.237 OA
ATOM    107  O   UNL A   1      32.644  36.928  33.621  1.00  0.00    -0.237 OA
ATOM    108  O   UNL A   1      32.964  36.937  31.176  1.00  0.00    -0.744 OA
ENDBRANCH 104 105
ENDBRANCH  78  99
ENDBRANCH  52  53
ENDBRANCH  45  47
ENDBRANCH  44  45
ENDBRANCH  43  44
ENDBRANCH  42  43
ENDBRANCH  41  42
ENDBRANCH  40  41
ENDBRANCH   1  40
TORSDOF 26
ENDMDL
MODEL 3
REMARK VINA RESULT:      -7.0      8.849     14.393
REMARK SMILES Cc1cc(N2CC[NH+]([C@@H](C(=O)OCCOCCOCCOCCOC(=O)c3ccc(-c4c5nc(c(-c6ccc(S(=O)(=O)[O-])cc6)c6ccc([nH]6)c(-c6ccc(S(=O)(=O)[O-])cc6)c6nc(c(-c7ccc(S(=O)(=O)[O-])cc7)c7ccc4[nH]7)C=C6)C=C5)cc3)c3c[nH]c4ccccc34)CC2)nc2ccccc12
REMARK SMILES IDX 19 1 18 2 17 3 16 4 15 5 14 6 13 7 12 8 10 9 11 10 9 11 8 12
REMARK SMILES IDX 5 13 6 14 97 15 7 16 96 17 4 19 1 20 2 21 3 22 104 23 99 24
REMARK SMILES IDX 103 25 98 26 100 27 102 28 101 29 87 30 88 31 95 32 89 33
REMARK SMILES IDX 90 34 94 35 91 37 93 38 92 39 20 40 21 41 22 42 23 43 24 44
REMARK SMILES IDX 25 45 26 46 27 47 28 48 86 49 29 50 85 51 30 52 31 53 32 54
REMARK SMILES IDX 79 55 33 56 84 57 78 58 80 59 34 60 83 61 77 62 76 63 35 65
REMARK SMILES IDX 65 66 46 67 64 68 47 69 50 70 63 71 81 72 48 73 49 74 62 76
REMARK SMILES IDX 82 77 51 78 36 79 37 80 45 81 38 82 44 83 39 84 40 85 41 86
REMARK SMILES IDX 42 87 43 88 66 89 67 90 75 91 68 92 74 93 69 94 70 95 71 96
REMARK SMILES IDX 72 97 73 98 52 99 53 100 61 101 54 102 60 103 55 104 56 105
REMARK SMILES IDX 57 106 58 107 59 108
REMARK H PARENT 8 18 89 36 80 64 50 75
REMARK Flexibility Score: inf
ROOT
ATOM      1  C   UNL A   1      42.257  28.809  31.305  1.00  0.00     0.188 C 
ENDROOT
BRANCH   1   2
ATOM      2  O   UNL A   1      43.504  29.104  31.882  1.00  0.00    -0.377 OA
BRANCH   2   3
ATOM      3  C   UNL A   1      44.536  28.858  30.967  1.00  0.00     0.188 C 
BRANCH   3   4
ATOM      4  C   UNL A   1      45.314  27.559  31.131  1.00  0.00     0.188 C 
BRANCH   4   5
ATOM      5  O   UNL A   1      46.713  27.601  30.936  1.00  0.00    -0.376 OA
BRANCH   5   6
ATOM      6  C   UNL A   1      47.448  26.385  31.092  1.00  0.00     0.202 C 
BRANCH   6   7
ATOM      7  C   UNL A   1      48.147  25.706  29.893  1.00  0.00     0.261 C 
BRANCH   7   8
ATOM      8  O   UNL A   1      47.531  25.935  28.597  1.00  0.00    -0.459 OA
BRANCH   8   9
ATOM      9  C   UNL A   1      47.644  24.978  27.636  1.00  0.00     0.370 C 
ATOM     10  O   UNL A   1      48.728  24.479  27.334  1.00  0.00    -0.245 OA
BRANCH   9  11
ATOM     11  C   UNL A   1      46.314  24.577  26.929  1.00  0.00     0.328 C 
BRANCH  11  12
ATOM     12  N   UNL A   1      45.764  23.162  27.135  1.00  0.00    -0.316 N 
ATOM     13  N   UNL A   1      42.878  23.313  26.712  1.00  0.00    -0.345 N 
ATOM     14  C   UNL A   1      43.494  23.651  27.964  1.00  0.00     0.179 C 
ATOM     15  C   UNL A   1      43.660  22.809  25.582  1.00  0.00     0.179 C 
ATOM     16  C   UNL A   1      44.778  22.890  28.179  1.00  0.00     0.285 C 
ATOM     17  C   UNL A   1      45.177  22.541  25.911  1.00  0.00     0.285 C 
ATOM     18  H   UNL A   1      46.653  22.759  27.435  1.00  0.00     0.349 HD
BRANCH  13  19
ATOM     19  C   UNL A   1      41.502  23.488  26.613  1.00  0.00     0.129 A 
ATOM     20  C   UNL A   1      39.218  26.590  28.126  1.00  0.00     0.045 C 
ATOM     21  C   UNL A   1      39.218  25.148  27.391  1.00  0.00    -0.038 A 
ATOM     22  C   UNL A   1      40.960  24.852  27.367  1.00  0.00     0.051 A 
ATOM     23  C   UNL A   1      37.913  23.845  26.475  1.00  0.00     0.003 A 
ATOM     24  C   UNL A   1      38.695  22.379  25.807  1.00  0.00     0.073 A 
ATOM     25  C   UNL A   1      36.453  23.558  26.078  1.00  0.00     0.010 A 
ATOM     26  N   UNL A   1      40.456  22.339  25.853  1.00  0.00    -0.231 NA
ATOM     27  C   UNL A   1      37.892  21.270  25.442  1.00  0.00     0.029 A 
ATOM     28  C   UNL A   1      35.809  22.409  25.569  1.00  0.00     0.001 A 
ATOM     29  C   UNL A   1      36.511  21.263  25.323  1.00  0.00     0.002 A 
ENDBRANCH  13  19
ENDBRANCH  11  12
BRANCH  11  30
ATOM     30  C   UNL A   1      45.671  25.585  25.830  1.00  0.00     0.046 A 
ATOM     31  C   UNL A   1      46.514  26.473  25.137  1.00  0.00     0.094 A 
ATOM     32  C   UNL A   1      44.476  26.444  25.750  1.00  0.00     0.009 A 
ATOM     33  N   UNL A   1      46.315  27.567  26.006  1.00  0.00    -0.361 N 
ATOM     34  C   UNL A   1      44.948  27.691  26.162  1.00  0.00     0.046 A 
ATOM     35  C   UNL A   1      43.137  26.433  25.265  1.00  0.00     0.011 A 
ATOM     36  H   UNL A   1      47.011  28.129  26.417  1.00  0.00     0.166 HD
ATOM     37  C   UNL A   1      44.126  28.741  26.577  1.00  0.00     0.026 A 
ATOM     38  C   UNL A   1      42.305  27.551  25.491  1.00  0.00     0.001 A 
ATOM     39  C   UNL A   1      42.783  28.658  26.197  1.00  0.00     0.002 A 
ENDBRANCH  11  30
ENDBRANCH   9  11
ENDBRANCH   8   9
ENDBRANCH   7   8
ENDBRANCH   6   7
ENDBRANCH   5   6
ENDBRANCH   4   5
ENDBRANCH   3   4
ENDBRANCH   2   3
ENDBRANCH   1   2
BRANCH   1  40
ATOM     40  C   UNL A   1      42.060  29.193  29.809  1.00  0.00     0.188 C 
BRANCH  40  41
ATOM     41  O   UNL A   1      40.795  29.341  29.184  1.00  0.00    -0.376 OA
BRANCH  41  42
ATOM     42  C   UNL A   1      40.042  30.494  29.541  1.00  0.00     0.202 C 
BRANCH  42  43
ATOM     43  C   UNL A   1      38.509  30.548  29.627  1.00  0.00     0.261 C 
BRANCH  43  44
ATOM     44  O   UNL A   1      38.044  30.175  30.930  1.00  0.00    -0.460 OA
BRANCH  44  45
ATOM     45  C   UNL A   1      37.661  31.226  31.666  1.00  0.00     0.338 C 
ATOM     46  O   UNL A   1      36.609  31.838  31.506  1.00  0.00    -0.246 OA
BRANCH  45  47
ATOM     47  C   UNL A   1      38.707  31.694  32.716  1.00  0.00     0.060 A 
ATOM     48  C   UNL A   1      40.648  32.290  32.671  1.00  0.00     0.016 A 
ATOM     49  C   UNL A   1      38.173  30.732  34.135  1.00  0.00     0.016 A 
ATOM     50  C   UNL A   1      41.755  31.736  33.897  1.00  0.00     0.010 A 
ATOM     51  C   UNL A   1      39.365  30.354  35.358  1.00  0.00     0.010 A 
ATOM     52  C   UNL A   1      41.095  30.839  35.238  1.00  0.00    -0.014 A 
BRANCH  52  53
ATOM     53  C   UNL A   1      42.017  30.691  36.374  1.00  0.00     0.031 A 
ATOM     54  C   UNL A   1      42.912  29.503  36.400  1.00  0.00     0.074 A 
ATOM     55  C   UNL A   1      41.938  31.608  37.368  1.00  0.00     0.049 A 
ATOM     56  N   UNL A   1      43.663  29.084  37.375  1.00  0.00    -0.248 NA
ATOM     57  C   UNL A   1      42.913  28.595  35.245  1.00  0.00     0.031 C 
ATOM     58  C   UNL A   1      40.990  32.741  37.468  1.00  0.00     0.029 A 
ATOM     59  N   UNL A   1      42.678  31.768  38.504  1.00  0.00    -0.354 N 
ATOM     60  C   UNL A   1      44.146  27.855  36.952  1.00  0.00     0.074 A 
ATOM     61  C   UNL A   1      43.565  27.547  35.689  1.00  0.00     0.031 C 
ATOM     62  C   UNL A   1      41.345  33.574  38.444  1.00  0.00     0.029 A 
ATOM     63  C   UNL A   1      42.343  32.894  39.226  1.00  0.00     0.049 A 
ATOM     64  H   UNL A   1      43.383  31.139  38.780  1.00  0.00     0.167 HD
ATOM     65  C   UNL A   1      44.997  27.032  37.583  1.00  0.00     0.031 A 
ATOM     66  C   UNL A   1      42.711  33.283  40.455  1.00  0.00     0.031 A 
ATOM     67  C   UNL A   1      45.477  27.350  38.884  1.00  0.00     0.049 A 
ATOM     68  C   UNL A   1      43.610  32.332  41.163  1.00  0.00     0.074 A 
ATOM     69  C   UNL A   1      46.322  26.628  39.690  1.00  0.00     0.029 A 
ATOM     70  N   UNL A   1      45.102  28.498  39.576  1.00  0.00    -0.354 N 
ATOM     71  N   UNL A   1      44.072  31.179  40.732  1.00  0.00    -0.248 NA
ATOM     72  C   UNL A   1      44.024  32.705  42.510  1.00  0.00     0.031 C 
ATOM     73  C   UNL A   1      46.387  27.298  40.912  1.00  0.00     0.029 A 
ATOM     74  C   UNL A   1      45.677  28.493  40.824  1.00  0.00     0.049 A 
ATOM     75  H   UNL A   1      44.516  29.206  39.226  1.00  0.00     0.167 HD
ATOM     76  C   UNL A   1      44.867  30.692  41.749  1.00  0.00     0.074 A 
ATOM     77  C   UNL A   1      44.825  31.691  42.807  1.00  0.00     0.031 C 
ATOM     78  C   UNL A   1      45.569  29.536  41.812  1.00  0.00     0.031 A 
BRANCH  65  79
ATOM     79  C   UNL A   1      45.304  25.731  36.899  1.00  0.00    -0.014 A 
ATOM     80  C   UNL A   1      44.442  24.617  37.002  1.00  0.00     0.010 A 
ATOM     81  C   UNL A   1      46.542  25.581  36.258  1.00  0.00     0.010 A 
ATOM     82  C   UNL A   1      44.834  23.372  36.508  1.00  0.00     0.020 A 
ATOM     83  C   UNL A   1      46.916  24.349  35.718  1.00  0.00     0.020 A 
ATOM     84  C   UNL A   1      46.064  23.251  35.856  1.00  0.00     0.054 A 
BRANCH  84  85
ATOM     85  S   UNL A   1      46.512  21.645  35.149  1.00  0.00     0.124 S 
ATOM     86  O   UNL A   1      45.848  21.688  33.849  1.00  0.00    -0.237 OA
ATOM     87  O   UNL A   1      47.970  21.716  35.113  1.00  0.00    -0.237 OA
ATOM     88  O   UNL A   1      45.960  20.684  36.100  1.00  0.00    -0.744 OA
ENDBRANCH  84  85
ENDBRANCH  65  79
BRANCH  66  89
ATOM     89  C   UNL A   1      42.167  34.533  41.054  1.00  0.00    -0.014 A 
ATOM     90  C   UNL A   1      42.811  35.763  40.839  1.00  0.00     0.010 A 
ATOM     91  C   UNL A   1      40.949  34.524  41.767  1.00  0.00     0.010 A 
ATOM     92  C   UNL A   1      42.256  36.950  41.330  1.00  0.00     0.020 A 
ATOM     93  C   UNL A   1      40.370  35.712  42.223  1.00  0.00     0.020 A 
ATOM     94  C   UNL A   1      41.035  36.918  42.010  1.00  0.00     0.054 A 
BRANCH  94  95
ATOM     95  S   UNL A   1      40.312  38.481  42.581  1.00  0.00     0.124 S 
ATOM     96  O   UNL A   1      39.766  38.106  43.881  1.00  0.00    -0.237 OA
ATOM     97  O   UNL A   1      41.473  39.368  42.613  1.00  0.00    -0.237 OA
ATOM     98  O   UNL A   1      39.322  38.798  41.555  1.00  0.00    -0.744 OA
ENDBRANCH  94  95
ENDBRANCH  66  89
BRANCH  78  99
ATOM     99  C   UNL A   1      46.395  29.348  43.037  1.00  0.00    -0.014 A 
ATOM    100  C   UNL A   1      47.660  29.939  43.159  1.00  0.00     0.010 A 
ATOM    101  C   UNL A   1      45.831  28.634  44.107  1.00  0.00     0.010 A 
ATOM    102  C   UNL A   1      48.371  29.786  44.342  1.00  0.00     0.020 A 
ATOM    103  C   UNL A   1      46.516  28.529  45.308  1.00  0.00     0.020 A 
ATOM    104  C   UNL A   1      47.788  29.093  45.410  1.00  0.00     0.054 A 
BRANCH 104 105
ATOM    105  S   UNL A   1      48.709  28.973  46.958  1.00  0.00     0.124 S 
ATOM    106  O   UNL A   1      49.959  29.646  46.614  1.00  0.00    -0.237 OA
ATOM    107  O   UNL A   1      47.843  29.687  47.893  1.00  0.00    -0.237 OA
ATOM    108  O   UNL A   1      48.818  27.535  47.186  1.00  0.00    -0.744 OA
ENDBRANCH 104 105
ENDBRANCH  78  99
ENDBRANCH  52  53
ENDBRANCH  45  47
ENDBRANCH  44  45
ENDBRANCH  43  44
ENDBRANCH  42  43
ENDBRANCH  41  42
ENDBRANCH  40  41
ENDBRANCH   1  40
TORSDOF 26
ENDMDL
