MODEL 1
REMARK VINA RESULT:      -9.1      0.000      0.000
REMARK SMILES CCNC(=O)c1ccc(N2C[C@@H](C)[C@H](C(=O)OCCOCCOCCOCCOC(=O)c3ccc(-c4c5nc(c(-c6ccc(S(=O)(=O)[O-])cc6)c6ccc([nH]6)c(-c6ccc(S(=O)(=O)[O-])cc6)c6nc(c(-c7ccc(S(=O)(=O)[O-])cc7)c7ccc4[nH]7)C=C6)C=C5)cc3)C2)nn1
REMARK SMILES IDX 23 1 22 2 21 3 20 4 19 5 18 6 17 7 15 8 16 9 14 10 10 11
REMARK SMILES IDX 11 12 92 13 12 14 13 15 9 16 6 17 7 18 94 19 8 20 93 21 4 22
REMARK SMILES IDX 3 23 5 25 2 26 1 27 24 28 25 29 26 30 27 31 28 32 29 33
REMARK SMILES IDX 30 34 31 35 32 36 33 37 91 38 34 39 90 40 35 41 36 42 37 43
REMARK SMILES IDX 84 44 38 45 89 46 83 47 85 48 39 49 88 50 82 51 81 52 40 54
REMARK SMILES IDX 70 55 51 56 69 57 52 58 55 59 68 60 86 61 53 62 54 63 67 65
REMARK SMILES IDX 87 66 56 67 41 68 42 69 50 70 43 71 49 72 44 73 45 74 46 75
REMARK SMILES IDX 47 76 48 77 71 78 72 79 80 80 73 81 79 82 74 83 75 84 76 85
REMARK SMILES IDX 77 86 78 87 57 88 58 89 66 90 59 91 65 92 60 93 61 94 62 95
REMARK SMILES IDX 63 96 64 97
REMARK H PARENT 3 24 85 53 55 64
REMARK Flexibility Score: inf
ROOT
ATOM      1  O   UNL A   1      35.802  32.273  27.525  1.00  0.00    -0.377 OA
ENDROOT
BRANCH   1   2
ATOM      2  C   UNL A   1      35.646  30.915  27.880  1.00  0.00     0.188 C 
BRANCH   2   3
ATOM      3  C   UNL A   1      34.400  30.222  27.317  1.00  0.00     0.188 C 
BRANCH   3   4
ATOM      4  O   UNL A   1      34.167  28.842  27.545  1.00  0.00    -0.376 OA
BRANCH   4   5
ATOM      5  C   UNL A   1      32.848  28.314  27.576  1.00  0.00     0.202 C 
BRANCH   5   6
ATOM      6  C   UNL A   1      31.903  28.359  26.359  1.00  0.00     0.261 C 
BRANCH   6   7
ATOM      7  O   UNL A   1      30.807  27.422  26.341  1.00  0.00    -0.463 OA
BRANCH   7   8
ATOM      8  C   UNL A   1      30.983  26.320  25.579  1.00  0.00     0.311 C 
ATOM      9  O   UNL A   1      31.431  25.257  26.003  1.00  0.00    -0.252 OA
BRANCH   8  10
ATOM     10  C   UNL A   1      30.584  26.464  24.119  1.00  0.00     0.123 C 
ATOM     11  N   UNL A   1      31.604  24.859  22.772  1.00  0.00    -0.354 N 
ATOM     12  C   UNL A   1      31.943  26.088  22.097  1.00  0.00     0.122 C 
ATOM     13  C   UNL A   1      30.401  25.049  23.572  1.00  0.00     0.133 C 
ATOM     14  C   UNL A   1      31.518  27.166  23.096  1.00  0.00     0.021 C 
ATOM     15  C   UNL A   1      30.802  28.305  22.363  1.00  0.00     0.010 C 
BRANCH  11  16
ATOM     16  C   UNL A   1      32.525  23.955  23.246  1.00  0.00     0.151 A 
ATOM     17  C   UNL A   1      34.413  22.291  24.325  1.00  0.00     0.150 A 
ATOM     18  C   UNL A   1      33.227  21.736  23.881  1.00  0.00     0.040 A 
ATOM     19  N   UNL A   1      34.667  23.609  24.214  1.00  0.00    -0.143 NA
ATOM     20  C   UNL A   1      32.279  22.587  23.322  1.00  0.00     0.051 A 
ATOM     21  N   UNL A   1      33.721  24.433  23.655  1.00  0.00    -0.132 NA
BRANCH  17  22
ATOM     22  C   UNL A   1      35.412  21.494  25.066  1.00  0.00     0.271 C 
ATOM     23  N   UNL A   1      35.233  21.206  26.398  1.00  0.00    -0.351 N 
ATOM     24  H   UNL A   1      36.021  20.832  26.856  1.00  0.00     0.163 HD
ATOM     25  O   UNL A   1      36.419  21.119  24.469  1.00  0.00    -0.267 OA
BRANCH  23  26
ATOM     26  C   UNL A   1      34.056  21.372  27.231  1.00  0.00     0.113 C 
ATOM     27  C   UNL A   1      33.838  22.828  27.598  1.00  0.00     0.027 C 
ENDBRANCH  23  26
ENDBRANCH  17  22
ENDBRANCH  11  16
ENDBRANCH   8  10
ENDBRANCH   7   8
ENDBRANCH   6   7
ENDBRANCH   5   6
ENDBRANCH   4   5
ENDBRANCH   3   4
ENDBRANCH   2   3
ENDBRANCH   1   2
BRANCH   1  28
ATOM     28  C   UNL A   1      35.626  33.246  28.547  1.00  0.00     0.188 C 
BRANCH  28  29
ATOM     29  C   UNL A   1      34.209  33.470  29.111  1.00  0.00     0.188 C 
BRANCH  29  30
ATOM     30  O   UNL A   1      34.124  33.368  30.526  1.00  0.00    -0.376 OA
BRANCH  30  31
ATOM     31  C   UNL A   1      35.219  33.816  31.313  1.00  0.00     0.202 C 
BRANCH  31  32
ATOM     32  C   UNL A   1      35.928  32.806  32.233  1.00  0.00     0.261 C 
BRANCH  32  33
ATOM     33  O   UNL A   1      37.115  32.177  31.725  1.00  0.00    -0.460 OA
BRANCH  33  34
ATOM     34  C   UNL A   1      37.826  31.385  32.558  1.00  0.00     0.338 C 
ATOM     35  O   UNL A   1      37.546  31.089  33.699  1.00  0.00    -0.246 OA
BRANCH  34  36
ATOM     36  C   UNL A   1      38.914  30.765  31.766  1.00  0.00     0.060 A 
ATOM     37  C   UNL A   1      39.920  30.056  32.436  1.00  0.00     0.016 A 
ATOM     38  C   UNL A   1      38.945  30.888  30.375  1.00  0.00     0.016 A 
ATOM     39  C   UNL A   1      40.985  29.506  31.722  1.00  0.00     0.010 A 
ATOM     40  C   UNL A   1      40.026  30.356  29.663  1.00  0.00     0.010 A 
ATOM     41  C   UNL A   1      41.069  29.695  30.336  1.00  0.00    -0.014 A 
BRANCH  41  42
ATOM     42  C   UNL A   1      42.337  29.395  29.625  1.00  0.00     0.031 A 
ATOM     43  C   UNL A   1      42.526  28.009  29.063  1.00  0.00     0.074 A 
ATOM     44  C   UNL A   1      43.289  30.329  29.452  1.00  0.00     0.049 A 
ATOM     45  N   UNL A   1      43.567  27.491  28.466  1.00  0.00    -0.248 NA
ATOM     46  C   UNL A   1      41.384  27.086  29.189  1.00  0.00     0.031 C 
ATOM     47  C   UNL A   1      43.205  31.722  29.889  1.00  0.00     0.029 A 
ATOM     48  N   UNL A   1      44.525  30.238  28.859  1.00  0.00    -0.354 N 
ATOM     49  C   UNL A   1      43.207  26.188  28.144  1.00  0.00     0.074 A 
ATOM     50  C   UNL A   1      41.867  25.979  28.646  1.00  0.00     0.031 C 
ATOM     51  C   UNL A   1      44.347  32.353  29.558  1.00  0.00     0.029 A 
ATOM     52  C   UNL A   1      45.257  31.400  28.924  1.00  0.00     0.049 A 
ATOM     53  H   UNL A   1      44.857  29.417  28.429  1.00  0.00     0.167 HD
ATOM     54  C   UNL A   1      43.920  25.250  27.476  1.00  0.00     0.031 A 
ATOM     55  C   UNL A   1      46.525  31.655  28.540  1.00  0.00     0.031 A 
ATOM     56  C   UNL A   1      45.258  25.448  26.989  1.00  0.00     0.049 A 
ATOM     57  C   UNL A   1      47.341  30.554  27.902  1.00  0.00     0.074 A 
ATOM     58  C   UNL A   1      46.071  24.552  26.318  1.00  0.00     0.029 A 
ATOM     59  N   UNL A   1      45.979  26.625  27.116  1.00  0.00    -0.354 N 
ATOM     60  N   UNL A   1      46.984  29.329  27.601  1.00  0.00    -0.248 NA
ATOM     61  C   UNL A   1      48.731  30.879  27.546  1.00  0.00     0.031 C 
ATOM     62  C   UNL A   1      47.304  25.167  26.088  1.00  0.00     0.029 A 
ATOM     63  C   UNL A   1      47.234  26.471  26.552  1.00  0.00     0.049 A 
ATOM     64  H   UNL A   1      45.649  27.447  27.545  1.00  0.00     0.167 HD
ATOM     65  C   UNL A   1      48.091  28.754  26.979  1.00  0.00     0.074 A 
ATOM     66  C   UNL A   1      49.120  29.769  26.934  1.00  0.00     0.031 C 
ATOM     67  C   UNL A   1      48.241  27.498  26.491  1.00  0.00     0.031 A 
BRANCH  54  68
ATOM     68  C   UNL A   1      43.269  23.913  27.237  1.00  0.00    -0.014 A 
ATOM     69  C   UNL A   1      42.634  23.629  26.015  1.00  0.00     0.010 A 
ATOM     70  C   UNL A   1      43.358  22.905  28.214  1.00  0.00     0.010 A 
ATOM     71  C   UNL A   1      42.084  22.367  25.781  1.00  0.00     0.020 A 
ATOM     72  C   UNL A   1      42.836  21.631  27.972  1.00  0.00     0.020 A 
ATOM     73  C   UNL A   1      42.195  21.373  26.758  1.00  0.00     0.054 A 
BRANCH  73  74
ATOM     74  S   UNL A   1      41.527  19.727  26.397  1.00  0.00     0.124 S 
ATOM     75  O   UNL A   1      40.108  20.014  26.201  1.00  0.00    -0.237 OA
ATOM     76  O   UNL A   1      42.262  19.342  25.196  1.00  0.00    -0.237 OA
ATOM     77  O   UNL A   1      41.844  18.952  27.594  1.00  0.00    -0.744 OA
ENDBRANCH  73  74
ENDBRANCH  54  68
BRANCH  55  78
ATOM     78  C   UNL A   1      47.132  32.998  28.764  1.00  0.00    -0.014 A 
ATOM     79  C   UNL A   1      47.066  33.988  27.767  1.00  0.00     0.010 A 
ATOM     80  C   UNL A   1      47.842  33.268  29.948  1.00  0.00     0.010 A 
ATOM     81  C   UNL A   1      47.739  35.202  27.929  1.00  0.00     0.020 A 
ATOM     82  C   UNL A   1      48.483  34.497  30.131  1.00  0.00     0.020 A 
ATOM     83  C   UNL A   1      48.445  35.445  29.108  1.00  0.00     0.054 A 
BRANCH  83  84
ATOM     84  S   UNL A   1      49.295  37.035  29.295  1.00  0.00     0.124 S 
ATOM     85  O   UNL A   1      48.778  37.791  28.159  1.00  0.00    -0.237 OA
ATOM     86  O   UNL A   1      48.840  37.470  30.614  1.00  0.00    -0.237 OA
ATOM     87  O   UNL A   1      50.705  36.669  29.224  1.00  0.00    -0.744 OA
ENDBRANCH  83  84
ENDBRANCH  55  78
BRANCH  67  88
ATOM     88  C   UNL A   1      49.541  27.163  25.804  1.00  0.00    -0.014 A 
ATOM     89  C   UNL A   1      49.744  27.431  24.439  1.00  0.00     0.010 A 
ATOM     90  C   UNL A   1      50.599  26.620  26.559  1.00  0.00     0.010 A 
ATOM     91  C   UNL A   1      50.968  27.131  23.835  1.00  0.00     0.020 A 
ATOM     92  C   UNL A   1      51.834  26.350  25.966  1.00  0.00     0.020 A 
ATOM     93  C   UNL A   1      52.006  26.594  24.602  1.00  0.00     0.054 A 
BRANCH  93  94
ATOM     94  S   UNL A   1      53.599  26.257  23.803  1.00  0.00     0.124 S 
ATOM     95  O   UNL A   1      53.212  26.119  22.401  1.00  0.00    -0.237 OA
ATOM     96  O   UNL A   1      54.377  27.451  24.126  1.00  0.00    -0.237 OA
ATOM     97  O   UNL A   1      54.058  25.028  24.445  1.00  0.00    -0.744 OA
ENDBRANCH  93  94
ENDBRANCH  67  88
ENDBRANCH  41  42
ENDBRANCH  34  36
ENDBRANCH  33  34
ENDBRANCH  32  33
ENDBRANCH  31  32
ENDBRANCH  30  31
ENDBRANCH  29  30
ENDBRANCH  28  29
ENDBRANCH   1  28
TORSDOF 26
ENDMDL
MODEL 2
REMARK VINA RESULT:      -9.1      6.302     10.752
REMARK SMILES CCNC(=O)c1ccc(N2C[C@@H](C)[C@H](C(=O)OCCOCCOCCOCCOC(=O)c3ccc(-c4c5nc(c(-c6ccc(S(=O)(=O)[O-])cc6)c6ccc([nH]6)c(-c6ccc(S(=O)(=O)[O-])cc6)c6nc(c(-c7ccc(S(=O)(=O)[O-])cc7)c7ccc4[nH]7)C=C6)C=C5)cc3)C2)nn1
REMARK SMILES IDX 23 1 22 2 21 3 20 4 19 5 18 6 17 7 15 8 16 9 14 10 10 11
REMARK SMILES IDX 11 12 92 13 12 14 13 15 9 16 6 17 7 18 94 19 8 20 93 21 4 22
REMARK SMILES IDX 3 23 5 25 2 26 1 27 24 28 25 29 26 30 27 31 28 32 29 33
REMARK SMILES IDX 30 34 31 35 32 36 33 37 91 38 34 39 90 40 35 41 36 42 37 43
REMARK SMILES IDX 84 44 38 45 89 46 83 47 85 48 39 49 88 50 82 51 81 52 40 54
REMARK SMILES IDX 70 55 51 56 69 57 52 58 55 59 68 60 86 61 53 62 54 63 67 65
REMARK SMILES IDX 87 66 56 67 41 68 42 69 50 70 43 71 49 72 44 73 45 74 46 75
REMARK SMILES IDX 47 76 48 77 71 78 72 79 80 80 73 81 79 82 74 83 75 84 76 85
REMARK SMILES IDX 77 86 78 87 57 88 58 89 66 90 59 91 65 92 60 93 61 94 62 95
REMARK SMILES IDX 63 96 64 97
REMARK H PARENT 3 24 85 53 55 64
REMARK Flexibility Score: inf
ROOT
ATOM      1  O   UNL A   1      35.774  32.118  27.626  1.00  0.00    -0.377 OA
ENDROOT
BRANCH   1   2
ATOM      2  C   UNL A   1      36.012  31.010  28.467  1.00  0.00     0.188 C 
BRANCH   2   3
ATOM      3  C   UNL A   1      35.567  29.650  27.915  1.00  0.00     0.188 C 
BRANCH   3   4
ATOM      4  O   UNL A   1      34.457  29.547  27.039  1.00  0.00    -0.376 OA
BRANCH   4   5
ATOM      5  C   UNL A   1      33.859  28.290  26.755  1.00  0.00     0.202 C 
BRANCH   5   6
ATOM      6  C   UNL A   1      32.439  27.917  27.227  1.00  0.00     0.261 C 
BRANCH   6   7
ATOM      7  O   UNL A   1      31.358  28.135  26.298  1.00  0.00    -0.463 OA
BRANCH   7   8
ATOM      8  C   UNL A   1      30.728  27.025  25.851  1.00  0.00     0.311 C 
ATOM      9  O   UNL A   1      30.407  26.082  26.571  1.00  0.00    -0.252 OA
BRANCH   8  10
ATOM     10  C   UNL A   1      30.426  27.000  24.361  1.00  0.00     0.123 C 
ATOM     11  N   UNL A   1      31.318  25.116  23.320  1.00  0.00    -0.354 N 
ATOM     12  C   UNL A   1      31.834  26.191  22.508  1.00  0.00     0.122 C 
ATOM     13  C   UNL A   1      30.106  25.549  24.003  1.00  0.00     0.133 C 
ATOM     14  C   UNL A   1      31.487  27.442  23.318  1.00  0.00     0.021 C 
ATOM     15  C   UNL A   1      30.948  28.534  22.388  1.00  0.00     0.010 C 
BRANCH  11  16
ATOM     16  C   UNL A   1      32.102  24.196  23.976  1.00  0.00     0.151 A 
ATOM     17  C   UNL A   1      33.644  22.473  25.443  1.00  0.00     0.150 A 
ATOM     18  C   UNL A   1      32.788  21.942  24.496  1.00  0.00     0.040 A 
ATOM     19  N   UNL A   1      33.754  23.802  25.637  1.00  0.00    -0.143 NA
ATOM     20  C   UNL A   1      32.018  22.825  23.745  1.00  0.00     0.051 A 
ATOM     21  N   UNL A   1      32.989  24.659  24.883  1.00  0.00    -0.132 NA
BRANCH  17  22
ATOM     22  C   UNL A   1      34.386  21.613  26.386  1.00  0.00     0.271 C 
ATOM     23  N   UNL A   1      35.522  20.949  25.987  1.00  0.00    -0.351 N 
ATOM     24  H   UNL A   1      35.849  20.263  26.613  1.00  0.00     0.163 HD
ATOM     25  O   UNL A   1      33.948  21.482  27.526  1.00  0.00    -0.267 OA
BRANCH  23  26
ATOM     26  C   UNL A   1      36.312  21.110  24.780  1.00  0.00     0.113 C 
ATOM     27  C   UNL A   1      37.602  20.316  24.853  1.00  0.00     0.027 C 
ENDBRANCH  23  26
ENDBRANCH  17  22
ENDBRANCH  11  16
ENDBRANCH   8  10
ENDBRANCH   7   8
ENDBRANCH   6   7
ENDBRANCH   5   6
ENDBRANCH   4   5
ENDBRANCH   3   4
ENDBRANCH   2   3
ENDBRANCH   1   2
BRANCH   1  28
ATOM     28  C   UNL A   1      34.861  33.108  28.082  1.00  0.00     0.188 C 
BRANCH  28  29
ATOM     29  C   UNL A   1      33.356  32.890  27.831  1.00  0.00     0.188 C 
BRANCH  29  30
ATOM     30  O   UNL A   1      32.562  34.054  28.016  1.00  0.00    -0.376 OA
BRANCH  30  31
ATOM     31  C   UNL A   1      33.209  35.295  28.263  1.00  0.00     0.202 C 
BRANCH  31  32
ATOM     32  C   UNL A   1      33.007  35.972  29.631  1.00  0.00     0.261 C 
BRANCH  32  33
ATOM     33  O   UNL A   1      32.707  35.119  30.747  1.00  0.00    -0.460 OA
BRANCH  33  34
ATOM     34  C   UNL A   1      32.794  35.640  31.991  1.00  0.00     0.338 C 
ATOM     35  O   UNL A   1      31.996  36.372  32.534  1.00  0.00    -0.246 OA
BRANCH  34  36
ATOM     36  C   UNL A   1      33.943  34.992  32.668  1.00  0.00     0.060 A 
ATOM     37  C   UNL A   1      35.193  35.624  32.634  1.00  0.00     0.016 A 
ATOM     38  C   UNL A   1      33.788  33.769  33.324  1.00  0.00     0.016 A 
ATOM     39  C   UNL A   1      36.304  35.012  33.217  1.00  0.00     0.010 A 
ATOM     40  C   UNL A   1      34.907  33.146  33.887  1.00  0.00     0.010 A 
ATOM     41  C   UNL A   1      36.176  33.747  33.804  1.00  0.00    -0.014 A 
BRANCH  41  42
ATOM     42  C   UNL A   1      37.392  32.961  34.137  1.00  0.00     0.031 A 
ATOM     43  C   UNL A   1      38.111  33.276  35.424  1.00  0.00     0.074 A 
ATOM     44  C   UNL A   1      37.836  31.974  33.339  1.00  0.00     0.049 A 
ATOM     45  N   UNL A   1      39.224  32.777  35.895  1.00  0.00    -0.248 NA
ATOM     46  C   UNL A   1      37.488  34.286  36.297  1.00  0.00     0.031 C 
ATOM     47  C   UNL A   1      37.198  31.527  32.101  1.00  0.00     0.029 A 
ATOM     48  N   UNL A   1      38.942  31.167  33.456  1.00  0.00    -0.354 N 
ATOM     49  C   UNL A   1      39.432  33.409  37.116  1.00  0.00     0.074 A 
ATOM     50  C   UNL A   1      38.354  34.355  37.295  1.00  0.00     0.031 C 
ATOM     51  C   UNL A   1      37.931  30.532  31.568  1.00  0.00     0.029 A 
ATOM     52  C   UNL A   1      39.109  30.301  32.402  1.00  0.00     0.049 A 
ATOM     53  H   UNL A   1      39.558  31.208  34.223  1.00  0.00     0.167 HD
ATOM     54  C   UNL A   1      40.423  33.210  38.016  1.00  0.00     0.031 A 
ATOM     55  C   UNL A   1      40.111  29.439  32.132  1.00  0.00     0.031 A 
ATOM     56  C   UNL A   1      41.506  32.281  37.833  1.00  0.00     0.049 A 
ATOM     57  C   UNL A   1      41.268  29.322  33.097  1.00  0.00     0.074 A 
ATOM     58  C   UNL A   1      42.569  32.023  38.680  1.00  0.00     0.029 A 
ATOM     59  N   UNL A   1      41.662  31.456  36.731  1.00  0.00    -0.354 N 
ATOM     60  N   UNL A   1      41.447  29.922  34.249  1.00  0.00    -0.248 NA
ATOM     61  C   UNL A   1      42.353  28.401  32.726  1.00  0.00     0.031 C 
ATOM     62  C   UNL A   1      43.398  31.082  38.066  1.00  0.00     0.029 A 
ATOM     63  C   UNL A   1      42.813  30.701  36.868  1.00  0.00     0.049 A 
ATOM     64  H   UNL A   1      41.046  31.414  35.965  1.00  0.00     0.167 HD
ATOM     65  C   UNL A   1      42.642  29.417  34.759  1.00  0.00     0.074 A 
ATOM     66  C   UNL A   1      43.130  28.452  33.799  1.00  0.00     0.031 C 
ATOM     67  C   UNL A   1      43.276  29.724  35.916  1.00  0.00     0.031 A 
BRANCH  54  68
ATOM     68  C   UNL A   1      40.391  34.021  39.285  1.00  0.00    -0.014 A 
ATOM     69  C   UNL A   1      41.083  35.241  39.377  1.00  0.00     0.010 A 
ATOM     70  C   UNL A   1      39.602  33.596  40.369  1.00  0.00     0.010 A 
ATOM     71  C   UNL A   1      41.000  36.015  40.537  1.00  0.00     0.020 A 
ATOM     72  C   UNL A   1      39.492  34.381  41.520  1.00  0.00     0.020 A 
ATOM     73  C   UNL A   1      40.199  35.583  41.599  1.00  0.00     0.054 A 
BRANCH  73  74
ATOM     74  S   UNL A   1      40.063  36.641  43.065  1.00  0.00     0.124 S 
ATOM     75  O   UNL A   1      38.929  36.043  43.765  1.00  0.00    -0.237 OA
ATOM     76  O   UNL A   1      41.362  36.462  43.707  1.00  0.00    -0.237 OA
ATOM     77  O   UNL A   1      39.821  37.971  42.513  1.00  0.00    -0.744 OA
ENDBRANCH  73  74
ENDBRANCH  54  68
BRANCH  55  78
ATOM     78  C   UNL A   1      40.101  28.629  30.881  1.00  0.00    -0.014 A 
ATOM     79  C   UNL A   1      39.264  27.504  30.764  1.00  0.00     0.010 A 
ATOM     80  C   UNL A   1      40.982  28.937  29.827  1.00  0.00     0.010 A 
ATOM     81  C   UNL A   1      39.344  26.676  29.641  1.00  0.00     0.020 A 
ATOM     82  C   UNL A   1      41.035  28.134  28.684  1.00  0.00     0.020 A 
ATOM     83  C   UNL A   1      40.230  26.996  28.611  1.00  0.00     0.054 A 
BRANCH  83  84
ATOM     84  S   UNL A   1      40.299  25.911  27.161  1.00  0.00     0.124 S 
ATOM     85  O   UNL A   1      40.693  26.840  26.107  1.00  0.00    -0.237 OA
ATOM     86  O   UNL A   1      41.308  24.933  27.561  1.00  0.00    -0.237 OA
ATOM     87  O   UNL A   1      38.941  25.389  27.071  1.00  0.00    -0.744 OA
ENDBRANCH  83  84
ENDBRANCH  55  78
BRANCH  67  88
ATOM     88  C   UNL A   1      44.538  28.967  36.249  1.00  0.00    -0.014 A 
ATOM     89  C   UNL A   1      45.805  29.448  35.879  1.00  0.00     0.010 A 
ATOM     90  C   UNL A   1      44.449  27.777  36.996  1.00  0.00     0.010 A 
ATOM     91  C   UNL A   1      46.959  28.736  36.222  1.00  0.00     0.020 A 
ATOM     92  C   UNL A   1      45.601  27.081  37.369  1.00  0.00     0.020 A 
ATOM     93  C   UNL A   1      46.849  27.558  36.967  1.00  0.00     0.054 A 
BRANCH  93  94
ATOM     94  S   UNL A   1      48.364  26.679  37.437  1.00  0.00     0.124 S 
ATOM     95  O   UNL A   1      47.865  25.713  38.412  1.00  0.00    -0.237 OA
ATOM     96  O   UNL A   1      48.812  26.115  36.166  1.00  0.00    -0.237 OA
ATOM     97  O   UNL A   1      49.221  27.728  37.983  1.00  0.00    -0.744 OA
ENDBRANCH  93  94
ENDBRANCH  67  88
ENDBRANCH  41  42
ENDBRANCH  34  36
ENDBRANCH  33  34
ENDBRANCH  32  33
ENDBRANCH  31  32
ENDBRANCH  30  31
ENDBRANCH  29  30
ENDBRANCH  28  29
ENDBRANCH   1  28
TORSDOF 26
ENDMDL
MODEL 3
REMARK VINA RESULT:      -8.7      6.342     13.994
REMARK SMILES CCNC(=O)c1ccc(N2C[C@@H](C)[C@H](C(=O)OCCOCCOCCOCCOC(=O)c3ccc(-c4c5nc(c(-c6ccc(S(=O)(=O)[O-])cc6)c6ccc([nH]6)c(-c6ccc(S(=O)(=O)[O-])cc6)c6nc(c(-c7ccc(S(=O)(=O)[O-])cc7)c7ccc4[nH]7)C=C6)C=C5)cc3)C2)nn1
REMARK SMILES IDX 23 1 22 2 21 3 20 4 19 5 18 6 17 7 15 8 16 9 14 10 10 11
REMARK SMILES IDX 11 12 92 13 12 14 13 15 9 16 6 17 7 18 94 19 8 20 93 21 4 22
REMARK SMILES IDX 3 23 5 25 2 26 1 27 24 28 25 29 26 30 27 31 28 32 29 33
REMARK SMILES IDX 30 34 31 35 32 36 33 37 91 38 34 39 90 40 35 41 36 42 37 43
REMARK SMILES IDX 84 44 38 45 89 46 83 47 85 48 39 49 88 50 82 51 81 52 40 54
REMARK SMILES IDX 70 55 51 56 69 57 52 58 55 59 68 60 86 61 53 62 54 63 67 65
REMARK SMILES IDX 87 66 56 67 41 68 42 69 50 70 43 71 49 72 44 73 45 74 46 75
REMARK SMILES IDX 47 76 48 77 71 78 72 79 80 80 73 81 79 82 74 83 75 84 76 85
REMARK SMILES IDX 77 86 78 87 57 88 58 89 66 90 59 91 65 92 60 93 61 94 62 95
REMARK SMILES IDX 63 96 64 97
REMARK H PARENT 3 24 85 53 55 64
REMARK Flexibility Score: inf
ROOT
ATOM      1  O   UNL A   1      43.506  18.743  26.167  1.00  0.00    -0.377 OA
ENDROOT
BRANCH   1   2
ATOM      2  C   UNL A   1      44.253  18.968  24.991  1.00  0.00     0.188 C 
BRANCH   2   3
ATOM      3  C   UNL A   1      44.541  20.438  24.660  1.00  0.00     0.188 C 
BRANCH   3   4
ATOM      4  O   UNL A   1      44.421  21.445  25.649  1.00  0.00    -0.376 OA
BRANCH   4   5
ATOM      5  C   UNL A   1      45.336  22.531  25.708  1.00  0.00     0.202 C 
BRANCH   5   6
ATOM      6  C   UNL A   1      44.934  23.979  25.363  1.00  0.00     0.261 C 
BRANCH   6   7
ATOM      7  O   UNL A   1      44.735  24.887  26.466  1.00  0.00    -0.463 OA
BRANCH   7   8
ATOM      8  C   UNL A   1      44.465  26.170  26.135  1.00  0.00     0.311 C 
ATOM      9  O   UNL A   1      43.797  26.500  25.158  1.00  0.00    -0.252 OA
BRANCH   8  10
ATOM     10  C   UNL A   1      45.049  27.222  27.064  1.00  0.00     0.123 C 
ATOM     11  N   UNL A   1      46.879  28.308  26.115  1.00  0.00    -0.354 N 
ATOM     12  C   UNL A   1      47.404  27.871  27.386  1.00  0.00     0.122 C 
ATOM     13  C   UNL A   1      45.428  28.417  26.192  1.00  0.00     0.133 C 
ATOM     14  C   UNL A   1      46.317  26.932  27.912  1.00  0.00     0.021 C 
ATOM     15  C   UNL A   1      46.076  27.194  29.402  1.00  0.00     0.010 C 
BRANCH  11  16
ATOM     16  C   UNL A   1      47.410  27.960  24.896  1.00  0.00     0.151 A 
ATOM     17  C   UNL A   1      48.423  27.448  22.404  1.00  0.00     0.150 A 
ATOM     18  C   UNL A   1      49.068  26.903  23.498  1.00  0.00     0.040 A 
ATOM     19  N   UNL A   1      47.306  28.191  22.534  1.00  0.00    -0.143 NA
ATOM     20  C   UNL A   1      48.538  27.156  24.760  1.00  0.00     0.051 A 
ATOM     21  N   UNL A   1      46.796  28.427  23.787  1.00  0.00    -0.132 NA
BRANCH  17  22
ATOM     22  C   UNL A   1      48.993  27.359  21.045  1.00  0.00     0.271 C 
ATOM     23  N   UNL A   1      49.970  28.234  20.634  1.00  0.00    -0.351 N 
ATOM     24  H   UNL A   1      50.164  28.224  19.668  1.00  0.00     0.163 HD
ATOM     25  O   UNL A   1      48.553  26.502  20.282  1.00  0.00    -0.267 OA
BRANCH  23  26
ATOM     26  C   UNL A   1      50.759  29.171  21.412  1.00  0.00     0.113 C 
ATOM     27  C   UNL A   1      52.090  28.568  21.823  1.00  0.00     0.027 C 
ENDBRANCH  23  26
ENDBRANCH  17  22
ENDBRANCH  11  16
ENDBRANCH   8  10
ENDBRANCH   7   8
ENDBRANCH   6   7
ENDBRANCH   5   6
ENDBRANCH   4   5
ENDBRANCH   3   4
ENDBRANCH   2   3
ENDBRANCH   1   2
BRANCH   1  28
ATOM     28  C   UNL A   1      42.130  19.102  26.153  1.00  0.00     0.188 C 
BRANCH  28  29
ATOM     29  C   UNL A   1      41.643  20.179  27.143  1.00  0.00     0.188 C 
BRANCH  29  30
ATOM     30  O   UNL A   1      40.437  20.822  26.755  1.00  0.00    -0.376 OA
BRANCH  30  31
ATOM     31  C   UNL A   1      40.390  22.242  26.738  1.00  0.00     0.202 C 
BRANCH  31  32
ATOM     32  C   UNL A   1      41.084  23.016  27.873  1.00  0.00     0.261 C 
BRANCH  32  33
ATOM     33  O   UNL A   1      41.582  24.327  27.564  1.00  0.00    -0.460 OA
BRANCH  33  34
ATOM     34  C   UNL A   1      40.729  25.222  27.016  1.00  0.00     0.338 C 
ATOM     35  O   UNL A   1      40.139  25.117  25.964  1.00  0.00    -0.246 OA
BRANCH  34  36
ATOM     36  C   UNL A   1      40.474  26.274  28.027  1.00  0.00     0.060 A 
ATOM     37  C   UNL A   1      41.235  27.450  27.988  1.00  0.00     0.016 A 
ATOM     38  C   UNL A   1      39.497  26.099  29.010  1.00  0.00     0.016 A 
ATOM     39  C   UNL A   1      41.053  28.436  28.960  1.00  0.00     0.010 A 
ATOM     40  C   UNL A   1      39.332  27.078  29.996  1.00  0.00     0.010 A 
ATOM     41  C   UNL A   1      40.134  28.233  29.997  1.00  0.00    -0.014 A 
BRANCH  41  42
ATOM     42  C   UNL A   1      40.161  29.116  31.191  1.00  0.00     0.031 A 
ATOM     43  C   UNL A   1      41.268  28.921  32.195  1.00  0.00     0.074 A 
ATOM     44  C   UNL A   1      39.247  30.086  31.373  1.00  0.00     0.049 A 
ATOM     45  N   UNL A   1      41.463  29.518  33.341  1.00  0.00    -0.248 NA
ATOM     46  C   UNL A   1      42.295  27.919  31.857  1.00  0.00     0.031 C 
ATOM     47  C   UNL A   1      38.165  30.421  30.448  1.00  0.00     0.029 A 
ATOM     48  N   UNL A   1      39.087  30.971  32.412  1.00  0.00    -0.354 N 
ATOM     49  C   UNL A   1      42.631  28.970  33.858  1.00  0.00     0.074 A 
ATOM     50  C   UNL A   1      43.080  27.963  32.922  1.00  0.00     0.031 C 
ATOM     51  C   UNL A   1      37.445  31.433  30.969  1.00  0.00     0.029 A 
ATOM     52  C   UNL A   1      37.990  31.788  32.278  1.00  0.00     0.049 A 
ATOM     53  H   UNL A   1      39.700  31.014  33.181  1.00  0.00     0.167 HD
ATOM     54  C   UNL A   1      43.282  29.284  35.003  1.00  0.00     0.031 A 
ATOM     55  C   UNL A   1      37.473  32.700  33.127  1.00  0.00     0.031 A 
ATOM     56  C   UNL A   1      42.830  30.272  35.944  1.00  0.00     0.049 A 
ATOM     57  C   UNL A   1      38.154  32.948  34.453  1.00  0.00     0.074 A 
ATOM     58  C   UNL A   1      43.411  30.647  37.142  1.00  0.00     0.029 A 
ATOM     59  N   UNL A   1      41.690  31.045  35.792  1.00  0.00    -0.354 N 
ATOM     60  N   UNL A   1      39.260  32.424  34.924  1.00  0.00    -0.248 NA
ATOM     61  C   UNL A   1      37.518  33.919  35.356  1.00  0.00     0.031 C 
ATOM     62  C   UNL A   1      42.594  31.608  37.742  1.00  0.00     0.029 A 
ATOM     63  C   UNL A   1      41.541  31.883  36.883  1.00  0.00     0.049 A 
ATOM     64  H   UNL A   1      41.077  31.004  35.023  1.00  0.00     0.167 HD
ATOM     65  C   UNL A   1      39.474  33.036  36.158  1.00  0.00     0.074 A 
ATOM     66  C   UNL A   1      38.394  33.979  36.350  1.00  0.00     0.031 C 
ATOM     67  C   UNL A   1      40.474  32.835  37.051  1.00  0.00     0.031 A 
BRANCH  54  68
ATOM     68  C   UNL A   1      44.557  28.542  35.310  1.00  0.00    -0.014 A 
ATOM     69  C   UNL A   1      44.530  27.324  36.011  1.00  0.00     0.010 A 
ATOM     70  C   UNL A   1      45.785  29.030  34.829  1.00  0.00     0.010 A 
ATOM     71  C   UNL A   1      45.711  26.615  36.241  1.00  0.00     0.020 A 
ATOM     72  C   UNL A   1      46.966  28.308  35.031  1.00  0.00     0.020 A 
ATOM     73  C   UNL A   1      46.921  27.108  35.743  1.00  0.00     0.054 A 
BRANCH  73  74
ATOM     74  S   UNL A   1      48.426  26.132  36.004  1.00  0.00     0.124 S 
ATOM     75  O   UNL A   1      48.747  26.438  37.396  1.00  0.00    -0.237 OA
ATOM     76  O   UNL A   1      47.968  24.768  35.750  1.00  0.00    -0.237 OA
ATOM     77  O   UNL A   1      49.363  26.665  35.018  1.00  0.00    -0.744 OA
ENDBRANCH  73  74
ENDBRANCH  54  68
BRANCH  55  78
ATOM     78  C   UNL A   1      36.225  33.438  32.782  1.00  0.00    -0.014 A 
ATOM     79  C   UNL A   1      36.288  34.706  32.174  1.00  0.00     0.010 A 
ATOM     80  C   UNL A   1      34.967  32.909  33.126  1.00  0.00     0.010 A 
ATOM     81  C   UNL A   1      35.124  35.449  31.963  1.00  0.00     0.020 A 
ATOM     82  C   UNL A   1      33.797  33.632  32.879  1.00  0.00     0.020 A 
ATOM     83  C   UNL A   1      33.888  34.907  32.320  1.00  0.00     0.054 A 
BRANCH  83  84
ATOM     84  S   UNL A   1      32.394  35.889  32.019  1.00  0.00     0.124 S 
ATOM     85  O   UNL A   1      32.270  35.814  30.567  1.00  0.00    -0.237 OA
ATOM     86  O   UNL A   1      31.390  35.157  32.786  1.00  0.00    -0.237 OA
ATOM     87  O   UNL A   1      32.742  37.199  32.559  1.00  0.00    -0.744 OA
ENDBRANCH  83  84
ENDBRANCH  55  78
BRANCH  67  88
ATOM     88  C   UNL A   1      40.491  33.694  38.291  1.00  0.00    -0.014 A 
ATOM     89  C   UNL A   1      40.852  35.051  38.242  1.00  0.00     0.010 A 
ATOM     90  C   UNL A   1      40.081  33.138  39.519  1.00  0.00     0.010 A 
ATOM     91  C   UNL A   1      40.836  35.829  39.404  1.00  0.00     0.020 A 
ATOM     92  C   UNL A   1      40.032  33.921  40.675  1.00  0.00     0.020 A 
ATOM     93  C   UNL A   1      40.424  35.259  40.613  1.00  0.00     0.054 A 
BRANCH  93  94
ATOM     94  S   UNL A   1      40.368  36.302  42.095  1.00  0.00     0.124 S 
ATOM     95  O   UNL A   1      39.862  35.373  43.102  1.00  0.00    -0.237 OA
ATOM     96  O   UNL A   1      41.764  36.703  42.255  1.00  0.00    -0.237 OA
ATOM     97  O   UNL A   1      39.454  37.381  41.728  1.00  0.00    -0.744 OA
ENDBRANCH  93  94
ENDBRANCH  67  88
ENDBRANCH  41  42
ENDBRANCH  34  36
ENDBRANCH  33  34
ENDBRANCH  32  33
ENDBRANCH  31  32
ENDBRANCH  30  31
ENDBRANCH  29  30
ENDBRANCH  28  29
ENDBRANCH   1  28
TORSDOF 26
ENDMDL
