MODEL 1
REMARK VINA RESULT:      -4.8      0.000      0.000
REMARK SMILES CC[C@@H](C)[C@@H](C(=O)OCCOCCOCCOCCOC(=O)c1ccc(-c2c3nc(c(-c4ccc(S(=O)(=O)[O-])cc4)c4ccc([nH]4)c(-c4ccc(S(=O)(=O)[O-])cc4)c4nc(c(-c5ccc(S(=O)(=O)[O-])cc5)c5ccc2[nH]5)C=C4)C=C3)cc1)N1C(=O)/C(=C/c2ccc(O)cc2)SC1=S
REMARK SMILES IDX 14 1 13 2 12 3 11 4 10 5 9 6 8 7 6 8 7 9 5 10 3 11 4 12 2 13
REMARK SMILES IDX 1 14 83 15 84 16 96 17 85 18 86 19 95 20 97 21 87 22 88 23
REMARK SMILES IDX 89 24 94 25 90 26 93 27 91 28 92 29 15 31 16 32 17 33 18 34
REMARK SMILES IDX 19 35 20 36 21 37 22 38 23 39 24 40 82 41 25 42 81 43 26 44
REMARK SMILES IDX 27 45 28 46 75 47 29 48 80 49 74 50 76 51 30 52 79 53 73 54
REMARK SMILES IDX 72 55 31 57 61 58 42 59 60 60 43 61 46 62 59 63 77 64 44 65
REMARK SMILES IDX 45 66 58 68 78 69 47 70 32 71 33 72 41 73 34 74 40 75 35 76
REMARK SMILES IDX 36 77 37 78 38 79 39 80 62 81 63 82 71 83 64 84 70 85 65 86
REMARK SMILES IDX 66 87 67 88 68 89 69 90 48 91 49 92 57 93 50 94 56 95 51 96
REMARK SMILES IDX 52 97 53 98 54 99 55 100
REMARK H PARENT 92 30 76 56 46 67
REMARK Flexibility Score: inf
ROOT
ATOM      1  O   UNL A   1      46.934  30.362  42.336  1.00  0.00    -0.377 OA
ENDROOT
BRANCH   1   2
ATOM      2  C   UNL A   1      47.416  29.247  41.593  1.00  0.00     0.188 C 
BRANCH   2   3
ATOM      3  C   UNL A   1      46.771  27.871  41.816  1.00  0.00     0.188 C 
BRANCH   3   4
ATOM      4  O   UNL A   1      45.782  27.562  40.855  1.00  0.00    -0.376 OA
BRANCH   4   5
ATOM      5  C   UNL A   1      46.102  27.884  39.515  1.00  0.00     0.202 C 
BRANCH   5   6
ATOM      6  C   UNL A   1      46.795  26.859  38.581  1.00  0.00     0.261 C 
BRANCH   6   7
ATOM      7  O   UNL A   1      46.325  26.749  37.220  1.00  0.00    -0.462 OA
BRANCH   7   8
ATOM      8  C   UNL A   1      45.134  26.148  36.973  1.00  0.00     0.329 C 
ATOM      9  O   UNL A   1      44.773  25.100  37.505  1.00  0.00    -0.250 OA
BRANCH   8  10
ATOM     10  C   UNL A   1      44.205  26.924  35.977  1.00  0.00     0.204 C 
BRANCH  10  11
ATOM     11  C   UNL A   1      43.527  26.172  34.761  1.00  0.00     0.020 C 
ATOM     12  C   UNL A   1      42.567  27.092  33.982  1.00  0.00     0.010 C 
BRANCH  11  13
ATOM     13  C   UNL A   1      42.744  24.900  35.187  1.00  0.00     0.002 C 
ATOM     14  C   UNL A   1      41.567  25.170  36.129  1.00  0.00     0.004 C 
ENDBRANCH  11  13
ENDBRANCH  10  11
BRANCH  10  15
ATOM     15  N   UNL A   1      44.824  28.259  35.627  1.00  0.00    -0.278 N 
ATOM     16  C   UNL A   1      44.328  29.436  36.158  1.00  0.00     0.267 C 
ATOM     17  C   UNL A   1      45.880  28.445  34.755  1.00  0.00     0.149 C 
ATOM     18  O   UNL A   1      43.328  29.567  36.838  1.00  0.00    -0.268 OA
ATOM     19  C   UNL A   1      45.102  30.624  35.720  1.00  0.00     0.081 C 
ATOM     20  S   UNL A   1      46.492  30.097  34.881  1.00  0.00    -0.054 SA
ATOM     21  S   UNL A   1      46.566  27.376  33.676  1.00  0.00    -0.052 S 
ATOM     22  C   UNL A   1      44.668  31.877  35.945  1.00  0.00     0.029 C 
BRANCH  22  23
ATOM     23  C   UNL A   1      45.312  33.123  35.503  1.00  0.00    -0.024 A 
ATOM     24  C   UNL A   1      46.037  33.903  36.415  1.00  0.00     0.012 A 
ATOM     25  C   UNL A   1      45.182  33.573  34.183  1.00  0.00     0.012 A 
ATOM     26  C   UNL A   1      46.687  35.066  35.988  1.00  0.00     0.047 A 
ATOM     27  C   UNL A   1      45.841  34.725  33.751  1.00  0.00     0.047 A 
ATOM     28  C   UNL A   1      46.603  35.453  34.656  1.00  0.00     0.115 A 
BRANCH  28  29
ATOM     29  O   UNL A   1      47.290  36.563  34.265  1.00  0.00    -0.508 OA
ATOM     30  H   UNL A   1      48.227  36.564  34.280  1.00  0.00     0.293 HD
ENDBRANCH  28  29
ENDBRANCH  22  23
ENDBRANCH  10  15
ENDBRANCH   8  10
ENDBRANCH   7   8
ENDBRANCH   6   7
ENDBRANCH   5   6
ENDBRANCH   4   5
ENDBRANCH   3   4
ENDBRANCH   2   3
ENDBRANCH   1   2
BRANCH   1  31
ATOM     31  C   UNL A   1      45.565  30.364  42.742  1.00  0.00     0.188 C 
BRANCH  31  32
ATOM     32  C   UNL A   1      44.485  30.860  41.750  1.00  0.00     0.188 C 
BRANCH  32  33
ATOM     33  O   UNL A   1      43.203  30.275  41.914  1.00  0.00    -0.376 OA
BRANCH  33  34
ATOM     34  C   UNL A   1      42.461  30.618  43.073  1.00  0.00     0.202 C 
BRANCH  34  35
ATOM     35  C   UNL A   1      40.962  30.918  42.906  1.00  0.00     0.261 C 
BRANCH  35  36
ATOM     36  O   UNL A   1      40.538  31.327  41.594  1.00  0.00    -0.460 OA
BRANCH  36  37
ATOM     37  C   UNL A   1      40.258  32.633  41.410  1.00  0.00     0.338 C 
ATOM     38  O   UNL A   1      39.943  33.445  42.268  1.00  0.00    -0.246 OA
BRANCH  37  39
ATOM     39  C   UNL A   1      40.602  32.987  40.020  1.00  0.00     0.060 A 
ATOM     40  C   UNL A   1      41.832  32.563  39.503  1.00  0.00     0.016 A 
ATOM     41  C   UNL A   1      39.727  33.746  39.238  1.00  0.00     0.016 A 
ATOM     42  C   UNL A   1      42.215  32.941  38.220  1.00  0.00     0.010 A 
ATOM     43  C   UNL A   1      40.125  34.147  37.958  1.00  0.00     0.010 A 
ATOM     44  C   UNL A   1      41.391  33.783  37.464  1.00  0.00    -0.014 A 
BRANCH  44  45
ATOM     45  C   UNL A   1      41.966  34.439  36.265  1.00  0.00     0.031 A 
ATOM     46  C   UNL A   1      41.701  33.823  34.916  1.00  0.00     0.074 A 
ATOM     47  C   UNL A   1      42.622  35.610  36.362  1.00  0.00     0.049 A 
ATOM     48  N   UNL A   1      42.019  34.264  33.727  1.00  0.00    -0.248 NA
ATOM     49  C   UNL A   1      40.970  32.544  34.908  1.00  0.00     0.031 C 
ATOM     50  C   UNL A   1      42.895  36.326  37.607  1.00  0.00     0.029 A 
ATOM     51  N   UNL A   1      43.158  36.411  35.385  1.00  0.00    -0.354 N 
ATOM     52  C   UNL A   1      41.530  33.319  32.832  1.00  0.00     0.074 A 
ATOM     53  C   UNL A   1      40.928  32.263  33.615  1.00  0.00     0.031 C 
ATOM     54  C   UNL A   1      43.542  37.469  37.317  1.00  0.00     0.029 A 
ATOM     55  C   UNL A   1      43.750  37.552  35.873  1.00  0.00     0.049 A 
ATOM     56  H   UNL A   1      43.124  36.189  34.427  1.00  0.00     0.167 HD
ATOM     57  C   UNL A   1      41.570  33.333  31.479  1.00  0.00     0.031 A 
ATOM     58  C   UNL A   1      44.393  38.544  35.226  1.00  0.00     0.031 A 
ATOM     59  C   UNL A   1      42.187  34.377  30.703  1.00  0.00     0.049 A 
ATOM     60  C   UNL A   1      44.485  38.503  33.722  1.00  0.00     0.074 A 
ATOM     61  C   UNL A   1      42.276  34.489  29.327  1.00  0.00     0.029 A 
ATOM     62  N   UNL A   1      42.829  35.486  31.236  1.00  0.00    -0.354 N 
ATOM     63  N   UNL A   1      43.998  37.613  32.888  1.00  0.00    -0.248 NA
ATOM     64  C   UNL A   1      45.199  39.609  33.072  1.00  0.00     0.031 C 
ATOM     65  C   UNL A   1      43.029  35.628  29.029  1.00  0.00     0.029 A 
ATOM     66  C   UNL A   1      43.341  36.271  30.217  1.00  0.00     0.049 A 
ATOM     67  H   UNL A   1      42.907  35.685  32.197  1.00  0.00     0.167 HD
ATOM     68  C   UNL A   1      44.319  38.073  31.614  1.00  0.00     0.074 A 
ATOM     69  C   UNL A   1      45.023  39.327  31.789  1.00  0.00     0.031 C 
ATOM     70  C   UNL A   1      44.052  37.512  30.407  1.00  0.00     0.031 A 
BRANCH  57  71
ATOM     71  C   UNL A   1      40.964  32.159  30.751  1.00  0.00    -0.014 A 
ATOM     72  C   UNL A   1      39.604  32.144  30.385  1.00  0.00     0.010 A 
ATOM     73  C   UNL A   1      41.777  31.067  30.400  1.00  0.00     0.010 A 
ATOM     74  C   UNL A   1      39.065  31.043  29.715  1.00  0.00     0.020 A 
ATOM     75  C   UNL A   1      41.248  29.978  29.701  1.00  0.00     0.020 A 
ATOM     76  C   UNL A   1      39.891  29.966  29.377  1.00  0.00     0.054 A 
BRANCH  76  77
ATOM     77  S   UNL A   1      39.170  28.563  28.482  1.00  0.00     0.124 S 
ATOM     78  O   UNL A   1      39.620  28.814  27.114  1.00  0.00    -0.237 OA
ATOM     79  O   UNL A   1      39.783  27.414  29.143  1.00  0.00    -0.237 OA
ATOM     80  O   UNL A   1      37.733  28.711  28.700  1.00  0.00    -0.744 OA
ENDBRANCH  76  77
ENDBRANCH  57  71
BRANCH  58  81
ATOM     81  C   UNL A   1      45.007  39.661  35.998  1.00  0.00    -0.014 A 
ATOM     82  C   UNL A   1      44.212  40.653  36.598  1.00  0.00     0.010 A 
ATOM     83  C   UNL A   1      46.407  39.737  36.130  1.00  0.00     0.010 A 
ATOM     84  C   UNL A   1      44.805  41.709  37.299  1.00  0.00     0.020 A 
ATOM     85  C   UNL A   1      47.002  40.771  36.857  1.00  0.00     0.020 A 
ATOM     86  C   UNL A   1      46.196  41.757  37.429  1.00  0.00     0.054 A 
BRANCH  86  87
ATOM     87  S   UNL A   1      46.940  43.106  38.388  1.00  0.00     0.124 S 
ATOM     88  O   UNL A   1      48.323  43.085  37.922  1.00  0.00    -0.237 OA
ATOM     89  O   UNL A   1      46.148  44.260  37.969  1.00  0.00    -0.237 OA
ATOM     90  O   UNL A   1      46.739  42.691  39.774  1.00  0.00    -0.744 OA
ENDBRANCH  86  87
ENDBRANCH  58  81
BRANCH  70  91
ATOM     91  C   UNL A   1      44.486  38.273  29.179  1.00  0.00    -0.014 A 
ATOM     92  C   UNL A   1      45.717  38.020  28.550  1.00  0.00     0.010 A 
ATOM     93  C   UNL A   1      43.630  39.250  28.634  1.00  0.00     0.010 A 
ATOM     94  C   UNL A   1      46.113  38.771  27.439  1.00  0.00     0.020 A 
ATOM     95  C   UNL A   1      44.004  39.977  27.501  1.00  0.00     0.020 A 
ATOM     96  C   UNL A   1      45.255  39.749  26.926  1.00  0.00     0.054 A 
BRANCH  96  97
ATOM     97  S   UNL A   1      45.791  40.711  25.485  1.00  0.00     0.124 S 
ATOM     98  O   UNL A   1      46.454  39.694  24.672  1.00  0.00    -0.237 OA
ATOM     99  O   UNL A   1      44.530  41.219  24.951  1.00  0.00    -0.237 OA
ATOM    100  O   UNL A   1      46.675  41.727  26.054  1.00  0.00    -0.744 OA
ENDBRANCH  96  97
ENDBRANCH  70  91
ENDBRANCH  44  45
ENDBRANCH  37  39
ENDBRANCH  36  37
ENDBRANCH  35  36
ENDBRANCH  34  35
ENDBRANCH  33  34
ENDBRANCH  32  33
ENDBRANCH  31  32
ENDBRANCH   1  31
TORSDOF 28
ENDMDL
MODEL 2
REMARK VINA RESULT:      -4.8      4.473     11.713
REMARK SMILES CC[C@@H](C)[C@@H](C(=O)OCCOCCOCCOCCOC(=O)c1ccc(-c2c3nc(c(-c4ccc(S(=O)(=O)[O-])cc4)c4ccc([nH]4)c(-c4ccc(S(=O)(=O)[O-])cc4)c4nc(c(-c5ccc(S(=O)(=O)[O-])cc5)c5ccc2[nH]5)C=C4)C=C3)cc1)N1C(=O)/C(=C/c2ccc(O)cc2)SC1=S
REMARK SMILES IDX 14 1 13 2 12 3 11 4 10 5 9 6 8 7 6 8 7 9 5 10 3 11 4 12 2 13
REMARK SMILES IDX 1 14 83 15 84 16 96 17 85 18 86 19 95 20 97 21 87 22 88 23
REMARK SMILES IDX 89 24 94 25 90 26 93 27 91 28 92 29 15 31 16 32 17 33 18 34
REMARK SMILES IDX 19 35 20 36 21 37 22 38 23 39 24 40 82 41 25 42 81 43 26 44
REMARK SMILES IDX 27 45 28 46 75 47 29 48 80 49 74 50 76 51 30 52 79 53 73 54
REMARK SMILES IDX 72 55 31 57 61 58 42 59 60 60 43 61 46 62 59 63 77 64 44 65
REMARK SMILES IDX 45 66 58 68 78 69 47 70 32 71 33 72 41 73 34 74 40 75 35 76
REMARK SMILES IDX 36 77 37 78 38 79 39 80 62 81 63 82 71 83 64 84 70 85 65 86
REMARK SMILES IDX 66 87 67 88 68 89 69 90 48 91 49 92 57 93 50 94 56 95 51 96
REMARK SMILES IDX 52 97 53 98 54 99 55 100
REMARK H PARENT 92 30 76 56 46 67
REMARK Flexibility Score: inf
ROOT
ATOM      1  O   UNL A   1      50.999  24.365  31.777  1.00  0.00    -0.377 OA
ENDROOT
BRANCH   1   2
ATOM      2  C   UNL A   1      51.881  25.482  31.780  1.00  0.00     0.188 C 
BRANCH   2   3
ATOM      3  C   UNL A   1      51.337  26.858  31.369  1.00  0.00     0.188 C 
BRANCH   3   4
ATOM      4  O   UNL A   1      51.977  27.927  32.036  1.00  0.00    -0.376 OA
BRANCH   4   5
ATOM      5  C   UNL A   1      51.575  28.147  33.374  1.00  0.00     0.202 C 
BRANCH   5   6
ATOM      6  C   UNL A   1      50.484  29.190  33.729  1.00  0.00     0.261 C 
BRANCH   6   7
ATOM      7  O   UNL A   1      49.147  28.977  33.227  1.00  0.00    -0.462 OA
BRANCH   7   8
ATOM      8  C   UNL A   1      48.122  28.826  34.105  1.00  0.00     0.329 C 
ATOM      9  O   UNL A   1      47.156  28.093  33.908  1.00  0.00    -0.250 OA
BRANCH   8  10
ATOM     10  C   UNL A   1      48.282  29.632  35.440  1.00  0.00     0.204 C 
BRANCH  10  11
ATOM     11  C   UNL A   1      48.080  28.918  36.837  1.00  0.00     0.020 C 
ATOM     12  C   UNL A   1      48.352  29.874  38.015  1.00  0.00     0.010 C 
BRANCH  11  13
ATOM     13  C   UNL A   1      48.974  27.659  37.017  1.00  0.00     0.002 C 
ATOM     14  C   UNL A   1      50.457  27.965  37.234  1.00  0.00     0.004 C 
ENDBRANCH  11  13
ENDBRANCH  10  11
BRANCH  10  15
ATOM     15  N   UNL A   1      47.602  30.978  35.316  1.00  0.00    -0.278 N 
ATOM     16  C   UNL A   1      46.223  31.081  35.299  1.00  0.00     0.267 C 
ATOM     17  C   UNL A   1      48.250  32.190  35.180  1.00  0.00     0.149 C 
ATOM     18  O   UNL A   1      45.421  30.166  35.265  1.00  0.00    -0.268 OA
ATOM     19  C   UNL A   1      45.762  32.489  35.213  1.00  0.00     0.081 C 
ATOM     20  S   UNL A   1      47.110  33.521  35.393  1.00  0.00    -0.054 SA
ATOM     21  S   UNL A   1      49.853  32.504  34.845  1.00  0.00    -0.052 S 
ATOM     22  C   UNL A   1      44.476  32.802  34.971  1.00  0.00     0.029 C 
BRANCH  22  23
ATOM     23  C   UNL A   1      43.918  34.152  34.800  1.00  0.00    -0.024 A 
ATOM     24  C   UNL A   1      44.088  35.116  35.804  1.00  0.00     0.012 A 
ATOM     25  C   UNL A   1      43.178  34.487  33.659  1.00  0.00     0.012 A 
ATOM     26  C   UNL A   1      43.595  36.413  35.626  1.00  0.00     0.047 A 
ATOM     27  C   UNL A   1      42.698  35.784  33.472  1.00  0.00     0.047 A 
ATOM     28  C   UNL A   1      42.927  36.741  34.452  1.00  0.00     0.115 A 
BRANCH  28  29
ATOM     29  O   UNL A   1      42.506  38.028  34.291  1.00  0.00    -0.508 OA
ATOM     30  H   UNL A   1      42.162  38.308  33.465  1.00  0.00     0.293 HD
ENDBRANCH  28  29
ENDBRANCH  22  23
ENDBRANCH  10  15
ENDBRANCH   8  10
ENDBRANCH   7   8
ENDBRANCH   6   7
ENDBRANCH   5   6
ENDBRANCH   4   5
ENDBRANCH   3   4
ENDBRANCH   2   3
ENDBRANCH   1   2
BRANCH   1  31
ATOM     31  C   UNL A   1      50.830  23.631  32.991  1.00  0.00     0.188 C 
BRANCH  31  32
ATOM     32  C   UNL A   1      51.616  22.313  33.191  1.00  0.00     0.188 C 
BRANCH  32  33
ATOM     33  O   UNL A   1      50.882  21.128  32.926  1.00  0.00    -0.376 OA
BRANCH  33  34
ATOM     34  C   UNL A   1      50.250  20.481  34.019  1.00  0.00     0.202 C 
BRANCH  34  35
ATOM     35  C   UNL A   1      48.713  20.476  34.062  1.00  0.00     0.261 C 
BRANCH  35  36
ATOM     36  O   UNL A   1      48.089  21.640  34.632  1.00  0.00    -0.460 OA
BRANCH  36  37
ATOM     37  C   UNL A   1      47.102  21.440  35.528  1.00  0.00     0.338 C 
ATOM     38  O   UNL A   1      46.925  20.447  36.219  1.00  0.00    -0.246 OA
BRANCH  37  39
ATOM     39  C   UNL A   1      46.374  22.712  35.704  1.00  0.00     0.060 A 
ATOM     40  C   UNL A   1      47.034  23.910  35.405  1.00  0.00     0.016 A 
ATOM     41  C   UNL A   1      45.060  22.724  36.177  1.00  0.00     0.016 A 
ATOM     42  C   UNL A   1      46.400  25.128  35.628  1.00  0.00     0.010 A 
ATOM     43  C   UNL A   1      44.433  23.950  36.425  1.00  0.00     0.010 A 
ATOM     44  C   UNL A   1      45.120  25.155  36.195  1.00  0.00    -0.014 A 
BRANCH  44  45
ATOM     45  C   UNL A   1      44.616  26.442  36.732  1.00  0.00     0.031 A 
ATOM     46  C   UNL A   1      45.178  26.942  38.037  1.00  0.00     0.074 A 
ATOM     47  C   UNL A   1      43.757  27.200  36.026  1.00  0.00     0.049 A 
ATOM     48  N   UNL A   1      44.961  28.074  38.653  1.00  0.00    -0.248 NA
ATOM     49  C   UNL A   1      46.117  26.048  38.736  1.00  0.00     0.031 C 
ATOM     50  C   UNL A   1      43.184  26.844  34.728  1.00  0.00     0.029 A 
ATOM     51  N   UNL A   1      43.234  28.438  36.300  1.00  0.00    -0.354 N 
ATOM     52  C   UNL A   1      45.733  28.029  39.808  1.00  0.00     0.074 A 
ATOM     53  C   UNL A   1      46.394  26.743  39.828  1.00  0.00     0.031 C 
ATOM     54  C   UNL A   1      42.394  27.850  34.312  1.00  0.00     0.029 A 
ATOM     55  C   UNL A   1      42.385  28.905  35.325  1.00  0.00     0.049 A 
ATOM     56  H   UNL A   1      43.444  28.944  37.117  1.00  0.00     0.167 HD
ATOM     57  C   UNL A   1      45.888  28.976  40.763  1.00  0.00     0.031 A 
ATOM     58  C   UNL A   1      41.676  30.050  35.261  1.00  0.00     0.031 A 
ATOM     59  C   UNL A   1      45.214  30.248  40.750  1.00  0.00     0.049 A 
ATOM     60  C   UNL A   1      41.810  31.060  36.371  1.00  0.00     0.074 A 
ATOM     61  C   UNL A   1      45.306  31.280  41.667  1.00  0.00     0.029 A 
ATOM     62  N   UNL A   1      44.316  30.658  39.775  1.00  0.00    -0.354 N 
ATOM     63  N   UNL A   1      42.563  31.012  37.446  1.00  0.00    -0.248 NA
ATOM     64  C   UNL A   1      41.013  32.287  36.249  1.00  0.00     0.031 C 
ATOM     65  C   UNL A   1      44.413  32.286  41.283  1.00  0.00     0.029 A 
ATOM     66  C   UNL A   1      43.825  31.916  40.084  1.00  0.00     0.049 A 
ATOM     67  H   UNL A   1      44.065  30.134  38.981  1.00  0.00     0.167 HD
ATOM     68  C   UNL A   1      42.352  32.218  38.110  1.00  0.00     0.074 A 
ATOM     69  C   UNL A   1      41.419  32.979  37.304  1.00  0.00     0.031 C 
ATOM     70  C   UNL A   1      42.886  32.658  39.278  1.00  0.00     0.031 A 
BRANCH  57  71
ATOM     71  C   UNL A   1      46.790  28.653  41.927  1.00  0.00    -0.014 A 
ATOM     72  C   UNL A   1      48.173  28.913  41.879  1.00  0.00     0.010 A 
ATOM     73  C   UNL A   1      46.239  28.108  43.101  1.00  0.00     0.010 A 
ATOM     74  C   UNL A   1      48.990  28.601  42.970  1.00  0.00     0.020 A 
ATOM     75  C   UNL A   1      47.048  27.825  44.205  1.00  0.00     0.020 A 
ATOM     76  C   UNL A   1      48.421  28.058  44.126  1.00  0.00     0.054 A 
BRANCH  76  77
ATOM     77  S   UNL A   1      49.501  27.689  45.536  1.00  0.00     0.124 S 
ATOM     78  O   UNL A   1      50.094  28.996  45.812  1.00  0.00    -0.237 OA
ATOM     79  O   UNL A   1      48.559  27.203  46.541  1.00  0.00    -0.237 OA
ATOM     80  O   UNL A   1      50.425  26.685  45.014  1.00  0.00    -0.744 OA
ENDBRANCH  76  77
ENDBRANCH  57  71
BRANCH  58  81
ATOM     81  C   UNL A   1      40.769  30.301  34.105  1.00  0.00    -0.014 A 
ATOM     82  C   UNL A   1      41.231  30.948  32.946  1.00  0.00     0.010 A 
ATOM     83  C   UNL A   1      39.423  29.893  34.168  1.00  0.00     0.010 A 
ATOM     84  C   UNL A   1      40.361  31.198  31.879  1.00  0.00     0.020 A 
ATOM     85  C   UNL A   1      38.558  30.113  33.092  1.00  0.00     0.020 A 
ATOM     86  C   UNL A   1      39.032  30.774  31.958  1.00  0.00     0.054 A 
BRANCH  86  87
ATOM     87  S   UNL A   1      37.935  31.061  30.541  1.00  0.00     0.124 S 
ATOM     88  O   UNL A   1      36.952  29.994  30.695  1.00  0.00    -0.237 OA
ATOM     89  O   UNL A   1      37.447  32.415  30.794  1.00  0.00    -0.237 OA
ATOM     90  O   UNL A   1      38.824  30.933  29.389  1.00  0.00    -0.744 OA
ENDBRANCH  86  87
ENDBRANCH  58  81
BRANCH  70  91
ATOM     91  C   UNL A   1      42.505  34.045  39.733  1.00  0.00    -0.014 A 
ATOM     92  C   UNL A   1      43.246  35.176  39.351  1.00  0.00     0.010 A 
ATOM     93  C   UNL A   1      41.367  34.217  40.545  1.00  0.00     0.010 A 
ATOM     94  C   UNL A   1      42.896  36.445  39.823  1.00  0.00     0.020 A 
ATOM     95  C   UNL A   1      40.990  35.487  40.988  1.00  0.00     0.020 A 
ATOM     96  C   UNL A   1      41.773  36.590  40.644  1.00  0.00     0.054 A 
BRANCH  96  97
ATOM     97  S   UNL A   1      41.338  38.245  41.245  1.00  0.00     0.124 S 
ATOM     98  O   UNL A   1      42.636  38.764  41.670  1.00  0.00    -0.237 OA
ATOM     99  O   UNL A   1      40.767  38.878  40.059  1.00  0.00    -0.237 OA
ATOM    100  O   UNL A   1      40.389  37.985  42.325  1.00  0.00    -0.744 OA
ENDBRANCH  96  97
ENDBRANCH  70  91
ENDBRANCH  44  45
ENDBRANCH  37  39
ENDBRANCH  36  37
ENDBRANCH  35  36
ENDBRANCH  34  35
ENDBRANCH  33  34
ENDBRANCH  32  33
ENDBRANCH  31  32
ENDBRANCH   1  31
TORSDOF 28
ENDMDL
MODEL 3
REMARK VINA RESULT:      -4.8      8.061     12.322
REMARK SMILES CC[C@@H](C)[C@@H](C(=O)OCCOCCOCCOCCOC(=O)c1ccc(-c2c3nc(c(-c4ccc(S(=O)(=O)[O-])cc4)c4ccc([nH]4)c(-c4ccc(S(=O)(=O)[O-])cc4)c4nc(c(-c5ccc(S(=O)(=O)[O-])cc5)c5ccc2[nH]5)C=C4)C=C3)cc1)N1C(=O)/C(=C/c2ccc(O)cc2)SC1=S
REMARK SMILES IDX 14 1 13 2 12 3 11 4 10 5 9 6 8 7 6 8 7 9 5 10 3 11 4 12 2 13
REMARK SMILES IDX 1 14 83 15 84 16 96 17 85 18 86 19 95 20 97 21 87 22 88 23
REMARK SMILES IDX 89 24 94 25 90 26 93 27 91 28 92 29 15 31 16 32 17 33 18 34
REMARK SMILES IDX 19 35 20 36 21 37 22 38 23 39 24 40 82 41 25 42 81 43 26 44
REMARK SMILES IDX 27 45 28 46 75 47 29 48 80 49 74 50 76 51 30 52 79 53 73 54
REMARK SMILES IDX 72 55 31 57 61 58 42 59 60 60 43 61 46 62 59 63 77 64 44 65
REMARK SMILES IDX 45 66 58 68 78 69 47 70 32 71 33 72 41 73 34 74 40 75 35 76
REMARK SMILES IDX 36 77 37 78 38 79 39 80 62 81 63 82 71 83 64 84 70 85 65 86
REMARK SMILES IDX 66 87 67 88 68 89 69 90 48 91 49 92 57 93 50 94 56 95 51 96
REMARK SMILES IDX 52 97 53 98 54 99 55 100
REMARK H PARENT 92 30 76 56 46 67
REMARK Flexibility Score: inf
ROOT
ATOM      1  O   UNL A   1      45.675  19.555  37.870  1.00  0.00    -0.377 OA
ENDROOT
BRANCH   1   2
ATOM      2  C   UNL A   1      46.430  19.471  39.074  1.00  0.00     0.188 C 
BRANCH   2   3
ATOM      3  C   UNL A   1      47.025  18.116  39.484  1.00  0.00     0.188 C 
BRANCH   3   4
ATOM      4  O   UNL A   1      48.291  18.232  40.101  1.00  0.00    -0.376 OA
BRANCH   4   5
ATOM      5  C   UNL A   1      49.102  19.299  39.648  1.00  0.00     0.202 C 
BRANCH   5   6
ATOM      6  C   UNL A   1      49.578  19.384  38.175  1.00  0.00     0.261 C 
BRANCH   6   7
ATOM      7  O   UNL A   1      50.846  20.019  37.902  1.00  0.00    -0.462 OA
BRANCH   7   8
ATOM      8  C   UNL A   1      51.509  19.719  36.756  1.00  0.00     0.329 C 
ATOM      9  O   UNL A   1      52.000  18.618  36.519  1.00  0.00    -0.250 OA
BRANCH   8  10
ATOM     10  C   UNL A   1      51.565  20.885  35.710  1.00  0.00     0.204 C 
BRANCH  10  11
ATOM     11  C   UNL A   1      52.936  21.288  35.031  1.00  0.00     0.020 C 
ATOM     12  C   UNL A   1      52.827  22.622  34.267  1.00  0.00     0.010 C 
BRANCH  11  13
ATOM     13  C   UNL A   1      53.475  20.209  34.052  1.00  0.00     0.002 C 
ATOM     14  C   UNL A   1      53.354  20.584  32.573  1.00  0.00     0.004 C 
ENDBRANCH  11  13
ENDBRANCH  10  11
BRANCH  10  15
ATOM     15  N   UNL A   1      50.733  22.053  36.193  1.00  0.00    -0.278 N 
ATOM     16  C   UNL A   1      49.540  22.381  35.575  1.00  0.00     0.267 C 
ATOM     17  C   UNL A   1      51.072  22.900  37.231  1.00  0.00     0.149 C 
ATOM     18  O   UNL A   1      49.081  21.889  34.561  1.00  0.00    -0.268 OA
ATOM     19  C   UNL A   1      48.863  23.530  36.227  1.00  0.00     0.081 C 
ATOM     20  S   UNL A   1      49.692  23.910  37.670  1.00  0.00    -0.054 SA
ATOM     21  S   UNL A   1      52.525  23.069  38.030  1.00  0.00    -0.052 S 
ATOM     22  C   UNL A   1      47.806  24.143  35.666  1.00  0.00     0.029 C 
BRANCH  22  23
ATOM     23  C   UNL A   1      47.099  25.325  36.183  1.00  0.00    -0.024 A 
ATOM     24  C   UNL A   1      45.835  25.186  36.775  1.00  0.00     0.012 A 
ATOM     25  C   UNL A   1      47.651  26.606  36.060  1.00  0.00     0.012 A 
ATOM     26  C   UNL A   1      45.179  26.301  37.306  1.00  0.00     0.047 A 
ATOM     27  C   UNL A   1      47.005  27.719  36.602  1.00  0.00     0.047 A 
ATOM     28  C   UNL A   1      45.780  27.552  37.236  1.00  0.00     0.115 A 
BRANCH  28  29
ATOM     29  O   UNL A   1      45.136  28.608  37.810  1.00  0.00    -0.508 OA
ATOM     30  H   UNL A   1      44.950  29.374  37.304  1.00  0.00     0.293 HD
ENDBRANCH  28  29
ENDBRANCH  22  23
ENDBRANCH  10  15
ENDBRANCH   8  10
ENDBRANCH   7   8
ENDBRANCH   6   7
ENDBRANCH   5   6
ENDBRANCH   4   5
ENDBRANCH   3   4
ENDBRANCH   2   3
ENDBRANCH   1   2
BRANCH   1  31
ATOM     31  C   UNL A   1      46.379  19.697  36.636  1.00  0.00     0.188 C 
BRANCH  31  32
ATOM     32  C   UNL A   1      45.585  19.680  35.308  1.00  0.00     0.188 C 
BRANCH  32  33
ATOM     33  O   UNL A   1      45.612  20.895  34.575  1.00  0.00    -0.376 OA
BRANCH  33  34
ATOM     34  C   UNL A   1      44.882  21.997  35.091  1.00  0.00     0.202 C 
BRANCH  34  35
ATOM     35  C   UNL A   1      43.908  22.721  34.148  1.00  0.00     0.261 C 
BRANCH  35  36
ATOM     36  O   UNL A   1      44.498  23.406  33.030  1.00  0.00    -0.460 OA
BRANCH  36  37
ATOM     37  C   UNL A   1      44.394  24.750  32.999  1.00  0.00     0.338 C 
ATOM     38  O   UNL A   1      43.730  25.454  33.746  1.00  0.00    -0.246 OA
BRANCH  37  39
ATOM     39  C   UNL A   1      45.391  25.268  32.041  1.00  0.00     0.060 A 
ATOM     40  C   UNL A   1      46.528  25.917  32.539  1.00  0.00     0.016 A 
ATOM     41  C   UNL A   1      45.199  25.129  30.665  1.00  0.00     0.016 A 
ATOM     42  C   UNL A   1      47.449  26.478  31.661  1.00  0.00     0.010 A 
ATOM     43  C   UNL A   1      46.113  25.716  29.783  1.00  0.00     0.010 A 
ATOM     44  C   UNL A   1      47.216  26.432  30.281  1.00  0.00    -0.014 A 
BRANCH  44  45
ATOM     45  C   UNL A   1      48.018  27.319  29.403  1.00  0.00     0.031 A 
ATOM     46  C   UNL A   1      47.496  28.701  29.114  1.00  0.00     0.074 A 
ATOM     47  C   UNL A   1      49.231  26.942  28.958  1.00  0.00     0.049 A 
ATOM     48  N   UNL A   1      48.060  29.678  28.454  1.00  0.00    -0.248 NA
ATOM     49  C   UNL A   1      46.162  29.027  29.647  1.00  0.00     0.031 C 
ATOM     50  C   UNL A   1      49.863  25.648  29.217  1.00  0.00     0.029 A 
ATOM     51  N   UNL A   1      50.155  27.627  28.211  1.00  0.00    -0.354 N 
ATOM     52  C   UNL A   1      47.153  30.732  28.493  1.00  0.00     0.074 A 
ATOM     53  C   UNL A   1      45.986  30.263  29.205  1.00  0.00     0.031 C 
ATOM     54  C   UNL A   1      51.079  25.637  28.643  1.00  0.00     0.029 A 
ATOM     55  C   UNL A   1      51.299  26.909  27.957  1.00  0.00     0.049 A 
ATOM     56  H   UNL A   1      50.011  28.544  27.886  1.00  0.00     0.167 HD
ATOM     57  C   UNL A   1      47.283  31.982  27.988  1.00  0.00     0.031 A 
ATOM     58  C   UNL A   1      52.395  27.240  27.246  1.00  0.00     0.031 A 
ATOM     59  C   UNL A   1      48.439  32.439  27.262  1.00  0.00     0.049 A 
ATOM     60  C   UNL A   1      52.487  28.614  26.634  1.00  0.00     0.074 A 
ATOM     61  C   UNL A   1      48.672  33.689  26.715  1.00  0.00     0.029 A 
ATOM     62  N   UNL A   1      49.552  31.663  26.974  1.00  0.00    -0.354 N 
ATOM     63  N   UNL A   1      51.631  29.607  26.698  1.00  0.00    -0.248 NA
ATOM     64  C   UNL A   1      53.704  28.917  25.868  1.00  0.00     0.031 C 
ATOM     65  C   UNL A   1      49.895  33.647  26.039  1.00  0.00     0.029 A 
ATOM     66  C   UNL A   1      50.462  32.397  26.232  1.00  0.00     0.049 A 
ATOM     67  H   UNL A   1      49.677  30.728  27.257  1.00  0.00     0.167 HD
ATOM     68  C   UNL A   1      52.222  30.663  26.009  1.00  0.00     0.074 A 
ATOM     69  C   UNL A   1      53.515  30.192  25.556  1.00  0.00     0.031 C 
ATOM     70  C   UNL A   1      51.742  31.911  25.776  1.00  0.00     0.031 A 
BRANCH  57  71
ATOM     71  C   UNL A   1      46.125  32.930  28.168  1.00  0.00    -0.014 A 
ATOM     72  C   UNL A   1      45.060  32.973  27.249  1.00  0.00     0.010 A 
ATOM     73  C   UNL A   1      46.087  33.771  29.296  1.00  0.00     0.010 A 
ATOM     74  C   UNL A   1      43.999  33.864  27.436  1.00  0.00     0.020 A 
ATOM     75  C   UNL A   1      45.012  34.640  29.502  1.00  0.00     0.020 A 
ATOM     76  C   UNL A   1      43.982  34.692  28.562  1.00  0.00     0.054 A 
BRANCH  76  77
ATOM     77  S   UNL A   1      42.580  35.818  28.794  1.00  0.00     0.124 S 
ATOM     78  O   UNL A   1      43.144  36.821  29.695  1.00  0.00    -0.237 OA
ATOM     79  O   UNL A   1      42.310  36.277  27.434  1.00  0.00    -0.237 OA
ATOM     80  O   UNL A   1      41.544  34.970  29.380  1.00  0.00    -0.744 OA
ENDBRANCH  76  77
ENDBRANCH  57  71
BRANCH  58  81
ATOM     81  C   UNL A   1      53.494  26.249  27.067  1.00  0.00    -0.014 A 
ATOM     82  C   UNL A   1      54.594  26.219  27.942  1.00  0.00     0.010 A 
ATOM     83  C   UNL A   1      53.443  25.328  26.004  1.00  0.00     0.010 A 
ATOM     84  C   UNL A   1      55.630  25.298  27.747  1.00  0.00     0.020 A 
ATOM     85  C   UNL A   1      54.459  24.386  25.825  1.00  0.00     0.020 A 
ATOM     86  C   UNL A   1      55.552  24.384  26.693  1.00  0.00     0.054 A 
BRANCH  86  87
ATOM     87  S   UNL A   1      56.881  23.165  26.491  1.00  0.00     0.124 S 
ATOM     88  O   UNL A   1      57.203  23.296  25.074  1.00  0.00    -0.237 OA
ATOM     89  O   UNL A   1      57.897  23.654  27.419  1.00  0.00    -0.237 OA
ATOM     90  O   UNL A   1      56.250  21.905  26.876  1.00  0.00    -0.744 OA
ENDBRANCH  86  87
ENDBRANCH  58  81
BRANCH  70  91
ATOM     91  C   UNL A   1      52.638  32.869  25.032  1.00  0.00    -0.014 A 
ATOM     92  C   UNL A   1      53.463  33.784  25.708  1.00  0.00     0.010 A 
ATOM     93  C   UNL A   1      52.666  32.836  23.624  1.00  0.00     0.010 A 
ATOM     94  C   UNL A   1      54.251  34.691  24.991  1.00  0.00     0.020 A 
ATOM     95  C   UNL A   1      53.480  33.713  22.904  1.00  0.00     0.020 A 
ATOM     96  C   UNL A   1      54.249  34.652  23.593  1.00  0.00     0.054 A 
BRANCH  96  97
ATOM     97  S   UNL A   1      55.278  35.838  22.686  1.00  0.00     0.124 S 
ATOM     98  O   UNL A   1      56.584  35.647  23.312  1.00  0.00    -0.237 OA
ATOM     99  O   UNL A   1      55.168  35.370  21.307  1.00  0.00    -0.237 OA
ATOM    100  O   UNL A   1      54.642  37.126  22.953  1.00  0.00    -0.744 OA
ENDBRANCH  96  97
ENDBRANCH  70  91
ENDBRANCH  44  45
ENDBRANCH  37  39
ENDBRANCH  36  37
ENDBRANCH  35  36
ENDBRANCH  34  35
ENDBRANCH  33  34
ENDBRANCH  32  33
ENDBRANCH  31  32
ENDBRANCH   1  31
TORSDOF 28
ENDMDL
