MODEL 1
REMARK VINA RESULT:      -9.8      0.000      0.000
REMARK SMILES O=C(OCCOCCOCCOCCOC(=O)[C@H]1CC=CC[C@H]1C(=O)Nc1ccc(S(=O)(=O)N2CCc3ccccc32)cc1)c1ccc(-c2c3nc(c(-c4ccc(S(=O)(=O)[O-])cc4)c4ccc([nH]4)c(-c4ccc(S(=O)(=O)[O-])cc4)c4nc(c(-c5ccc(S(=O)(=O)[O-])cc5)c5ccc2[nH]5)C=C4)C=C3)cc1
REMARK SMILES IDX 10 1 9 2 8 3 7 4 6 5 5 6 4 7 3 8 2 9 1 10 45 11 46 12 104 13
REMARK SMILES IDX 47 14 103 15 48 16 49 17 50 18 97 19 51 20 102 21 96 22
REMARK SMILES IDX 98 23 52 24 101 25 95 26 94 27 53 29 83 30 64 31 82 32 65 33
REMARK SMILES IDX 68 34 81 35 99 36 66 37 67 38 80 40 100 41 69 42 54 43 55 44
REMARK SMILES IDX 63 45 56 46 62 47 57 48 58 49 59 50 60 51 61 52 84 53 85 54
REMARK SMILES IDX 93 55 86 56 92 57 87 58 88 59 89 60 90 61 91 62 70 63 71 64
REMARK SMILES IDX 79 65 72 66 78 67 73 68 74 69 75 70 76 71 77 72 11 73 12 74
REMARK SMILES IDX 13 75 14 76 15 77 16 78 17 79 18 80 19 81 23 82 20 83 22 84
REMARK SMILES IDX 21 85 24 86 25 87 26 88 27 90 28 91 44 92 29 93 43 94 30 95
REMARK SMILES IDX 31 96 32 97 33 98 34 99 35 100 42 101 36 102 37 103 41 104
REMARK SMILES IDX 38 105 40 106 39 107
REMARK H PARENT 98 28 68 39 26 89
REMARK Flexibility Score: inf
ROOT
ATOM      1  C   UNL A   1      39.387  22.598  26.784  1.00  0.00     0.188 C 
ENDROOT
BRANCH   1   2
ATOM      2  O   UNL A   1      40.729  22.977  26.475  1.00  0.00    -0.377 OA
BRANCH   2   3
ATOM      3  C   UNL A   1      41.733  22.098  25.960  1.00  0.00     0.188 C 
BRANCH   3   4
ATOM      4  C   UNL A   1      43.156  22.187  26.463  1.00  0.00     0.188 C 
BRANCH   4   5
ATOM      5  O   UNL A   1      44.009  22.728  25.486  1.00  0.00    -0.376 OA
BRANCH   5   6
ATOM      6  C   UNL A   1      45.083  23.536  25.912  1.00  0.00     0.202 C 
BRANCH   6   7
ATOM      7  C   UNL A   1      44.513  24.812  26.505  1.00  0.00     0.261 C 
BRANCH   7   8
ATOM      8  O   UNL A   1      44.405  25.879  25.541  1.00  0.00    -0.460 OA
BRANCH   8   9
ATOM      9  C   UNL A   1      43.574  26.952  25.486  1.00  0.00     0.338 C 
ATOM     10  O   UNL A   1      42.585  26.843  24.756  1.00  0.00    -0.246 OA
BRANCH   9  11
ATOM     11  C   UNL A   1      43.730  28.266  26.223  1.00  0.00     0.060 A 
ATOM     12  C   UNL A   1      44.908  28.797  26.772  1.00  0.00     0.016 A 
ATOM     13  C   UNL A   1      42.558  29.040  26.353  1.00  0.00     0.016 A 
ATOM     14  C   UNL A   1      44.932  30.043  27.409  1.00  0.00     0.010 A 
ATOM     15  C   UNL A   1      42.546  30.235  27.080  1.00  0.00     0.010 A 
ATOM     16  C   UNL A   1      43.728  30.697  27.666  1.00  0.00    -0.014 A 
BRANCH  16  17
ATOM     17  C   UNL A   1      43.643  31.472  28.924  1.00  0.00     0.031 A 
ATOM     18  C   UNL A   1      43.703  32.971  28.763  1.00  0.00     0.074 A 
ATOM     19  C   UNL A   1      43.484  30.895  30.123  1.00  0.00     0.049 A 
ATOM     20  N   UNL A   1      43.726  33.908  29.668  1.00  0.00    -0.248 NA
ATOM     21  C   UNL A   1      43.731  33.484  27.379  1.00  0.00     0.031 C 
ATOM     22  C   UNL A   1      43.314  29.466  30.358  1.00  0.00     0.029 A 
ATOM     23  N   UNL A   1      43.438  31.447  31.376  1.00  0.00    -0.354 N 
ATOM     24  C   UNL A   1      43.788  35.105  28.959  1.00  0.00     0.074 A 
ATOM     25  C   UNL A   1      43.787  34.789  27.557  1.00  0.00     0.031 C 
ATOM     26  C   UNL A   1      43.199  29.248  31.682  1.00  0.00     0.029 A 
ATOM     27  C   UNL A   1      43.328  30.516  32.382  1.00  0.00     0.049 A 
ATOM     28  H   UNL A   1      43.480  32.416  31.540  1.00  0.00     0.167 HD
ATOM     29  C   UNL A   1      43.876  36.363  29.441  1.00  0.00     0.031 A 
ATOM     30  C   UNL A   1      43.374  30.681  33.717  1.00  0.00     0.031 A 
ATOM     31  C   UNL A   1      43.977  36.635  30.843  1.00  0.00     0.049 A 
ATOM     32  C   UNL A   1      43.596  32.074  34.236  1.00  0.00     0.074 A 
ATOM     33  C   UNL A   1      44.157  37.845  31.480  1.00  0.00     0.029 A 
ATOM     34  N   UNL A   1      43.928  35.654  31.826  1.00  0.00    -0.354 N 
ATOM     35  N   UNL A   1      43.719  33.193  33.558  1.00  0.00    -0.248 NA
ATOM     36  C   UNL A   1      43.704  32.228  35.690  1.00  0.00     0.031 C 
ATOM     37  C   UNL A   1      44.283  37.586  32.848  1.00  0.00     0.029 A 
ATOM     38  C   UNL A   1      44.096  36.227  33.068  1.00  0.00     0.049 A 
ATOM     39  H   UNL A   1      43.794  34.692  31.661  1.00  0.00     0.167 HD
ATOM     40  C   UNL A   1      43.898  34.190  34.505  1.00  0.00     0.074 A 
ATOM     41  C   UNL A   1      43.867  33.539  35.802  1.00  0.00     0.031 C 
ATOM     42  C   UNL A   1      44.064  35.524  34.327  1.00  0.00     0.031 A 
BRANCH  29  43
ATOM     43  C   UNL A   1      43.995  37.472  28.431  1.00  0.00    -0.014 A 
ATOM     44  C   UNL A   1      45.243  38.027  28.085  1.00  0.00     0.010 A 
ATOM     45  C   UNL A   1      42.826  38.026  27.877  1.00  0.00     0.010 A 
ATOM     46  C   UNL A   1      45.313  39.146  27.248  1.00  0.00     0.020 A 
ATOM     47  C   UNL A   1      42.895  39.124  27.015  1.00  0.00     0.020 A 
ATOM     48  C   UNL A   1      44.137  39.690  26.724  1.00  0.00     0.054 A 
BRANCH  48  49
ATOM     49  S   UNL A   1      44.255  41.148  25.650  1.00  0.00     0.124 S 
ATOM     50  O   UNL A   1      42.962  41.128  24.971  1.00  0.00    -0.237 OA
ATOM     51  O   UNL A   1      44.444  42.235  26.607  1.00  0.00    -0.237 OA
ATOM     52  O   UNL A   1      45.409  40.861  24.802  1.00  0.00    -0.744 OA
ENDBRANCH  48  49
ENDBRANCH  29  43
BRANCH  30  53
ATOM     53  C   UNL A   1      43.298  29.516  34.640  1.00  0.00    -0.014 A 
ATOM     54  C   UNL A   1      42.099  28.802  34.816  1.00  0.00     0.010 A 
ATOM     55  C   UNL A   1      44.438  29.118  35.359  1.00  0.00     0.010 A 
ATOM     56  C   UNL A   1      42.047  27.703  35.684  1.00  0.00     0.020 A 
ATOM     57  C   UNL A   1      44.388  28.023  36.229  1.00  0.00     0.020 A 
ATOM     58  C   UNL A   1      43.196  27.315  36.380  1.00  0.00     0.054 A 
BRANCH  58  59
ATOM     59  S   UNL A   1      43.136  25.836  37.432  1.00  0.00     0.124 S 
ATOM     60  O   UNL A   1      43.565  26.356  38.726  1.00  0.00    -0.237 OA
ATOM     61  O   UNL A   1      41.733  25.436  37.343  1.00  0.00    -0.237 OA
ATOM     62  O   UNL A   1      44.073  24.914  36.790  1.00  0.00    -0.744 OA
ENDBRANCH  58  59
ENDBRANCH  30  53
BRANCH  42  63
ATOM     63  C   UNL A   1      44.164  36.366  35.562  1.00  0.00    -0.014 A 
ATOM     64  C   UNL A   1      43.017  36.836  36.222  1.00  0.00     0.010 A 
ATOM     65  C   UNL A   1      45.435  36.598  36.115  1.00  0.00     0.010 A 
ATOM     66  C   UNL A   1      43.145  37.544  37.416  1.00  0.00     0.020 A 
ATOM     67  C   UNL A   1      45.564  37.274  37.325  1.00  0.00     0.020 A 
ATOM     68  C   UNL A   1      44.418  37.751  37.964  1.00  0.00     0.054 A 
BRANCH  68  69
ATOM     69  S   UNL A   1      44.551  38.601  39.557  1.00  0.00     0.124 S 
ATOM     70  O   UNL A   1      44.312  37.513  40.501  1.00  0.00    -0.237 OA
ATOM     71  O   UNL A   1      45.916  39.121  39.527  1.00  0.00    -0.237 OA
ATOM     72  O   UNL A   1      43.502  39.616  39.496  1.00  0.00    -0.744 OA
ENDBRANCH  68  69
ENDBRANCH  42  63
ENDBRANCH  16  17
ENDBRANCH   9  11
ENDBRANCH   8   9
ENDBRANCH   7   8
ENDBRANCH   6   7
ENDBRANCH   5   6
ENDBRANCH   4   5
ENDBRANCH   3   4
ENDBRANCH   2   3
ENDBRANCH   1   2
BRANCH   1  73
ATOM     73  C   UNL A   1      38.197  22.618  25.749  1.00  0.00     0.188 C 
BRANCH  73  74
ATOM     74  O   UNL A   1      37.021  23.597  25.681  1.00  0.00    -0.376 OA
BRANCH  74  75
ATOM     75  C   UNL A   1      35.202  24.161  26.290  1.00  0.00     0.202 C 
BRANCH  75  76
ATOM     76  C   UNL A   1      34.054  25.192  25.640  1.00  0.00     0.261 C 
BRANCH  76  77
ATOM     77  O   UNL A   1      34.445  26.563  25.348  1.00  0.00    -0.463 OA
BRANCH  77  78
ATOM     78  C   UNL A   1      33.607  27.216  24.502  1.00  0.00     0.310 C 
ATOM     79  O   UNL A   1      33.962  27.601  23.391  1.00  0.00    -0.252 OA
BRANCH  78  80
ATOM     80  C   UNL A   1      32.156  27.376  25.016  1.00  0.00     0.116 C 
ATOM     81  C   UNL A   1      32.176  28.265  26.300  1.00  0.00     0.043 C 
ATOM     82  C   UNL A   1      30.951  27.802  24.114  1.00  0.00     0.097 C 
ATOM     83  C   UNL A   1      31.993  29.739  26.062  1.00  0.00    -0.030 C 
ATOM     84  C   UNL A   1      30.383  29.250  24.245  1.00  0.00     0.041 C 
ATOM     85  C   UNL A   1      31.144  30.190  25.131  1.00  0.00    -0.030 C 
BRANCH  82  86
ATOM     86  C   UNL A   1      30.830  27.295  22.671  1.00  0.00     0.228 C 
ATOM     87  O   UNL A   1      30.416  28.092  21.813  1.00  0.00    -0.274 OA
ATOM     88  N   UNL A   1      31.212  26.081  22.209  1.00  0.00    -0.326 N 
ATOM     89  H   UNL A   1      31.083  25.975  21.239  1.00  0.00     0.169 HD
BRANCH  88  90
ATOM     90  C   UNL A   1      31.751  24.946  22.820  1.00  0.00     0.041 A 
ATOM     91  C   UNL A   1      33.366  24.270  22.266  1.00  0.00     0.027 A 
ATOM     92  C   UNL A   1      30.868  24.097  24.161  1.00  0.00     0.027 A 
ATOM     93  C   UNL A   1      33.977  22.733  23.007  1.00  0.00     0.024 A 
ATOM     94  C   UNL A   1      31.470  22.583  24.849  1.00  0.00     0.024 A 
ATOM     95  C   UNL A   1      33.009  21.927  24.292  1.00  0.00     0.088 A 
BRANCH  95  96
ATOM     96  S   UNL A   1      33.505  20.460  25.089  1.00  0.00     0.264 S 
ATOM     97  O   UNL A   1      34.803  20.792  25.636  1.00  0.00    -0.201 OA
ATOM     98  O   UNL A   1      32.398  20.057  25.924  1.00  0.00    -0.201 OA
BRANCH  96  99
ATOM     99  N   UNL A   1      33.611  19.447  23.677  1.00  0.00    -0.266 N 
ATOM    100  C   UNL A   1      32.285  19.253  22.954  1.00  0.00     0.140 C 
ATOM    101  C   UNL A   1      34.071  18.137  24.011  1.00  0.00     0.055 A 
ATOM    102  C   UNL A   1      32.117  17.738  22.740  1.00  0.00     0.060 C 
ATOM    103  C   UNL A   1      33.117  17.186  23.694  1.00  0.00    -0.022 A 
ATOM    104  C   UNL A   1      35.224  17.833  24.712  1.00  0.00     0.027 A 
ATOM    105  C   UNL A   1      33.177  15.943  24.284  1.00  0.00     0.006 A 
ATOM    106  C   UNL A   1      35.287  16.591  25.327  1.00  0.00     0.002 A 
ATOM    107  C   UNL A   1      34.246  15.670  25.147  1.00  0.00     0.000 A 
ENDBRANCH  96  99
ENDBRANCH  95  96
ENDBRANCH  88  90
ENDBRANCH  82  86
ENDBRANCH  78  80
ENDBRANCH  77  78
ENDBRANCH  76  77
ENDBRANCH  75  76
ENDBRANCH  74  75
ENDBRANCH  73  74
ENDBRANCH   1  73
TORSDOF 27
ENDMDL
MODEL 2
REMARK VINA RESULT:      -8.9      7.648     13.138
REMARK SMILES O=C(OCCOCCOCCOCCOC(=O)[C@H]1CC=CC[C@H]1C(=O)Nc1ccc(S(=O)(=O)N2CCc3ccccc32)cc1)c1ccc(-c2c3nc(c(-c4ccc(S(=O)(=O)[O-])cc4)c4ccc([nH]4)c(-c4ccc(S(=O)(=O)[O-])cc4)c4nc(c(-c5ccc(S(=O)(=O)[O-])cc5)c5ccc2[nH]5)C=C4)C=C3)cc1
REMARK SMILES IDX 10 1 9 2 8 3 7 4 6 5 5 6 4 7 3 8 2 9 1 10 45 11 46 12 104 13
REMARK SMILES IDX 47 14 103 15 48 16 49 17 50 18 97 19 51 20 102 21 96 22
REMARK SMILES IDX 98 23 52 24 101 25 95 26 94 27 53 29 83 30 64 31 82 32 65 33
REMARK SMILES IDX 68 34 81 35 99 36 66 37 67 38 80 40 100 41 69 42 54 43 55 44
REMARK SMILES IDX 63 45 56 46 62 47 57 48 58 49 59 50 60 51 61 52 84 53 85 54
REMARK SMILES IDX 93 55 86 56 92 57 87 58 88 59 89 60 90 61 91 62 70 63 71 64
REMARK SMILES IDX 79 65 72 66 78 67 73 68 74 69 75 70 76 71 77 72 11 73 12 74
REMARK SMILES IDX 13 75 14 76 15 77 16 78 17 79 18 80 19 81 23 82 20 83 22 84
REMARK SMILES IDX 21 85 24 86 25 87 26 88 27 90 28 91 44 92 29 93 43 94 30 95
REMARK SMILES IDX 31 96 32 97 33 98 34 99 35 100 42 101 36 102 37 103 41 104
REMARK SMILES IDX 38 105 40 106 39 107
REMARK H PARENT 98 28 68 39 26 89
REMARK Flexibility Score: inf
ROOT
ATOM      1  C   UNL A   1      35.216  35.204  33.464  1.00  0.00     0.188 C 
ENDROOT
BRANCH   1   2
ATOM      2  O   UNL A   1      34.510  36.408  33.764  1.00  0.00    -0.377 OA
BRANCH   2   3
ATOM      3  C   UNL A   1      33.395  36.914  33.023  1.00  0.00     0.188 C 
BRANCH   3   4
ATOM      4  C   UNL A   1      33.569  37.343  31.583  1.00  0.00     0.188 C 
BRANCH   4   5
ATOM      5  O   UNL A   1      32.565  36.799  30.764  1.00  0.00    -0.376 OA
BRANCH   5   6
ATOM      6  C   UNL A   1      32.957  36.007  29.666  1.00  0.00     0.202 C 
BRANCH   6   7
ATOM      7  C   UNL A   1      33.731  34.811  30.192  1.00  0.00     0.261 C 
BRANCH   7   8
ATOM      8  O   UNL A   1      34.073  33.865  29.159  1.00  0.00    -0.460 OA
BRANCH   8   9
ATOM      9  C   UNL A   1      35.275  33.506  28.638  1.00  0.00     0.338 C 
ATOM     10  O   UNL A   1      35.393  33.605  27.414  1.00  0.00    -0.246 OA
BRANCH   9  11
ATOM     11  C   UNL A   1      36.483  32.997  29.398  1.00  0.00     0.060 A 
ATOM     12  C   UNL A   1      36.958  33.448  30.640  1.00  0.00     0.016 A 
ATOM     13  C   UNL A   1      37.194  31.944  28.785  1.00  0.00     0.016 A 
ATOM     14  C   UNL A   1      38.075  32.876  31.258  1.00  0.00     0.010 A 
ATOM     15  C   UNL A   1      38.374  31.437  29.340  1.00  0.00     0.010 A 
ATOM     16  C   UNL A   1      38.847  31.958  30.547  1.00  0.00    -0.014 A 
BRANCH  16  17
ATOM     17  C   UNL A   1      40.307  31.984  30.787  1.00  0.00     0.031 A 
ATOM     18  C   UNL A   1      41.021  33.215  30.287  1.00  0.00     0.074 A 
ATOM     19  C   UNL A   1      40.954  31.006  31.436  1.00  0.00     0.049 A 
ATOM     20  N   UNL A   1      42.293  33.500  30.280  1.00  0.00    -0.248 NA
ATOM     21  C   UNL A   1      40.173  34.283  29.720  1.00  0.00     0.031 C 
ATOM     22  C   UNL A   1      40.329  29.835  32.040  1.00  0.00     0.029 A 
ATOM     23  N   UNL A   1      42.289  30.845  31.697  1.00  0.00    -0.354 N 
ATOM     24  C   UNL A   1      42.387  34.761  29.699  1.00  0.00     0.074 A 
ATOM     25  C   UNL A   1      41.057  35.199  29.374  1.00  0.00     0.031 C 
ATOM     26  C   UNL A   1      41.284  29.062  32.590  1.00  0.00     0.029 A 
ATOM     27  C   UNL A   1      42.584  29.665  32.339  1.00  0.00     0.049 A 
ATOM     28  H   UNL A   1      42.971  31.508  31.449  1.00  0.00     0.167 HD
ATOM     29  C   UNL A   1      43.497  35.479  29.423  1.00  0.00     0.031 A 
ATOM     30  C   UNL A   1      43.779  29.124  32.642  1.00  0.00     0.031 A 
ATOM     31  C   UNL A   1      44.812  34.968  29.668  1.00  0.00     0.049 A 
ATOM     32  C   UNL A   1      45.007  29.878  32.219  1.00  0.00     0.074 A 
ATOM     33  C   UNL A   1      46.032  35.537  29.366  1.00  0.00     0.029 A 
ATOM     34  N   UNL A   1      45.066  33.737  30.260  1.00  0.00    -0.354 N 
ATOM     35  N   UNL A   1      45.090  31.041  31.611  1.00  0.00    -0.248 NA
ATOM     36  C   UNL A   1      46.300  29.247  32.504  1.00  0.00     0.031 C 
ATOM     37  C   UNL A   1      47.024  34.617  29.718  1.00  0.00     0.029 A 
ATOM     38  C   UNL A   1      46.425  33.515  30.316  1.00  0.00     0.049 A 
ATOM     39  H   UNL A   1      44.377  33.115  30.591  1.00  0.00     0.167 HD
ATOM     40  C   UNL A   1      46.445  31.292  31.458  1.00  0.00     0.074 A 
ATOM     41  C   UNL A   1      47.143  30.158  32.038  1.00  0.00     0.031 C 
ATOM     42  C   UNL A   1      47.062  32.362  30.899  1.00  0.00     0.031 A 
BRANCH  29  43
ATOM     43  C   UNL A   1      43.299  36.797  28.725  1.00  0.00    -0.014 A 
ATOM     44  C   UNL A   1      43.296  38.015  29.432  1.00  0.00     0.010 A 
ATOM     45  C   UNL A   1      43.029  36.809  27.344  1.00  0.00     0.010 A 
ATOM     46  C   UNL A   1      42.974  39.211  28.781  1.00  0.00     0.020 A 
ATOM     47  C   UNL A   1      42.739  38.007  26.684  1.00  0.00     0.020 A 
ATOM     48  C   UNL A   1      42.692  39.197  27.412  1.00  0.00     0.054 A 
BRANCH  48  49
ATOM     49  S   UNL A   1      42.267  40.760  26.595  1.00  0.00     0.124 S 
ATOM     50  O   UNL A   1      40.882  40.956  27.017  1.00  0.00    -0.237 OA
ATOM     51  O   UNL A   1      43.234  41.693  27.168  1.00  0.00    -0.237 OA
ATOM     52  O   UNL A   1      42.450  40.470  25.175  1.00  0.00    -0.744 OA
ENDBRANCH  48  49
ENDBRANCH  29  43
BRANCH  30  53
ATOM     53  C   UNL A   1      43.877  27.789  33.291  1.00  0.00    -0.014 A 
ATOM     54  C   UNL A   1      44.077  26.621  32.533  1.00  0.00     0.010 A 
ATOM     55  C   UNL A   1      43.764  27.680  34.688  1.00  0.00     0.010 A 
ATOM     56  C   UNL A   1      44.174  25.373  33.162  1.00  0.00     0.020 A 
ATOM     57  C   UNL A   1      43.858  26.435  35.319  1.00  0.00     0.020 A 
ATOM     58  C   UNL A   1      44.072  25.288  34.554  1.00  0.00     0.054 A 
BRANCH  58  59
ATOM     59  S   UNL A   1      44.289  23.676  35.361  1.00  0.00     0.124 S 
ATOM     60  O   UNL A   1      45.467  23.144  34.685  1.00  0.00    -0.237 OA
ATOM     61  O   UNL A   1      44.475  24.043  36.764  1.00  0.00    -0.237 OA
ATOM     62  O   UNL A   1      43.038  22.974  35.077  1.00  0.00    -0.744 OA
ENDBRANCH  58  59
ENDBRANCH  30  53
BRANCH  42  63
ATOM     63  C   UNL A   1      48.560  32.380  30.944  1.00  0.00    -0.014 A 
ATOM     64  C   UNL A   1      49.331  31.906  29.871  1.00  0.00     0.010 A 
ATOM     65  C   UNL A   1      49.190  32.980  32.048  1.00  0.00     0.010 A 
ATOM     66  C   UNL A   1      50.720  32.019  29.911  1.00  0.00     0.020 A 
ATOM     67  C   UNL A   1      50.575  33.125  32.075  1.00  0.00     0.020 A 
ATOM     68  C   UNL A   1      51.331  32.635  31.010  1.00  0.00     0.054 A 
BRANCH  68  69
ATOM     69  S   UNL A   1      53.130  32.842  31.000  1.00  0.00     0.124 S 
ATOM     70  O   UNL A   1      53.398  33.093  29.586  1.00  0.00    -0.237 OA
ATOM     71  O   UNL A   1      53.324  33.984  31.890  1.00  0.00    -0.237 OA
ATOM     72  O   UNL A   1      53.628  31.568  31.512  1.00  0.00    -0.744 OA
ENDBRANCH  68  69
ENDBRANCH  42  63
ENDBRANCH  16  17
ENDBRANCH   9  11
ENDBRANCH   8   9
ENDBRANCH   7   8
ENDBRANCH   6   7
ENDBRANCH   5   6
ENDBRANCH   4   5
ENDBRANCH   3   4
ENDBRANCH   2   3
ENDBRANCH   1   2
BRANCH   1  73
ATOM     73  C   UNL A   1      34.905  33.803  34.120  1.00  0.00     0.188 C 
BRANCH  73  74
ATOM     74  O   UNL A   1      35.900  32.729  34.569  1.00  0.00    -0.376 OA
BRANCH  74  75
ATOM     75  C   UNL A   1      37.698  31.869  34.425  1.00  0.00     0.202 C 
BRANCH  75  76
ATOM     76  C   UNL A   1      38.898  31.549  35.549  1.00  0.00     0.261 C 
BRANCH  76  77
ATOM     77  O   UNL A   1      40.260  31.367  35.071  1.00  0.00    -0.463 OA
BRANCH  77  78
ATOM     78  C   UNL A   1      41.218  31.813  35.925  1.00  0.00     0.310 C 
ATOM     79  O   UNL A   1      41.744  31.085  36.762  1.00  0.00    -0.252 OA
BRANCH  78  80
ATOM     80  C   UNL A   1      41.642  33.287  35.715  1.00  0.00     0.116 C 
ATOM     81  C   UNL A   1      41.642  33.593  34.184  1.00  0.00     0.043 C 
ATOM     82  C   UNL A   1      41.009  34.496  36.482  1.00  0.00     0.097 C 
ATOM     83  C   UNL A   1      40.352  34.144  33.640  1.00  0.00    -0.030 C 
ATOM     84  C   UNL A   1      40.017  35.434  35.726  1.00  0.00     0.041 C 
ATOM     85  C   UNL A   1      39.619  35.014  34.343  1.00  0.00    -0.030 C 
BRANCH  82  86
ATOM     86  C   UNL A   1      40.629  34.376  37.963  1.00  0.00     0.228 C 
ATOM     87  O   UNL A   1      39.431  34.513  38.264  1.00  0.00    -0.274 OA
ATOM     88  N   UNL A   1      41.457  34.049  38.983  1.00  0.00    -0.326 N 
ATOM     89  H   UNL A   1      40.999  33.989  39.852  1.00  0.00     0.169 HD
BRANCH  88  90
ATOM     90  C   UNL A   1      42.826  33.780  39.063  1.00  0.00     0.041 A 
ATOM     91  C   UNL A   1      44.053  35.123  38.813  1.00  0.00     0.027 A 
ATOM     92  C   UNL A   1      43.431  32.100  39.396  1.00  0.00     0.027 A 
ATOM     93  C   UNL A   1      45.818  34.712  38.813  1.00  0.00     0.024 A 
ATOM     94  C   UNL A   1      45.158  31.719  39.363  1.00  0.00     0.024 A 
ATOM     95  C   UNL A   1      46.328  33.010  39.095  1.00  0.00     0.088 A 
BRANCH  95  96
ATOM     96  S   UNL A   1      47.993  32.502  39.138  1.00  0.00     0.264 S 
ATOM     97  O   UNL A   1      48.633  33.497  39.971  1.00  0.00    -0.201 OA
ATOM     98  O   UNL A   1      47.982  31.100  39.485  1.00  0.00    -0.201 OA
BRANCH  96  99
ATOM     99  N   UNL A   1      48.349  32.713  37.446  1.00  0.00    -0.266 N 
ATOM    100  C   UNL A   1      48.270  34.158  36.973  1.00  0.00     0.140 C 
ATOM    101  C   UNL A   1      47.434  31.982  36.629  1.00  0.00     0.055 A 
ATOM    102  C   UNL A   1      47.387  34.162  35.712  1.00  0.00     0.060 C 
ATOM    103  C   UNL A   1      46.717  32.837  35.810  1.00  0.00    -0.022 A 
ATOM    104  C   UNL A   1      47.149  30.632  36.732  1.00  0.00     0.027 A 
ATOM    105  C   UNL A   1      45.534  32.406  35.252  1.00  0.00     0.006 A 
ATOM    106  C   UNL A   1      45.950  30.192  36.191  1.00  0.00     0.002 A 
ATOM    107  C   UNL A   1      45.128  31.088  35.492  1.00  0.00     0.000 A 
ENDBRANCH  96  99
ENDBRANCH  95  96
ENDBRANCH  88  90
ENDBRANCH  82  86
ENDBRANCH  78  80
ENDBRANCH  77  78
ENDBRANCH  76  77
ENDBRANCH  75  76
ENDBRANCH  74  75
ENDBRANCH  73  74
ENDBRANCH   1  73
TORSDOF 27
ENDMDL
MODEL 3
REMARK VINA RESULT:      -8.6      5.373      8.700
REMARK SMILES O=C(OCCOCCOCCOCCOC(=O)[C@H]1CC=CC[C@H]1C(=O)Nc1ccc(S(=O)(=O)N2CCc3ccccc32)cc1)c1ccc(-c2c3nc(c(-c4ccc(S(=O)(=O)[O-])cc4)c4ccc([nH]4)c(-c4ccc(S(=O)(=O)[O-])cc4)c4nc(c(-c5ccc(S(=O)(=O)[O-])cc5)c5ccc2[nH]5)C=C4)C=C3)cc1
REMARK SMILES IDX 10 1 9 2 8 3 7 4 6 5 5 6 4 7 3 8 2 9 1 10 45 11 46 12 104 13
REMARK SMILES IDX 47 14 103 15 48 16 49 17 50 18 97 19 51 20 102 21 96 22
REMARK SMILES IDX 98 23 52 24 101 25 95 26 94 27 53 29 83 30 64 31 82 32 65 33
REMARK SMILES IDX 68 34 81 35 99 36 66 37 67 38 80 40 100 41 69 42 54 43 55 44
REMARK SMILES IDX 63 45 56 46 62 47 57 48 58 49 59 50 60 51 61 52 84 53 85 54
REMARK SMILES IDX 93 55 86 56 92 57 87 58 88 59 89 60 90 61 91 62 70 63 71 64
REMARK SMILES IDX 79 65 72 66 78 67 73 68 74 69 75 70 76 71 77 72 11 73 12 74
REMARK SMILES IDX 13 75 14 76 15 77 16 78 17 79 18 80 19 81 23 82 20 83 22 84
REMARK SMILES IDX 21 85 24 86 25 87 26 88 27 90 28 91 44 92 29 93 43 94 30 95
REMARK SMILES IDX 31 96 32 97 33 98 34 99 35 100 42 101 36 102 37 103 41 104
REMARK SMILES IDX 38 105 40 106 39 107
REMARK H PARENT 98 28 68 39 26 89
REMARK Flexibility Score: inf
ROOT
ATOM      1  C   UNL A   1      42.363  28.549  30.178  1.00  0.00     0.188 C 
ENDROOT
BRANCH   1   2
ATOM      2  O   UNL A   1      40.989  28.402  29.819  1.00  0.00    -0.377 OA
BRANCH   2   3
ATOM      3  C   UNL A   1      40.121  29.473  29.436  1.00  0.00     0.188 C 
BRANCH   3   4
ATOM      4  C   UNL A   1      39.036  29.245  28.407  1.00  0.00     0.188 C 
BRANCH   4   5
ATOM      5  O   UNL A   1      37.795  29.002  29.019  1.00  0.00    -0.376 OA
BRANCH   5   6
ATOM      6  C   UNL A   1      36.669  29.705  28.544  1.00  0.00     0.202 C 
BRANCH   6   7
ATOM      7  C   UNL A   1      36.754  31.136  29.047  1.00  0.00     0.261 C 
BRANCH   7   8
ATOM      8  O   UNL A   1      36.493  31.251  30.460  1.00  0.00    -0.460 OA
BRANCH   8   9
ATOM      9  C   UNL A   1      36.083  32.306  31.210  1.00  0.00     0.338 C 
ATOM     10  O   UNL A   1      35.396  33.154  30.634  1.00  0.00    -0.246 OA
BRANCH   9  11
ATOM     11  C   UNL A   1      36.377  32.553  32.675  1.00  0.00     0.060 A 
ATOM     12  C   UNL A   1      35.908  33.612  33.470  1.00  0.00     0.016 A 
ATOM     13  C   UNL A   1      37.204  31.599  33.304  1.00  0.00     0.016 A 
ATOM     14  C   UNL A   1      36.228  33.718  34.827  1.00  0.00     0.010 A 
ATOM     15  C   UNL A   1      37.619  31.751  34.632  1.00  0.00     0.010 A 
ATOM     16  C   UNL A   1      37.180  32.855  35.369  1.00  0.00    -0.014 A 
BRANCH  16  17
ATOM     17  C   UNL A   1      38.067  33.409  36.416  1.00  0.00     0.031 A 
ATOM     18  C   UNL A   1      39.193  34.277  35.915  1.00  0.00     0.074 A 
ATOM     19  C   UNL A   1      37.868  33.193  37.725  1.00  0.00     0.049 A 
ATOM     20  N   UNL A   1      40.170  34.840  36.569  1.00  0.00    -0.248 NA
ATOM     21  C   UNL A   1      39.215  34.555  34.465  1.00  0.00     0.031 C 
ATOM     22  C   UNL A   1      36.750  32.454  38.299  1.00  0.00     0.029 A 
ATOM     23  N   UNL A   1      38.608  33.579  38.811  1.00  0.00    -0.354 N 
ATOM     24  C   UNL A   1      40.916  35.517  35.609  1.00  0.00     0.074 A 
ATOM     25  C   UNL A   1      40.287  35.311  34.333  1.00  0.00     0.031 C 
ATOM     26  C   UNL A   1      36.884  32.425  39.639  1.00  0.00     0.029 A 
ATOM     27  C   UNL A   1      38.117  33.105  40.005  1.00  0.00     0.049 A 
ATOM     28  H   UNL A   1      39.413  34.140  38.743  1.00  0.00     0.167 HD
ATOM     29  C   UNL A   1      42.057  36.221  35.774  1.00  0.00     0.031 A 
ATOM     30  C   UNL A   1      38.640  33.183  41.243  1.00  0.00     0.031 A 
ATOM     31  C   UNL A   1      42.711  36.322  37.043  1.00  0.00     0.049 A 
ATOM     32  C   UNL A   1      39.971  33.864  41.391  1.00  0.00     0.074 A 
ATOM     33  C   UNL A   1      43.912  36.925  37.353  1.00  0.00     0.029 A 
ATOM     34  N   UNL A   1      42.211  35.770  38.216  1.00  0.00    -0.354 N 
ATOM     35  N   UNL A   1      40.703  34.445  40.468  1.00  0.00    -0.248 NA
ATOM     36  C   UNL A   1      40.555  33.887  42.736  1.00  0.00     0.031 C 
ATOM     37  C   UNL A   1      44.170  36.680  38.705  1.00  0.00     0.029 A 
ATOM     38  C   UNL A   1      43.090  35.999  39.253  1.00  0.00     0.049 A 
ATOM     39  H   UNL A   1      41.357  35.286  38.296  1.00  0.00     0.167 HD
ATOM     40  C   UNL A   1      41.828  34.923  41.124  1.00  0.00     0.074 A 
ATOM     41  C   UNL A   1      41.676  34.561  42.522  1.00  0.00     0.031 C 
ATOM     42  C   UNL A   1      42.888  35.606  40.625  1.00  0.00     0.031 A 
BRANCH  29  43
ATOM     43  C   UNL A   1      42.687  36.796  34.534  1.00  0.00    -0.014 A 
ATOM     44  C   UNL A   1      43.304  35.976  33.570  1.00  0.00     0.010 A 
ATOM     45  C   UNL A   1      42.734  38.193  34.372  1.00  0.00     0.010 A 
ATOM     46  C   UNL A   1      44.000  36.543  32.497  1.00  0.00     0.020 A 
ATOM     47  C   UNL A   1      43.402  38.763  33.284  1.00  0.00     0.020 A 
ATOM     48  C   UNL A   1      44.050  37.935  32.366  1.00  0.00     0.054 A 
BRANCH  48  49
ATOM     49  S   UNL A   1      44.969  38.646  30.973  1.00  0.00     0.124 S 
ATOM     50  O   UNL A   1      44.184  38.188  29.828  1.00  0.00    -0.237 OA
ATOM     51  O   UNL A   1      44.903  40.079  31.245  1.00  0.00    -0.237 OA
ATOM     52  O   UNL A   1      46.297  38.051  31.094  1.00  0.00    -0.744 OA
ENDBRANCH  48  49
ENDBRANCH  29  43
BRANCH  30  53
ATOM     53  C   UNL A   1      37.968  32.539  42.405  1.00  0.00    -0.014 A 
ATOM     54  C   UNL A   1      37.277  33.303  43.363  1.00  0.00     0.010 A 
ATOM     55  C   UNL A   1      38.023  31.143  42.559  1.00  0.00     0.010 A 
ATOM     56  C   UNL A   1      36.644  32.680  44.447  1.00  0.00     0.020 A 
ATOM     57  C   UNL A   1      37.394  30.519  43.641  1.00  0.00     0.020 A 
ATOM     58  C   UNL A   1      36.699  31.288  44.575  1.00  0.00     0.054 A 
BRANCH  58  59
ATOM     59  S   UNL A   1      35.800  30.487  45.934  1.00  0.00     0.124 S 
ATOM     60  O   UNL A   1      34.606  29.982  45.264  1.00  0.00    -0.237 OA
ATOM     61  O   UNL A   1      36.747  29.473  46.391  1.00  0.00    -0.237 OA
ATOM     62  O   UNL A   1      35.567  31.574  46.884  1.00  0.00    -0.744 OA
ENDBRANCH  58  59
ENDBRANCH  30  53
BRANCH  42  63
ATOM     63  C   UNL A   1      43.928  36.054  41.606  1.00  0.00    -0.014 A 
ATOM     64  C   UNL A   1      45.063  35.273  41.878  1.00  0.00     0.010 A 
ATOM     65  C   UNL A   1      43.802  37.330  42.182  1.00  0.00     0.010 A 
ATOM     66  C   UNL A   1      46.053  35.760  42.730  1.00  0.00     0.020 A 
ATOM     67  C   UNL A   1      44.805  37.834  43.006  1.00  0.00     0.020 A 
ATOM     68  C   UNL A   1      45.920  37.041  43.282  1.00  0.00     0.054 A 
BRANCH  68  69
ATOM     69  S   UNL A   1      47.258  37.683  44.319  1.00  0.00     0.124 S 
ATOM     70  O   UNL A   1      48.206  38.173  43.322  1.00  0.00    -0.237 OA
ATOM     71  O   UNL A   1      46.584  38.712  45.107  1.00  0.00    -0.237 OA
ATOM     72  O   UNL A   1      47.699  36.515  45.078  1.00  0.00    -0.744 OA
ENDBRANCH  68  69
ENDBRANCH  42  63
ENDBRANCH  16  17
ENDBRANCH   9  11
ENDBRANCH   8   9
ENDBRANCH   7   8
ENDBRANCH   6   7
ENDBRANCH   5   6
ENDBRANCH   4   5
ENDBRANCH   3   4
ENDBRANCH   2   3
ENDBRANCH   1   2
BRANCH   1  73
ATOM     73  C   UNL A   1      43.443  27.406  30.050  1.00  0.00     0.188 C 
BRANCH  73  74
ATOM     74  O   UNL A   1      43.636  26.413  28.900  1.00  0.00    -0.376 OA
BRANCH  74  75
ATOM     75  C   UNL A   1      44.831  25.235  27.814  1.00  0.00     0.202 C 
BRANCH  75  76
ATOM     76  C   UNL A   1      44.645  23.691  27.191  1.00  0.00     0.261 C 
BRANCH  76  77
ATOM     77  O   UNL A   1      43.425  22.964  27.503  1.00  0.00    -0.463 OA
BRANCH  77  78
ATOM     78  C   UNL A   1      42.322  23.413  26.849  1.00  0.00     0.310 C 
ATOM     79  O   UNL A   1      42.356  23.783  25.678  1.00  0.00    -0.252 OA
BRANCH  78  80
ATOM     80  C   UNL A   1      41.010  23.356  27.669  1.00  0.00     0.116 C 
ATOM     81  C   UNL A   1      40.803  24.732  28.376  1.00  0.00     0.043 C 
ATOM     82  C   UNL A   1      39.641  22.861  27.094  1.00  0.00     0.097 C 
ATOM     83  C   UNL A   1      39.988  25.734  27.604  1.00  0.00    -0.030 C 
ATOM     84  C   UNL A   1      38.535  23.913  26.766  1.00  0.00     0.041 C 
ATOM     85  C   UNL A   1      38.926  25.355  26.884  1.00  0.00    -0.030 C 
BRANCH  82  86
ATOM     86  C   UNL A   1      39.578  21.678  26.120  1.00  0.00     0.228 C 
ATOM     87  O   UNL A   1      40.551  20.907  26.086  1.00  0.00    -0.274 OA
ATOM     88  N   UNL A   1      38.526  21.330  25.342  1.00  0.00    -0.326 N 
ATOM     89  H   UNL A   1      38.682  20.511  24.819  1.00  0.00     0.169 HD
BRANCH  88  90
ATOM     90  C   UNL A   1      37.264  21.890  25.125  1.00  0.00     0.041 A 
ATOM     91  C   UNL A   1      35.876  21.526  26.272  1.00  0.00     0.027 A 
ATOM     92  C   UNL A   1      36.953  22.974  23.701  1.00  0.00     0.027 A 
ATOM     93  C   UNL A   1      34.229  22.181  25.894  1.00  0.00     0.024 A 
ATOM     94  C   UNL A   1      35.331  23.577  23.338  1.00  0.00     0.024 A 
ATOM     95  C   UNL A   1      33.999  23.200  24.429  1.00  0.00     0.088 A 
BRANCH  95  96
ATOM     96  S   UNL A   1      32.469  23.900  23.978  1.00  0.00     0.264 S 
ATOM     97  O   UNL A   1      32.715  24.434  22.656  1.00  0.00    -0.201 OA
ATOM     98  O   UNL A   1      31.470  22.886  24.225  1.00  0.00    -0.201 OA
BRANCH  96  99
ATOM     99  N   UNL A   1      32.405  25.137  25.201  1.00  0.00    -0.266 N 
ATOM    100  C   UNL A   1      31.120  25.133  26.019  1.00  0.00     0.140 C 
ATOM    101  C   UNL A   1      32.499  26.441  24.626  1.00  0.00     0.055 A 
ATOM    102  C   UNL A   1      30.591  26.578  26.017  1.00  0.00     0.060 C 
ATOM    103  C   UNL A   1      31.358  27.178  24.892  1.00  0.00    -0.022 A 
ATOM    104  C   UNL A   1      33.493  26.885  23.772  1.00  0.00     0.027 A 
ATOM    105  C   UNL A   1      31.067  28.279  24.117  1.00  0.00     0.006 A 
ATOM    106  C   UNL A   1      33.202  27.981  22.973  1.00  0.00     0.002 A 
ATOM    107  C   UNL A   1      31.977  28.645  23.117  1.00  0.00     0.000 A 
ENDBRANCH  96  99
ENDBRANCH  95  96
ENDBRANCH  88  90
ENDBRANCH  82  86
ENDBRANCH  78  80
ENDBRANCH  77  78
ENDBRANCH  76  77
ENDBRANCH  75  76
ENDBRANCH  74  75
ENDBRANCH  73  74
ENDBRANCH   1  73
TORSDOF 27
ENDMDL
