MODEL 1
REMARK VINA RESULT:      -9.1      0.000      0.000
REMARK SMILES Cc1ccc(S(=O)(=O)n2cc(C(=O)C(=O)NCC(=O)OCCOCCOCCOCCOC(=O)c3ccc(-c4c5nc(c(-c6ccc(S(=O)(=O)[O-])cc6)c6ccc([nH]6)c(-c6ccc(S(=O)(=O)[O-])cc6)c6nc(c(-c7ccc(S(=O)(=O)[O-])cc7)c7ccc4[nH]7)C=C6)C=C5)cc3)c3ccccc32)cc1
REMARK SMILES IDX 25 1 24 2 23 3 22 4 21 5 20 6 18 7 19 8 17 9 16 10 14 11
REMARK SMILES IDX 15 12 12 14 13 15 11 16 9 17 10 18 100 19 95 20 99 21 96 22
REMARK SMILES IDX 98 23 97 24 6 25 7 26 8 27 5 28 1 29 2 30 3 31 102 32 4 33
REMARK SMILES IDX 101 34 26 35 27 36 28 37 29 38 30 39 31 40 32 41 33 42 34 43
REMARK SMILES IDX 35 44 36 45 94 46 37 47 93 48 38 49 39 50 40 51 87 52 41 53
REMARK SMILES IDX 92 54 86 55 88 56 42 57 91 58 85 59 84 60 43 62 73 63 54 64
REMARK SMILES IDX 72 65 55 66 58 67 71 68 89 69 56 70 57 71 70 73 90 74 59 75
REMARK SMILES IDX 44 76 45 77 53 78 46 79 52 80 47 81 48 82 49 83 50 84 51 85
REMARK SMILES IDX 74 86 75 87 83 88 76 89 82 90 77 91 78 92 79 93 80 94 81 95
REMARK SMILES IDX 60 96 61 97 69 98 62 99 68 100 63 101 64 102 65 103 66 104
REMARK SMILES IDX 67 105
REMARK H PARENT 16 13 88 61 58 72
REMARK Flexibility Score: inf
ROOT
ATOM      1  C   UNL A   1      34.314  33.226  29.527  1.00  0.00     0.188 C 
ENDROOT
BRANCH   1   2
ATOM      2  C   UNL A   1      34.586  32.114  28.498  1.00  0.00     0.188 C 
BRANCH   2   3
ATOM      3  O   UNL A   1      33.497  31.439  27.887  1.00  0.00    -0.376 OA
BRANCH   3   4
ATOM      4  C   UNL A   1      33.762  30.119  27.413  1.00  0.00     0.202 C 
BRANCH   4   5
ATOM      5  C   UNL A   1      33.549  29.871  25.923  1.00  0.00     0.261 C 
BRANCH   5   6
ATOM      6  O   UNL A   1      32.895  28.607  25.763  1.00  0.00    -0.462 OA
BRANCH   6   7
ATOM      7  C   UNL A   1      33.604  27.621  25.174  1.00  0.00     0.325 C 
ATOM      8  O   UNL A   1      34.006  26.600  25.717  1.00  0.00    -0.250 OA
BRANCH   7   9
ATOM      9  C   UNL A   1      33.803  27.915  23.689  1.00  0.00     0.239 C 
BRANCH   9  10
ATOM     10  N   UNL A   1      32.572  28.213  22.955  1.00  0.00    -0.338 N 
ATOM     11  C   UNL A   1      31.656  27.432  22.306  1.00  0.00     0.292 C 
ATOM     12  O   UNL A   1      30.577  27.899  21.957  1.00  0.00    -0.265 OA
ATOM     13  H   UNL A   1      32.360  29.174  22.921  1.00  0.00     0.164 HD
BRANCH  11  14
ATOM     14  C   UNL A   1      31.977  25.972  22.033  1.00  0.00     0.252 C 
ATOM     15  O   UNL A   1      32.182  25.650  20.865  1.00  0.00    -0.283 OA
BRANCH  14  16
ATOM     16  C   UNL A   1      32.058  24.981  23.109  1.00  0.00     0.054 A 
ATOM     17  N   UNL A   1      32.598  23.241  24.399  1.00  0.00    -0.240 N 
ATOM     18  C   UNL A   1      32.895  23.881  23.221  1.00  0.00     0.117 A 
ATOM     19  C   UNL A   1      31.566  23.871  25.062  1.00  0.00     0.065 A 
ATOM     20  C   UNL A   1      31.221  24.973  24.273  1.00  0.00     0.012 A 
ATOM     21  C   UNL A   1      30.873  23.578  26.251  1.00  0.00     0.028 A 
ATOM     22  C   UNL A   1      30.173  25.817  24.697  1.00  0.00     0.011 A 
ATOM     23  C   UNL A   1      29.813  24.413  26.623  1.00  0.00     0.002 A 
ATOM     24  C   UNL A   1      29.471  25.523  25.862  1.00  0.00     0.001 A 
BRANCH  17  25
ATOM     25  S   UNL A   1      33.285  21.750  24.857  1.00  0.00     0.268 S 
ATOM     26  O   UNL A   1      33.179  20.897  23.675  1.00  0.00    -0.201 OA
ATOM     27  O   UNL A   1      32.700  21.387  26.121  1.00  0.00    -0.201 OA
BRANCH  25  28
ATOM     28  C   UNL A   1      35.019  22.020  25.141  1.00  0.00     0.088 A 
ATOM     29  C   UNL A   1      39.118  22.793  26.190  1.00  0.00     0.044 C 
ATOM     30  C   UNL A   1      37.695  22.530  25.795  1.00  0.00    -0.051 A 
ATOM     31  C   UNL A   1      36.729  23.534  25.944  1.00  0.00     0.005 A 
ATOM     32  C   UNL A   1      37.313  21.285  25.281  1.00  0.00     0.005 A 
ATOM     33  C   UNL A   1      35.394  23.280  25.623  1.00  0.00     0.022 A 
ATOM     34  C   UNL A   1      35.982  21.031  24.940  1.00  0.00     0.022 A 
ENDBRANCH  25  28
ENDBRANCH  17  25
ENDBRANCH  14  16
ENDBRANCH  11  14
ENDBRANCH   9  10
ENDBRANCH   7   9
ENDBRANCH   6   7
ENDBRANCH   5   6
ENDBRANCH   4   5
ENDBRANCH   3   4
ENDBRANCH   2   3
ENDBRANCH   1   2
BRANCH   1  35
ATOM     35  O   UNL A   1      34.207  32.811  30.875  1.00  0.00    -0.377 OA
BRANCH  35  36
ATOM     36  C   UNL A   1      34.825  33.623  31.894  1.00  0.00     0.188 C 
BRANCH  36  37
ATOM     37  C   UNL A   1      35.329  32.954  33.168  1.00  0.00     0.188 C 
BRANCH  37  38
ATOM     38  O   UNL A   1      35.991  31.745  32.784  1.00  0.00    -0.376 OA
BRANCH  38  39
ATOM     39  C   UNL A   1      37.303  31.545  33.280  1.00  0.00     0.202 C 
BRANCH  39  40
ATOM     40  C   UNL A   1      37.493  32.004  34.721  1.00  0.00     0.261 C 
BRANCH  40  41
ATOM     41  O   UNL A   1      38.791  32.618  34.924  1.00  0.00    -0.460 OA
BRANCH  41  42
ATOM     42  C   UNL A   1      39.035  33.861  34.410  1.00  0.00     0.338 C 
ATOM     43  O   UNL A   1      38.356  34.835  34.699  1.00  0.00    -0.246 OA
BRANCH  42  44
ATOM     44  C   UNL A   1      40.329  33.963  33.675  1.00  0.00     0.060 A 
ATOM     45  C   UNL A   1      41.211  35.036  33.863  1.00  0.00     0.016 A 
ATOM     46  C   UNL A   1      40.641  33.015  32.720  1.00  0.00     0.016 A 
ATOM     47  C   UNL A   1      42.272  35.275  32.959  1.00  0.00     0.010 A 
ATOM     48  C   UNL A   1      41.614  33.308  31.780  1.00  0.00     0.010 A 
ATOM     49  C   UNL A   1      42.432  34.453  31.848  1.00  0.00    -0.014 A 
BRANCH  49  50
ATOM     50  C   UNL A   1      43.296  34.677  30.655  1.00  0.00     0.031 A 
ATOM     51  C   UNL A   1      44.088  33.495  30.134  1.00  0.00     0.074 A 
ATOM     52  C   UNL A   1      43.082  35.755  29.849  1.00  0.00     0.049 A 
ATOM     53  N   UNL A   1      44.637  33.406  28.971  1.00  0.00    -0.248 NA
ATOM     54  C   UNL A   1      44.284  32.256  30.901  1.00  0.00     0.031 C 
ATOM     55  C   UNL A   1      43.173  35.772  28.380  1.00  0.00     0.029 A 
ATOM     56  N   UNL A   1      42.615  37.035  30.096  1.00  0.00    -0.354 N 
ATOM     57  C   UNL A   1      45.012  32.093  28.734  1.00  0.00     0.074 A 
ATOM     58  C   UNL A   1      44.776  31.414  29.981  1.00  0.00     0.031 C 
ATOM     59  C   UNL A   1      42.858  36.978  27.883  1.00  0.00     0.029 A 
ATOM     60  C   UNL A   1      42.873  37.878  29.002  1.00  0.00     0.049 A 
ATOM     61  H   UNL A   1      42.164  37.315  30.924  1.00  0.00     0.167 HD
ATOM     62  C   UNL A   1      45.402  31.729  27.474  1.00  0.00     0.031 A 
ATOM     63  C   UNL A   1      43.801  38.886  29.077  1.00  0.00     0.031 A 
ATOM     64  C   UNL A   1      45.597  32.918  26.631  1.00  0.00     0.049 A 
ATOM     65  C   UNL A   1      45.082  38.553  28.298  1.00  0.00     0.074 A 
ATOM     66  C   UNL A   1      45.063  33.371  25.436  1.00  0.00     0.029 A 
ATOM     67  N   UNL A   1      46.366  33.965  27.131  1.00  0.00    -0.354 N 
ATOM     68  N   UNL A   1      45.445  37.332  27.978  1.00  0.00    -0.248 NA
ATOM     69  C   UNL A   1      45.986  39.545  27.711  1.00  0.00     0.031 C 
ATOM     70  C   UNL A   1      45.423  34.741  25.290  1.00  0.00     0.029 A 
ATOM     71  C   UNL A   1      46.242  35.090  26.352  1.00  0.00     0.049 A 
ATOM     72  H   UNL A   1      46.926  33.907  27.939  1.00  0.00     0.167 HD
ATOM     73  C   UNL A   1      46.538  37.353  27.155  1.00  0.00     0.074 A 
ATOM     74  C   UNL A   1      46.851  38.765  27.033  1.00  0.00     0.031 C 
ATOM     75  C   UNL A   1      47.103  36.237  26.600  1.00  0.00     0.031 A 
BRANCH  62  76
ATOM     76  C   UNL A   1      45.508  30.313  26.895  1.00  0.00    -0.014 A 
ATOM     77  C   UNL A   1      44.534  29.357  27.274  1.00  0.00     0.010 A 
ATOM     78  C   UNL A   1      46.529  29.818  26.058  1.00  0.00     0.010 A 
ATOM     79  C   UNL A   1      44.582  28.007  26.891  1.00  0.00     0.020 A 
ATOM     80  C   UNL A   1      46.576  28.464  25.636  1.00  0.00     0.020 A 
ATOM     81  C   UNL A   1      45.604  27.563  26.065  1.00  0.00     0.054 A 
BRANCH  81  82
ATOM     82  S   UNL A   1      45.604  25.820  25.553  1.00  0.00     0.124 S 
ATOM     83  O   UNL A   1      45.625  25.112  26.831  1.00  0.00    -0.237 OA
ATOM     84  O   UNL A   1      44.359  25.709  24.797  1.00  0.00    -0.237 OA
ATOM     85  O   UNL A   1      46.822  25.691  24.756  1.00  0.00    -0.744 OA
ENDBRANCH  81  82
ENDBRANCH  62  76
BRANCH  63  86
ATOM     86  C   UNL A   1      43.570  39.717  30.307  1.00  0.00    -0.014 A 
ATOM     87  C   UNL A   1      44.779  40.098  30.948  1.00  0.00     0.010 A 
ATOM     88  C   UNL A   1      42.504  40.638  30.298  1.00  0.00     0.010 A 
ATOM     89  C   UNL A   1      45.040  41.448  31.214  1.00  0.00     0.020 A 
ATOM     90  C   UNL A   1      42.757  41.991  30.595  1.00  0.00     0.020 A 
ATOM     91  C   UNL A   1      44.048  42.395  30.957  1.00  0.00     0.054 A 
BRANCH  91  92
ATOM     92  S   UNL A   1      44.562  44.137  30.804  1.00  0.00     0.124 S 
ATOM     93  O   UNL A   1      45.227  44.388  32.076  1.00  0.00    -0.237 OA
ATOM     94  O   UNL A   1      45.434  44.088  29.629  1.00  0.00    -0.237 OA
ATOM     95  O   UNL A   1      43.301  44.842  30.604  1.00  0.00    -0.744 OA
ENDBRANCH  91  92
ENDBRANCH  63  86
BRANCH  75  96
ATOM     96  C   UNL A   1      48.556  36.094  26.189  1.00  0.00    -0.014 A 
ATOM     97  C   UNL A   1      49.518  35.428  26.957  1.00  0.00     0.010 A 
ATOM     98  C   UNL A   1      48.949  36.483  24.878  1.00  0.00     0.010 A 
ATOM     99  C   UNL A   1      50.812  35.207  26.469  1.00  0.00     0.020 A 
ATOM    100  C   UNL A   1      50.218  36.216  24.359  1.00  0.00     0.020 A 
ATOM    101  C   UNL A   1      51.152  35.599  25.175  1.00  0.00     0.054 A 
BRANCH 101 102
ATOM    102  S   UNL A   1      52.816  35.242  24.569  1.00  0.00     0.124 S 
ATOM    103  O   UNL A   1      53.020  33.877  25.046  1.00  0.00    -0.237 OA
ATOM    104  O   UNL A   1      52.663  35.383  23.122  1.00  0.00    -0.237 OA
ATOM    105  O   UNL A   1      53.648  36.260  25.203  1.00  0.00    -0.744 OA
ENDBRANCH 101 102
ENDBRANCH  75  96
ENDBRANCH  49  50
ENDBRANCH  42  44
ENDBRANCH  41  42
ENDBRANCH  40  41
ENDBRANCH  39  40
ENDBRANCH  38  39
ENDBRANCH  37  38
ENDBRANCH  36  37
ENDBRANCH  35  36
ENDBRANCH   1  35
TORSDOF 28
ENDMDL
MODEL 2
REMARK VINA RESULT:      -8.9      6.044     11.531
REMARK SMILES Cc1ccc(S(=O)(=O)n2cc(C(=O)C(=O)NCC(=O)OCCOCCOCCOCCOC(=O)c3ccc(-c4c5nc(c(-c6ccc(S(=O)(=O)[O-])cc6)c6ccc([nH]6)c(-c6ccc(S(=O)(=O)[O-])cc6)c6nc(c(-c7ccc(S(=O)(=O)[O-])cc7)c7ccc4[nH]7)C=C6)C=C5)cc3)c3ccccc32)cc1
REMARK SMILES IDX 25 1 24 2 23 3 22 4 21 5 20 6 18 7 19 8 17 9 16 10 14 11
REMARK SMILES IDX 15 12 12 14 13 15 11 16 9 17 10 18 100 19 95 20 99 21 96 22
REMARK SMILES IDX 98 23 97 24 6 25 7 26 8 27 5 28 1 29 2 30 3 31 102 32 4 33
REMARK SMILES IDX 101 34 26 35 27 36 28 37 29 38 30 39 31 40 32 41 33 42 34 43
REMARK SMILES IDX 35 44 36 45 94 46 37 47 93 48 38 49 39 50 40 51 87 52 41 53
REMARK SMILES IDX 92 54 86 55 88 56 42 57 91 58 85 59 84 60 43 62 73 63 54 64
REMARK SMILES IDX 72 65 55 66 58 67 71 68 89 69 56 70 57 71 70 73 90 74 59 75
REMARK SMILES IDX 44 76 45 77 53 78 46 79 52 80 47 81 48 82 49 83 50 84 51 85
REMARK SMILES IDX 74 86 75 87 83 88 76 89 82 90 77 91 78 92 79 93 80 94 81 95
REMARK SMILES IDX 60 96 61 97 69 98 62 99 68 100 63 101 64 102 65 103 66 104
REMARK SMILES IDX 67 105
REMARK H PARENT 16 13 88 61 58 72
REMARK Flexibility Score: inf
ROOT
ATOM      1  C   UNL A   1      37.204  22.841  24.900  1.00  0.00     0.188 C 
ENDROOT
BRANCH   1   2
ATOM      2  C   UNL A   1      35.863  23.440  25.360  1.00  0.00     0.188 C 
BRANCH   2   3
ATOM      3  O   UNL A   1      35.287  23.017  26.585  1.00  0.00    -0.376 OA
BRANCH   3   4
ATOM      4  C   UNL A   1      33.943  23.434  26.826  1.00  0.00     0.202 C 
BRANCH   4   5
ATOM      5  C   UNL A   1      33.439  24.623  26.014  1.00  0.00     0.261 C 
BRANCH   5   6
ATOM      6  O   UNL A   1      32.754  25.517  26.898  1.00  0.00    -0.462 OA
BRANCH   6   7
ATOM      7  C   UNL A   1      31.422  25.651  26.720  1.00  0.00     0.325 C 
ATOM      8  O   UNL A   1      30.602  24.742  26.713  1.00  0.00    -0.250 OA
BRANCH   7   9
ATOM      9  C   UNL A   1      31.043  27.123  26.583  1.00  0.00     0.239 C 
BRANCH   9  10
ATOM     10  N   UNL A   1      31.813  28.034  27.432  1.00  0.00    -0.338 N 
ATOM     11  C   UNL A   1      32.686  29.052  27.164  1.00  0.00     0.292 C 
ATOM     12  O   UNL A   1      33.034  29.824  28.051  1.00  0.00    -0.265 OA
ATOM     13  H   UNL A   1      31.674  27.883  28.395  1.00  0.00     0.164 HD
BRANCH  11  14
ATOM     14  C   UNL A   1      33.215  29.231  25.750  1.00  0.00     0.252 C 
ATOM     15  O   UNL A   1      34.210  29.938  25.606  1.00  0.00    -0.283 OA
BRANCH  14  16
ATOM     16  C   UNL A   1      32.583  28.581  24.598  1.00  0.00     0.054 A 
ATOM     17  N   UNL A   1      32.101  27.247  22.875  1.00  0.00    -0.240 N 
ATOM     18  C   UNL A   1      33.018  27.485  23.869  1.00  0.00     0.117 A 
ATOM     19  C   UNL A   1      31.080  28.175  22.906  1.00  0.00     0.065 A 
ATOM     20  C   UNL A   1      31.360  29.014  23.989  1.00  0.00     0.012 A 
ATOM     21  C   UNL A   1      29.960  28.391  22.084  1.00  0.00     0.028 A 
ATOM     22  C   UNL A   1      30.482  30.083  24.271  1.00  0.00     0.011 A 
ATOM     23  C   UNL A   1      29.131  29.483  22.368  1.00  0.00     0.002 A 
ATOM     24  C   UNL A   1      29.382  30.314  23.451  1.00  0.00     0.001 A 
BRANCH  17  25
ATOM     25  S   UNL A   1      32.324  26.083  21.649  1.00  0.00     0.268 S 
ATOM     26  O   UNL A   1      33.648  26.356  21.095  1.00  0.00    -0.201 OA
ATOM     27  O   UNL A   1      31.135  26.093  20.839  1.00  0.00    -0.201 OA
BRANCH  25  28
ATOM     28  C   UNL A   1      32.413  24.489  22.431  1.00  0.00     0.088 A 
ATOM     29  C   UNL A   1      32.308  20.533  24.115  1.00  0.00     0.044 C 
ATOM     30  C   UNL A   1      32.357  21.923  23.553  1.00  0.00    -0.051 A 
ATOM     31  C   UNL A   1      31.229  22.750  23.627  1.00  0.00     0.005 A 
ATOM     32  C   UNL A   1      33.522  22.409  22.947  1.00  0.00     0.005 A 
ATOM     33  C   UNL A   1      31.253  24.027  23.064  1.00  0.00     0.022 A 
ATOM     34  C   UNL A   1      33.558  23.694  22.398  1.00  0.00     0.022 A 
ENDBRANCH  25  28
ENDBRANCH  17  25
ENDBRANCH  14  16
ENDBRANCH  11  14
ENDBRANCH   9  10
ENDBRANCH   7   9
ENDBRANCH   6   7
ENDBRANCH   5   6
ENDBRANCH   4   5
ENDBRANCH   3   4
ENDBRANCH   2   3
ENDBRANCH   1   2
BRANCH   1  35
ATOM     35  O   UNL A   1      38.061  22.378  25.925  1.00  0.00    -0.377 OA
BRANCH  35  36
ATOM     36  C   UNL A   1      38.984  23.311  26.523  1.00  0.00     0.188 C 
BRANCH  36  37
ATOM     37  C   UNL A   1      40.368  22.822  26.934  1.00  0.00     0.188 C 
BRANCH  37  38
ATOM     38  O   UNL A   1      41.314  23.413  26.039  1.00  0.00    -0.376 OA
BRANCH  38  39
ATOM     39  C   UNL A   1      41.932  24.617  26.459  1.00  0.00     0.202 C 
BRANCH  39  40
ATOM     40  C   UNL A   1      41.344  25.867  25.817  1.00  0.00     0.261 C 
BRANCH  40  41
ATOM     41  O   UNL A   1      42.360  26.872  25.566  1.00  0.00    -0.460 OA
BRANCH  41  42
ATOM     42  C   UNL A   1      43.157  27.294  26.593  1.00  0.00     0.338 C 
ATOM     43  O   UNL A   1      44.364  27.107  26.607  1.00  0.00    -0.246 OA
BRANCH  42  44
ATOM     44  C   UNL A   1      42.465  28.203  27.553  1.00  0.00     0.060 A 
ATOM     45  C   UNL A   1      42.815  29.554  27.684  1.00  0.00     0.016 A 
ATOM     46  C   UNL A   1      41.502  27.689  28.398  1.00  0.00     0.016 A 
ATOM     47  C   UNL A   1      42.370  30.320  28.788  1.00  0.00     0.010 A 
ATOM     48  C   UNL A   1      41.152  28.407  29.529  1.00  0.00     0.010 A 
ATOM     49  C   UNL A   1      41.595  29.721  29.776  1.00  0.00    -0.014 A 
BRANCH  49  50
ATOM     50  C   UNL A   1      41.249  30.256  31.123  1.00  0.00     0.031 A 
ATOM     51  C   UNL A   1      40.358  31.480  31.180  1.00  0.00     0.074 A 
ATOM     52  C   UNL A   1      41.389  29.469  32.227  1.00  0.00     0.049 A 
ATOM     53  N   UNL A   1      39.715  31.899  32.216  1.00  0.00    -0.248 NA
ATOM     54  C   UNL A   1      40.076  32.326  30.012  1.00  0.00     0.031 C 
ATOM     55  C   UNL A   1      40.470  29.414  33.375  1.00  0.00     0.029 A 
ATOM     56  N   UNL A   1      42.273  28.454  32.552  1.00  0.00    -0.354 N 
ATOM     57  C   UNL A   1      38.784  32.852  31.831  1.00  0.00     0.074 A 
ATOM     58  C   UNL A   1      39.059  33.089  30.439  1.00  0.00     0.031 C 
ATOM     59  C   UNL A   1      40.866  28.503  34.277  1.00  0.00     0.029 A 
ATOM     60  C   UNL A   1      42.218  28.168  33.926  1.00  0.00     0.049 A 
ATOM     61  H   UNL A   1      42.860  27.997  31.908  1.00  0.00     0.167 HD
ATOM     62  C   UNL A   1      37.838  33.261  32.731  1.00  0.00     0.031 A 
ATOM     63  C   UNL A   1      43.257  28.480  34.766  1.00  0.00     0.031 A 
ATOM     64  C   UNL A   1      38.163  32.769  34.079  1.00  0.00     0.049 A 
ATOM     65  C   UNL A   1      42.936  29.686  35.662  1.00  0.00     0.074 A 
ATOM     66  C   UNL A   1      37.518  31.982  35.017  1.00  0.00     0.029 A 
ATOM     67  N   UNL A   1      39.455  32.961  34.560  1.00  0.00    -0.354 N 
ATOM     68  N   UNL A   1      42.011  30.576  35.383  1.00  0.00    -0.248 NA
ATOM     69  C   UNL A   1      43.524  29.928  36.981  1.00  0.00     0.031 C 
ATOM     70  C   UNL A   1      38.475  31.604  36.001  1.00  0.00     0.029 A 
ATOM     71  C   UNL A   1      39.675  32.232  35.704  1.00  0.00     0.049 A 
ATOM     72  H   UNL A   1      40.125  33.544  34.135  1.00  0.00     0.167 HD
ATOM     73  C   UNL A   1      41.842  31.440  36.431  1.00  0.00     0.074 A 
ATOM     74  C   UNL A   1      42.829  31.004  37.401  1.00  0.00     0.031 C 
ATOM     75  C   UNL A   1      40.900  32.432  36.462  1.00  0.00     0.031 A 
BRANCH  62  76
ATOM     76  C   UNL A   1      36.526  34.001  32.444  1.00  0.00    -0.014 A 
ATOM     77  C   UNL A   1      35.982  34.823  33.461  1.00  0.00     0.010 A 
ATOM     78  C   UNL A   1      35.742  33.903  31.276  1.00  0.00     0.010 A 
ATOM     79  C   UNL A   1      34.739  35.469  33.353  1.00  0.00     0.020 A 
ATOM     80  C   UNL A   1      34.499  34.573  31.139  1.00  0.00     0.020 A 
ATOM     81  C   UNL A   1      34.001  35.346  32.185  1.00  0.00     0.054 A 
BRANCH  81  82
ATOM     82  S   UNL A   1      32.421  36.236  32.066  1.00  0.00     0.124 S 
ATOM     83  O   UNL A   1      32.671  37.436  32.864  1.00  0.00    -0.237 OA
ATOM     84  O   UNL A   1      32.288  36.460  30.629  1.00  0.00    -0.237 OA
ATOM     85  O   UNL A   1      31.452  35.305  32.638  1.00  0.00    -0.744 OA
ENDBRANCH  81  82
ENDBRANCH  62  76
BRANCH  63  86
ATOM     86  C   UNL A   1      44.555  27.975  34.201  1.00  0.00    -0.014 A 
ATOM     87  C   UNL A   1      45.559  27.811  35.191  1.00  0.00     0.010 A 
ATOM     88  C   UNL A   1      44.504  27.044  33.145  1.00  0.00     0.010 A 
ATOM     89  C   UNL A   1      46.214  26.582  35.333  1.00  0.00     0.020 A 
ATOM     90  C   UNL A   1      45.186  25.818  33.271  1.00  0.00     0.020 A 
ATOM     91  C   UNL A   1      45.957  25.566  34.413  1.00  0.00     0.054 A 
BRANCH  91  92
ATOM     92  S   UNL A   1      46.384  23.861  34.895  1.00  0.00     0.124 S 
ATOM     93  O   UNL A   1      47.841  23.894  34.935  1.00  0.00    -0.237 OA
ATOM     94  O   UNL A   1      45.714  23.741  36.191  1.00  0.00    -0.237 OA
ATOM     95  O   UNL A   1      45.804  23.054  33.827  1.00  0.00    -0.744 OA
ENDBRANCH  91  92
ENDBRANCH  63  86
BRANCH  75  96
ATOM     96  C   UNL A   1      41.006  33.725  37.249  1.00  0.00    -0.014 A 
ATOM     97  C   UNL A   1      40.737  33.826  38.618  1.00  0.00     0.010 A 
ATOM     98  C   UNL A   1      41.585  34.869  36.630  1.00  0.00     0.010 A 
ATOM     99  C   UNL A   1      40.981  35.011  39.322  1.00  0.00     0.020 A 
ATOM    100  C   UNL A   1      41.887  36.036  37.334  1.00  0.00     0.020 A 
ATOM    101  C   UNL A   1      41.557  36.106  38.678  1.00  0.00     0.054 A 
BRANCH 101 102
ATOM    102  S   UNL A   1      41.905  37.595  39.639  1.00  0.00     0.124 S 
ATOM    103  O   UNL A   1      43.092  38.114  38.963  1.00  0.00    -0.237 OA
ATOM    104  O   UNL A   1      40.687  38.382  39.457  1.00  0.00    -0.237 OA
ATOM    105  O   UNL A   1      42.123  37.098  40.994  1.00  0.00    -0.744 OA
ENDBRANCH 101 102
ENDBRANCH  75  96
ENDBRANCH  49  50
ENDBRANCH  42  44
ENDBRANCH  41  42
ENDBRANCH  40  41
ENDBRANCH  39  40
ENDBRANCH  38  39
ENDBRANCH  37  38
ENDBRANCH  36  37
ENDBRANCH  35  36
ENDBRANCH   1  35
TORSDOF 28
ENDMDL
MODEL 3
REMARK VINA RESULT:      -8.8      4.284      6.747
REMARK SMILES Cc1ccc(S(=O)(=O)n2cc(C(=O)C(=O)NCC(=O)OCCOCCOCCOCCOC(=O)c3ccc(-c4c5nc(c(-c6ccc(S(=O)(=O)[O-])cc6)c6ccc([nH]6)c(-c6ccc(S(=O)(=O)[O-])cc6)c6nc(c(-c7ccc(S(=O)(=O)[O-])cc7)c7ccc4[nH]7)C=C6)C=C5)cc3)c3ccccc32)cc1
REMARK SMILES IDX 25 1 24 2 23 3 22 4 21 5 20 6 18 7 19 8 17 9 16 10 14 11
REMARK SMILES IDX 15 12 12 14 13 15 11 16 9 17 10 18 100 19 95 20 99 21 96 22
REMARK SMILES IDX 98 23 97 24 6 25 7 26 8 27 5 28 1 29 2 30 3 31 102 32 4 33
REMARK SMILES IDX 101 34 26 35 27 36 28 37 29 38 30 39 31 40 32 41 33 42 34 43
REMARK SMILES IDX 35 44 36 45 94 46 37 47 93 48 38 49 39 50 40 51 87 52 41 53
REMARK SMILES IDX 92 54 86 55 88 56 42 57 91 58 85 59 84 60 43 62 73 63 54 64
REMARK SMILES IDX 72 65 55 66 58 67 71 68 89 69 56 70 57 71 70 73 90 74 59 75
REMARK SMILES IDX 44 76 45 77 53 78 46 79 52 80 47 81 48 82 49 83 50 84 51 85
REMARK SMILES IDX 74 86 75 87 83 88 76 89 82 90 77 91 78 92 79 93 80 94 81 95
REMARK SMILES IDX 60 96 61 97 69 98 62 99 68 100 63 101 64 102 65 103 66 104
REMARK SMILES IDX 67 105
REMARK H PARENT 16 13 88 61 58 72
REMARK Flexibility Score: inf
ROOT
ATOM      1  C   UNL A   1      40.075  32.662  30.839  1.00  0.00     0.188 C 
ENDROOT
BRANCH   1   2
ATOM      2  C   UNL A   1      39.727  31.173  31.018  1.00  0.00     0.188 C 
BRANCH   2   3
ATOM      3  O   UNL A   1      38.785  30.561  30.151  1.00  0.00    -0.376 OA
BRANCH   3   4
ATOM      4  C   UNL A   1      37.896  29.620  30.752  1.00  0.00     0.202 C 
BRANCH   4   5
ATOM      5  C   UNL A   1      36.498  29.517  30.150  1.00  0.00     0.261 C 
BRANCH   5   6
ATOM      6  O   UNL A   1      36.374  30.506  29.121  1.00  0.00    -0.462 OA
BRANCH   6   7
ATOM      7  C   UNL A   1      36.110  30.061  27.874  1.00  0.00     0.325 C 
ATOM      8  O   UNL A   1      36.907  30.001  26.948  1.00  0.00    -0.250 OA
BRANCH   7   9
ATOM      9  C   UNL A   1      34.667  29.575  27.771  1.00  0.00     0.239 C 
BRANCH   9  10
ATOM     10  N   UNL A   1      33.711  30.589  27.322  1.00  0.00    -0.338 N 
ATOM     11  C   UNL A   1      32.412  30.531  26.897  1.00  0.00     0.292 C 
ATOM     12  O   UNL A   1      31.747  31.555  26.788  1.00  0.00    -0.265 OA
ATOM     13  H   UNL A   1      34.079  31.503  27.326  1.00  0.00     0.164 HD
BRANCH  11  14
ATOM     14  C   UNL A   1      31.792  29.181  26.574  1.00  0.00     0.252 C 
ATOM     15  O   UNL A   1      31.408  28.497  27.520  1.00  0.00    -0.283 OA
BRANCH  14  16
ATOM     16  C   UNL A   1      31.638  28.708  25.196  1.00  0.00     0.054 A 
ATOM     17  N   UNL A   1      31.813  27.597  23.268  1.00  0.00    -0.240 N 
ATOM     18  C   UNL A   1      32.269  27.648  24.562  1.00  0.00     0.117 A 
ATOM     19  C   UNL A   1      30.914  28.612  23.016  1.00  0.00     0.065 A 
ATOM     20  C   UNL A   1      30.783  29.314  24.218  1.00  0.00     0.012 A 
ATOM     21  C   UNL A   1      30.226  29.013  21.856  1.00  0.00     0.028 A 
ATOM     22  C   UNL A   1      29.922  30.431  24.267  1.00  0.00     0.011 A 
ATOM     23  C   UNL A   1      29.410  30.148  21.930  1.00  0.00     0.002 A 
ATOM     24  C   UNL A   1      29.253  30.845  23.120  1.00  0.00     0.001 A 
BRANCH  17  25
ATOM     25  S   UNL A   1      32.444  26.538  22.090  1.00  0.00     0.268 S 
ATOM     26  O   UNL A   1      33.767  27.068  21.764  1.00  0.00    -0.201 OA
ATOM     27  O   UNL A   1      31.422  26.360  21.093  1.00  0.00    -0.201 OA
BRANCH  25  28
ATOM     28  C   UNL A   1      32.700  24.960  22.867  1.00  0.00     0.088 A 
ATOM     29  C   UNL A   1      33.082  20.988  24.474  1.00  0.00     0.044 C 
ATOM     30  C   UNL A   1      32.953  22.385  23.941  1.00  0.00    -0.051 A 
ATOM     31  C   UNL A   1      31.685  22.954  23.764  1.00  0.00     0.005 A 
ATOM     32  C   UNL A   1      34.090  23.132  23.611  1.00  0.00     0.005 A 
ATOM     33  C   UNL A   1      31.557  24.235  23.224  1.00  0.00     0.022 A 
ATOM     34  C   UNL A   1      33.969  24.423  23.088  1.00  0.00     0.022 A 
ENDBRANCH  25  28
ENDBRANCH  17  25
ENDBRANCH  14  16
ENDBRANCH  11  14
ENDBRANCH   9  10
ENDBRANCH   7   9
ENDBRANCH   6   7
ENDBRANCH   5   6
ENDBRANCH   4   5
ENDBRANCH   3   4
ENDBRANCH   2   3
ENDBRANCH   1   2
BRANCH   1  35
ATOM     35  O   UNL A   1      39.030  33.579  31.103  1.00  0.00    -0.377 OA
BRANCH  35  36
ATOM     36  C   UNL A   1      39.034  34.279  32.364  1.00  0.00     0.188 C 
BRANCH  36  37
ATOM     37  C   UNL A   1      39.748  33.653  33.556  1.00  0.00     0.188 C 
BRANCH  37  38
ATOM     38  O   UNL A   1      38.775  32.909  34.295  1.00  0.00    -0.376 OA
BRANCH  38  39
ATOM     39  C   UNL A   1      39.117  31.581  34.653  1.00  0.00     0.202 C 
BRANCH  39  40
ATOM     40  C   UNL A   1      40.548  31.428  35.155  1.00  0.00     0.261 C 
BRANCH  40  41
ATOM     41  O   UNL A   1      40.986  30.046  35.120  1.00  0.00    -0.460 OA
BRANCH  41  42
ATOM     42  C   UNL A   1      40.497  29.210  34.155  1.00  0.00     0.338 C 
ATOM     43  O   UNL A   1      39.303  29.117  33.911  1.00  0.00    -0.246 OA
BRANCH  42  44
ATOM     44  C   UNL A   1      41.552  28.622  33.280  1.00  0.00     0.060 A 
ATOM     45  C   UNL A   1      42.882  28.488  33.703  1.00  0.00     0.016 A 
ATOM     46  C   UNL A   1      41.237  28.268  31.983  1.00  0.00     0.016 A 
ATOM     47  C   UNL A   1      43.918  28.215  32.779  1.00  0.00     0.010 A 
ATOM     48  C   UNL A   1      42.261  28.104  31.066  1.00  0.00     0.010 A 
ATOM     49  C   UNL A   1      43.623  28.105  31.424  1.00  0.00    -0.014 A 
BRANCH  49  50
ATOM     50  C   UNL A   1      44.572  28.085  30.275  1.00  0.00     0.031 A 
ATOM     51  C   UNL A   1      44.959  26.733  29.711  1.00  0.00     0.074 A 
ATOM     52  C   UNL A   1      44.764  29.209  29.528  1.00  0.00     0.049 A 
ATOM     53  N   UNL A   1      45.506  26.521  28.564  1.00  0.00    -0.248 NA
ATOM     54  C   UNL A   1      44.699  25.465  30.409  1.00  0.00     0.031 C 
ATOM     55  C   UNL A   1      44.929  29.261  28.066  1.00  0.00     0.029 A 
ATOM     56  N   UNL A   1      44.729  30.558  29.835  1.00  0.00    -0.354 N 
ATOM     57  C   UNL A   1      45.443  25.169  28.261  1.00  0.00     0.074 A 
ATOM     58  C   UNL A   1      44.934  24.551  29.457  1.00  0.00     0.031 C 
ATOM     59  C   UNL A   1      45.051  30.525  27.632  1.00  0.00     0.029 A 
ATOM     60  C   UNL A   1      45.304  31.318  28.802  1.00  0.00     0.049 A 
ATOM     61  H   UNL A   1      44.353  30.934  30.663  1.00  0.00     0.167 HD
ATOM     62  C   UNL A   1      45.755  24.755  26.995  1.00  0.00     0.031 A 
ATOM     63  C   UNL A   1      46.506  31.959  28.967  1.00  0.00     0.031 A 
ATOM     64  C   UNL A   1      46.370  25.851  26.231  1.00  0.00     0.049 A 
ATOM     65  C   UNL A   1      47.645  31.259  28.212  1.00  0.00     0.074 A 
ATOM     66  C   UNL A   1      46.075  26.507  25.049  1.00  0.00     0.029 A 
ATOM     67  N   UNL A   1      47.414  26.562  26.817  1.00  0.00    -0.354 N 
ATOM     68  N   UNL A   1      47.604  30.002  27.832  1.00  0.00    -0.248 NA
ATOM     69  C   UNL A   1      48.852  31.922  27.715  1.00  0.00     0.031 C 
ATOM     70  C   UNL A   1      46.870  27.687  24.996  1.00  0.00     0.029 A 
ATOM     71  C   UNL A   1      47.705  27.699  26.103  1.00  0.00     0.049 A 
ATOM     72  H   UNL A   1      47.882  26.285  27.638  1.00  0.00     0.167 HD
ATOM     73  C   UNL A   1      48.684  29.699  27.048  1.00  0.00     0.074 A 
ATOM     74  C   UNL A   1      49.447  30.932  27.021  1.00  0.00     0.031 C 
ATOM     75  C   UNL A   1      48.879  28.486  26.447  1.00  0.00     0.031 A 
BRANCH  62  76
ATOM     76  C   UNL A   1      45.420  23.411  26.337  1.00  0.00    -0.014 A 
ATOM     77  C   UNL A   1      44.106  22.902  26.478  1.00  0.00     0.010 A 
ATOM     78  C   UNL A   1      46.312  22.566  25.644  1.00  0.00     0.010 A 
ATOM     79  C   UNL A   1      43.709  21.639  26.008  1.00  0.00     0.020 A 
ATOM     80  C   UNL A   1      45.919  21.301  25.136  1.00  0.00     0.020 A 
ATOM     81  C   UNL A   1      44.618  20.841  25.331  1.00  0.00     0.054 A 
BRANCH  81  82
ATOM     82  S   UNL A   1      44.053  19.236  24.696  1.00  0.00     0.124 S 
ATOM     83  O   UNL A   1      44.922  18.292  25.397  1.00  0.00    -0.237 OA
ATOM     84  O   UNL A   1      42.649  19.210  25.099  1.00  0.00    -0.237 OA
ATOM     85  O   UNL A   1      44.280  19.330  23.256  1.00  0.00    -0.744 OA
ENDBRANCH  81  82
ENDBRANCH  62  76
BRANCH  63  86
ATOM     86  C   UNL A   1      46.498  32.764  30.237  1.00  0.00    -0.014 A 
ATOM     87  C   UNL A   1      47.771  32.809  30.866  1.00  0.00     0.010 A 
ATOM     88  C   UNL A   1      45.688  33.915  30.290  1.00  0.00     0.010 A 
ATOM     89  C   UNL A   1      48.355  34.042  31.183  1.00  0.00     0.020 A 
ATOM     90  C   UNL A   1      46.266  35.151  30.639  1.00  0.00     0.020 A 
ATOM     91  C   UNL A   1      47.621  35.212  30.988  1.00  0.00     0.054 A 
BRANCH  91  92
ATOM     92  S   UNL A   1      48.542  36.782  30.898  1.00  0.00     0.124 S 
ATOM     93  O   UNL A   1      47.513  37.774  31.183  1.00  0.00    -0.237 OA
ATOM     94  O   UNL A   1      49.552  36.595  31.940  1.00  0.00    -0.237 OA
ATOM     95  O   UNL A   1      49.060  36.789  29.535  1.00  0.00    -0.744 OA
ENDBRANCH  91  92
ENDBRANCH  63  86
BRANCH  75  96
ATOM     96  C   UNL A   1      50.225  27.890  26.076  1.00  0.00    -0.014 A 
ATOM     97  C   UNL A   1      51.450  28.417  26.499  1.00  0.00     0.010 A 
ATOM     98  C   UNL A   1      50.269  26.627  25.423  1.00  0.00     0.010 A 
ATOM     99  C   UNL A   1      52.655  27.752  26.242  1.00  0.00     0.020 A 
ATOM    100  C   UNL A   1      51.459  25.927  25.213  1.00  0.00     0.020 A 
ATOM    101  C   UNL A   1      52.652  26.512  25.605  1.00  0.00     0.054 A 
BRANCH 101 102
ATOM    102  S   UNL A   1      54.226  25.665  25.345  1.00  0.00     0.124 S 
ATOM    103  O   UNL A   1      54.451  25.889  23.919  1.00  0.00    -0.237 OA
ATOM    104  O   UNL A   1      55.126  26.388  26.241  1.00  0.00    -0.237 OA
ATOM    105  O   UNL A   1      53.951  24.283  25.727  1.00  0.00    -0.744 OA
ENDBRANCH 101 102
ENDBRANCH  75  96
ENDBRANCH  49  50
ENDBRANCH  42  44
ENDBRANCH  41  42
ENDBRANCH  40  41
ENDBRANCH  39  40
ENDBRANCH  38  39
ENDBRANCH  37  38
ENDBRANCH  36  37
ENDBRANCH  35  36
ENDBRANCH   1  35
TORSDOF 28
ENDMDL
