MODEL 1
REMARK VINA RESULT:      -8.5      0.000      0.000
REMARK SMILES Cc1ccnc(C(=O)c2[nH]c3cc(Cl)c(F)cc3c2CC(=O)OCCOCCOCCOCCOC(=O)c2ccc(-c3c4nc(c(-c5ccc(S(=O)(=O)[O-])cc5)c5ccc([nH]5)c(-c5ccc(S(=O)(=O)[O-])cc5)c5nc(c(-c6ccc(S(=O)(=O)[O-])cc6)c6ccc3[nH]6)C=C5)C=C4)cc2)c1
REMARK SMILES IDX 29 1 28 2 27 3 26 4 25 5 24 6 23 7 21 8 22 9 20 10 19 11
REMARK SMILES IDX 9 12 10 13 11 14 18 16 12 17 17 18 13 19 15 20 14 21 16 22
REMARK SMILES IDX 7 23 8 24 6 25 1 26 2 27 3 28 98 29 4 30 5 31 30 32 31 33
REMARK SMILES IDX 32 34 33 35 34 36 35 37 36 38 37 39 38 40 39 41 97 42 40 43
REMARK SMILES IDX 96 44 41 45 42 46 43 47 90 48 44 49 95 50 89 51 91 52 45 53
REMARK SMILES IDX 94 54 88 55 87 56 46 58 76 59 57 60 75 61 58 62 61 63 74 64
REMARK SMILES IDX 92 65 59 66 60 67 73 69 93 70 62 71 47 72 48 73 56 74 49 75
REMARK SMILES IDX 55 76 50 77 51 78 52 79 53 80 54 81 77 82 78 83 86 84 79 85
REMARK SMILES IDX 85 86 80 87 81 88 82 89 83 90 84 91 63 92 64 93 72 94 65 95
REMARK SMILES IDX 71 96 66 97 67 98 68 99 69 100 70 101
REMARK H PARENT 10 15 91 57 61 68
REMARK Flexibility Score: inf
ROOT
ATOM      1  O   UNL A   1      34.338  34.577  31.920  1.00  0.00    -0.377 OA
ENDROOT
BRANCH   1   2
ATOM      2  C   UNL A   1      34.072  33.972  33.177  1.00  0.00     0.188 C 
BRANCH   2   3
ATOM      3  C   UNL A   1      35.196  34.272  34.166  1.00  0.00     0.188 C 
BRANCH   3   4
ATOM      4  O   UNL A   1      35.899  33.117  34.543  1.00  0.00    -0.376 OA
BRANCH   4   5
ATOM      5  C   UNL A   1      36.192  32.340  33.394  1.00  0.00     0.202 C 
BRANCH   5   6
ATOM      6  C   UNL A   1      37.550  31.617  33.524  1.00  0.00     0.261 C 
BRANCH   6   7
ATOM      7  O   UNL A   1      37.840  31.037  34.841  1.00  0.00    -0.463 OA
BRANCH   7   8
ATOM      8  C   UNL A   1      38.921  31.528  35.501  1.00  0.00     0.310 C 
ATOM      9  O   UNL A   1      39.687  30.835  36.167  1.00  0.00    -0.252 OA
BRANCH   8  10
ATOM     10  C   UNL A   1      39.233  33.015  35.256  1.00  0.00     0.161 C 
BRANCH  10  11
ATOM     11  C   UNL A   1      40.643  33.538  34.916  1.00  0.00     0.000 A 
ATOM     12  C   UNL A   1      41.743  34.012  35.718  1.00  0.00     0.093 A 
ATOM     13  N   UNL A   1      42.531  34.720  34.805  1.00  0.00    -0.351 N 
ATOM     14  C   UNL A   1      42.130  34.580  33.499  1.00  0.00     0.048 A 
ATOM     15  H   UNL A   1      43.304  35.269  35.073  1.00  0.00     0.167 HD
ATOM     16  C   UNL A   1      40.972  33.812  33.517  1.00  0.00     0.007 A 
ATOM     17  C   UNL A   1      42.679  35.104  32.312  1.00  0.00     0.050 A 
ATOM     18  C   UNL A   1      40.342  33.531  32.276  1.00  0.00     0.051 A 
ATOM     19  C   UNL A   1      42.038  34.807  31.102  1.00  0.00     0.078 A 
ATOM     20  C   UNL A   1      40.890  34.026  31.087  1.00  0.00     0.142 A 
ATOM     21  Cl  UNL A   1      42.691  35.436  29.632  1.00  0.00    -0.081 Cl
ATOM     22  F   UNL A   1      40.274  33.752  29.925  1.00  0.00    -0.205 F 
BRANCH  12  23
ATOM     23  C   UNL A   1      42.085  34.230  37.182  1.00  0.00     0.227 C 
ATOM     24  O   UNL A   1      43.167  34.774  37.421  1.00  0.00    -0.285 OA
BRANCH  23  25
ATOM     25  C   UNL A   1      41.370  33.632  38.438  1.00  0.00     0.113 A 
ATOM     26  C   UNL A   1      37.902  33.449  40.007  1.00  0.00     0.044 C 
ATOM     27  C   UNL A   1      39.368  33.183  39.782  1.00  0.00    -0.047 A 
ATOM     28  C   UNL A   1      40.151  32.820  40.849  1.00  0.00     0.023 A 
ATOM     29  C   UNL A   1      40.013  33.428  38.542  1.00  0.00     0.036 A 
ATOM     30  C   UNL A   1      41.517  32.831  40.637  1.00  0.00     0.112 A 
ATOM     31  N   UNL A   1      42.143  33.267  39.495  1.00  0.00    -0.253 NA
ENDBRANCH  23  25
ENDBRANCH  12  23
ENDBRANCH  10  11
ENDBRANCH   8  10
ENDBRANCH   7   8
ENDBRANCH   6   7
ENDBRANCH   5   6
ENDBRANCH   4   5
ENDBRANCH   3   4
ENDBRANCH   2   3
ENDBRANCH   1   2
BRANCH   1  32
ATOM     32  C   UNL A   1      33.670  35.821  31.735  1.00  0.00     0.188 C 
BRANCH  32  33
ATOM     33  C   UNL A   1      33.051  35.828  30.335  1.00  0.00     0.188 C 
BRANCH  33  34
ATOM     34  O   UNL A   1      33.922  36.180  29.266  1.00  0.00    -0.376 OA
BRANCH  34  35
ATOM     35  C   UNL A   1      34.214  35.138  28.345  1.00  0.00     0.202 C 
BRANCH  35  36
ATOM     36  C   UNL A   1      33.807  33.715  28.785  1.00  0.00     0.261 C 
BRANCH  36  37
ATOM     37  O   UNL A   1      34.952  32.883  29.116  1.00  0.00    -0.460 OA
BRANCH  37  38
ATOM     38  C   UNL A   1      34.943  31.607  28.607  1.00  0.00     0.338 C 
ATOM     39  O   UNL A   1      34.139  31.177  27.790  1.00  0.00    -0.246 OA
BRANCH  38  40
ATOM     40  C   UNL A   1      36.269  30.955  28.889  1.00  0.00     0.060 A 
ATOM     41  C   UNL A   1      37.393  31.712  29.215  1.00  0.00     0.016 A 
ATOM     42  C   UNL A   1      36.445  29.625  28.442  1.00  0.00     0.016 A 
ATOM     43  C   UNL A   1      38.672  31.183  28.974  1.00  0.00     0.010 A 
ATOM     44  C   UNL A   1      37.731  29.104  28.194  1.00  0.00     0.010 A 
ATOM     45  C   UNL A   1      38.863  29.891  28.424  1.00  0.00    -0.014 A 
BRANCH  45  46
ATOM     46  C   UNL A   1      40.240  29.329  28.464  1.00  0.00     0.031 A 
ATOM     47  C   UNL A   1      40.693  29.170  29.867  1.00  0.00     0.074 A 
ATOM     48  C   UNL A   1      41.075  28.848  27.512  1.00  0.00     0.049 A 
ATOM     49  N   UNL A   1      41.669  29.788  30.443  1.00  0.00    -0.248 NA
ATOM     50  C   UNL A   1      39.846  28.372  30.765  1.00  0.00     0.031 C 
ATOM     51  C   UNL A   1      40.833  28.716  26.086  1.00  0.00     0.029 A 
ATOM     52  N   UNL A   1      42.335  28.301  27.639  1.00  0.00    -0.354 N 
ATOM     53  C   UNL A   1      41.665  29.337  31.751  1.00  0.00     0.074 A 
ATOM     54  C   UNL A   1      40.433  28.609  31.935  1.00  0.00     0.031 C 
ATOM     55  C   UNL A   1      41.774  27.928  25.514  1.00  0.00     0.029 A 
ATOM     56  C   UNL A   1      42.780  27.611  26.512  1.00  0.00     0.049 A 
ATOM     57  H   UNL A   1      42.874  28.390  28.458  1.00  0.00     0.167 HD
ATOM     58  C   UNL A   1      42.759  29.419  32.548  1.00  0.00     0.031 A 
ATOM     59  C   UNL A   1      43.892  26.842  26.361  1.00  0.00     0.031 A 
ATOM     60  C   UNL A   1      43.739  30.342  32.053  1.00  0.00     0.049 A 
ATOM     61  C   UNL A   1      44.873  27.275  27.381  1.00  0.00     0.074 A 
ATOM     62  C   UNL A   1      43.732  31.697  31.792  1.00  0.00     0.029 A 
ATOM     63  N   UNL A   1      44.841  29.831  31.413  1.00  0.00    -0.354 N 
ATOM     64  N   UNL A   1      45.500  28.417  27.353  1.00  0.00    -0.248 NA
ATOM     65  C   UNL A   1      44.865  26.590  28.662  1.00  0.00     0.031 C 
ATOM     66  C   UNL A   1      44.556  31.856  30.646  1.00  0.00     0.029 A 
ATOM     67  C   UNL A   1      45.082  30.605  30.307  1.00  0.00     0.049 A 
ATOM     68  H   UNL A   1      45.366  29.048  31.699  1.00  0.00     0.167 HD
ATOM     69  C   UNL A   1      45.578  28.803  28.683  1.00  0.00     0.074 A 
ATOM     70  C   UNL A   1      45.248  27.600  29.444  1.00  0.00     0.031 C 
ATOM     71  C   UNL A   1      45.641  30.117  29.054  1.00  0.00     0.031 A 
BRANCH  58  72
ATOM     72  C   UNL A   1      43.040  28.409  33.619  1.00  0.00    -0.014 A 
ATOM     73  C   UNL A   1      42.957  28.729  34.991  1.00  0.00     0.010 A 
ATOM     74  C   UNL A   1      43.180  27.052  33.279  1.00  0.00     0.010 A 
ATOM     75  C   UNL A   1      43.074  27.763  35.984  1.00  0.00     0.020 A 
ATOM     76  C   UNL A   1      43.243  26.064  34.270  1.00  0.00     0.020 A 
ATOM     77  C   UNL A   1      43.207  26.431  35.617  1.00  0.00     0.054 A 
BRANCH  77  78
ATOM     78  S   UNL A   1      43.249  25.199  36.936  1.00  0.00     0.124 S 
ATOM     79  O   UNL A   1      44.047  25.879  37.952  1.00  0.00    -0.237 OA
ATOM     80  O   UNL A   1      41.832  25.036  37.254  1.00  0.00    -0.237 OA
ATOM     81  O   UNL A   1      43.883  24.046  36.306  1.00  0.00    -0.744 OA
ENDBRANCH  77  78
ENDBRANCH  58  72
BRANCH  59  82
ATOM     82  C   UNL A   1      43.994  25.516  25.677  1.00  0.00    -0.014 A 
ATOM     83  C   UNL A   1      42.983  24.552  25.867  1.00  0.00     0.010 A 
ATOM     84  C   UNL A   1      45.206  25.076  25.102  1.00  0.00     0.010 A 
ATOM     85  C   UNL A   1      43.199  23.195  25.589  1.00  0.00     0.020 A 
ATOM     86  C   UNL A   1      45.431  23.714  24.819  1.00  0.00     0.020 A 
ATOM     87  C   UNL A   1      44.438  22.777  25.108  1.00  0.00     0.054 A 
BRANCH  87  88
ATOM     88  S   UNL A   1      44.750  20.989  24.979  1.00  0.00     0.124 S 
ATOM     89  O   UNL A   1      44.625  20.763  23.541  1.00  0.00    -0.237 OA
ATOM     90  O   UNL A   1      46.104  20.863  25.515  1.00  0.00    -0.237 OA
ATOM     91  O   UNL A   1      43.701  20.391  25.799  1.00  0.00    -0.744 OA
ENDBRANCH  87  88
ENDBRANCH  59  82
BRANCH  71  92
ATOM     92  C   UNL A   1      46.043  31.194  28.058  1.00  0.00    -0.014 A 
ATOM     93  C   UNL A   1      47.363  31.681  28.167  1.00  0.00     0.010 A 
ATOM     94  C   UNL A   1      45.166  31.879  27.200  1.00  0.00     0.010 A 
ATOM     95  C   UNL A   1      47.755  32.876  27.566  1.00  0.00     0.020 A 
ATOM     96  C   UNL A   1      45.585  33.042  26.523  1.00  0.00     0.020 A 
ATOM     97  C   UNL A   1      46.854  33.572  26.767  1.00  0.00     0.054 A 
BRANCH  97  98
ATOM     98  S   UNL A   1      47.381  35.213  26.187  1.00  0.00     0.124 S 
ATOM     99  O   UNL A   1      48.020  35.771  27.377  1.00  0.00    -0.237 OA
ATOM    100  O   UNL A   1      48.277  34.891  25.081  1.00  0.00    -0.237 OA
ATOM    101  O   UNL A   1      46.149  35.880  25.791  1.00  0.00    -0.744 OA
ENDBRANCH  97  98
ENDBRANCH  71  92
ENDBRANCH  45  46
ENDBRANCH  38  40
ENDBRANCH  37  38
ENDBRANCH  36  37
ENDBRANCH  35  36
ENDBRANCH  34  35
ENDBRANCH  33  34
ENDBRANCH  32  33
ENDBRANCH   1  32
TORSDOF 26
ENDMDL
MODEL 2
REMARK VINA RESULT:      -8.3      4.408     12.213
REMARK SMILES Cc1ccnc(C(=O)c2[nH]c3cc(Cl)c(F)cc3c2CC(=O)OCCOCCOCCOCCOC(=O)c2ccc(-c3c4nc(c(-c5ccc(S(=O)(=O)[O-])cc5)c5ccc([nH]5)c(-c5ccc(S(=O)(=O)[O-])cc5)c5nc(c(-c6ccc(S(=O)(=O)[O-])cc6)c6ccc3[nH]6)C=C5)C=C4)cc2)c1
REMARK SMILES IDX 29 1 28 2 27 3 26 4 25 5 24 6 23 7 21 8 22 9 20 10 19 11
REMARK SMILES IDX 9 12 10 13 11 14 18 16 12 17 17 18 13 19 15 20 14 21 16 22
REMARK SMILES IDX 7 23 8 24 6 25 1 26 2 27 3 28 98 29 4 30 5 31 30 32 31 33
REMARK SMILES IDX 32 34 33 35 34 36 35 37 36 38 37 39 38 40 39 41 97 42 40 43
REMARK SMILES IDX 96 44 41 45 42 46 43 47 90 48 44 49 95 50 89 51 91 52 45 53
REMARK SMILES IDX 94 54 88 55 87 56 46 58 76 59 57 60 75 61 58 62 61 63 74 64
REMARK SMILES IDX 92 65 59 66 60 67 73 69 93 70 62 71 47 72 48 73 56 74 49 75
REMARK SMILES IDX 55 76 50 77 51 78 52 79 53 80 54 81 77 82 78 83 86 84 79 85
REMARK SMILES IDX 85 86 80 87 81 88 82 89 83 90 84 91 63 92 64 93 72 94 65 95
REMARK SMILES IDX 71 96 66 97 67 98 68 99 69 100 70 101
REMARK H PARENT 10 15 91 57 61 68
REMARK Flexibility Score: inf
ROOT
ATOM      1  O   UNL A   1      32.619  25.274  24.287  1.00  0.00    -0.377 OA
ENDROOT
BRANCH   1   2
ATOM      2  C   UNL A   1      33.724  25.472  25.158  1.00  0.00     0.188 C 
BRANCH   2   3
ATOM      3  C   UNL A   1      34.553  24.195  25.273  1.00  0.00     0.188 C 
BRANCH   3   4
ATOM      4  O   UNL A   1      34.365  23.335  24.180  1.00  0.00    -0.376 OA
BRANCH   4   5
ATOM      5  C   UNL A   1      35.561  22.618  23.924  1.00  0.00     0.202 C 
BRANCH   5   6
ATOM      6  C   UNL A   1      36.276  22.213  25.230  1.00  0.00     0.261 C 
BRANCH   6   7
ATOM      7  O   UNL A   1      37.742  22.166  25.168  1.00  0.00    -0.463 OA
BRANCH   7   8
ATOM      8  C   UNL A   1      38.418  22.969  26.030  1.00  0.00     0.310 C 
ATOM      9  O   UNL A   1      38.056  24.103  26.333  1.00  0.00    -0.252 OA
BRANCH   8  10
ATOM     10  C   UNL A   1      39.619  22.320  26.741  1.00  0.00     0.161 C 
BRANCH  10  11
ATOM     11  C   UNL A   1      41.078  22.764  26.510  1.00  0.00     0.000 A 
ATOM     12  C   UNL A   1      41.715  24.052  26.404  1.00  0.00     0.093 A 
ATOM     13  N   UNL A   1      42.933  23.762  25.779  1.00  0.00    -0.351 N 
ATOM     14  C   UNL A   1      43.188  22.419  25.654  1.00  0.00     0.048 A 
ATOM     15  H   UNL A   1      43.552  24.459  25.458  1.00  0.00     0.167 HD
ATOM     16  C   UNL A   1      42.069  21.753  26.137  1.00  0.00     0.007 A 
ATOM     17  C   UNL A   1      44.303  21.746  25.117  1.00  0.00     0.050 A 
ATOM     18  C   UNL A   1      42.074  20.334  26.104  1.00  0.00     0.051 A 
ATOM     19  C   UNL A   1      44.283  20.345  25.102  1.00  0.00     0.078 A 
ATOM     20  C   UNL A   1      43.186  19.652  25.596  1.00  0.00     0.142 A 
ATOM     21  Cl  UNL A   1      45.637  19.495  24.450  1.00  0.00    -0.081 Cl
ATOM     22  F   UNL A   1      43.167  18.309  25.570  1.00  0.00    -0.205 F 
BRANCH  12  23
ATOM     23  C   UNL A   1      41.344  25.523  26.461  1.00  0.00     0.227 C 
ATOM     24  O   UNL A   1      41.246  26.110  25.379  1.00  0.00    -0.285 OA
BRANCH  23  25
ATOM     25  C   UNL A   1      41.318  26.462  27.711  1.00  0.00     0.113 A 
ATOM     26  C   UNL A   1      43.588  27.596  30.555  1.00  0.00     0.044 C 
ATOM     27  C   UNL A   1      42.389  27.526  29.645  1.00  0.00    -0.047 A 
ATOM     28  C   UNL A   1      41.164  27.912  30.126  1.00  0.00     0.023 A 
ATOM     29  C   UNL A   1      42.437  26.944  28.352  1.00  0.00     0.036 A 
ATOM     30  C   UNL A   1      40.071  27.598  29.341  1.00  0.00     0.112 A 
ATOM     31  N   UNL A   1      40.106  26.852  28.188  1.00  0.00    -0.253 NA
ENDBRANCH  23  25
ENDBRANCH  12  23
ENDBRANCH  10  11
ENDBRANCH   8  10
ENDBRANCH   7   8
ENDBRANCH   6   7
ENDBRANCH   5   6
ENDBRANCH   4   5
ENDBRANCH   3   4
ENDBRANCH   2   3
ENDBRANCH   1   2
BRANCH   1  32
ATOM     32  C   UNL A   1      31.698  26.359  24.280  1.00  0.00     0.188 C 
BRANCH  32  33
ATOM     33  C   UNL A   1      32.198  27.417  25.268  1.00  0.00     0.188 C 
BRANCH  33  34
ATOM     34  O   UNL A   1      31.367  28.560  25.435  1.00  0.00    -0.376 OA
BRANCH  34  35
ATOM     35  C   UNL A   1      32.040  29.813  25.416  1.00  0.00     0.202 C 
BRANCH  35  36
ATOM     36  C   UNL A   1      32.132  30.550  26.769  1.00  0.00     0.261 C 
BRANCH  36  37
ATOM     37  O   UNL A   1      33.477  31.018  27.061  1.00  0.00    -0.460 OA
BRANCH  37  38
ATOM     38  C   UNL A   1      34.327  30.104  27.635  1.00  0.00     0.338 C 
ATOM     39  O   UNL A   1      34.380  28.914  27.355  1.00  0.00    -0.246 OA
BRANCH  38  40
ATOM     40  C   UNL A   1      35.428  30.839  28.351  1.00  0.00     0.060 A 
ATOM     41  C   UNL A   1      36.738  30.365  28.341  1.00  0.00     0.016 A 
ATOM     42  C   UNL A   1      35.046  31.778  29.335  1.00  0.00     0.016 A 
ATOM     43  C   UNL A   1      37.610  30.734  29.381  1.00  0.00     0.010 A 
ATOM     44  C   UNL A   1      35.923  32.136  30.380  1.00  0.00     0.010 A 
ATOM     45  C   UNL A   1      37.207  31.590  30.435  1.00  0.00    -0.014 A 
BRANCH  45  46
ATOM     46  C   UNL A   1      38.274  32.127  31.322  1.00  0.00     0.031 A 
ATOM     47  C   UNL A   1      39.169  33.033  30.564  1.00  0.00     0.074 A 
ATOM     48  C   UNL A   1      38.504  32.043  32.655  1.00  0.00     0.049 A 
ATOM     49  N   UNL A   1      40.423  32.856  30.314  1.00  0.00    -0.248 NA
ATOM     50  C   UNL A   1      38.548  34.163  29.857  1.00  0.00     0.031 C 
ATOM     51  C   UNL A   1      37.702  31.376  33.666  1.00  0.00     0.029 A 
ATOM     52  N   UNL A   1      39.505  32.613  33.414  1.00  0.00    -0.354 N 
ATOM     53  C   UNL A   1      40.799  33.942  29.542  1.00  0.00     0.074 A 
ATOM     54  C   UNL A   1      39.583  34.614  29.153  1.00  0.00     0.031 C 
ATOM     55  C   UNL A   1      38.085  31.760  34.906  1.00  0.00     0.029 A 
ATOM     56  C   UNL A   1      39.265  32.598  34.788  1.00  0.00     0.049 A 
ATOM     57  H   UNL A   1      40.320  32.998  33.018  1.00  0.00     0.167 HD
ATOM     58  C   UNL A   1      42.091  34.339  29.432  1.00  0.00     0.031 A 
ATOM     59  C   UNL A   1      39.967  33.199  35.787  1.00  0.00     0.031 A 
ATOM     60  C   UNL A   1      43.019  33.325  29.843  1.00  0.00     0.049 A 
ATOM     61  C   UNL A   1      41.345  33.417  35.293  1.00  0.00     0.074 A 
ATOM     62  C   UNL A   1      43.294  32.045  29.408  1.00  0.00     0.029 A 
ATOM     63  N   UNL A   1      43.597  33.444  31.083  1.00  0.00    -0.354 N 
ATOM     64  N   UNL A   1      42.206  32.460  35.085  1.00  0.00    -0.248 NA
ATOM     65  C   UNL A   1      41.640  34.684  34.649  1.00  0.00     0.031 C 
ATOM     66  C   UNL A   1      43.619  31.318  30.585  1.00  0.00     0.029 A 
ATOM     67  C   UNL A   1      43.598  32.204  31.667  1.00  0.00     0.049 A 
ATOM     68  H   UNL A   1      43.947  34.274  31.482  1.00  0.00     0.167 HD
ATOM     69  C   UNL A   1      42.898  32.857  33.950  1.00  0.00     0.074 A 
ATOM     70  C   UNL A   1      42.563  34.270  33.780  1.00  0.00     0.031 C 
ATOM     71  C   UNL A   1      43.467  31.954  33.096  1.00  0.00     0.031 A 
BRANCH  58  72
ATOM     72  C   UNL A   1      42.468  35.775  29.232  1.00  0.00    -0.014 A 
ATOM     73  C   UNL A   1      43.434  36.415  30.036  1.00  0.00     0.010 A 
ATOM     74  C   UNL A   1      42.022  36.460  28.088  1.00  0.00     0.010 A 
ATOM     75  C   UNL A   1      43.890  37.700  29.764  1.00  0.00     0.020 A 
ATOM     76  C   UNL A   1      42.515  37.732  27.773  1.00  0.00     0.020 A 
ATOM     77  C   UNL A   1      43.434  38.349  28.624  1.00  0.00     0.054 A 
BRANCH  77  78
ATOM     78  S   UNL A   1      44.131  39.972  28.251  1.00  0.00     0.124 S 
ATOM     79  O   UNL A   1      45.525  39.796  28.651  1.00  0.00    -0.237 OA
ATOM     80  O   UNL A   1      43.899  40.087  26.813  1.00  0.00    -0.237 OA
ATOM     81  O   UNL A   1      43.348  40.880  29.082  1.00  0.00    -0.744 OA
ENDBRANCH  77  78
ENDBRANCH  58  72
BRANCH  59  82
ATOM     82  C   UNL A   1      39.419  33.947  36.959  1.00  0.00    -0.014 A 
ATOM     83  C   UNL A   1      39.268  35.347  36.886  1.00  0.00     0.010 A 
ATOM     84  C   UNL A   1      39.339  33.355  38.239  1.00  0.00     0.010 A 
ATOM     85  C   UNL A   1      39.140  36.134  38.039  1.00  0.00     0.020 A 
ATOM     86  C   UNL A   1      39.211  34.139  39.403  1.00  0.00     0.020 A 
ATOM     87  C   UNL A   1      39.158  35.530  39.295  1.00  0.00     0.054 A 
BRANCH  87  88
ATOM     88  S   UNL A   1      39.220  36.601  40.763  1.00  0.00     0.124 S 
ATOM     89  O   UNL A   1      38.543  35.782  41.765  1.00  0.00    -0.237 OA
ATOM     90  O   UNL A   1      40.657  36.776  40.968  1.00  0.00    -0.237 OA
ATOM     91  O   UNL A   1      38.502  37.804  40.350  1.00  0.00    -0.744 OA
ENDBRANCH  87  88
ENDBRANCH  59  82
BRANCH  71  92
ATOM     92  C   UNL A   1      43.737  30.524  33.535  1.00  0.00    -0.014 A 
ATOM     93  C   UNL A   1      42.644  29.634  33.464  1.00  0.00     0.010 A 
ATOM     94  C   UNL A   1      44.897  30.078  34.192  1.00  0.00     0.010 A 
ATOM     95  C   UNL A   1      42.649  28.413  34.138  1.00  0.00     0.020 A 
ATOM     96  C   UNL A   1      44.934  28.808  34.802  1.00  0.00     0.020 A 
ATOM     97  C   UNL A   1      43.786  28.015  34.832  1.00  0.00     0.054 A 
BRANCH  97  98
ATOM     98  S   UNL A   1      43.637  26.509  35.841  1.00  0.00     0.124 S 
ATOM     99  O   UNL A   1      44.033  26.985  37.165  1.00  0.00    -0.237 OA
ATOM    100  O   UNL A   1      42.228  26.159  35.691  1.00  0.00    -0.237 OA
ATOM    101  O   UNL A   1      44.562  25.563  35.235  1.00  0.00    -0.744 OA
ENDBRANCH  97  98
ENDBRANCH  71  92
ENDBRANCH  45  46
ENDBRANCH  38  40
ENDBRANCH  37  38
ENDBRANCH  36  37
ENDBRANCH  35  36
ENDBRANCH  34  35
ENDBRANCH  33  34
ENDBRANCH  32  33
ENDBRANCH   1  32
TORSDOF 26
ENDMDL
MODEL 3
REMARK VINA RESULT:      -8.3      4.222      7.402
REMARK SMILES Cc1ccnc(C(=O)c2[nH]c3cc(Cl)c(F)cc3c2CC(=O)OCCOCCOCCOCCOC(=O)c2ccc(-c3c4nc(c(-c5ccc(S(=O)(=O)[O-])cc5)c5ccc([nH]5)c(-c5ccc(S(=O)(=O)[O-])cc5)c5nc(c(-c6ccc(S(=O)(=O)[O-])cc6)c6ccc3[nH]6)C=C5)C=C4)cc2)c1
REMARK SMILES IDX 29 1 28 2 27 3 26 4 25 5 24 6 23 7 21 8 22 9 20 10 19 11
REMARK SMILES IDX 9 12 10 13 11 14 18 16 12 17 17 18 13 19 15 20 14 21 16 22
REMARK SMILES IDX 7 23 8 24 6 25 1 26 2 27 3 28 98 29 4 30 5 31 30 32 31 33
REMARK SMILES IDX 32 34 33 35 34 36 35 37 36 38 37 39 38 40 39 41 97 42 40 43
REMARK SMILES IDX 96 44 41 45 42 46 43 47 90 48 44 49 95 50 89 51 91 52 45 53
REMARK SMILES IDX 94 54 88 55 87 56 46 58 76 59 57 60 75 61 58 62 61 63 74 64
REMARK SMILES IDX 92 65 59 66 60 67 73 69 93 70 62 71 47 72 48 73 56 74 49 75
REMARK SMILES IDX 55 76 50 77 51 78 52 79 53 80 54 81 77 82 78 83 86 84 79 85
REMARK SMILES IDX 85 86 80 87 81 88 82 89 83 90 84 91 63 92 64 93 72 94 65 95
REMARK SMILES IDX 71 96 66 97 67 98 68 99 69 100 70 101
REMARK H PARENT 10 15 91 57 61 68
REMARK Flexibility Score: inf
ROOT
ATOM      1  O   UNL A   1      32.974  24.904  24.290  1.00  0.00    -0.377 OA
ENDROOT
BRANCH   1   2
ATOM      2  C   UNL A   1      33.121  26.043  25.126  1.00  0.00     0.188 C 
BRANCH   2   3
ATOM      3  C   UNL A   1      33.659  27.229  24.329  1.00  0.00     0.188 C 
BRANCH   3   4
ATOM      4  O   UNL A   1      33.981  28.321  25.148  1.00  0.00    -0.376 OA
BRANCH   4   5
ATOM      5  C   UNL A   1      33.279  28.222  26.376  1.00  0.00     0.202 C 
BRANCH   5   6
ATOM      6  C   UNL A   1      33.959  29.043  27.491  1.00  0.00     0.261 C 
BRANCH   6   7
ATOM      7  O   UNL A   1      35.204  29.723  27.115  1.00  0.00    -0.463 OA
BRANCH   7   8
ATOM      8  C   UNL A   1      35.577  30.785  27.877  1.00  0.00     0.310 C 
ATOM      9  O   UNL A   1      35.439  31.955  27.530  1.00  0.00    -0.252 OA
BRANCH   8  10
ATOM     10  C   UNL A   1      36.066  30.447  29.297  1.00  0.00     0.161 C 
BRANCH  10  11
ATOM     11  C   UNL A   1      37.528  30.626  29.751  1.00  0.00     0.000 A 
ATOM     12  C   UNL A   1      38.216  31.655  30.489  1.00  0.00     0.093 A 
ATOM     13  N   UNL A   1      39.563  31.428  30.187  1.00  0.00    -0.351 N 
ATOM     14  C   UNL A   1      39.788  30.266  29.491  1.00  0.00     0.048 A 
ATOM     15  H   UNL A   1      40.285  32.045  30.450  1.00  0.00     0.167 HD
ATOM     16  C   UNL A   1      38.543  29.709  29.231  1.00  0.00     0.007 A 
ATOM     17  C   UNL A   1      40.992  29.688  29.041  1.00  0.00     0.050 A 
ATOM     18  C   UNL A   1      38.499  28.492  28.501  1.00  0.00     0.051 A 
ATOM     19  C   UNL A   1      40.918  28.485  28.326  1.00  0.00     0.078 A 
ATOM     20  C   UNL A   1      39.688  27.894  28.068  1.00  0.00     0.142 A 
ATOM     21  Cl  UNL A   1      42.378  27.755  27.763  1.00  0.00    -0.081 Cl
ATOM     22  F   UNL A   1      39.622  26.746  27.374  1.00  0.00    -0.205 F 
BRANCH  12  23
ATOM     23  C   UNL A   1      37.913  32.984  31.159  1.00  0.00     0.227 C 
ATOM     24  O   UNL A   1      37.843  33.972  30.421  1.00  0.00    -0.285 OA
BRANCH  23  25
ATOM     25  C   UNL A   1      37.926  33.318  32.687  1.00  0.00     0.113 A 
ATOM     26  C   UNL A   1      39.759  35.560  35.165  1.00  0.00     0.044 C 
ATOM     27  C   UNL A   1      38.745  34.587  34.620  1.00  0.00    -0.047 A 
ATOM     28  C   UNL A   1      38.157  33.689  35.474  1.00  0.00     0.023 A 
ATOM     29  C   UNL A   1      38.471  34.458  33.234  1.00  0.00     0.036 A 
ATOM     30  C   UNL A   1      37.431  32.671  34.886  1.00  0.00     0.112 A 
ATOM     31  N   UNL A   1      37.340  32.432  33.537  1.00  0.00    -0.253 NA
ENDBRANCH  23  25
ENDBRANCH  12  23
ENDBRANCH  10  11
ENDBRANCH   8  10
ENDBRANCH   7   8
ENDBRANCH   6   7
ENDBRANCH   5   6
ENDBRANCH   4   5
ENDBRANCH   3   4
ENDBRANCH   2   3
ENDBRANCH   1   2
BRANCH   1  32
ATOM     32  C   UNL A   1      34.033  24.746  23.352  1.00  0.00     0.188 C 
BRANCH  32  33
ATOM     33  C   UNL A   1      34.471  23.279  23.367  1.00  0.00     0.188 C 
BRANCH  33  34
ATOM     34  O   UNL A   1      35.774  23.020  23.878  1.00  0.00    -0.376 OA
BRANCH  34  35
ATOM     35  C   UNL A   1      35.901  21.840  24.660  1.00  0.00     0.202 C 
BRANCH  35  36
ATOM     36  C   UNL A   1      37.318  21.236  24.745  1.00  0.00     0.261 C 
BRANCH  36  37
ATOM     37  O   UNL A   1      38.208  22.013  25.592  1.00  0.00    -0.460 OA
BRANCH  37  38
ATOM     38  C   UNL A   1      39.318  21.358  26.069  1.00  0.00     0.338 C 
ATOM     39  O   UNL A   1      39.483  20.145  26.058  1.00  0.00    -0.246 OA
BRANCH  38  40
ATOM     40  C   UNL A   1      40.439  22.347  26.237  1.00  0.00     0.060 A 
ATOM     41  C   UNL A   1      41.725  22.068  25.779  1.00  0.00     0.016 A 
ATOM     42  C   UNL A   1      40.260  23.373  27.193  1.00  0.00     0.016 A 
ATOM     43  C   UNL A   1      42.822  22.721  26.367  1.00  0.00     0.010 A 
ATOM     44  C   UNL A   1      41.366  24.017  27.785  1.00  0.00     0.010 A 
ATOM     45  C   UNL A   1      42.665  23.673  27.404  1.00  0.00    -0.014 A 
BRANCH  45  46
ATOM     46  C   UNL A   1      43.853  24.493  27.762  1.00  0.00     0.031 A 
ATOM     47  C   UNL A   1      44.104  24.431  29.222  1.00  0.00     0.074 A 
ATOM     48  C   UNL A   1      44.777  25.161  27.029  1.00  0.00     0.049 A 
ATOM     49  N   UNL A   1      44.034  25.407  30.064  1.00  0.00    -0.248 NA
ATOM     50  C   UNL A   1      44.266  23.100  29.825  1.00  0.00     0.031 C 
ATOM     51  C   UNL A   1      44.886  25.249  25.583  1.00  0.00     0.029 A 
ATOM     52  N   UNL A   1      45.884  25.871  27.442  1.00  0.00    -0.354 N 
ATOM     53  C   UNL A   1      44.304  24.843  31.299  1.00  0.00     0.074 A 
ATOM     54  C   UNL A   1      44.269  23.412  31.118  1.00  0.00     0.031 C 
ATOM     55  C   UNL A   1      46.093  25.747  25.226  1.00  0.00     0.029 A 
ATOM     56  C   UNL A   1      46.799  26.154  26.427  1.00  0.00     0.049 A 
ATOM     57  H   UNL A   1      46.019  26.153  28.376  1.00  0.00     0.167 HD
ATOM     58  C   UNL A   1      44.734  25.581  32.353  1.00  0.00     0.031 A 
ATOM     59  C   UNL A   1      48.043  26.697  26.522  1.00  0.00     0.031 A 
ATOM     60  C   UNL A   1      44.498  26.985  32.180  1.00  0.00     0.049 A 
ATOM     61  C   UNL A   1      48.096  27.470  27.783  1.00  0.00     0.074 A 
ATOM     62  C   UNL A   1      43.364  27.752  32.007  1.00  0.00     0.029 A 
ATOM     63  N   UNL A   1      45.559  27.777  31.816  1.00  0.00    -0.354 N 
ATOM     64  N   UNL A   1      47.451  28.585  27.984  1.00  0.00    -0.248 NA
ATOM     65  C   UNL A   1      48.564  26.788  28.975  1.00  0.00     0.031 C 
ATOM     66  C   UNL A   1      43.754  28.792  31.122  1.00  0.00     0.029 A 
ATOM     67  C   UNL A   1      45.120  28.652  30.856  1.00  0.00     0.049 A 
ATOM     68  H   UNL A   1      46.473  27.725  32.179  1.00  0.00     0.167 HD
ATOM     69  C   UNL A   1      47.049  28.520  29.309  1.00  0.00     0.074 A 
ATOM     70  C   UNL A   1      47.837  27.433  29.888  1.00  0.00     0.031 C 
ATOM     71  C   UNL A   1      45.932  29.165  29.761  1.00  0.00     0.031 A 
BRANCH  58  72
ATOM     72  C   UNL A   1      45.647  25.016  33.399  1.00  0.00    -0.014 A 
ATOM     73  C   UNL A   1      45.213  24.047  34.328  1.00  0.00     0.010 A 
ATOM     74  C   UNL A   1      47.026  25.281  33.337  1.00  0.00     0.010 A 
ATOM     75  C   UNL A   1      46.090  23.416  35.203  1.00  0.00     0.020 A 
ATOM     76  C   UNL A   1      47.926  24.611  34.175  1.00  0.00     0.020 A 
ATOM     77  C   UNL A   1      47.447  23.696  35.114  1.00  0.00     0.054 A 
BRANCH  77  78
ATOM     78  S   UNL A   1      48.563  22.777  36.197  1.00  0.00     0.124 S 
ATOM     79  O   UNL A   1      47.686  21.725  36.703  1.00  0.00    -0.237 OA
ATOM     80  O   UNL A   1      49.604  22.338  35.270  1.00  0.00    -0.237 OA
ATOM     81  O   UNL A   1      48.983  23.772  37.178  1.00  0.00    -0.744 OA
ENDBRANCH  77  78
ENDBRANCH  58  72
BRANCH  59  82
ATOM     82  C   UNL A   1      49.282  26.259  25.810  1.00  0.00    -0.014 A 
ATOM     83  C   UNL A   1      50.220  25.444  26.477  1.00  0.00     0.010 A 
ATOM     84  C   UNL A   1      49.701  26.878  24.612  1.00  0.00     0.010 A 
ATOM     85  C   UNL A   1      51.543  25.327  26.028  1.00  0.00     0.020 A 
ATOM     86  C   UNL A   1      51.029  26.764  24.153  1.00  0.00     0.020 A 
ATOM     87  C   UNL A   1      51.952  26.023  24.893  1.00  0.00     0.054 A 
BRANCH  87  88
ATOM     88  S   UNL A   1      53.723  26.025  24.478  1.00  0.00     0.124 S 
ATOM     89  O   UNL A   1      53.694  26.129  23.021  1.00  0.00    -0.237 OA
ATOM     90  O   UNL A   1      54.213  27.211  25.178  1.00  0.00    -0.237 OA
ATOM     91  O   UNL A   1      54.207  24.752  25.003  1.00  0.00    -0.744 OA
ENDBRANCH  87  88
ENDBRANCH  59  82
BRANCH  71  92
ATOM     92  C   UNL A   1      45.310  30.303  28.967  1.00  0.00    -0.014 A 
ATOM     93  C   UNL A   1      45.100  30.060  27.592  1.00  0.00     0.010 A 
ATOM     94  C   UNL A   1      45.131  31.618  29.429  1.00  0.00     0.010 A 
ATOM     95  C   UNL A   1      44.863  31.098  26.693  1.00  0.00     0.020 A 
ATOM     96  C   UNL A   1      44.808  32.657  28.533  1.00  0.00     0.020 A 
ATOM     97  C   UNL A   1      44.747  32.402  27.162  1.00  0.00     0.054 A 
BRANCH  97  98
ATOM     98  S   UNL A   1      44.638  33.712  25.905  1.00  0.00     0.124 S 
ATOM     99  O   UNL A   1      43.822  33.079  24.870  1.00  0.00    -0.237 OA
ATOM    100  O   UNL A   1      43.999  34.803  26.633  1.00  0.00    -0.237 OA
ATOM    101  O   UNL A   1      46.018  33.970  25.517  1.00  0.00    -0.744 OA
ENDBRANCH  97  98
ENDBRANCH  71  92
ENDBRANCH  45  46
ENDBRANCH  38  40
ENDBRANCH  37  38
ENDBRANCH  36  37
ENDBRANCH  35  36
ENDBRANCH  34  35
ENDBRANCH  33  34
ENDBRANCH  32  33
ENDBRANCH   1  32
TORSDOF 26
ENDMDL
