MODEL 1
REMARK VINA RESULT:      -9.1      0.000      0.000
REMARK SMILES C[C@H](NC(=O)N1CC[C@H](C(=O)OCCOCCOCCOCCOC(=O)c2ccc(-c3c4nc(c(-c5ccc(S(=O)(=O)[O-])cc5)c5ccc([nH]5)c(-c5ccc(S(=O)(=O)[O-])cc5)c5nc(c(-c6ccc(S(=O)(=O)[O-])cc6)c6ccc3[nH]6)C=C5)C=C4)cc2)[C@H]1C)c1ccsc1
REMARK SMILES IDX 18 1 17 2 16 3 15 4 14 5 13 6 12 7 10 8 11 9 9 10 6 11 7 12
REMARK SMILES IDX 87 13 8 14 88 15 4 16 3 17 5 19 2 20 1 21 89 22 90 23 93 24
REMARK SMILES IDX 91 25 92 26 19 27 20 28 21 29 22 30 23 31 24 32 25 33 26 34
REMARK SMILES IDX 27 35 28 36 86 37 29 38 85 39 30 40 31 41 32 42 79 43 33 44
REMARK SMILES IDX 84 45 78 46 80 47 34 48 83 49 77 50 76 51 35 53 65 54 46 55
REMARK SMILES IDX 64 56 47 57 50 58 63 59 81 60 48 61 49 62 62 64 82 65 51 66
REMARK SMILES IDX 36 67 37 68 45 69 38 70 44 71 39 72 40 73 41 74 42 75 43 76
REMARK SMILES IDX 66 77 67 78 75 79 68 80 74 81 69 82 70 83 71 84 72 85 73 86
REMARK SMILES IDX 52 87 53 88 61 89 54 90 60 91 55 92 56 93 57 94 58 95 59 96
REMARK H PARENT 3 18 80 52 50 63
REMARK Flexibility Score: inf
ROOT
ATOM      1  O   UNL A   1      34.768  18.632  24.668  1.00  0.00    -0.377 OA
ENDROOT
BRANCH   1   2
ATOM      2  C   UNL A   1      34.817  17.218  24.545  1.00  0.00     0.188 C 
BRANCH   2   3
ATOM      3  C   UNL A   1      33.672  16.638  23.681  1.00  0.00     0.188 C 
BRANCH   3   4
ATOM      4  O   UNL A   1      33.431  17.152  22.384  1.00  0.00    -0.376 OA
BRANCH   4   5
ATOM      5  C   UNL A   1      32.421  18.119  22.149  1.00  0.00     0.202 C 
BRANCH   5   6
ATOM      6  C   UNL A   1      32.084  19.278  23.110  1.00  0.00     0.261 C 
BRANCH   6   7
ATOM      7  O   UNL A   1      32.803  20.507  22.966  1.00  0.00    -0.463 OA
BRANCH   7   8
ATOM      8  C   UNL A   1      32.514  21.495  23.848  1.00  0.00     0.311 C 
ATOM      9  O   UNL A   1      32.470  21.347  25.061  1.00  0.00    -0.252 OA
BRANCH   8  10
ATOM     10  C   UNL A   1      32.205  22.787  23.096  1.00  0.00     0.123 C 
ATOM     11  N   UNL A   1      32.253  24.620  24.635  1.00  0.00    -0.321 N 
ATOM     12  C   UNL A   1      30.933  23.989  24.695  1.00  0.00     0.122 C 
ATOM     13  C   UNL A   1      33.011  24.046  23.510  1.00  0.00     0.098 C 
ATOM     14  C   UNL A   1      30.772  23.222  23.393  1.00  0.00     0.039 C 
ATOM     15  C   UNL A   1      33.119  24.965  22.284  1.00  0.00     0.032 C 
BRANCH  11  16
ATOM     16  C   UNL A   1      32.802  24.964  25.842  1.00  0.00     0.318 C 
ATOM     17  N   UNL A   1      32.641  26.165  26.411  1.00  0.00    -0.331 N 
ATOM     18  H   UNL A   1      33.333  26.327  27.093  1.00  0.00     0.165 HD
ATOM     19  O   UNL A   1      33.436  24.155  26.527  1.00  0.00    -0.249 OA
BRANCH  17  20
ATOM     20  C   UNL A   1      31.738  27.300  26.312  1.00  0.00     0.112 C 
ATOM     21  C   UNL A   1      31.907  28.361  27.388  1.00  0.00     0.036 C 
BRANCH  20  22
ATOM     22  C   UNL A   1      31.498  27.758  24.888  1.00  0.00    -0.015 A 
ATOM     23  C   UNL A   1      32.508  28.428  24.098  1.00  0.00     0.017 A 
ATOM     24  C   UNL A   1      30.340  27.658  24.140  1.00  0.00     0.070 A 
ATOM     25  C   UNL A   1      32.074  28.788  22.842  1.00  0.00     0.065 A 
ATOM     26  S   UNL A   1      30.460  28.320  22.569  1.00  0.00    -0.152 S 
ENDBRANCH  20  22
ENDBRANCH  17  20
ENDBRANCH  11  16
ENDBRANCH   8  10
ENDBRANCH   7   8
ENDBRANCH   6   7
ENDBRANCH   5   6
ENDBRANCH   4   5
ENDBRANCH   3   4
ENDBRANCH   2   3
ENDBRANCH   1   2
BRANCH   1  27
ATOM     27  C   UNL A   1      36.042  19.253  24.787  1.00  0.00     0.188 C 
BRANCH  27  28
ATOM     28  C   UNL A   1      36.013  20.747  25.155  1.00  0.00     0.188 C 
BRANCH  28  29
ATOM     29  O   UNL A   1      37.210  21.415  24.757  1.00  0.00    -0.376 OA
BRANCH  29  30
ATOM     30  C   UNL A   1      38.451  20.784  25.020  1.00  0.00     0.202 C 
BRANCH  30  31
ATOM     31  C   UNL A   1      39.225  21.315  26.234  1.00  0.00     0.261 C 
BRANCH  31  32
ATOM     32  O   UNL A   1      40.151  20.405  26.842  1.00  0.00    -0.460 OA
BRANCH  32  33
ATOM     33  C   UNL A   1      41.348  20.216  26.230  1.00  0.00     0.338 C 
ATOM     34  O   UNL A   1      41.644  19.332  25.467  1.00  0.00    -0.246 OA
BRANCH  33  35
ATOM     35  C   UNL A   1      42.152  21.436  26.494  1.00  0.00     0.060 A 
ATOM     36  C   UNL A   1      42.520  21.733  27.813  1.00  0.00     0.016 A 
ATOM     37  C   UNL A   1      42.596  22.237  25.438  1.00  0.00     0.016 A 
ATOM     38  C   UNL A   1      43.334  22.837  28.080  1.00  0.00     0.010 A 
ATOM     39  C   UNL A   1      43.382  23.358  25.710  1.00  0.00     0.010 A 
ATOM     40  C   UNL A   1      43.737  23.674  27.033  1.00  0.00    -0.014 A 
BRANCH  40  41
ATOM     41  C   UNL A   1      44.339  24.996  27.324  1.00  0.00     0.031 A 
ATOM     42  C   UNL A   1      43.428  26.086  27.818  1.00  0.00     0.074 A 
ATOM     43  C   UNL A   1      45.652  25.234  27.151  1.00  0.00     0.049 A 
ATOM     44  N   UNL A   1      43.691  27.341  28.064  1.00  0.00    -0.248 NA
ATOM     45  C   UNL A   1      42.027  25.701  28.061  1.00  0.00     0.031 C 
ATOM     46  C   UNL A   1      46.649  24.245  26.744  1.00  0.00     0.029 A 
ATOM     47  N   UNL A   1      46.368  26.396  27.295  1.00  0.00    -0.354 N 
ATOM     48  C   UNL A   1      42.490  27.898  28.488  1.00  0.00     0.074 A 
ATOM     49  C   UNL A   1      41.492  26.853  28.433  1.00  0.00     0.031 C 
ATOM     50  C   UNL A   1      47.849  24.847  26.665  1.00  0.00     0.029 A 
ATOM     51  C   UNL A   1      47.698  26.270  26.974  1.00  0.00     0.049 A 
ATOM     52  H   UNL A   1      45.965  27.242  27.599  1.00  0.00     0.167 HD
ATOM     53  C   UNL A   1      42.239  29.166  28.890  1.00  0.00     0.031 A 
ATOM     54  C   UNL A   1      48.672  27.200  26.914  1.00  0.00     0.031 A 
ATOM     55  C   UNL A   1      43.226  30.212  28.906  1.00  0.00     0.049 A 
ATOM     56  C   UNL A   1      48.342  28.636  27.239  1.00  0.00     0.074 A 
ATOM     57  C   UNL A   1      43.074  31.532  29.287  1.00  0.00     0.029 A 
ATOM     58  N   UNL A   1      44.544  30.057  28.506  1.00  0.00    -0.354 N 
ATOM     59  N   UNL A   1      47.207  29.149  27.654  1.00  0.00    -0.248 NA
ATOM     60  C   UNL A   1      49.423  29.620  27.083  1.00  0.00     0.031 C 
ATOM     61  C   UNL A   1      44.285  32.193  29.056  1.00  0.00     0.029 A 
ATOM     62  C   UNL A   1      45.210  31.268  28.596  1.00  0.00     0.049 A 
ATOM     63  H   UNL A   1      44.948  29.213  28.202  1.00  0.00     0.167 HD
ATOM     64  C   UNL A   1      47.446  30.508  27.836  1.00  0.00     0.074 A 
ATOM     65  C   UNL A   1      48.835  30.737  27.494  1.00  0.00     0.031 C 
ATOM     66  C   UNL A   1      46.594  31.479  28.250  1.00  0.00     0.031 A 
BRANCH  53  67
ATOM     67  C   UNL A   1      40.826  29.489  29.294  1.00  0.00    -0.014 A 
ATOM     68  C   UNL A   1      39.856  29.842  28.339  1.00  0.00     0.010 A 
ATOM     69  C   UNL A   1      40.465  29.450  30.653  1.00  0.00     0.010 A 
ATOM     70  C   UNL A   1      38.567  30.204  28.739  1.00  0.00     0.020 A 
ATOM     71  C   UNL A   1      39.168  29.780  31.055  1.00  0.00     0.020 A 
ATOM     72  C   UNL A   1      38.234  30.178  30.097  1.00  0.00     0.054 A 
BRANCH  72  73
ATOM     73  S   UNL A   1      36.559  30.665  30.590  1.00  0.00     0.124 S 
ATOM     74  O   UNL A   1      36.381  29.914  31.830  1.00  0.00    -0.237 OA
ATOM     75  O   UNL A   1      36.678  32.112  30.744  1.00  0.00    -0.237 OA
ATOM     76  O   UNL A   1      35.726  30.226  29.472  1.00  0.00    -0.744 OA
ENDBRANCH  72  73
ENDBRANCH  53  67
BRANCH  54  77
ATOM     77  C   UNL A   1      50.054  26.813  26.512  1.00  0.00    -0.014 A 
ATOM     78  C   UNL A   1      50.430  26.822  25.157  1.00  0.00     0.010 A 
ATOM     79  C   UNL A   1      51.001  26.430  27.479  1.00  0.00     0.010 A 
ATOM     80  C   UNL A   1      51.723  26.450  24.777  1.00  0.00     0.020 A 
ATOM     81  C   UNL A   1      52.303  26.084  27.106  1.00  0.00     0.020 A 
ATOM     82  C   UNL A   1      52.654  26.089  25.755  1.00  0.00     0.054 A 
BRANCH  82  83
ATOM     83  S   UNL A   1      54.344  25.671  25.241  1.00  0.00     0.124 S 
ATOM     84  O   UNL A   1      54.438  24.265  25.619  1.00  0.00    -0.237 OA
ATOM     85  O   UNL A   1      54.311  25.941  23.806  1.00  0.00    -0.237 OA
ATOM     86  O   UNL A   1      55.174  26.586  26.021  1.00  0.00    -0.744 OA
ENDBRANCH  82  83
ENDBRANCH  54  77
BRANCH  66  87
ATOM     87  C   UNL A   1      47.137  32.877  28.389  1.00  0.00    -0.014 A 
ATOM     88  C   UNL A   1      47.673  33.333  29.606  1.00  0.00     0.010 A 
ATOM     89  C   UNL A   1      47.193  33.716  27.259  1.00  0.00     0.010 A 
ATOM     90  C   UNL A   1      48.242  34.607  29.694  1.00  0.00     0.020 A 
ATOM     91  C   UNL A   1      47.787  34.978  27.335  1.00  0.00     0.020 A 
ATOM     92  C   UNL A   1      48.302  35.418  28.556  1.00  0.00     0.054 A 
BRANCH  92  93
ATOM     93  S   UNL A   1      49.115  37.036  28.681  1.00  0.00     0.124 S 
ATOM     94  O   UNL A   1      49.157  37.464  27.285  1.00  0.00    -0.237 OA
ATOM     95  O   UNL A   1      48.202  37.786  29.540  1.00  0.00    -0.237 OA
ATOM     96  O   UNL A   1      50.413  36.728  29.278  1.00  0.00    -0.744 OA
ENDBRANCH  92  93
ENDBRANCH  66  87
ENDBRANCH  40  41
ENDBRANCH  33  35
ENDBRANCH  32  33
ENDBRANCH  31  32
ENDBRANCH  30  31
ENDBRANCH  29  30
ENDBRANCH  28  29
ENDBRANCH  27  28
ENDBRANCH   1  27
TORSDOF 26
ENDMDL
MODEL 2
REMARK VINA RESULT:      -9.0      5.918      8.742
REMARK SMILES C[C@H](NC(=O)N1CC[C@H](C(=O)OCCOCCOCCOCCOC(=O)c2ccc(-c3c4nc(c(-c5ccc(S(=O)(=O)[O-])cc5)c5ccc([nH]5)c(-c5ccc(S(=O)(=O)[O-])cc5)c5nc(c(-c6ccc(S(=O)(=O)[O-])cc6)c6ccc3[nH]6)C=C5)C=C4)cc2)[C@H]1C)c1ccsc1
REMARK SMILES IDX 18 1 17 2 16 3 15 4 14 5 13 6 12 7 10 8 11 9 9 10 6 11 7 12
REMARK SMILES IDX 87 13 8 14 88 15 4 16 3 17 5 19 2 20 1 21 89 22 90 23 93 24
REMARK SMILES IDX 91 25 92 26 19 27 20 28 21 29 22 30 23 31 24 32 25 33 26 34
REMARK SMILES IDX 27 35 28 36 86 37 29 38 85 39 30 40 31 41 32 42 79 43 33 44
REMARK SMILES IDX 84 45 78 46 80 47 34 48 83 49 77 50 76 51 35 53 65 54 46 55
REMARK SMILES IDX 64 56 47 57 50 58 63 59 81 60 48 61 49 62 62 64 82 65 51 66
REMARK SMILES IDX 36 67 37 68 45 69 38 70 44 71 39 72 40 73 41 74 42 75 43 76
REMARK SMILES IDX 66 77 67 78 75 79 68 80 74 81 69 82 70 83 71 84 72 85 73 86
REMARK SMILES IDX 52 87 53 88 61 89 54 90 60 91 55 92 56 93 57 94 58 95 59 96
REMARK H PARENT 3 18 80 52 50 63
REMARK Flexibility Score: inf
ROOT
ATOM      1  O   UNL A   1      41.337  22.526  27.064  1.00  0.00    -0.377 OA
ENDROOT
BRANCH   1   2
ATOM      2  C   UNL A   1      40.112  21.823  27.204  1.00  0.00     0.188 C 
BRANCH   2   3
ATOM      3  C   UNL A   1      39.280  21.777  25.899  1.00  0.00     0.188 C 
BRANCH   3   4
ATOM      4  O   UNL A   1      38.151  22.617  25.749  1.00  0.00    -0.376 OA
BRANCH   4   5
ATOM      5  C   UNL A   1      36.846  22.081  25.601  1.00  0.00     0.202 C 
BRANCH   5   6
ATOM      6  C   UNL A   1      35.957  22.284  24.356  1.00  0.00     0.261 C 
BRANCH   6   7
ATOM      7  O   UNL A   1      35.135  23.454  24.296  1.00  0.00    -0.463 OA
BRANCH   7   8
ATOM      8  C   UNL A   1      34.177  23.482  23.337  1.00  0.00     0.311 C 
ATOM      9  O   UNL A   1      34.397  23.379  22.139  1.00  0.00    -0.252 OA
BRANCH   8  10
ATOM     10  C   UNL A   1      32.811  23.713  23.977  1.00  0.00     0.123 C 
ATOM     11  N   UNL A   1      32.091  25.946  23.498  1.00  0.00    -0.321 N 
ATOM     12  C   UNL A   1      32.973  25.976  24.666  1.00  0.00     0.122 C 
ATOM     13  C   UNL A   1      31.789  24.545  23.158  1.00  0.00     0.098 C 
ATOM     14  C   UNL A   1      32.971  24.566  25.233  1.00  0.00     0.039 C 
ATOM     15  C   UNL A   1      30.378  24.086  23.554  1.00  0.00     0.032 C 
BRANCH  11  16
ATOM     16  C   UNL A   1      32.291  26.939  22.577  1.00  0.00     0.318 C 
ATOM     17  N   UNL A   1      31.665  28.123  22.619  1.00  0.00    -0.331 N 
ATOM     18  H   UNL A   1      31.699  28.569  21.741  1.00  0.00     0.165 HD
ATOM     19  O   UNL A   1      33.125  26.835  21.672  1.00  0.00    -0.249 OA
BRANCH  17  20
ATOM     20  C   UNL A   1      30.949  28.938  23.586  1.00  0.00     0.112 C 
ATOM     21  C   UNL A   1      31.795  29.492  24.721  1.00  0.00     0.036 C 
BRANCH  20  22
ATOM     22  C   UNL A   1      29.911  29.846  22.960  1.00  0.00    -0.015 A 
ATOM     23  C   UNL A   1      29.083  30.744  23.735  1.00  0.00     0.017 A 
ATOM     24  C   UNL A   1      29.561  29.955  21.627  1.00  0.00     0.070 A 
ATOM     25  C   UNL A   1      28.183  31.456  22.975  1.00  0.00     0.065 A 
ATOM     26  S   UNL A   1      28.316  31.084  21.318  1.00  0.00    -0.152 S 
ENDBRANCH  20  22
ENDBRANCH  17  20
ENDBRANCH  11  16
ENDBRANCH   8  10
ENDBRANCH   7   8
ENDBRANCH   6   7
ENDBRANCH   5   6
ENDBRANCH   4   5
ENDBRANCH   3   4
ENDBRANCH   2   3
ENDBRANCH   1   2
BRANCH   1  27
ATOM     27  C   UNL A   1      42.045  22.236  25.865  1.00  0.00     0.188 C 
BRANCH  27  28
ATOM     28  C   UNL A   1      43.435  21.605  26.057  1.00  0.00     0.188 C 
BRANCH  28  29
ATOM     29  O   UNL A   1      44.412  22.202  25.205  1.00  0.00    -0.376 OA
BRANCH  29  30
ATOM     30  C   UNL A   1      45.412  23.015  25.794  1.00  0.00     0.202 C 
BRANCH  30  31
ATOM     31  C   UNL A   1      45.152  24.527  25.750  1.00  0.00     0.261 C 
BRANCH  31  32
ATOM     32  O   UNL A   1      44.194  25.032  26.689  1.00  0.00    -0.460 OA
BRANCH  32  33
ATOM     33  C   UNL A   1      43.183  25.802  26.211  1.00  0.00     0.338 C 
ATOM     34  O   UNL A   1      42.665  25.731  25.126  1.00  0.00    -0.246 OA
BRANCH  33  35
ATOM     35  C   UNL A   1      42.677  26.592  27.361  1.00  0.00     0.060 A 
ATOM     36  C   UNL A   1      43.191  27.877  27.581  1.00  0.00     0.016 A 
ATOM     37  C   UNL A   1      41.651  26.094  28.170  1.00  0.00     0.016 A 
ATOM     38  C   UNL A   1      42.683  28.667  28.614  1.00  0.00     0.010 A 
ATOM     39  C   UNL A   1      41.166  26.873  29.222  1.00  0.00     0.010 A 
ATOM     40  C   UNL A   1      41.694  28.153  29.461  1.00  0.00    -0.014 A 
BRANCH  40  41
ATOM     41  C   UNL A   1      41.360  28.849  30.726  1.00  0.00     0.031 A 
ATOM     42  C   UNL A   1      40.193  29.798  30.715  1.00  0.00     0.074 A 
ATOM     43  C   UNL A   1      42.069  28.657  31.852  1.00  0.00     0.049 A 
ATOM     44  N   UNL A   1      39.751  30.583  31.660  1.00  0.00    -0.248 NA
ATOM     45  C   UNL A   1      39.426  29.870  29.460  1.00  0.00     0.031 C 
ATOM     46  C   UNL A   1      43.176  27.716  32.010  1.00  0.00     0.029 A 
ATOM     47  N   UNL A   1      41.958  29.257  33.082  1.00  0.00    -0.354 N 
ATOM     48  C   UNL A   1      38.658  31.245  31.116  1.00  0.00     0.074 A 
ATOM     49  C   UNL A   1      38.524  30.794  29.748  1.00  0.00     0.031 C 
ATOM     50  C   UNL A   1      43.647  27.807  33.267  1.00  0.00     0.029 A 
ATOM     51  C   UNL A   1      42.904  28.841  33.988  1.00  0.00     0.049 A 
ATOM     52  H   UNL A   1      41.265  29.924  33.295  1.00  0.00     0.167 HD
ATOM     53  C   UNL A   1      37.834  32.146  31.701  1.00  0.00     0.031 A 
ATOM     54  C   UNL A   1      43.155  29.266  35.243  1.00  0.00     0.031 A 
ATOM     55  C   UNL A   1      37.994  32.621  33.049  1.00  0.00     0.049 A 
ATOM     56  C   UNL A   1      42.307  30.366  35.833  1.00  0.00     0.074 A 
ATOM     57  C   UNL A   1      37.221  33.538  33.735  1.00  0.00     0.029 A 
ATOM     58  N   UNL A   1      39.008  32.226  33.908  1.00  0.00    -0.354 N 
ATOM     59  N   UNL A   1      41.266  30.975  35.314  1.00  0.00    -0.248 NA
ATOM     60  C   UNL A   1      42.673  30.842  37.175  1.00  0.00     0.031 C 
ATOM     61  C   UNL A   1      37.806  33.748  34.988  1.00  0.00     0.029 A 
ATOM     62  C   UNL A   1      38.903  32.908  35.108  1.00  0.00     0.049 A 
ATOM     63  H   UNL A   1      39.700  31.559  33.697  1.00  0.00     0.167 HD
ATOM     64  C   UNL A   1      40.835  31.882  36.277  1.00  0.00     0.074 A 
ATOM     65  C   UNL A   1      41.723  31.738  37.413  1.00  0.00     0.031 C 
ATOM     66  C   UNL A   1      39.798  32.754  36.228  1.00  0.00     0.031 A 
BRANCH  53  67
ATOM     67  C   UNL A   1      36.722  32.707  30.857  1.00  0.00    -0.014 A 
ATOM     68  C   UNL A   1      35.478  32.056  30.761  1.00  0.00     0.010 A 
ATOM     69  C   UNL A   1      36.926  33.900  30.139  1.00  0.00     0.010 A 
ATOM     70  C   UNL A   1      34.481  32.556  29.920  1.00  0.00     0.020 A 
ATOM     71  C   UNL A   1      35.920  34.420  29.321  1.00  0.00     0.020 A 
ATOM     72  C   UNL A   1      34.712  33.731  29.199  1.00  0.00     0.054 A 
BRANCH  72  73
ATOM     73  S   UNL A   1      33.405  34.350  28.105  1.00  0.00     0.124 S 
ATOM     74  O   UNL A   1      32.657  35.230  28.999  1.00  0.00    -0.237 OA
ATOM     75  O   UNL A   1      34.161  35.023  27.052  1.00  0.00    -0.237 OA
ATOM     76  O   UNL A   1      32.700  33.141  27.687  1.00  0.00    -0.744 OA
ENDBRANCH  72  73
ENDBRANCH  53  67
BRANCH  54  77
ATOM     77  C   UNL A   1      44.269  28.664  36.029  1.00  0.00    -0.014 A 
ATOM     78  C   UNL A   1      45.454  29.387  36.253  1.00  0.00     0.010 A 
ATOM     79  C   UNL A   1      44.154  27.365  36.555  1.00  0.00     0.010 A 
ATOM     80  C   UNL A   1      46.504  28.820  36.982  1.00  0.00     0.020 A 
ATOM     81  C   UNL A   1      45.190  26.804  37.309  1.00  0.00     0.020 A 
ATOM     82  C   UNL A   1      46.363  27.535  37.510  1.00  0.00     0.054 A 
BRANCH  82  83
ATOM     83  S   UNL A   1      47.715  26.846  38.506  1.00  0.00     0.124 S 
ATOM     84  O   UNL A   1      47.803  27.803  39.604  1.00  0.00    -0.237 OA
ATOM     85  O   UNL A   1      47.204  25.524  38.858  1.00  0.00    -0.237 OA
ATOM     86  O   UNL A   1      48.850  26.843  37.586  1.00  0.00    -0.744 OA
ENDBRANCH  82  83
ENDBRANCH  54  77
BRANCH  66  87
ATOM     87  C   UNL A   1      39.538  33.607  37.443  1.00  0.00    -0.014 A 
ATOM     88  C   UNL A   1      38.750  33.136  38.508  1.00  0.00     0.010 A 
ATOM     89  C   UNL A   1      40.167  34.861  37.558  1.00  0.00     0.010 A 
ATOM     90  C   UNL A   1      38.585  33.911  39.660  1.00  0.00     0.020 A 
ATOM     91  C   UNL A   1      40.028  35.626  38.719  1.00  0.00     0.020 A 
ATOM     92  C   UNL A   1      39.231  35.147  39.761  1.00  0.00     0.054 A 
BRANCH  92  93
ATOM     93  S   UNL A   1      39.061  36.097  41.298  1.00  0.00     0.124 S 
ATOM     94  O   UNL A   1      38.953  37.466  40.800  1.00  0.00    -0.237 OA
ATOM     95  O   UNL A   1      37.842  35.543  41.882  1.00  0.00    -0.237 OA
ATOM     96  O   UNL A   1      40.289  35.796  42.031  1.00  0.00    -0.744 OA
ENDBRANCH  92  93
ENDBRANCH  66  87
ENDBRANCH  40  41
ENDBRANCH  33  35
ENDBRANCH  32  33
ENDBRANCH  31  32
ENDBRANCH  30  31
ENDBRANCH  29  30
ENDBRANCH  28  29
ENDBRANCH  27  28
ENDBRANCH   1  27
TORSDOF 26
ENDMDL
MODEL 3
REMARK VINA RESULT:      -8.7      4.714      9.317
REMARK SMILES C[C@H](NC(=O)N1CC[C@H](C(=O)OCCOCCOCCOCCOC(=O)c2ccc(-c3c4nc(c(-c5ccc(S(=O)(=O)[O-])cc5)c5ccc([nH]5)c(-c5ccc(S(=O)(=O)[O-])cc5)c5nc(c(-c6ccc(S(=O)(=O)[O-])cc6)c6ccc3[nH]6)C=C5)C=C4)cc2)[C@H]1C)c1ccsc1
REMARK SMILES IDX 18 1 17 2 16 3 15 4 14 5 13 6 12 7 10 8 11 9 9 10 6 11 7 12
REMARK SMILES IDX 87 13 8 14 88 15 4 16 3 17 5 19 2 20 1 21 89 22 90 23 93 24
REMARK SMILES IDX 91 25 92 26 19 27 20 28 21 29 22 30 23 31 24 32 25 33 26 34
REMARK SMILES IDX 27 35 28 36 86 37 29 38 85 39 30 40 31 41 32 42 79 43 33 44
REMARK SMILES IDX 84 45 78 46 80 47 34 48 83 49 77 50 76 51 35 53 65 54 46 55
REMARK SMILES IDX 64 56 47 57 50 58 63 59 81 60 48 61 49 62 62 64 82 65 51 66
REMARK SMILES IDX 36 67 37 68 45 69 38 70 44 71 39 72 40 73 41 74 42 75 43 76
REMARK SMILES IDX 66 77 67 78 75 79 68 80 74 81 69 82 70 83 71 84 72 85 73 86
REMARK SMILES IDX 52 87 53 88 61 89 54 90 60 91 55 92 56 93 57 94 58 95 59 96
REMARK H PARENT 3 18 80 52 50 63
REMARK Flexibility Score: inf
ROOT
ATOM      1  O   UNL A   1      41.582  20.433  26.136  1.00  0.00    -0.377 OA
ENDROOT
BRANCH   1   2
ATOM      2  C   UNL A   1      40.403  21.170  26.422  1.00  0.00     0.188 C 
BRANCH   2   3
ATOM      3  C   UNL A   1      39.161  20.663  25.652  1.00  0.00     0.188 C 
BRANCH   3   4
ATOM      4  O   UNL A   1      37.954  21.401  25.688  1.00  0.00    -0.376 OA
BRANCH   4   5
ATOM      5  C   UNL A   1      37.956  22.816  25.782  1.00  0.00     0.202 C 
BRANCH   5   6
ATOM      6  C   UNL A   1      36.722  23.667  26.147  1.00  0.00     0.261 C 
BRANCH   6   7
ATOM      7  O   UNL A   1      35.428  23.070  26.021  1.00  0.00    -0.463 OA
BRANCH   7   8
ATOM      8  C   UNL A   1      34.445  23.841  25.493  1.00  0.00     0.311 C 
ATOM      9  O   UNL A   1      34.318  25.037  25.703  1.00  0.00    -0.252 OA
BRANCH   8  10
ATOM     10  C   UNL A   1      33.508  22.978  24.650  1.00  0.00     0.123 C 
ATOM     11  N   UNL A   1      31.329  22.994  25.641  1.00  0.00    -0.321 N 
ATOM     12  C   UNL A   1      32.143  21.978  26.310  1.00  0.00     0.122 C 
ATOM     13  C   UNL A   1      32.059  23.498  24.465  1.00  0.00     0.098 C 
ATOM     14  C   UNL A   1      33.273  21.642  25.352  1.00  0.00     0.039 C 
ATOM     15  C   UNL A   1      31.534  22.975  23.120  1.00  0.00     0.032 C 
BRANCH  11  16
ATOM     16  C   UNL A   1      30.554  23.769  26.461  1.00  0.00     0.318 C 
ATOM     17  N   UNL A   1      30.335  25.074  26.254  1.00  0.00    -0.331 N 
ATOM     18  H   UNL A   1      30.024  25.513  27.079  1.00  0.00     0.165 HD
ATOM     19  O   UNL A   1      29.940  23.295  27.423  1.00  0.00    -0.249 OA
BRANCH  17  20
ATOM     20  C   UNL A   1      30.424  26.029  25.163  1.00  0.00     0.112 C 
ATOM     21  C   UNL A   1      29.161  26.186  24.331  1.00  0.00     0.036 C 
BRANCH  20  22
ATOM     22  C   UNL A   1      31.206  27.278  25.515  1.00  0.00    -0.015 A 
ATOM     23  C   UNL A   1      31.990  27.398  26.725  1.00  0.00     0.017 A 
ATOM     24  C   UNL A   1      31.286  28.465  24.812  1.00  0.00     0.070 A 
ATOM     25  C   UNL A   1      32.596  28.625  26.868  1.00  0.00     0.065 A 
ATOM     26  S   UNL A   1      32.260  29.657  25.555  1.00  0.00    -0.152 S 
ENDBRANCH  20  22
ENDBRANCH  17  20
ENDBRANCH  11  16
ENDBRANCH   8  10
ENDBRANCH   7   8
ENDBRANCH   6   7
ENDBRANCH   5   6
ENDBRANCH   4   5
ENDBRANCH   3   4
ENDBRANCH   2   3
ENDBRANCH   1   2
BRANCH   1  27
ATOM     27  C   UNL A   1      41.507  19.054  26.474  1.00  0.00     0.188 C 
BRANCH  27  28
ATOM     28  C   UNL A   1      42.828  18.274  26.353  1.00  0.00     0.188 C 
BRANCH  28  29
ATOM     29  O   UNL A   1      43.392  18.384  25.047  1.00  0.00    -0.376 OA
BRANCH  29  30
ATOM     30  C   UNL A   1      44.734  18.825  24.929  1.00  0.00     0.202 C 
BRANCH  30  31
ATOM     31  C   UNL A   1      44.931  20.173  24.222  1.00  0.00     0.261 C 
BRANCH  31  32
ATOM     32  O   UNL A   1      44.253  21.296  24.801  1.00  0.00    -0.460 OA
BRANCH  32  33
ATOM     33  C   UNL A   1      44.435  22.512  24.225  1.00  0.00     0.338 C 
ATOM     34  O   UNL A   1      44.597  22.746  23.054  1.00  0.00    -0.246 OA
BRANCH  33  35
ATOM     35  C   UNL A   1      44.163  23.521  25.280  1.00  0.00     0.060 A 
ATOM     36  C   UNL A   1      44.478  24.864  25.031  1.00  0.00     0.016 A 
ATOM     37  C   UNL A   1      43.535  23.152  26.473  1.00  0.00     0.016 A 
ATOM     38  C   UNL A   1      44.168  25.842  25.979  1.00  0.00     0.010 A 
ATOM     39  C   UNL A   1      43.256  24.127  27.432  1.00  0.00     0.010 A 
ATOM     40  C   UNL A   1      43.590  25.471  27.199  1.00  0.00    -0.014 A 
BRANCH  40  41
ATOM     41  C   UNL A   1      43.530  26.437  28.321  1.00  0.00     0.031 A 
ATOM     42  C   UNL A   1      44.648  26.410  29.326  1.00  0.00     0.074 A 
ATOM     43  C   UNL A   1      42.515  27.309  28.455  1.00  0.00     0.049 A 
ATOM     44  N   UNL A   1      44.787  27.090  30.432  1.00  0.00    -0.248 NA
ATOM     45  C   UNL A   1      45.756  25.483  29.041  1.00  0.00     0.031 C 
ATOM     46  C   UNL A   1      41.410  27.480  27.514  1.00  0.00     0.029 A 
ATOM     47  N   UNL A   1      42.253  28.216  29.452  1.00  0.00    -0.354 N 
ATOM     48  C   UNL A   1      45.995  26.672  30.978  1.00  0.00     0.074 A 
ATOM     49  C   UNL A   1      46.532  25.657  30.099  1.00  0.00     0.031 C 
ATOM     50  C   UNL A   1      40.583  28.432  27.984  1.00  0.00     0.029 A 
ATOM     51  C   UNL A   1      41.078  28.906  29.277  1.00  0.00     0.049 A 
ATOM     52  H   UNL A   1      42.851  28.357  30.222  1.00  0.00     0.167 HD
ATOM     53  C   UNL A   1      46.606  27.097  32.109  1.00  0.00     0.031 A 
ATOM     54  C   UNL A   1      40.463  29.798  30.080  1.00  0.00     0.031 A 
ATOM     55  C   UNL A   1      46.050  28.078  33.001  1.00  0.00     0.049 A 
ATOM     56  C   UNL A   1      41.097  30.161  31.400  1.00  0.00     0.074 A 
ATOM     57  C   UNL A   1      46.583  28.572  34.177  1.00  0.00     0.029 A 
ATOM     58  N   UNL A   1      44.824  28.701  32.821  1.00  0.00    -0.354 N 
ATOM     59  N   UNL A   1      42.247  29.771  31.900  1.00  0.00    -0.248 NA
ATOM     60  C   UNL A   1      40.346  31.079  32.269  1.00  0.00     0.031 C 
ATOM     61  C   UNL A   1      45.650  29.447  34.742  1.00  0.00     0.029 A 
ATOM     62  C   UNL A   1      44.565  29.549  33.884  1.00  0.00     0.049 A 
ATOM     63  H   UNL A   1      44.226  28.561  32.053  1.00  0.00     0.167 HD
ATOM     64  C   UNL A   1      42.370  30.420  33.125  1.00  0.00     0.074 A 
ATOM     65  C   UNL A   1      41.182  31.232  33.289  1.00  0.00     0.031 C 
ATOM     66  C   UNL A   1      43.376  30.350  34.032  1.00  0.00     0.031 A 
BRANCH  53  67
ATOM     67  C   UNL A   1      47.922  26.454  32.459  1.00  0.00    -0.014 A 
ATOM     68  C   UNL A   1      47.981  25.302  33.265  1.00  0.00     0.010 A 
ATOM     69  C   UNL A   1      49.120  27.018  31.983  1.00  0.00     0.010 A 
ATOM     70  C   UNL A   1      49.214  24.760  33.633  1.00  0.00     0.020 A 
ATOM     71  C   UNL A   1      50.354  26.460  32.324  1.00  0.00     0.020 A 
ATOM     72  C   UNL A   1      50.393  25.348  33.167  1.00  0.00     0.054 A 
BRANCH  72  73
ATOM     73  S   UNL A   1      51.980  24.631  33.673  1.00  0.00     0.124 S 
ATOM     74  O   UNL A   1      51.621  23.232  33.892  1.00  0.00    -0.237 OA
ATOM     75  O   UNL A   1      52.830  24.886  32.513  1.00  0.00    -0.237 OA
ATOM     76  O   UNL A   1      52.332  25.380  34.877  1.00  0.00    -0.744 OA
ENDBRANCH  72  73
ENDBRANCH  53  67
BRANCH  54  77
ATOM     77  C   UNL A   1      39.164  30.403  29.672  1.00  0.00    -0.014 A 
ATOM     78  C   UNL A   1      38.037  29.590  29.456  1.00  0.00     0.010 A 
ATOM     79  C   UNL A   1      39.045  31.793  29.493  1.00  0.00     0.010 A 
ATOM     80  C   UNL A   1      36.819  30.154  29.064  1.00  0.00     0.020 A 
ATOM     81  C   UNL A   1      37.822  32.365  29.128  1.00  0.00     0.020 A 
ATOM     82  C   UNL A   1      36.718  31.539  28.908  1.00  0.00     0.054 A 
BRANCH  82  83
ATOM     83  S   UNL A   1      35.110  32.253  28.459  1.00  0.00     0.124 S 
ATOM     84  O   UNL A   1      35.503  33.399  27.645  1.00  0.00    -0.237 OA
ATOM     85  O   UNL A   1      34.469  31.155  27.741  1.00  0.00    -0.237 OA
ATOM     86  O   UNL A   1      34.509  32.579  29.750  1.00  0.00    -0.744 OA
ENDBRANCH  82  83
ENDBRANCH  54  77
BRANCH  66  87
ATOM     87  C   UNL A   1      43.260  31.194  35.275  1.00  0.00    -0.014 A 
ATOM     88  C   UNL A   1      42.721  30.671  36.464  1.00  0.00     0.010 A 
ATOM     89  C   UNL A   1      43.783  32.502  35.278  1.00  0.00     0.010 A 
ATOM     90  C   UNL A   1      42.695  31.445  37.627  1.00  0.00     0.020 A 
ATOM     91  C   UNL A   1      43.785  33.268  36.445  1.00  0.00     0.020 A 
ATOM     92  C   UNL A   1      43.233  32.736  37.613  1.00  0.00     0.054 A 
BRANCH  92  93
ATOM     93  S   UNL A   1      43.254  33.689  39.156  1.00  0.00     0.124 S 
ATOM     94  O   UNL A   1      42.865  32.684  40.142  1.00  0.00    -0.237 OA
ATOM     95  O   UNL A   1      44.640  34.141  39.233  1.00  0.00    -0.237 OA
ATOM     96  O   UNL A   1      42.272  34.747  38.925  1.00  0.00    -0.744 OA
ENDBRANCH  92  93
ENDBRANCH  66  87
ENDBRANCH  40  41
ENDBRANCH  33  35
ENDBRANCH  32  33
ENDBRANCH  31  32
ENDBRANCH  30  31
ENDBRANCH  29  30
ENDBRANCH  28  29
ENDBRANCH  27  28
ENDBRANCH   1  27
TORSDOF 26
ENDMDL
