MODEL 1
REMARK VINA RESULT:      -9.7      0.000      0.000
REMARK SMILES Cc1cccc(OC2(C(=O)OCCOCCOCCOCCOC(=O)c3ccc(-c4c5nc(c(-c6ccc(S(=O)(=O)[O-])cc6)c6ccc([nH]6)c(-c6ccc(S(=O)(=O)[O-])cc6)c6nc(c(-c7ccc(S(=O)(=O)[O-])cc7)c7ccc4[nH]7)C=C6)C=C5)cc3)CCN(C(=O)c3cnc[nH]c3=O)CC2)c1
REMARK SMILES IDX 18 1 17 2 16 3 15 4 14 5 13 6 12 7 11 8 9 9 10 10 8 11 86 12
REMARK SMILES IDX 99 13 87 14 98 15 88 16 89 17 90 18 7 19 6 20 1 21 2 22 3 23
REMARK SMILES IDX 100 24 4 25 5 26 91 27 92 28 96 29 93 30 95 31 97 32 94 33
REMARK SMILES IDX 19 35 20 36 21 37 22 38 23 39 24 40 25 41 26 42 27 43 85 44
REMARK SMILES IDX 28 45 84 46 29 47 30 48 31 49 78 50 32 51 83 52 77 53 79 54
REMARK SMILES IDX 33 55 82 56 76 57 75 58 34 60 64 61 45 62 63 63 46 64 49 65
REMARK SMILES IDX 62 66 80 67 47 68 48 69 61 71 81 72 50 73 35 74 36 75 44 76
REMARK SMILES IDX 37 77 43 78 38 79 39 80 40 81 41 82 42 83 65 84 66 85 74 86
REMARK SMILES IDX 67 87 73 88 68 89 69 90 70 91 71 92 72 93 51 94 52 95 60 96
REMARK SMILES IDX 53 97 59 98 54 99 55 100 56 101 57 102 58 103
REMARK H PARENT 95 34 79 59 49 70
REMARK Flexibility Score: inf
ROOT
ATOM      1  C   UNL A   1      32.009  27.024  26.445  1.00  0.00     0.188 C 
ENDROOT
BRANCH   1   2
ATOM      2  O   UNL A   1      31.249  26.760  25.287  1.00  0.00    -0.377 OA
BRANCH   2   3
ATOM      3  C   UNL A   1      30.889  27.923  24.546  1.00  0.00     0.188 C 
BRANCH   3   4
ATOM      4  C   UNL A   1      30.864  27.955  22.919  1.00  0.00     0.188 C 
BRANCH   4   5
ATOM      5  O   UNL A   1      31.373  26.832  22.021  1.00  0.00    -0.376 OA
BRANCH   5   6
ATOM      6  C   UNL A   1      32.634  25.883  22.033  1.00  0.00     0.202 C 
BRANCH   6   7
ATOM      7  C   UNL A   1      33.412  24.534  23.035  1.00  0.00     0.261 C 
BRANCH   7   8
ATOM      8  O   UNL A   1      35.128  24.085  23.564  1.00  0.00    -0.460 OA
BRANCH   8   9
ATOM      9  C   UNL A   1      36.374  23.223  23.656  1.00  0.00     0.350 C 
ATOM     10  O   UNL A   1      36.754  22.723  22.582  1.00  0.00    -0.247 OA
BRANCH   9  11
ATOM     11  C   UNL A   1      37.344  22.689  25.112  1.00  0.00     0.209 C 
ATOM     12  C   UNL A   1      38.236  21.376  25.214  1.00  0.00     0.082 C 
ATOM     13  C   UNL A   1      38.223  23.928  25.624  1.00  0.00     0.082 C 
ATOM     14  C   UNL A   1      39.295  21.240  26.296  1.00  0.00     0.124 C 
ATOM     15  C   UNL A   1      39.281  23.624  26.720  1.00  0.00     0.124 C 
ATOM     16  N   UNL A   1      40.072  22.447  26.407  1.00  0.00    -0.338 N 
ATOM     17  C   UNL A   1      41.446  22.359  26.269  1.00  0.00     0.261 C 
ATOM     18  O   UNL A   1      42.014  21.641  25.445  1.00  0.00    -0.269 OA
BRANCH  11  19
ATOM     19  O   UNL A   1      36.400  22.599  26.276  1.00  0.00    -0.475 OA
BRANCH  19  20
ATOM     20  C   UNL A   1      35.131  22.156  26.026  1.00  0.00     0.121 A 
ATOM     21  C   UNL A   1      33.478  19.198  24.325  1.00  0.00     0.044 C 
ATOM     22  C   UNL A   1      33.625  20.461  25.122  1.00  0.00    -0.047 A 
ATOM     23  C   UNL A   1      32.538  21.244  25.499  1.00  0.00     0.003 A 
ATOM     24  C   UNL A   1      34.897  20.878  25.510  1.00  0.00     0.050 A 
ATOM     25  C   UNL A   1      32.751  22.455  26.172  1.00  0.00     0.004 A 
ATOM     26  C   UNL A   1      34.047  22.925  26.408  1.00  0.00     0.046 A 
ENDBRANCH  19  20
ENDBRANCH  11  19
BRANCH  17  27
ATOM     27  C   UNL A   1      42.264  22.992  27.320  1.00  0.00     0.123 A 
ATOM     28  C   UNL A   1      42.392  22.421  28.527  1.00  0.00     0.132 A 
ATOM     29  C   UNL A   1      42.711  24.392  27.196  1.00  0.00     0.263 A 
ATOM     30  N   UNL A   1      43.003  22.998  29.619  1.00  0.00    -0.246 NA
ATOM     31  N   UNL A   1      43.264  24.932  28.324  1.00  0.00    -0.312 N 
ATOM     32  O   UNL A   1      42.588  25.064  26.174  1.00  0.00    -0.269 OA
ATOM     33  C   UNL A   1      43.395  24.219  29.476  1.00  0.00     0.199 A 
ATOM     34  H   UNL A   1      43.578  25.865  28.301  1.00  0.00     0.171 HD
ENDBRANCH  17  27
ENDBRANCH   9  11
ENDBRANCH   8   9
ENDBRANCH   7   8
ENDBRANCH   6   7
ENDBRANCH   5   6
ENDBRANCH   4   5
ENDBRANCH   3   4
ENDBRANCH   2   3
ENDBRANCH   1   2
BRANCH   1  35
ATOM     35  C   UNL A   1      33.175  27.977  26.177  1.00  0.00     0.188 C 
BRANCH  35  36
ATOM     36  O   UNL A   1      33.052  29.224  26.873  1.00  0.00    -0.376 OA
BRANCH  36  37
ATOM     37  C   UNL A   1      34.261  29.644  27.509  1.00  0.00     0.202 C 
BRANCH  37  38
ATOM     38  C   UNL A   1      34.227  31.117  27.947  1.00  0.00     0.261 C 
BRANCH  38  39
ATOM     39  O   UNL A   1      35.301  31.423  28.858  1.00  0.00    -0.460 OA
BRANCH  39  40
ATOM     40  C   UNL A   1      35.142  32.588  29.537  1.00  0.00     0.338 C 
ATOM     41  O   UNL A   1      34.514  33.550  29.129  1.00  0.00    -0.246 OA
BRANCH  40  42
ATOM     42  C   UNL A   1      35.961  32.541  30.781  1.00  0.00     0.060 A 
ATOM     43  C   UNL A   1      36.870  33.554  31.030  1.00  0.00     0.016 A 
ATOM     44  C   UNL A   1      35.997  31.387  31.575  1.00  0.00     0.016 A 
ATOM     45  C   UNL A   1      37.888  33.324  31.964  1.00  0.00     0.010 A 
ATOM     46  C   UNL A   1      37.120  31.094  32.355  1.00  0.00     0.010 A 
ATOM     47  C   UNL A   1      38.146  32.030  32.498  1.00  0.00    -0.014 A 
BRANCH  47  48
ATOM     48  C   UNL A   1      39.408  31.627  33.356  1.00  0.00     0.031 A 
ATOM     49  C   UNL A   1      38.806  32.578  34.759  1.00  0.00     0.074 A 
ATOM     50  C   UNL A   1      40.861  30.968  33.033  1.00  0.00     0.049 A 
ATOM     51  N   UNL A   1      39.511  33.437  35.454  1.00  0.00    -0.248 NA
ATOM     52  C   UNL A   1      37.392  32.796  35.164  1.00  0.00     0.031 C 
ATOM     53  C   UNL A   1      42.246  30.621  33.955  1.00  0.00     0.029 A 
ATOM     54  N   UNL A   1      41.731  30.738  31.852  1.00  0.00    -0.354 N 
ATOM     55  C   UNL A   1      38.891  33.760  36.606  1.00  0.00     0.074 A 
ATOM     56  C   UNL A   1      37.504  33.579  36.255  1.00  0.00     0.031 C 
ATOM     57  C   UNL A   1      43.364  30.277  33.330  1.00  0.00     0.029 A 
ATOM     58  C   UNL A   1      43.152  30.771  32.047  1.00  0.00     0.049 A 
ATOM     59  H   UNL A   1      41.344  30.567  30.963  1.00  0.00     0.167 HD
ATOM     60  C   UNL A   1      39.616  33.949  37.754  1.00  0.00     0.031 A 
ATOM     61  C   UNL A   1      44.049  31.669  31.529  1.00  0.00     0.031 A 
ATOM     62  C   UNL A   1      41.080  33.608  37.624  1.00  0.00     0.049 A 
ATOM     63  C   UNL A   1      44.687  32.554  32.662  1.00  0.00     0.074 A 
ATOM     64  C   UNL A   1      41.800  32.504  38.068  1.00  0.00     0.029 A 
ATOM     65  N   UNL A   1      41.981  34.276  36.757  1.00  0.00    -0.354 N 
ATOM     66  N   UNL A   1      44.138  32.738  33.846  1.00  0.00    -0.248 NA
ATOM     67  C   UNL A   1      45.985  33.217  32.622  1.00  0.00     0.031 C 
ATOM     68  C   UNL A   1      43.061  32.448  37.400  1.00  0.00     0.029 A 
ATOM     69  C   UNL A   1      43.188  33.552  36.566  1.00  0.00     0.049 A 
ATOM     70  H   UNL A   1      41.791  35.143  36.334  1.00  0.00     0.167 HD
ATOM     71  C   UNL A   1      44.846  33.596  34.654  1.00  0.00     0.074 A 
ATOM     72  C   UNL A   1      46.056  33.781  33.850  1.00  0.00     0.031 C 
ATOM     73  C   UNL A   1      44.403  34.104  35.873  1.00  0.00     0.031 A 
BRANCH  60  74
ATOM     74  C   UNL A   1      38.817  33.992  39.060  1.00  0.00    -0.014 A 
ATOM     75  C   UNL A   1      38.774  35.139  39.876  1.00  0.00     0.010 A 
ATOM     76  C   UNL A   1      38.166  32.846  39.577  1.00  0.00     0.010 A 
ATOM     77  C   UNL A   1      38.248  35.103  41.185  1.00  0.00     0.020 A 
ATOM     78  C   UNL A   1      37.686  32.781  40.897  1.00  0.00     0.020 A 
ATOM     79  C   UNL A   1      37.745  33.911  41.705  1.00  0.00     0.054 A 
BRANCH  79  80
ATOM     80  S   UNL A   1      37.203  33.839  43.438  1.00  0.00     0.124 S 
ATOM     81  O   UNL A   1      36.346  32.655  43.462  1.00  0.00    -0.237 OA
ATOM     82  O   UNL A   1      38.466  33.714  44.159  1.00  0.00    -0.237 OA
ATOM     83  O   UNL A   1      36.499  35.105  43.636  1.00  0.00    -0.744 OA
ENDBRANCH  79  80
ENDBRANCH  60  74
BRANCH  61  84
ATOM     84  C   UNL A   1      43.853  31.944  30.070  1.00  0.00    -0.014 A 
ATOM     85  C   UNL A   1      43.600  33.299  29.719  1.00  0.00     0.010 A 
ATOM     86  C   UNL A   1      44.180  31.063  29.032  1.00  0.00     0.010 A 
ATOM     87  C   UNL A   1      43.814  33.789  28.423  1.00  0.00     0.020 A 
ATOM     88  C   UNL A   1      44.400  31.552  27.723  1.00  0.00     0.020 A 
ATOM     89  C   UNL A   1      44.245  32.915  27.432  1.00  0.00     0.054 A 
BRANCH  89  90
ATOM     90  S   UNL A   1      44.690  33.540  25.779  1.00  0.00     0.124 S 
ATOM     91  O   UNL A   1      46.049  33.036  25.606  1.00  0.00    -0.237 OA
ATOM     92  O   UNL A   1      43.692  32.943  24.895  1.00  0.00    -0.237 OA
ATOM     93  O   UNL A   1      44.579  34.989  25.931  1.00  0.00    -0.744 OA
ENDBRANCH  89  90
ENDBRANCH  61  84
BRANCH  73  94
ATOM     94  C   UNL A   1      45.173  35.149  36.689  1.00  0.00    -0.014 A 
ATOM     95  C   UNL A   1      45.211  36.520  36.403  1.00  0.00     0.010 A 
ATOM     96  C   UNL A   1      45.826  34.746  37.886  1.00  0.00     0.010 A 
ATOM     97  C   UNL A   1      45.908  37.425  37.222  1.00  0.00     0.020 A 
ATOM     98  C   UNL A   1      46.477  35.642  38.739  1.00  0.00     0.020 A 
ATOM     99  C   UNL A   1      46.532  36.981  38.387  1.00  0.00     0.054 A 
BRANCH  99 100
ATOM    100  S   UNL A   1      47.333  38.176  39.486  1.00  0.00     0.124 S 
ATOM    101  O   UNL A   1      46.420  38.198  40.625  1.00  0.00    -0.237 OA
ATOM    102  O   UNL A   1      48.635  37.563  39.737  1.00  0.00    -0.237 OA
ATOM    103  O   UNL A   1      47.375  39.401  38.690  1.00  0.00    -0.744 OA
ENDBRANCH  99 100
ENDBRANCH  73  94
ENDBRANCH  47  48
ENDBRANCH  40  42
ENDBRANCH  39  40
ENDBRANCH  38  39
ENDBRANCH  37  38
ENDBRANCH  36  37
ENDBRANCH  35  36
ENDBRANCH   1  35
TORSDOF 26
ENDMDL
MODEL 2
REMARK VINA RESULT:      -9.7      3.484      8.584
REMARK SMILES Cc1cccc(OC2(C(=O)OCCOCCOCCOCCOC(=O)c3ccc(-c4c5nc(c(-c6ccc(S(=O)(=O)[O-])cc6)c6ccc([nH]6)c(-c6ccc(S(=O)(=O)[O-])cc6)c6nc(c(-c7ccc(S(=O)(=O)[O-])cc7)c7ccc4[nH]7)C=C6)C=C5)cc3)CCN(C(=O)c3cnc[nH]c3=O)CC2)c1
REMARK SMILES IDX 18 1 17 2 16 3 15 4 14 5 13 6 12 7 11 8 9 9 10 10 8 11 86 12
REMARK SMILES IDX 99 13 87 14 98 15 88 16 89 17 90 18 7 19 6 20 1 21 2 22 3 23
REMARK SMILES IDX 100 24 4 25 5 26 91 27 92 28 96 29 93 30 95 31 97 32 94 33
REMARK SMILES IDX 19 35 20 36 21 37 22 38 23 39 24 40 25 41 26 42 27 43 85 44
REMARK SMILES IDX 28 45 84 46 29 47 30 48 31 49 78 50 32 51 83 52 77 53 79 54
REMARK SMILES IDX 33 55 82 56 76 57 75 58 34 60 64 61 45 62 63 63 46 64 49 65
REMARK SMILES IDX 62 66 80 67 47 68 48 69 61 71 81 72 50 73 35 74 36 75 44 76
REMARK SMILES IDX 37 77 43 78 38 79 39 80 40 81 41 82 42 83 65 84 66 85 74 86
REMARK SMILES IDX 67 87 73 88 68 89 69 90 70 91 71 92 72 93 51 94 52 95 60 96
REMARK SMILES IDX 53 97 59 98 54 99 55 100 56 101 57 102 58 103
REMARK H PARENT 95 34 79 59 49 70
REMARK Flexibility Score: inf
ROOT
ATOM      1  C   UNL A   1      33.096  30.691  27.272  1.00  0.00     0.188 C 
ENDROOT
BRANCH   1   2
ATOM      2  O   UNL A   1      33.158  29.854  26.139  1.00  0.00    -0.377 OA
BRANCH   2   3
ATOM      3  C   UNL A   1      31.885  29.475  25.621  1.00  0.00     0.188 C 
BRANCH   3   4
ATOM      4  C   UNL A   1      31.682  28.930  24.101  1.00  0.00     0.188 C 
BRANCH   4   5
ATOM      5  O   UNL A   1      31.437  27.473  23.726  1.00  0.00    -0.376 OA
BRANCH   5   6
ATOM      6  C   UNL A   1      32.314  26.160  23.733  1.00  0.00     0.202 C 
BRANCH   6   7
ATOM      7  C   UNL A   1      33.837  25.450  24.509  1.00  0.00     0.261 C 
BRANCH   7   8
ATOM      8  O   UNL A   1      35.345  24.556  23.914  1.00  0.00    -0.460 OA
BRANCH   8   9
ATOM      9  C   UNL A   1      36.377  23.442  23.874  1.00  0.00     0.350 C 
ATOM     10  O   UNL A   1      36.535  22.904  22.765  1.00  0.00    -0.247 OA
BRANCH   9  11
ATOM     11  C   UNL A   1      37.340  22.668  25.223  1.00  0.00     0.209 C 
ATOM     12  C   UNL A   1      38.108  21.277  25.147  1.00  0.00     0.082 C 
ATOM     13  C   UNL A   1      38.346  23.760  25.825  1.00  0.00     0.082 C 
ATOM     14  C   UNL A   1      39.185  20.931  26.163  1.00  0.00     0.124 C 
ATOM     15  C   UNL A   1      39.406  23.246  26.838  1.00  0.00     0.124 C 
ATOM     16  N   UNL A   1      40.074  22.044  26.368  1.00  0.00    -0.338 N 
ATOM     17  C   UNL A   1      41.429  21.849  26.163  1.00  0.00     0.261 C 
ATOM     18  O   UNL A   1      41.900  21.179  25.245  1.00  0.00    -0.269 OA
BRANCH  11  19
ATOM     19  O   UNL A   1      36.430  22.536  26.410  1.00  0.00    -0.475 OA
BRANCH  19  20
ATOM     20  C   UNL A   1      35.162  22.075  26.186  1.00  0.00     0.121 A 
ATOM     21  C   UNL A   1      33.505  19.232  24.303  1.00  0.00     0.044 C 
ATOM     22  C   UNL A   1      33.659  20.421  25.205  1.00  0.00    -0.047 A 
ATOM     23  C   UNL A   1      32.572  21.128  25.710  1.00  0.00     0.003 A 
ATOM     24  C   UNL A   1      34.938  20.843  25.565  1.00  0.00     0.050 A 
ATOM     25  C   UNL A   1      32.787  22.279  26.481  1.00  0.00     0.004 A 
ATOM     26  C   UNL A   1      34.079  22.769  26.693  1.00  0.00     0.046 A 
ENDBRANCH  19  20
ENDBRANCH  11  19
BRANCH  17  27
ATOM     27  C   UNL A   1      42.336  22.289  27.239  1.00  0.00     0.123 A 
ATOM     28  C   UNL A   1      41.850  22.799  28.380  1.00  0.00     0.132 A 
ATOM     29  C   UNL A   1      43.779  22.467  26.992  1.00  0.00     0.263 A 
ATOM     30  N   UNL A   1      42.605  23.374  29.379  1.00  0.00    -0.246 NA
ATOM     31  N   UNL A   1      44.472  23.089  27.994  1.00  0.00    -0.312 N 
ATOM     32  O   UNL A   1      44.348  22.117  25.960  1.00  0.00    -0.269 OA
ATOM     33  C   UNL A   1      43.866  23.506  29.140  1.00  0.00     0.199 A 
ATOM     34  H   UNL A   1      45.439  23.238  27.884  1.00  0.00     0.171 HD
ENDBRANCH  17  27
ENDBRANCH   9  11
ENDBRANCH   8   9
ENDBRANCH   7   8
ENDBRANCH   6   7
ENDBRANCH   5   6
ENDBRANCH   4   5
ENDBRANCH   3   4
ENDBRANCH   2   3
ENDBRANCH   1   2
BRANCH   1  35
ATOM     35  C   UNL A   1      34.438  31.353  27.587  1.00  0.00     0.188 C 
BRANCH  35  36
ATOM     36  O   UNL A   1      34.363  32.282  28.677  1.00  0.00    -0.376 OA
BRANCH  36  37
ATOM     37  C   UNL A   1      35.115  31.878  29.823  1.00  0.00     0.202 C 
BRANCH  37  38
ATOM     38  C   UNL A   1      34.629  32.541  31.121  1.00  0.00     0.261 C 
BRANCH  38  39
ATOM     39  O   UNL A   1      35.259  33.819  31.331  1.00  0.00    -0.460 OA
BRANCH  39  40
ATOM     40  C   UNL A   1      35.430  34.150  32.637  1.00  0.00     0.338 C 
ATOM     41  O   UNL A   1      34.525  34.297  33.442  1.00  0.00    -0.246 OA
BRANCH  40  42
ATOM     42  C   UNL A   1      36.873  34.428  32.884  1.00  0.00     0.060 A 
ATOM     43  C   UNL A   1      37.700  34.707  31.810  1.00  0.00     0.016 A 
ATOM     44  C   UNL A   1      37.448  34.183  34.138  1.00  0.00     0.016 A 
ATOM     45  C   UNL A   1      39.084  34.585  31.983  1.00  0.00     0.010 A 
ATOM     46  C   UNL A   1      38.808  33.875  34.250  1.00  0.00     0.010 A 
ATOM     47  C   UNL A   1      39.651  33.984  33.142  1.00  0.00    -0.014 A 
BRANCH  47  48
ATOM     48  C   UNL A   1      41.167  33.582  33.318  1.00  0.00     0.031 A 
ATOM     49  C   UNL A   1      40.969  32.190  32.198  1.00  0.00     0.074 A 
ATOM     50  C   UNL A   1      42.353  33.977  34.363  1.00  0.00     0.049 A 
ATOM     51  N   UNL A   1      41.368  30.963  32.431  1.00  0.00    -0.248 NA
ATOM     52  C   UNL A   1      40.078  32.105  31.010  1.00  0.00     0.031 C 
ATOM     53  C   UNL A   1      43.958  33.468  34.593  1.00  0.00     0.029 A 
ATOM     54  N   UNL A   1      42.480  34.603  35.703  1.00  0.00    -0.354 N 
ATOM     55  C   UNL A   1      41.353  30.222  31.306  1.00  0.00     0.074 A 
ATOM     56  C   UNL A   1      40.305  30.859  30.548  1.00  0.00     0.031 C 
ATOM     57  C   UNL A   1      44.597  33.838  35.696  1.00  0.00     0.029 A 
ATOM     58  C   UNL A   1      43.549  34.162  36.552  1.00  0.00     0.049 A 
ATOM     59  H   UNL A   1      41.851  35.300  35.999  1.00  0.00     0.167 HD
ATOM     60  C   UNL A   1      42.338  29.299  31.070  1.00  0.00     0.031 A 
ATOM     61  C   UNL A   1      43.451  33.507  37.753  1.00  0.00     0.031 A 
ATOM     62  C   UNL A   1      43.466  29.327  32.073  1.00  0.00     0.049 A 
ATOM     63  C   UNL A   1      44.012  32.041  37.648  1.00  0.00     0.074 A 
ATOM     64  C   UNL A   1      44.756  29.838  31.977  1.00  0.00     0.029 A 
ATOM     65  N   UNL A   1      43.312  29.045  33.453  1.00  0.00    -0.354 N 
ATOM     66  N   UNL A   1      44.133  31.381  36.514  1.00  0.00    -0.248 NA
ATOM     67  C   UNL A   1      44.554  31.237  38.736  1.00  0.00     0.031 C 
ATOM     68  C   UNL A   1      45.324  29.964  33.282  1.00  0.00     0.029 A 
ATOM     69  C   UNL A   1      44.426  29.476  34.223  1.00  0.00     0.049 A 
ATOM     70  H   UNL A   1      42.522  28.602  33.837  1.00  0.00     0.167 HD
ATOM     71  C   UNL A   1      44.592  30.095  36.672  1.00  0.00     0.074 A 
ATOM     72  C   UNL A   1      44.934  30.106  38.096  1.00  0.00     0.031 C 
ATOM     73  C   UNL A   1      44.639  29.127  35.670  1.00  0.00     0.031 A 
BRANCH  60  74
ATOM     74  C   UNL A   1      42.419  28.743  29.645  1.00  0.00    -0.014 A 
ATOM     75  C   UNL A   1      42.173  27.389  29.353  1.00  0.00     0.010 A 
ATOM     76  C   UNL A   1      42.854  29.537  28.557  1.00  0.00     0.010 A 
ATOM     77  C   UNL A   1      42.483  26.828  28.094  1.00  0.00     0.020 A 
ATOM     78  C   UNL A   1      43.217  28.984  27.315  1.00  0.00     0.020 A 
ATOM     79  C   UNL A   1      43.045  27.622  27.095  1.00  0.00     0.054 A 
BRANCH  79  80
ATOM     80  S   UNL A   1      43.574  26.864  25.530  1.00  0.00     0.124 S 
ATOM     81  O   UNL A   1      44.603  27.786  25.053  1.00  0.00    -0.237 OA
ATOM     82  O   UNL A   1      44.054  25.555  25.961  1.00  0.00    -0.237 OA
ATOM     83  O   UNL A   1      42.354  26.842  24.724  1.00  0.00    -0.744 OA
ENDBRANCH  79  80
ENDBRANCH  60  74
BRANCH  61  84
ATOM     84  C   UNL A   1      42.439  34.100  38.682  1.00  0.00    -0.014 A 
ATOM     85  C   UNL A   1      42.846  35.266  39.388  1.00  0.00     0.010 A 
ATOM     86  C   UNL A   1      41.073  33.790  38.691  1.00  0.00     0.010 A 
ATOM     87  C   UNL A   1      41.925  36.165  39.944  1.00  0.00     0.020 A 
ATOM     88  C   UNL A   1      40.138  34.694  39.248  1.00  0.00     0.020 A 
ATOM     89  C   UNL A   1      40.566  35.888  39.844  1.00  0.00     0.054 A 
BRANCH  89  90
ATOM     90  S   UNL A   1      39.332  37.107  40.408  1.00  0.00     0.124 S 
ATOM     91  O   UNL A   1      38.365  36.272  41.114  1.00  0.00    -0.237 OA
ATOM     92  O   UNL A   1      40.098  38.018  41.256  1.00  0.00    -0.237 OA
ATOM     93  O   UNL A   1      38.853  37.695  39.160  1.00  0.00    -0.744 OA
ENDBRANCH  89  90
ENDBRANCH  61  84
BRANCH  73  94
ATOM     94  C   UNL A   1      45.049  27.671  35.913  1.00  0.00    -0.014 A 
ATOM     95  C   UNL A   1      44.170  26.579  35.911  1.00  0.00     0.010 A 
ATOM     96  C   UNL A   1      46.428  27.357  36.058  1.00  0.00     0.010 A 
ATOM     97  C   UNL A   1      44.627  25.264  36.102  1.00  0.00     0.020 A 
ATOM     98  C   UNL A   1      46.903  26.049  36.196  1.00  0.00     0.020 A 
ATOM     99  C   UNL A   1      45.991  25.007  36.239  1.00  0.00     0.054 A 
BRANCH  99 100
ATOM    100  S   UNL A   1      46.571  23.298  36.376  1.00  0.00     0.124 S 
ATOM    101  O   UNL A   1      45.432  22.642  37.011  1.00  0.00    -0.237 OA
ATOM    102  O   UNL A   1      46.814  22.926  34.984  1.00  0.00    -0.237 OA
ATOM    103  O   UNL A   1      47.773  23.408  37.200  1.00  0.00    -0.744 OA
ENDBRANCH  99 100
ENDBRANCH  73  94
ENDBRANCH  47  48
ENDBRANCH  40  42
ENDBRANCH  39  40
ENDBRANCH  38  39
ENDBRANCH  37  38
ENDBRANCH  36  37
ENDBRANCH  35  36
ENDBRANCH   1  35
TORSDOF 26
ENDMDL
MODEL 3
REMARK VINA RESULT:      -9.1      7.396     14.536
REMARK SMILES Cc1cccc(OC2(C(=O)OCCOCCOCCOCCOC(=O)c3ccc(-c4c5nc(c(-c6ccc(S(=O)(=O)[O-])cc6)c6ccc([nH]6)c(-c6ccc(S(=O)(=O)[O-])cc6)c6nc(c(-c7ccc(S(=O)(=O)[O-])cc7)c7ccc4[nH]7)C=C6)C=C5)cc3)CCN(C(=O)c3cnc[nH]c3=O)CC2)c1
REMARK SMILES IDX 18 1 17 2 16 3 15 4 14 5 13 6 12 7 11 8 9 9 10 10 8 11 86 12
REMARK SMILES IDX 99 13 87 14 98 15 88 16 89 17 90 18 7 19 6 20 1 21 2 22 3 23
REMARK SMILES IDX 100 24 4 25 5 26 91 27 92 28 96 29 93 30 95 31 97 32 94 33
REMARK SMILES IDX 19 35 20 36 21 37 22 38 23 39 24 40 25 41 26 42 27 43 85 44
REMARK SMILES IDX 28 45 84 46 29 47 30 48 31 49 78 50 32 51 83 52 77 53 79 54
REMARK SMILES IDX 33 55 82 56 76 57 75 58 34 60 64 61 45 62 63 63 46 64 49 65
REMARK SMILES IDX 62 66 80 67 47 68 48 69 61 71 81 72 50 73 35 74 36 75 44 76
REMARK SMILES IDX 37 77 43 78 38 79 39 80 40 81 41 82 42 83 65 84 66 85 74 86
REMARK SMILES IDX 67 87 73 88 68 89 69 90 70 91 71 92 72 93 51 94 52 95 60 96
REMARK SMILES IDX 53 97 59 98 54 99 55 100 56 101 57 102 58 103
REMARK H PARENT 95 34 79 59 49 70
REMARK Flexibility Score: inf
ROOT
ATOM      1  C   UNL A   1      42.345  31.482  29.483  1.00  0.00     0.188 C 
ENDROOT
BRANCH   1   2
ATOM      2  O   UNL A   1      41.747  30.205  29.475  1.00  0.00    -0.377 OA
BRANCH   2   3
ATOM      3  C   UNL A   1      40.820  29.986  30.536  1.00  0.00     0.188 C 
BRANCH   3   4
ATOM      4  C   UNL A   1      39.215  29.874  30.290  1.00  0.00     0.188 C 
BRANCH   4   5
ATOM      5  O   UNL A   1      38.481  30.433  29.076  1.00  0.00    -0.376 OA
BRANCH   5   6
ATOM      6  C   UNL A   1      37.466  29.843  28.021  1.00  0.00     0.202 C 
BRANCH   6   7
ATOM      7  C   UNL A   1      35.655  29.782  27.642  1.00  0.00     0.261 C 
BRANCH   7   8
ATOM      8  O   UNL A   1      34.549  28.752  26.572  1.00  0.00    -0.460 OA
BRANCH   8   9
ATOM      9  C   UNL A   1      33.915  28.281  25.276  1.00  0.00     0.350 C 
ATOM     10  O   UNL A   1      33.952  29.097  24.339  1.00  0.00    -0.247 OA
BRANCH   9  11
ATOM     11  C   UNL A   1      32.986  26.751  24.897  1.00  0.00     0.209 C 
ATOM     12  C   UNL A   1      32.683  26.174  23.446  1.00  0.00     0.082 C 
ATOM     13  C   UNL A   1      33.576  25.560  25.793  1.00  0.00     0.082 C 
ATOM     14  C   UNL A   1      32.267  24.723  23.261  1.00  0.00     0.124 C 
ATOM     15  C   UNL A   1      33.069  24.127  25.467  1.00  0.00     0.124 C 
ATOM     16  N   UNL A   1      33.100  23.847  24.041  1.00  0.00    -0.338 N 
ATOM     17  C   UNL A   1      33.774  22.828  23.390  1.00  0.00     0.261 C 
ATOM     18  O   UNL A   1      34.312  22.948  22.290  1.00  0.00    -0.269 OA
BRANCH  11  19
ATOM     19  O   UNL A   1      31.640  26.866  25.551  1.00  0.00    -0.475 OA
BRANCH  19  20
ATOM     20  C   UNL A   1      30.577  27.187  24.753  1.00  0.00     0.121 A 
ATOM     21  C   UNL A   1      29.536  30.043  22.487  1.00  0.00     0.044 C 
ATOM     22  C   UNL A   1      29.505  28.709  23.174  1.00  0.00    -0.047 A 
ATOM     23  C   UNL A   1      28.402  27.863  23.127  1.00  0.00     0.003 A 
ATOM     24  C   UNL A   1      30.624  28.286  23.890  1.00  0.00     0.050 A 
ATOM     25  C   UNL A   1      28.409  26.667  23.858  1.00  0.00     0.004 A 
ATOM     26  C   UNL A   1      29.482  26.345  24.695  1.00  0.00     0.046 A 
ENDBRANCH  19  20
ENDBRANCH  11  19
BRANCH  17  27
ATOM     27  C   UNL A   1      33.640  21.473  23.955  1.00  0.00     0.123 A 
ATOM     28  C   UNL A   1      32.437  20.889  24.056  1.00  0.00     0.132 A 
ATOM     29  C   UNL A   1      34.750  20.843  24.694  1.00  0.00     0.263 A 
ATOM     30  N   UNL A   1      32.183  19.697  24.700  1.00  0.00    -0.246 NA
ATOM     31  N   UNL A   1      34.432  19.690  25.357  1.00  0.00    -0.312 N 
ATOM     32  O   UNL A   1      35.887  21.307  24.753  1.00  0.00    -0.269 OA
ATOM     33  C   UNL A   1      33.176  19.163  25.328  1.00  0.00     0.199 A 
ATOM     34  H   UNL A   1      35.132  19.226  25.871  1.00  0.00     0.171 HD
ENDBRANCH  17  27
ENDBRANCH   9  11
ENDBRANCH   8   9
ENDBRANCH   7   8
ENDBRANCH   6   7
ENDBRANCH   5   6
ENDBRANCH   4   5
ENDBRANCH   3   4
ENDBRANCH   2   3
ENDBRANCH   1   2
BRANCH   1  35
ATOM     35  C   UNL A   1      41.870  32.345  30.653  1.00  0.00     0.188 C 
BRANCH  35  36
ATOM     36  O   UNL A   1      42.508  33.628  30.699  1.00  0.00    -0.376 OA
BRANCH  36  37
ATOM     37  C   UNL A   1      43.437  33.842  29.635  1.00  0.00     0.202 C 
BRANCH  37  38
ATOM     38  C   UNL A   1      44.714  34.564  30.090  1.00  0.00     0.261 C 
BRANCH  38  39
ATOM     39  O   UNL A   1      45.325  33.900  31.214  1.00  0.00    -0.460 OA
BRANCH  39  40
ATOM     40  C   UNL A   1      45.733  32.631  30.959  1.00  0.00     0.338 C 
ATOM     41  O   UNL A   1      45.282  31.634  31.497  1.00  0.00    -0.246 OA
BRANCH  40  42
ATOM     42  C   UNL A   1      46.895  32.672  30.027  1.00  0.00     0.060 A 
ATOM     43  C   UNL A   1      46.690  32.429  28.680  1.00  0.00     0.016 A 
ATOM     44  C   UNL A   1      48.208  32.718  30.516  1.00  0.00     0.016 A 
ATOM     45  C   UNL A   1      47.793  32.088  27.887  1.00  0.00     0.010 A 
ATOM     46  C   UNL A   1      49.265  32.191  29.769  1.00  0.00     0.010 A 
ATOM     47  C   UNL A   1      49.062  31.776  28.451  1.00  0.00    -0.014 A 
BRANCH  47  48
ATOM     48  C   UNL A   1      50.283  31.150  27.670  1.00  0.00     0.031 A 
ATOM     49  C   UNL A   1      50.705  32.751  26.968  1.00  0.00     0.074 A 
ATOM     50  C   UNL A   1      50.764  29.639  27.299  1.00  0.00     0.049 A 
ATOM     51  N   UNL A   1      50.948  32.985  25.702  1.00  0.00    -0.248 NA
ATOM     52  C   UNL A   1      50.545  34.086  27.601  1.00  0.00     0.031 C 
ATOM     53  C   UNL A   1      52.035  28.983  26.382  1.00  0.00     0.029 A 
ATOM     54  N   UNL A   1      50.180  28.275  27.255  1.00  0.00    -0.354 N 
ATOM     55  C   UNL A   1      51.520  34.192  25.529  1.00  0.00     0.074 A 
ATOM     56  C   UNL A   1      50.995  34.930  26.651  1.00  0.00     0.031 C 
ATOM     57  C   UNL A   1      52.015  27.688  26.092  1.00  0.00     0.029 A 
ATOM     58  C   UNL A   1      50.673  27.365  26.261  1.00  0.00     0.049 A 
ATOM     59  H   UNL A   1      49.477  28.002  27.888  1.00  0.00     0.167 HD
ATOM     60  C   UNL A   1      52.502  34.367  24.589  1.00  0.00     0.031 A 
ATOM     61  C   UNL A   1      49.987  26.823  25.204  1.00  0.00     0.031 A 
ATOM     62  C   UNL A   1      52.960  33.090  23.928  1.00  0.00     0.049 A 
ATOM     63  C   UNL A   1      50.545  27.353  23.832  1.00  0.00     0.074 A 
ATOM     64  C   UNL A   1      54.110  32.331  24.114  1.00  0.00     0.029 A 
ATOM     65  N   UNL A   1      52.128  32.259  23.136  1.00  0.00    -0.354 N 
ATOM     66  N   UNL A   1      51.238  28.467  23.703  1.00  0.00    -0.248 NA
ATOM     67  C   UNL A   1      50.469  26.678  22.543  1.00  0.00     0.031 C 
ATOM     68  C   UNL A   1      53.932  31.034  23.542  1.00  0.00     0.029 A 
ATOM     69  C   UNL A   1      52.687  30.970  22.928  1.00  0.00     0.049 A 
ATOM     70  H   UNL A   1      51.260  32.543  22.770  1.00  0.00     0.167 HD
ATOM     71  C   UNL A   1      51.572  28.759  22.402  1.00  0.00     0.074 A 
ATOM     72  C   UNL A   1      51.140  27.531  21.733  1.00  0.00     0.031 C 
ATOM     73  C   UNL A   1      52.138  29.955  21.965  1.00  0.00     0.031 A 
BRANCH  60  74
ATOM     74  C   UNL A   1      53.307  35.667  24.682  1.00  0.00    -0.014 A 
ATOM     75  C   UNL A   1      54.550  35.734  25.339  1.00  0.00     0.010 A 
ATOM     76  C   UNL A   1      52.795  36.899  24.210  1.00  0.00     0.010 A 
ATOM     77  C   UNL A   1      55.171  36.966  25.638  1.00  0.00     0.020 A 
ATOM     78  C   UNL A   1      53.374  38.136  24.545  1.00  0.00     0.020 A 
ATOM     79  C   UNL A   1      54.556  38.165  25.276  1.00  0.00     0.054 A 
BRANCH  79  80
ATOM     80  S   UNL A   1      55.288  39.746  25.790  1.00  0.00     0.124 S 
ATOM     81  O   UNL A   1      55.362  39.614  27.244  1.00  0.00    -0.237 OA
ATOM     82  O   UNL A   1      56.572  39.740  25.094  1.00  0.00    -0.237 OA
ATOM     83  O   UNL A   1      54.331  40.744  25.317  1.00  0.00    -0.744 OA
ENDBRANCH  79  80
ENDBRANCH  60  74
BRANCH  61  84
ATOM     84  C   UNL A   1      48.633  26.300  25.570  1.00  0.00    -0.014 A 
ATOM     85  C   UNL A   1      47.576  26.622  24.674  1.00  0.00     0.010 A 
ATOM     86  C   UNL A   1      48.383  25.306  26.524  1.00  0.00     0.010 A 
ATOM     87  C   UNL A   1      46.383  25.887  24.627  1.00  0.00     0.020 A 
ATOM     88  C   UNL A   1      47.183  24.558  26.480  1.00  0.00     0.020 A 
ATOM     89  C   UNL A   1      46.204  24.833  25.515  1.00  0.00     0.054 A 
BRANCH  89  90
ATOM     90  S   UNL A   1      44.743  23.751  25.381  1.00  0.00     0.124 S 
ATOM     91  O   UNL A   1      44.415  23.488  26.778  1.00  0.00    -0.237 OA
ATOM     92  O   UNL A   1      43.767  24.564  24.658  1.00  0.00    -0.237 OA
ATOM     93  O   UNL A   1      45.249  22.602  24.634  1.00  0.00    -0.744 OA
ENDBRANCH  89  90
ENDBRANCH  61  84
BRANCH  73  94
ATOM     94  C   UNL A   1      52.389  30.288  20.490  1.00  0.00    -0.014 A 
ATOM     95  C   UNL A   1      51.681  31.247  19.752  1.00  0.00     0.010 A 
ATOM     96  C   UNL A   1      53.477  29.666  19.818  1.00  0.00     0.010 A 
ATOM     97  C   UNL A   1      51.996  31.525  18.411  1.00  0.00     0.020 A 
ATOM     98  C   UNL A   1      53.835  29.972  18.501  1.00  0.00     0.020 A 
ATOM     99  C   UNL A   1      53.074  30.889  17.796  1.00  0.00     0.054 A 
BRANCH  99 100
ATOM    100  S   UNL A   1      53.532  31.338  16.103  1.00  0.00     0.124 S 
ATOM    101  O   UNL A   1      54.372  32.513  16.319  1.00  0.00    -0.237 OA
ATOM    102  O   UNL A   1      54.232  30.146  15.629  1.00  0.00    -0.237 OA
ATOM    103  O   UNL A   1      52.247  31.594  15.455  1.00  0.00    -0.744 OA
ENDBRANCH  99 100
ENDBRANCH  73  94
ENDBRANCH  47  48
ENDBRANCH  40  42
ENDBRANCH  39  40
ENDBRANCH  38  39
ENDBRANCH  37  38
ENDBRANCH  36  37
ENDBRANCH  35  36
ENDBRANCH   1  35
TORSDOF 26
ENDMDL
