MODEL 1
REMARK VINA RESULT:      -7.7      0.000      0.000
REMARK SMILES [NH3+][C@H](Cc1ccc(O)c(F)c1)C(=O)OCCOCCOCCOCCOC(=O)c1ccc(-c2c3nc(c(-c4ccc(S(=O)(=O)[O-])cc4)c4ccc([nH]4)c(-c4ccc(S(=O)(=O)[O-])cc4)c4nc(c(-c5ccc(S(=O)(=O)[O-])cc5)c5ccc2[nH]5)C=C4)C=C3)cc1
REMARK SMILES IDX 20 1 19 2 18 3 17 4 16 5 15 6 14 7 12 8 13 9 2 10 1 11 3 15
REMARK SMILES IDX 4 16 5 17 11 18 6 19 9 20 7 21 10 22 8 23 21 25 22 26 23 27
REMARK SMILES IDX 24 28 25 29 26 30 27 31 28 32 29 33 30 34 88 35 31 36 87 37
REMARK SMILES IDX 32 38 33 39 34 40 81 41 35 42 86 43 80 44 82 45 36 46 85 47
REMARK SMILES IDX 79 48 78 49 37 51 67 52 48 53 66 54 49 55 52 56 65 57 83 58
REMARK SMILES IDX 50 59 51 60 64 62 84 63 53 64 38 65 39 66 47 67 40 68 46 69
REMARK SMILES IDX 41 70 42 71 43 72 44 73 45 74 68 75 69 76 77 77 70 78 76 79
REMARK SMILES IDX 71 80 72 81 73 82 74 83 75 84 54 85 55 86 63 87 56 88 62 89
REMARK SMILES IDX 57 90 58 91 59 92 60 93 61 94
REMARK H PARENT 1 12 1 13 1 14 8 24 82 50 52 61
REMARK Flexibility Score: inf
ROOT
ATOM      1  O   UNL A   1      32.600  37.307  30.971  1.00  0.00    -0.377 OA
ENDROOT
BRANCH   1   2
ATOM      2  C   UNL A   1      33.645  37.675  31.844  1.00  0.00     0.188 C 
BRANCH   2   3
ATOM      3  C   UNL A   1      33.579  37.005  33.223  1.00  0.00     0.188 C 
BRANCH   3   4
ATOM      4  O   UNL A   1      34.008  35.667  33.416  1.00  0.00    -0.376 OA
BRANCH   4   5
ATOM      5  C   UNL A   1      34.884  35.293  34.472  1.00  0.00     0.202 C 
BRANCH   5   6
ATOM      6  C   UNL A   1      35.786  34.046  34.444  1.00  0.00     0.261 C 
BRANCH   6   7
ATOM      7  O   UNL A   1      35.154  32.816  34.085  1.00  0.00    -0.459 OA
BRANCH   7   8
ATOM      8  C   UNL A   1      35.253  32.445  32.787  1.00  0.00     0.365 C 
ATOM      9  O   UNL A   1      34.306  32.433  32.006  1.00  0.00    -0.245 OA
BRANCH   8  10
ATOM     10  C   UNL A   1      36.714  32.147  32.361  1.00  0.00     0.296 C 
BRANCH  10  11
ATOM     11  N   UNL A   1      36.893  32.567  30.950  1.00  0.00    -0.346 N 
ATOM     12  H   UNL A   1      36.334  31.967  30.343  1.00  0.00     0.345 HD
ATOM     13  H   UNL A   1      37.877  32.486  30.694  1.00  0.00     0.345 HD
ATOM     14  H   UNL A   1      36.592  33.535  30.842  1.00  0.00     0.345 HD
ENDBRANCH  10  11
BRANCH  10  15
ATOM     15  C   UNL A   1      37.280  30.737  32.706  1.00  0.00     0.113 C 
BRANCH  15  16
ATOM     16  C   UNL A   1      38.476  30.718  33.617  1.00  0.00    -0.038 A 
ATOM     17  C   UNL A   1      39.572  29.885  33.338  1.00  0.00     0.008 A 
ATOM     18  C   UNL A   1      38.453  31.466  34.798  1.00  0.00     0.047 A 
ATOM     19  C   UNL A   1      40.594  29.734  34.273  1.00  0.00     0.049 A 
ATOM     20  C   UNL A   1      39.472  31.308  35.726  1.00  0.00     0.165 A 
ATOM     21  C   UNL A   1      40.523  30.428  35.479  1.00  0.00     0.151 A 
ATOM     22  F   UNL A   1      39.402  31.978  36.883  1.00  0.00    -0.203 F 
BRANCH  21  23
ATOM     23  O   UNL A   1      41.467  30.234  36.444  1.00  0.00    -0.505 OA
ATOM     24  H   UNL A   1      41.210  29.965  37.305  1.00  0.00     0.293 HD
ENDBRANCH  21  23
ENDBRANCH  15  16
ENDBRANCH  10  15
ENDBRANCH   8  10
ENDBRANCH   7   8
ENDBRANCH   6   7
ENDBRANCH   5   6
ENDBRANCH   4   5
ENDBRANCH   3   4
ENDBRANCH   2   3
ENDBRANCH   1   2
BRANCH   1  25
ATOM     25  C   UNL A   1      32.961  36.559  29.816  1.00  0.00     0.188 C 
BRANCH  25  26
ATOM     26  C   UNL A   1      33.853  35.310  29.993  1.00  0.00     0.188 C 
BRANCH  26  27
ATOM     27  O   UNL A   1      33.276  34.104  29.511  1.00  0.00    -0.376 OA
BRANCH  27  28
ATOM     28  C   UNL A   1      33.177  33.906  28.108  1.00  0.00     0.202 C 
BRANCH  28  29
ATOM     29  C   UNL A   1      33.833  32.652  27.504  1.00  0.00     0.261 C 
BRANCH  29  30
ATOM     30  O   UNL A   1      34.355  31.686  28.428  1.00  0.00    -0.460 OA
BRANCH  30  31
ATOM     31  C   UNL A   1      34.453  30.402  28.024  1.00  0.00     0.338 C 
ATOM     32  O   UNL A   1      33.616  29.759  27.414  1.00  0.00    -0.246 OA
BRANCH  31  33
ATOM     33  C   UNL A   1      35.845  29.968  28.270  1.00  0.00     0.060 A 
ATOM     34  C   UNL A   1      36.175  29.382  29.499  1.00  0.00     0.016 A 
ATOM     35  C   UNL A   1      36.815  30.126  27.278  1.00  0.00     0.016 A 
ATOM     36  C   UNL A   1      37.488  28.980  29.755  1.00  0.00     0.010 A 
ATOM     37  C   UNL A   1      38.132  29.746  27.543  1.00  0.00     0.010 A 
ATOM     38  C   UNL A   1      38.481  29.203  28.794  1.00  0.00    -0.014 A 
BRANCH  38  39
ATOM     39  C   UNL A   1      39.915  29.080  29.150  1.00  0.00     0.031 A 
ATOM     40  C   UNL A   1      40.614  27.790  28.819  1.00  0.00     0.074 A 
ATOM     41  C   UNL A   1      40.573  30.064  29.786  1.00  0.00     0.049 A 
ATOM     42  N   UNL A   1      41.810  27.385  29.151  1.00  0.00    -0.248 NA
ATOM     43  C   UNL A   1      39.848  26.823  28.015  1.00  0.00     0.031 C 
ATOM     44  C   UNL A   1      40.021  31.375  30.119  1.00  0.00     0.029 A 
ATOM     45  N   UNL A   1      41.850  30.095  30.292  1.00  0.00    -0.354 N 
ATOM     46  C   UNL A   1      41.931  26.104  28.625  1.00  0.00     0.074 A 
ATOM     47  C   UNL A   1      40.681  25.795  27.967  1.00  0.00     0.031 C 
ATOM     48  C   UNL A   1      40.943  32.071  30.807  1.00  0.00     0.029 A 
ATOM     49  C   UNL A   1      42.131  31.238  31.001  1.00  0.00     0.049 A 
ATOM     50  H   UNL A   1      42.499  29.366  30.161  1.00  0.00     0.167 HD
ATOM     51  C   UNL A   1      42.987  25.258  28.690  1.00  0.00     0.031 A 
ATOM     52  C   UNL A   1      43.202  31.558  31.756  1.00  0.00     0.031 A 
ATOM     53  C   UNL A   1      44.218  25.566  29.367  1.00  0.00     0.049 A 
ATOM     54  C   UNL A   1      44.341  30.577  31.878  1.00  0.00     0.074 A 
ATOM     55  C   UNL A   1      45.359  24.792  29.469  1.00  0.00     0.029 A 
ATOM     56  N   UNL A   1      44.461  26.735  30.074  1.00  0.00    -0.354 N 
ATOM     57  N   UNL A   1      44.461  29.384  31.347  1.00  0.00    -0.248 NA
ATOM     58  C   UNL A   1      45.492  30.987  32.697  1.00  0.00     0.031 C 
ATOM     59  C   UNL A   1      46.263  25.459  30.299  1.00  0.00     0.029 A 
ATOM     60  C   UNL A   1      45.720  26.686  30.646  1.00  0.00     0.049 A 
ATOM     61  H   UNL A   1      43.832  27.488  30.156  1.00  0.00     0.167 HD
ATOM     62  C   UNL A   1      45.711  28.913  31.740  1.00  0.00     0.074 A 
ATOM     63  C   UNL A   1      46.311  29.953  32.551  1.00  0.00     0.031 C 
ATOM     64  C   UNL A   1      46.309  27.731  31.448  1.00  0.00     0.031 A 
BRANCH  51  65
ATOM     65  C   UNL A   1      42.822  23.895  28.070  1.00  0.00    -0.014 A 
ATOM     66  C   UNL A   1      43.209  23.636  26.742  1.00  0.00     0.010 A 
ATOM     67  C   UNL A   1      42.270  22.852  28.836  1.00  0.00     0.010 A 
ATOM     68  C   UNL A   1      42.992  22.377  26.175  1.00  0.00     0.020 A 
ATOM     69  C   UNL A   1      42.085  21.583  28.284  1.00  0.00     0.020 A 
ATOM     70  C   UNL A   1      42.425  21.360  26.949  1.00  0.00     0.054 A 
BRANCH  70  71
ATOM     71  S   UNL A   1      42.145  19.739  26.186  1.00  0.00     0.124 S 
ATOM     72  O   UNL A   1      42.601  18.831  27.236  1.00  0.00    -0.237 OA
ATOM     73  O   UNL A   1      40.706  19.745  25.943  1.00  0.00    -0.237 OA
ATOM     74  O   UNL A   1      42.978  19.770  24.987  1.00  0.00    -0.744 OA
ENDBRANCH  70  71
ENDBRANCH  51  65
BRANCH  52  75
ATOM     75  C   UNL A   1      43.222  32.856  32.486  1.00  0.00    -0.014 A 
ATOM     76  C   UNL A   1      42.879  32.924  33.848  1.00  0.00     0.010 A 
ATOM     77  C   UNL A   1      43.624  34.032  31.825  1.00  0.00     0.010 A 
ATOM     78  C   UNL A   1      42.940  34.141  34.533  1.00  0.00     0.020 A 
ATOM     79  C   UNL A   1      43.714  35.245  32.513  1.00  0.00     0.020 A 
ATOM     80  C   UNL A   1      43.368  35.293  33.864  1.00  0.00     0.054 A 
BRANCH  80  81
ATOM     81  S   UNL A   1      43.518  36.840  34.800  1.00  0.00     0.124 S 
ATOM     82  O   UNL A   1      43.799  37.808  33.743  1.00  0.00    -0.237 OA
ATOM     83  O   UNL A   1      42.203  36.952  35.428  1.00  0.00    -0.237 OA
ATOM     84  O   UNL A   1      44.622  36.578  35.720  1.00  0.00    -0.744 OA
ENDBRANCH  80  81
ENDBRANCH  52  75
BRANCH  64  85
ATOM     85  C   UNL A   1      47.707  27.496  31.961  1.00  0.00    -0.014 A 
ATOM     86  C   UNL A   1      47.945  26.831  33.176  1.00  0.00     0.010 A 
ATOM     87  C   UNL A   1      48.803  27.849  31.150  1.00  0.00     0.010 A 
ATOM     88  C   UNL A   1      49.251  26.531  33.574  1.00  0.00     0.020 A 
ATOM     89  C   UNL A   1      50.107  27.525  31.529  1.00  0.00     0.020 A 
ATOM     90  C   UNL A   1      50.324  26.870  32.742  1.00  0.00     0.054 A 
BRANCH  90  91
ATOM     91  S   UNL A   1      52.002  26.390  33.240  1.00  0.00     0.124 S 
ATOM     92  O   UNL A   1      52.674  26.250  31.950  1.00  0.00    -0.237 OA
ATOM     93  O   UNL A   1      52.430  27.524  34.053  1.00  0.00    -0.237 OA
ATOM     94  O   UNL A   1      51.803  25.142  33.975  1.00  0.00    -0.744 OA
ENDBRANCH  90  91
ENDBRANCH  64  85
ENDBRANCH  38  39
ENDBRANCH  31  33
ENDBRANCH  30  31
ENDBRANCH  29  30
ENDBRANCH  28  29
ENDBRANCH  27  28
ENDBRANCH  26  27
ENDBRANCH  25  26
ENDBRANCH   1  25
TORSDOF 27
ENDMDL
MODEL 2
REMARK VINA RESULT:      -7.6      5.228      8.572
REMARK SMILES [NH3+][C@H](Cc1ccc(O)c(F)c1)C(=O)OCCOCCOCCOCCOC(=O)c1ccc(-c2c3nc(c(-c4ccc(S(=O)(=O)[O-])cc4)c4ccc([nH]4)c(-c4ccc(S(=O)(=O)[O-])cc4)c4nc(c(-c5ccc(S(=O)(=O)[O-])cc5)c5ccc2[nH]5)C=C4)C=C3)cc1
REMARK SMILES IDX 20 1 19 2 18 3 17 4 16 5 15 6 14 7 12 8 13 9 2 10 1 11 3 15
REMARK SMILES IDX 4 16 5 17 11 18 6 19 9 20 7 21 10 22 8 23 21 25 22 26 23 27
REMARK SMILES IDX 24 28 25 29 26 30 27 31 28 32 29 33 30 34 88 35 31 36 87 37
REMARK SMILES IDX 32 38 33 39 34 40 81 41 35 42 86 43 80 44 82 45 36 46 85 47
REMARK SMILES IDX 79 48 78 49 37 51 67 52 48 53 66 54 49 55 52 56 65 57 83 58
REMARK SMILES IDX 50 59 51 60 64 62 84 63 53 64 38 65 39 66 47 67 40 68 46 69
REMARK SMILES IDX 41 70 42 71 43 72 44 73 45 74 68 75 69 76 77 77 70 78 76 79
REMARK SMILES IDX 71 80 72 81 73 82 74 83 75 84 54 85 55 86 63 87 56 88 62 89
REMARK SMILES IDX 57 90 58 91 59 92 60 93 61 94
REMARK H PARENT 1 12 1 13 1 14 8 24 82 50 52 61
REMARK Flexibility Score: inf
ROOT
ATOM      1  O   UNL A   1      32.886  28.654  24.004  1.00  0.00    -0.377 OA
ENDROOT
BRANCH   1   2
ATOM      2  C   UNL A   1      31.557  28.206  23.849  1.00  0.00     0.188 C 
BRANCH   2   3
ATOM      3  C   UNL A   1      31.316  27.379  22.578  1.00  0.00     0.188 C 
BRANCH   3   4
ATOM      4  O   UNL A   1      31.734  26.026  22.486  1.00  0.00    -0.376 OA
BRANCH   4   5
ATOM      5  C   UNL A   1      32.530  25.406  23.488  1.00  0.00     0.202 C 
BRANCH   5   6
ATOM      6  C   UNL A   1      34.044  25.157  23.356  1.00  0.00     0.261 C 
BRANCH   6   7
ATOM      7  O   UNL A   1      34.431  23.878  22.849  1.00  0.00    -0.459 OA
BRANCH   7   8
ATOM      8  C   UNL A   1      35.513  23.305  23.427  1.00  0.00     0.365 C 
ATOM      9  O   UNL A   1      36.413  22.757  22.797  1.00  0.00    -0.245 OA
BRANCH   8  10
ATOM     10  C   UNL A   1      35.552  23.515  24.962  1.00  0.00     0.296 C 
BRANCH  10  11
ATOM     11  N   UNL A   1      36.911  23.967  25.346  1.00  0.00    -0.346 N 
ATOM     12  H   UNL A   1      36.915  24.982  25.450  1.00  0.00     0.345 HD
ATOM     13  H   UNL A   1      37.576  23.698  24.621  1.00  0.00     0.345 HD
ATOM     14  H   UNL A   1      37.178  23.534  26.229  1.00  0.00     0.345 HD
ENDBRANCH  10  11
BRANCH  10  15
ATOM     15  C   UNL A   1      34.961  22.378  25.849  1.00  0.00     0.113 C 
BRANCH  15  16
ATOM     16  C   UNL A   1      34.269  21.266  25.109  1.00  0.00    -0.038 A 
ATOM     17  C   UNL A   1      32.943  21.420  24.670  1.00  0.00     0.008 A 
ATOM     18  C   UNL A   1      34.920  20.041  24.942  1.00  0.00     0.047 A 
ATOM     19  C   UNL A   1      32.246  20.332  24.149  1.00  0.00     0.049 A 
ATOM     20  C   UNL A   1      34.219  18.960  24.426  1.00  0.00     0.165 A 
ATOM     21  C   UNL A   1      32.883  19.096  24.056  1.00  0.00     0.151 A 
ATOM     22  F   UNL A   1      34.835  17.775  24.336  1.00  0.00    -0.203 F 
BRANCH  21  23
ATOM     23  O   UNL A   1      32.199  17.996  23.627  1.00  0.00    -0.505 OA
ATOM     24  H   UNL A   1      31.760  18.010  22.799  1.00  0.00     0.293 HD
ENDBRANCH  21  23
ENDBRANCH  15  16
ENDBRANCH  10  15
ENDBRANCH   8  10
ENDBRANCH   7   8
ENDBRANCH   6   7
ENDBRANCH   5   6
ENDBRANCH   4   5
ENDBRANCH   3   4
ENDBRANCH   2   3
ENDBRANCH   1   2
BRANCH   1  25
ATOM     25  C   UNL A   1      33.401  28.689  25.330  1.00  0.00     0.188 C 
BRANCH  25  26
ATOM     26  C   UNL A   1      32.433  28.434  26.506  1.00  0.00     0.188 C 
BRANCH  26  27
ATOM     27  O   UNL A   1      32.132  29.590  27.278  1.00  0.00    -0.376 OA
BRANCH  27  28
ATOM     28  C   UNL A   1      32.551  30.860  26.800  1.00  0.00     0.202 C 
BRANCH  28  29
ATOM     29  C   UNL A   1      33.508  31.686  27.676  1.00  0.00     0.261 C 
BRANCH  29  30
ATOM     30  O   UNL A   1      33.622  33.083  27.371  1.00  0.00    -0.460 OA
BRANCH  30  31
ATOM     31  C   UNL A   1      33.525  33.970  28.384  1.00  0.00     0.338 C 
ATOM     32  O   UNL A   1      32.582  34.703  28.629  1.00  0.00    -0.246 OA
BRANCH  31  33
ATOM     33  C   UNL A   1      34.685  33.751  29.274  1.00  0.00     0.060 A 
ATOM     34  C   UNL A   1      35.960  34.151  28.851  1.00  0.00     0.016 A 
ATOM     35  C   UNL A   1      34.507  33.168  30.530  1.00  0.00     0.016 A 
ATOM     36  C   UNL A   1      37.070  33.938  29.672  1.00  0.00     0.010 A 
ATOM     37  C   UNL A   1      35.619  32.934  31.339  1.00  0.00     0.010 A 
ATOM     38  C   UNL A   1      36.910  33.287  30.901  1.00  0.00    -0.014 A 
BRANCH  38  39
ATOM     39  C   UNL A   1      38.087  32.772  31.641  1.00  0.00     0.031 A 
ATOM     40  C   UNL A   1      38.801  31.574  31.081  1.00  0.00     0.074 A 
ATOM     41  C   UNL A   1      38.489  33.322  32.800  1.00  0.00     0.049 A 
ATOM     42  N   UNL A   1      39.755  30.855  31.609  1.00  0.00    -0.248 NA
ATOM     43  C   UNL A   1      38.365  31.119  29.751  1.00  0.00     0.031 C 
ATOM     44  C   UNL A   1      37.909  34.512  33.420  1.00  0.00     0.029 A 
ATOM     45  N   UNL A   1      39.469  32.926  33.676  1.00  0.00    -0.354 N 
ATOM     46  C   UNL A   1      40.014  29.845  30.689  1.00  0.00     0.074 A 
ATOM     47  C   UNL A   1      39.104  30.034  29.581  1.00  0.00     0.031 C 
ATOM     48  C   UNL A   1      38.523  34.728  34.596  1.00  0.00     0.029 A 
ATOM     49  C   UNL A   1      39.504  33.668  34.832  1.00  0.00     0.049 A 
ATOM     50  H   UNL A   1      40.087  32.180  33.494  1.00  0.00     0.167 HD
ATOM     51  C   UNL A   1      40.924  28.844  30.766  1.00  0.00     0.031 A 
ATOM     52  C   UNL A   1      40.212  33.489  35.966  1.00  0.00     0.031 A 
ATOM     53  C   UNL A   1      41.808  28.650  31.882  1.00  0.00     0.049 A 
ATOM     54  C   UNL A   1      41.170  32.328  36.065  1.00  0.00     0.074 A 
ATOM     55  C   UNL A   1      42.785  27.685  32.047  1.00  0.00     0.029 A 
ATOM     56  N   UNL A   1      41.810  29.424  33.034  1.00  0.00    -0.354 N 
ATOM     57  N   UNL A   1      41.434  31.400  35.176  1.00  0.00    -0.248 NA
ATOM     58  C   UNL A   1      41.930  32.193  37.317  1.00  0.00     0.031 C 
ATOM     59  C   UNL A   1      43.325  27.829  33.327  1.00  0.00     0.029 A 
ATOM     60  C   UNL A   1      42.745  28.935  33.930  1.00  0.00     0.049 A 
ATOM     61  H   UNL A   1      41.232  30.205  33.191  1.00  0.00     0.167 HD
ATOM     62  C   UNL A   1      42.411  30.590  35.747  1.00  0.00     0.074 A 
ATOM     63  C   UNL A   1      42.695  31.140  37.057  1.00  0.00     0.031 C 
ATOM     64  C   UNL A   1      43.023  29.495  35.230  1.00  0.00     0.031 A 
BRANCH  51  65
ATOM     65  C   UNL A   1      40.952  27.846  29.637  1.00  0.00    -0.014 A 
ATOM     66  C   UNL A   1      39.988  26.828  29.525  1.00  0.00     0.010 A 
ATOM     67  C   UNL A   1      41.967  27.935  28.665  1.00  0.00     0.010 A 
ATOM     68  C   UNL A   1      40.073  25.882  28.499  1.00  0.00     0.020 A 
ATOM     69  C   UNL A   1      42.034  27.015  27.617  1.00  0.00     0.020 A 
ATOM     70  C   UNL A   1      41.100  25.979  27.555  1.00  0.00     0.054 A 
BRANCH  70  71
ATOM     71  S   UNL A   1      41.193  24.734  26.240  1.00  0.00     0.124 S 
ATOM     72  O   UNL A   1      39.825  24.222  26.215  1.00  0.00    -0.237 OA
ATOM     73  O   UNL A   1      41.588  25.525  25.079  1.00  0.00    -0.237 OA
ATOM     74  O   UNL A   1      42.199  23.792  26.722  1.00  0.00    -0.744 OA
ENDBRANCH  70  71
ENDBRANCH  51  65
BRANCH  52  75
ATOM     75  C   UNL A   1      40.005  34.416  37.113  1.00  0.00    -0.014 A 
ATOM     76  C   UNL A   1      40.547  35.712  37.102  1.00  0.00     0.010 A 
ATOM     77  C   UNL A   1      39.225  34.012  38.215  1.00  0.00     0.010 A 
ATOM     78  C   UNL A   1      40.312  36.588  38.167  1.00  0.00     0.020 A 
ATOM     79  C   UNL A   1      38.964  34.893  39.267  1.00  0.00     0.020 A 
ATOM     80  C   UNL A   1      39.512  36.176  39.239  1.00  0.00     0.054 A 
BRANCH  80  81
ATOM     81  S   UNL A   1      39.155  37.361  40.565  1.00  0.00     0.124 S 
ATOM     82  O   UNL A   1      38.230  38.281  39.909  1.00  0.00    -0.237 OA
ATOM     83  O   UNL A   1      38.572  36.507  41.597  1.00  0.00    -0.237 OA
ATOM     84  O   UNL A   1      40.466  37.917  40.891  1.00  0.00    -0.744 OA
ENDBRANCH  80  81
ENDBRANCH  52  75
BRANCH  64  85
ATOM     85  C   UNL A   1      44.101  28.829  36.047  1.00  0.00    -0.014 A 
ATOM     86  C   UNL A   1      43.835  27.697  36.836  1.00  0.00     0.010 A 
ATOM     87  C   UNL A   1      45.429  29.283  35.929  1.00  0.00     0.010 A 
ATOM     88  C   UNL A   1      44.875  27.036  37.496  1.00  0.00     0.020 A 
ATOM     89  C   UNL A   1      46.474  28.609  36.563  1.00  0.00     0.020 A 
ATOM     90  C   UNL A   1      46.190  27.490  37.347  1.00  0.00     0.054 A 
BRANCH  90  91
ATOM     91  S   UNL A   1      47.531  26.562  38.143  1.00  0.00     0.124 S 
ATOM     92  O   UNL A   1      48.305  26.099  36.994  1.00  0.00    -0.237 OA
ATOM     93  O   UNL A   1      48.176  27.578  38.969  1.00  0.00    -0.237 OA
ATOM     94  O   UNL A   1      46.835  25.513  38.886  1.00  0.00    -0.744 OA
ENDBRANCH  90  91
ENDBRANCH  64  85
ENDBRANCH  38  39
ENDBRANCH  31  33
ENDBRANCH  30  31
ENDBRANCH  29  30
ENDBRANCH  28  29
ENDBRANCH  27  28
ENDBRANCH  26  27
ENDBRANCH  25  26
ENDBRANCH   1  25
TORSDOF 27
ENDMDL
MODEL 3
REMARK VINA RESULT:      -7.3      4.930      7.452
REMARK SMILES [NH3+][C@H](Cc1ccc(O)c(F)c1)C(=O)OCCOCCOCCOCCOC(=O)c1ccc(-c2c3nc(c(-c4ccc(S(=O)(=O)[O-])cc4)c4ccc([nH]4)c(-c4ccc(S(=O)(=O)[O-])cc4)c4nc(c(-c5ccc(S(=O)(=O)[O-])cc5)c5ccc2[nH]5)C=C4)C=C3)cc1
REMARK SMILES IDX 20 1 19 2 18 3 17 4 16 5 15 6 14 7 12 8 13 9 2 10 1 11 3 15
REMARK SMILES IDX 4 16 5 17 11 18 6 19 9 20 7 21 10 22 8 23 21 25 22 26 23 27
REMARK SMILES IDX 24 28 25 29 26 30 27 31 28 32 29 33 30 34 88 35 31 36 87 37
REMARK SMILES IDX 32 38 33 39 34 40 81 41 35 42 86 43 80 44 82 45 36 46 85 47
REMARK SMILES IDX 79 48 78 49 37 51 67 52 48 53 66 54 49 55 52 56 65 57 83 58
REMARK SMILES IDX 50 59 51 60 64 62 84 63 53 64 38 65 39 66 47 67 40 68 46 69
REMARK SMILES IDX 41 70 42 71 43 72 44 73 45 74 68 75 69 76 77 77 70 78 76 79
REMARK SMILES IDX 71 80 72 81 73 82 74 83 75 84 54 85 55 86 63 87 56 88 62 89
REMARK SMILES IDX 57 90 58 91 59 92 60 93 61 94
REMARK H PARENT 1 12 1 13 1 14 8 24 82 50 52 61
REMARK Flexibility Score: inf
ROOT
ATOM      1  O   UNL A   1      34.024  30.582  27.055  1.00  0.00    -0.377 OA
ENDROOT
BRANCH   1   2
ATOM      2  C   UNL A   1      33.485  29.720  26.076  1.00  0.00     0.188 C 
BRANCH   2   3
ATOM      3  C   UNL A   1      32.029  30.026  25.700  1.00  0.00     0.188 C 
BRANCH   3   4
ATOM      4  O   UNL A   1      31.224  29.073  25.025  1.00  0.00    -0.376 OA
BRANCH   4   5
ATOM      5  C   UNL A   1      30.936  29.167  23.636  1.00  0.00     0.202 C 
BRANCH   5   6
ATOM      6  C   UNL A   1      31.197  28.037  22.623  1.00  0.00     0.261 C 
BRANCH   6   7
ATOM      7  O   UNL A   1      31.934  26.913  23.106  1.00  0.00    -0.459 OA
BRANCH   7   8
ATOM      8  C   UNL A   1      33.158  26.718  22.562  1.00  0.00     0.365 C 
ATOM      9  O   UNL A   1      33.753  27.563  21.899  1.00  0.00    -0.245 OA
BRANCH   8  10
ATOM     10  C   UNL A   1      33.779  25.355  22.961  1.00  0.00     0.296 C 
BRANCH  10  11
ATOM     11  N   UNL A   1      32.857  24.271  22.545  1.00  0.00    -0.346 N 
ATOM     12  H   UNL A   1      32.709  23.632  23.326  1.00  0.00     0.345 HD
ATOM     13  H   UNL A   1      33.264  23.761  21.761  1.00  0.00     0.345 HD
ATOM     14  H   UNL A   1      31.964  24.674  22.260  1.00  0.00     0.345 HD
ENDBRANCH  10  11
BRANCH  10  15
ATOM     15  C   UNL A   1      34.335  25.226  24.411  1.00  0.00     0.113 C 
BRANCH  15  16
ATOM     16  C   UNL A   1      35.066  23.948  24.719  1.00  0.00    -0.038 A 
ATOM     17  C   UNL A   1      36.031  23.447  23.829  1.00  0.00     0.008 A 
ATOM     18  C   UNL A   1      34.713  23.209  25.852  1.00  0.00     0.047 A 
ATOM     19  C   UNL A   1      36.573  22.178  24.025  1.00  0.00     0.049 A 
ATOM     20  C   UNL A   1      35.254  21.945  26.039  1.00  0.00     0.165 A 
ATOM     21  C   UNL A   1      36.157  21.420  25.118  1.00  0.00     0.151 A 
ATOM     22  F   UNL A   1      34.855  21.221  27.092  1.00  0.00    -0.203 F 
BRANCH  21  23
ATOM     23  O   UNL A   1      36.610  20.144  25.286  1.00  0.00    -0.505 OA
ATOM     24  H   UNL A   1      36.230  19.443  24.793  1.00  0.00     0.293 HD
ENDBRANCH  21  23
ENDBRANCH  15  16
ENDBRANCH  10  15
ENDBRANCH   8  10
ENDBRANCH   7   8
ENDBRANCH   6   7
ENDBRANCH   5   6
ENDBRANCH   4   5
ENDBRANCH   3   4
ENDBRANCH   2   3
ENDBRANCH   1   2
BRANCH   1  25
ATOM     25  C   UNL A   1      33.182  31.629  27.522  1.00  0.00     0.188 C 
BRANCH  25  26
ATOM     26  C   UNL A   1      33.832  32.960  27.961  1.00  0.00     0.188 C 
BRANCH  26  27
ATOM     27  O   UNL A   1      35.252  32.923  28.031  1.00  0.00    -0.376 OA
BRANCH  27  28
ATOM     28  C   UNL A   1      35.872  32.858  29.307  1.00  0.00     0.202 C 
BRANCH  28  29
ATOM     29  C   UNL A   1      35.498  31.689  30.235  1.00  0.00     0.261 C 
BRANCH  29  30
ATOM     30  O   UNL A   1      36.233  30.468  30.067  1.00  0.00    -0.460 OA
BRANCH  30  31
ATOM     31  C   UNL A   1      37.051  30.070  31.064  1.00  0.00     0.338 C 
ATOM     32  O   UNL A   1      36.722  29.667  32.166  1.00  0.00    -0.246 OA
BRANCH  31  33
ATOM     33  C   UNL A   1      38.422  30.010  30.512  1.00  0.00     0.060 A 
ATOM     34  C   UNL A   1      38.661  30.487  29.216  1.00  0.00     0.016 A 
ATOM     35  C   UNL A   1      39.467  29.500  31.283  1.00  0.00     0.016 A 
ATOM     36  C   UNL A   1      39.946  30.424  28.673  1.00  0.00     0.010 A 
ATOM     37  C   UNL A   1      40.746  29.416  30.731  1.00  0.00     0.010 A 
ATOM     38  C   UNL A   1      40.985  29.846  29.412  1.00  0.00    -0.014 A 
BRANCH  38  39
ATOM     39  C   UNL A   1      42.265  29.484  28.757  1.00  0.00     0.031 A 
ATOM     40  C   UNL A   1      42.428  28.073  28.263  1.00  0.00     0.074 A 
ATOM     41  C   UNL A   1      43.273  30.364  28.640  1.00  0.00     0.049 A 
ATOM     42  N   UNL A   1      43.489  27.476  27.792  1.00  0.00    -0.248 NA
ATOM     43  C   UNL A   1      41.229  27.220  28.324  1.00  0.00     0.031 C 
ATOM     44  C   UNL A   1      43.222  31.769  29.038  1.00  0.00     0.029 A 
ATOM     45  N   UNL A   1      44.554  30.189  28.176  1.00  0.00    -0.354 N 
ATOM     46  C   UNL A   1      43.098  26.168  27.529  1.00  0.00     0.074 A 
ATOM     47  C   UNL A   1      41.706  26.056  27.909  1.00  0.00     0.031 C 
ATOM     48  C   UNL A   1      44.430  32.322  28.832  1.00  0.00     0.029 A 
ATOM     49  C   UNL A   1      45.350  31.298  28.333  1.00  0.00     0.049 A 
ATOM     50  H   UNL A   1      44.871  29.350  27.770  1.00  0.00     0.167 HD
ATOM     51  C   UNL A   1      43.833  25.150  27.023  1.00  0.00     0.031 A 
ATOM     52  C   UNL A   1      46.676  31.458  28.140  1.00  0.00     0.031 A 
ATOM     53  C   UNL A   1      45.222  25.264  26.669  1.00  0.00     0.049 A 
ATOM     54  C   UNL A   1      47.497  30.295  27.643  1.00  0.00     0.074 A 
ATOM     55  C   UNL A   1      46.052  24.303  26.124  1.00  0.00     0.029 A 
ATOM     56  N   UNL A   1      45.991  26.405  26.846  1.00  0.00    -0.354 N 
ATOM     57  N   UNL A   1      47.110  29.074  27.363  1.00  0.00    -0.248 NA
ATOM     58  C   UNL A   1      48.933  30.532  27.431  1.00  0.00     0.031 C 
ATOM     59  C   UNL A   1      47.340  24.837  26.039  1.00  0.00     0.029 A 
ATOM     60  C   UNL A   1      47.296  26.159  26.455  1.00  0.00     0.049 A 
ATOM     61  H   UNL A   1      45.659  27.263  27.197  1.00  0.00     0.167 HD
ATOM     62  C   UNL A   1      48.245  28.406  26.912  1.00  0.00     0.074 A 
ATOM     63  C   UNL A   1      49.333  29.361  26.954  1.00  0.00     0.031 C 
ATOM     64  C   UNL A   1      48.371  27.121  26.495  1.00  0.00     0.031 A 
BRANCH  51  65
ATOM     65  C   UNL A   1      43.160  23.808  26.890  1.00  0.00    -0.014 A 
ATOM     66  C   UNL A   1      42.627  23.367  25.665  1.00  0.00     0.010 A 
ATOM     67  C   UNL A   1      43.062  22.972  28.017  1.00  0.00     0.010 A 
ATOM     68  C   UNL A   1      41.958  22.143  25.585  1.00  0.00     0.020 A 
ATOM     69  C   UNL A   1      42.426  21.732  27.933  1.00  0.00     0.020 A 
ATOM     70  C   UNL A   1      41.856  21.335  26.722  1.00  0.00     0.054 A 
BRANCH  70  71
ATOM     71  S   UNL A   1      40.975  19.756  26.593  1.00  0.00     0.124 S 
ATOM     72  O   UNL A   1      40.928  19.324  27.988  1.00  0.00    -0.237 OA
ATOM     73  O   UNL A   1      39.694  20.152  26.015  1.00  0.00    -0.237 OA
ATOM     74  O   UNL A   1      41.827  18.952  25.722  1.00  0.00    -0.744 OA
ENDBRANCH  70  71
ENDBRANCH  51  65
BRANCH  52  75
ATOM     75  C   UNL A   1      47.310  32.768  28.459  1.00  0.00    -0.014 A 
ATOM     76  C   UNL A   1      47.400  33.782  27.491  1.00  0.00     0.010 A 
ATOM     77  C   UNL A   1      47.796  33.019  29.757  1.00  0.00     0.010 A 
ATOM     78  C   UNL A   1      47.962  35.022  27.813  1.00  0.00     0.020 A 
ATOM     79  C   UNL A   1      48.330  34.266  30.092  1.00  0.00     0.020 A 
ATOM     80  C   UNL A   1      48.413  35.259  29.116  1.00  0.00     0.054 A 
BRANCH  80  81
ATOM     81  S   UNL A   1      49.059  36.904  29.528  1.00  0.00     0.124 S 
ATOM     82  O   UNL A   1      48.968  36.910  30.985  1.00  0.00    -0.237 OA
ATOM     83  O   UNL A   1      50.412  36.854  28.978  1.00  0.00    -0.237 OA
ATOM     84  O   UNL A   1      48.146  37.813  28.840  1.00  0.00    -0.744 OA
ENDBRANCH  80  81
ENDBRANCH  52  75
BRANCH  64  85
ATOM     85  C   UNL A   1      49.719  26.663  25.999  1.00  0.00    -0.014 A 
ATOM     86  C   UNL A   1      50.306  27.213  24.846  1.00  0.00     0.010 A 
ATOM     87  C   UNL A   1      50.457  25.745  26.770  1.00  0.00     0.010 A 
ATOM     88  C   UNL A   1      51.602  26.847  24.470  1.00  0.00     0.020 A 
ATOM     89  C   UNL A   1      51.763  25.400  26.415  1.00  0.00     0.020 A 
ATOM     90  C   UNL A   1      52.327  25.951  25.263  1.00  0.00     0.054 A 
BRANCH  90  91
ATOM     91  S   UNL A   1      54.039  25.562  24.803  1.00  0.00     0.124 S 
ATOM     92  O   UNL A   1      54.799  26.261  25.835  1.00  0.00    -0.237 OA
ATOM     93  O   UNL A   1      54.066  24.104  24.879  1.00  0.00    -0.237 OA
ATOM     94  O   UNL A   1      54.169  26.112  23.455  1.00  0.00    -0.744 OA
ENDBRANCH  90  91
ENDBRANCH  64  85
ENDBRANCH  38  39
ENDBRANCH  31  33
ENDBRANCH  30  31
ENDBRANCH  29  30
ENDBRANCH  28  29
ENDBRANCH  27  28
ENDBRANCH  26  27
ENDBRANCH  25  26
ENDBRANCH   1  25
TORSDOF 27
ENDMDL
