MODEL 1
REMARK VINA RESULT:      -9.5      0.000      0.000
REMARK SMILES N#Cc1ccccc1Cn1cccc1C(=O)OCCOCCOCCOCCOC(=O)c1ccc(-c2c3nc(c(-c4ccc(S(=O)(=O)[O-])cc4)c4ccc([nH]4)c(-c4ccc(S(=O)(=O)[O-])cc4)c4nc(c(-c5ccc(S(=O)(=O)[O-])cc5)c5ccc2[nH]5)C=C4)C=C3)cc1
REMARK SMILES IDX 23 1 22 2 21 3 20 4 19 5 18 6 17 7 15 8 16 9 14 10 10 11
REMARK SMILES IDX 11 12 12 13 13 14 9 15 8 16 3 17 4 18 5 19 7 20 6 21 2 22
REMARK SMILES IDX 1 23 24 24 25 25 26 26 27 27 28 28 29 29 30 30 31 31 32 32
REMARK SMILES IDX 33 33 91 34 34 35 90 36 35 37 36 38 37 39 84 40 38 41 89 42
REMARK SMILES IDX 83 43 85 44 39 45 88 46 82 47 81 48 40 50 70 51 51 52 69 53
REMARK SMILES IDX 52 54 55 55 68 56 86 57 53 58 54 59 67 61 87 62 56 63 41 64
REMARK SMILES IDX 42 65 50 66 43 67 49 68 44 69 45 70 46 71 47 72 48 73 71 74
REMARK SMILES IDX 72 75 80 76 73 77 79 78 74 79 75 80 76 81 77 82 78 83 57 84
REMARK SMILES IDX 58 85 66 86 59 87 65 88 60 89 61 90 62 91 63 92 64 93
REMARK H PARENT 85 49 55 60
REMARK Flexibility Score: inf
ROOT
ATOM      1  O   UNL A   1      35.049  21.252  26.113  1.00  0.00    -0.377 OA
ENDROOT
BRANCH   1   2
ATOM      2  C   UNL A   1      34.736  22.395  26.892  1.00  0.00     0.188 C 
BRANCH   2   3
ATOM      3  C   UNL A   1      33.367  23.110  26.833  1.00  0.00     0.188 C 
BRANCH   3   4
ATOM      4  O   UNL A   1      33.372  24.393  26.254  1.00  0.00    -0.376 OA
BRANCH   4   5
ATOM      5  C   UNL A   1      34.437  24.912  25.491  1.00  0.00     0.202 C 
BRANCH   5   6
ATOM      6  C   UNL A   1      34.241  25.920  24.348  1.00  0.00     0.261 C 
BRANCH   6   7
ATOM      7  O   UNL A   1      34.435  25.432  23.020  1.00  0.00    -0.459 OA
BRANCH   7   8
ATOM      8  C   UNL A   1      33.357  25.502  22.203  1.00  0.00     0.355 C 
ATOM      9  O   UNL A   1      33.352  26.059  21.113  1.00  0.00    -0.244 OA
BRANCH   8  10
ATOM     10  C   UNL A   1      32.294  24.644  22.693  1.00  0.00     0.127 A 
ATOM     11  N   UNL A   1      30.975  24.935  23.041  1.00  0.00    -0.338 N 
ATOM     12  C   UNL A   1      30.326  23.732  23.245  1.00  0.00     0.087 A 
ATOM     13  C   UNL A   1      31.257  22.732  23.356  1.00  0.00     0.020 A 
ATOM     14  C   UNL A   1      32.485  23.294  22.981  1.00  0.00     0.035 A 
BRANCH  11  15
ATOM     15  C   UNL A   1      30.293  26.249  23.059  1.00  0.00     0.159 C 
BRANCH  15  16
ATOM     16  C   UNL A   1      30.759  27.198  24.167  1.00  0.00    -0.010 A 
ATOM     17  C   UNL A   1      30.902  28.591  23.980  1.00  0.00     0.057 A 
ATOM     18  C   UNL A   1      31.398  29.408  25.016  1.00  0.00     0.020 A 
ATOM     19  C   UNL A   1      31.712  28.870  26.262  1.00  0.00     0.001 A 
ATOM     20  C   UNL A   1      31.001  26.707  25.467  1.00  0.00     0.007 A 
ATOM     21  C   UNL A   1      31.490  27.520  26.492  1.00  0.00     0.000 A 
BRANCH  17  22
ATOM     22  C   UNL A   1      30.460  29.249  22.774  1.00  0.00     0.099 C 
ATOM     23  N   UNL A   1      30.154  29.814  21.820  1.00  0.00    -0.192 NA
ENDBRANCH  17  22
ENDBRANCH  15  16
ENDBRANCH  11  15
ENDBRANCH   8  10
ENDBRANCH   7   8
ENDBRANCH   6   7
ENDBRANCH   5   6
ENDBRANCH   4   5
ENDBRANCH   3   4
ENDBRANCH   2   3
ENDBRANCH   1   2
BRANCH   1  24
ATOM     24  C   UNL A   1      35.280  21.397  24.728  1.00  0.00     0.188 C 
BRANCH  24  25
ATOM     25  C   UNL A   1      36.677  21.924  24.364  1.00  0.00     0.188 C 
BRANCH  25  26
ATOM     26  O   UNL A   1      37.826  21.190  24.749  1.00  0.00    -0.376 OA
BRANCH  26  27
ATOM     27  C   UNL A   1      38.699  21.518  25.818  1.00  0.00     0.202 C 
BRANCH  27  28
ATOM     28  C   UNL A   1      39.905  20.715  26.315  1.00  0.00     0.261 C 
BRANCH  28  29
ATOM     29  O   UNL A   1      40.918  20.430  25.381  1.00  0.00    -0.460 OA
BRANCH  29  30
ATOM     30  C   UNL A   1      41.865  19.638  25.898  1.00  0.00     0.338 C 
ATOM     31  O   UNL A   1      41.802  18.441  26.125  1.00  0.00    -0.246 OA
BRANCH  30  32
ATOM     32  C   UNL A   1      42.979  20.484  26.312  1.00  0.00     0.060 A 
ATOM     33  C   UNL A   1      42.832  20.976  27.606  1.00  0.00     0.016 A 
ATOM     34  C   UNL A   1      43.485  21.250  25.254  1.00  0.00     0.016 A 
ATOM     35  C   UNL A   1      42.860  22.339  27.762  1.00  0.00     0.010 A 
ATOM     36  C   UNL A   1      43.453  22.615  25.389  1.00  0.00     0.010 A 
ATOM     37  C   UNL A   1      43.102  23.150  26.637  1.00  0.00    -0.014 A 
BRANCH  37  38
ATOM     38  C   UNL A   1      43.434  24.549  26.907  1.00  0.00     0.031 A 
ATOM     39  C   UNL A   1      42.036  25.275  26.975  1.00  0.00     0.074 A 
ATOM     40  C   UNL A   1      44.780  24.882  26.952  1.00  0.00     0.049 A 
ATOM     41  N   UNL A   1      41.741  26.489  26.660  1.00  0.00    -0.248 NA
ATOM     42  C   UNL A   1      40.748  24.545  27.294  1.00  0.00     0.031 C 
ATOM     43  C   UNL A   1      45.925  23.926  26.892  1.00  0.00     0.029 A 
ATOM     44  N   UNL A   1      45.493  26.065  27.088  1.00  0.00    -0.354 N 
ATOM     45  C   UNL A   1      40.421  26.747  27.093  1.00  0.00     0.074 A 
ATOM     46  C   UNL A   1      39.797  25.485  27.282  1.00  0.00     0.031 C 
ATOM     47  C   UNL A   1      47.128  24.567  26.856  1.00  0.00     0.029 A 
ATOM     48  C   UNL A   1      46.930  26.005  26.938  1.00  0.00     0.049 A 
ATOM     49  H   UNL A   1      45.036  26.916  27.279  1.00  0.00     0.167 HD
ATOM     50  C   UNL A   1      40.044  27.993  27.499  1.00  0.00     0.031 A 
ATOM     51  C   UNL A   1      47.835  27.058  26.876  1.00  0.00     0.031 A 
ATOM     52  C   UNL A   1      41.161  28.866  27.337  1.00  0.00     0.049 A 
ATOM     53  C   UNL A   1      47.026  28.191  27.345  1.00  0.00     0.074 A 
ATOM     54  C   UNL A   1      41.847  29.230  26.203  1.00  0.00     0.029 A 
ATOM     55  N   UNL A   1      41.982  28.965  28.441  1.00  0.00    -0.354 N 
ATOM     56  N   UNL A   1      46.647  28.360  28.576  1.00  0.00    -0.248 NA
ATOM     57  C   UNL A   1      46.534  29.163  26.361  1.00  0.00     0.031 C 
ATOM     58  C   UNL A   1      43.172  28.949  26.582  1.00  0.00     0.029 A 
ATOM     59  C   UNL A   1      43.264  28.908  27.979  1.00  0.00     0.049 A 
ATOM     60  H   UNL A   1      41.699  29.058  29.380  1.00  0.00     0.167 HD
ATOM     61  C   UNL A   1      45.547  29.157  28.414  1.00  0.00     0.074 A 
ATOM     62  C   UNL A   1      45.736  29.871  27.156  1.00  0.00     0.031 C 
ATOM     63  C   UNL A   1      44.351  28.715  28.897  1.00  0.00     0.031 A 
BRANCH  50  64
ATOM     64  C   UNL A   1      38.917  28.506  28.344  1.00  0.00    -0.014 A 
ATOM     65  C   UNL A   1      38.317  29.706  27.882  1.00  0.00     0.010 A 
ATOM     66  C   UNL A   1      38.673  28.122  29.668  1.00  0.00     0.010 A 
ATOM     67  C   UNL A   1      37.618  30.556  28.730  1.00  0.00     0.020 A 
ATOM     68  C   UNL A   1      37.922  28.955  30.522  1.00  0.00     0.020 A 
ATOM     69  C   UNL A   1      37.436  30.183  30.056  1.00  0.00     0.054 A 
BRANCH  69  70
ATOM     70  S   UNL A   1      36.581  31.354  31.142  1.00  0.00     0.124 S 
ATOM     71  O   UNL A   1      35.663  32.018  30.222  1.00  0.00    -0.237 OA
ATOM     72  O   UNL A   1      35.955  30.467  32.119  1.00  0.00    -0.237 OA
ATOM     73  O   UNL A   1      37.661  32.185  31.668  1.00  0.00    -0.744 OA
ENDBRANCH  69  70
ENDBRANCH  50  64
BRANCH  51  74
ATOM     74  C   UNL A   1      49.274  27.507  26.505  1.00  0.00    -0.014 A 
ATOM     75  C   UNL A   1      49.855  27.633  25.237  1.00  0.00     0.010 A 
ATOM     76  C   UNL A   1      50.091  28.042  27.563  1.00  0.00     0.010 A 
ATOM     77  C   UNL A   1      51.050  28.403  25.038  1.00  0.00     0.020 A 
ATOM     78  C   UNL A   1      51.222  28.855  27.382  1.00  0.00     0.020 A 
ATOM     79  C   UNL A   1      51.677  29.075  26.100  1.00  0.00     0.054 A 
BRANCH  79  80
ATOM     80  S   UNL A   1      52.954  30.350  25.814  1.00  0.00     0.124 S 
ATOM     81  O   UNL A   1      52.927  31.122  27.053  1.00  0.00    -0.237 OA
ATOM     82  O   UNL A   1      54.156  29.549  25.596  1.00  0.00    -0.237 OA
ATOM     83  O   UNL A   1      52.478  31.064  24.629  1.00  0.00    -0.744 OA
ENDBRANCH  79  80
ENDBRANCH  51  74
BRANCH  63  84
ATOM     84  C   UNL A   1      44.371  27.811  30.125  1.00  0.00    -0.014 A 
ATOM     85  C   UNL A   1      44.060  26.447  29.952  1.00  0.00     0.010 A 
ATOM     86  C   UNL A   1      44.651  28.234  31.444  1.00  0.00     0.010 A 
ATOM     87  C   UNL A   1      44.059  25.537  31.018  1.00  0.00     0.020 A 
ATOM     88  C   UNL A   1      44.642  27.326  32.531  1.00  0.00     0.020 A 
ATOM     89  C   UNL A   1      44.366  25.975  32.304  1.00  0.00     0.054 A 
BRANCH  89  90
ATOM     90  S   UNL A   1      44.444  24.739  33.639  1.00  0.00     0.124 S 
ATOM     91  O   UNL A   1      44.111  23.494  32.951  1.00  0.00    -0.237 OA
ATOM     92  O   UNL A   1      45.828  24.850  34.089  1.00  0.00    -0.237 OA
ATOM     93  O   UNL A   1      43.442  25.196  34.602  1.00  0.00    -0.744 OA
ENDBRANCH  89  90
ENDBRANCH  63  84
ENDBRANCH  37  38
ENDBRANCH  30  32
ENDBRANCH  29  30
ENDBRANCH  28  29
ENDBRANCH  27  28
ENDBRANCH  26  27
ENDBRANCH  25  26
ENDBRANCH  24  25
ENDBRANCH   1  24
TORSDOF 26
ENDMDL
MODEL 2
REMARK VINA RESULT:      -9.3      5.267     10.733
REMARK SMILES N#Cc1ccccc1Cn1cccc1C(=O)OCCOCCOCCOCCOC(=O)c1ccc(-c2c3nc(c(-c4ccc(S(=O)(=O)[O-])cc4)c4ccc([nH]4)c(-c4ccc(S(=O)(=O)[O-])cc4)c4nc(c(-c5ccc(S(=O)(=O)[O-])cc5)c5ccc2[nH]5)C=C4)C=C3)cc1
REMARK SMILES IDX 23 1 22 2 21 3 20 4 19 5 18 6 17 7 15 8 16 9 14 10 10 11
REMARK SMILES IDX 11 12 12 13 13 14 9 15 8 16 3 17 4 18 5 19 7 20 6 21 2 22
REMARK SMILES IDX 1 23 24 24 25 25 26 26 27 27 28 28 29 29 30 30 31 31 32 32
REMARK SMILES IDX 33 33 91 34 34 35 90 36 35 37 36 38 37 39 84 40 38 41 89 42
REMARK SMILES IDX 83 43 85 44 39 45 88 46 82 47 81 48 40 50 70 51 51 52 69 53
REMARK SMILES IDX 52 54 55 55 68 56 86 57 53 58 54 59 67 61 87 62 56 63 41 64
REMARK SMILES IDX 42 65 50 66 43 67 49 68 44 69 45 70 46 71 47 72 48 73 71 74
REMARK SMILES IDX 72 75 80 76 73 77 79 78 74 79 75 80 76 81 77 82 78 83 57 84
REMARK SMILES IDX 58 85 66 86 59 87 65 88 60 89 61 90 62 91 63 92 64 93
REMARK H PARENT 85 49 55 60
REMARK Flexibility Score: inf
ROOT
ATOM      1  O   UNL A   1      34.531  32.483  28.809  1.00  0.00    -0.377 OA
ENDROOT
BRANCH   1   2
ATOM      2  C   UNL A   1      34.365  31.190  28.249  1.00  0.00     0.188 C 
BRANCH   2   3
ATOM      3  C   UNL A   1      33.187  30.817  27.321  1.00  0.00     0.188 C 
BRANCH   3   4
ATOM      4  O   UNL A   1      33.409  29.723  26.462  1.00  0.00    -0.376 OA
BRANCH   4   5
ATOM      5  C   UNL A   1      33.736  28.426  26.903  1.00  0.00     0.202 C 
BRANCH   5   6
ATOM      6  C   UNL A   1      33.835  27.215  25.961  1.00  0.00     0.261 C 
BRANCH   6   7
ATOM      7  O   UNL A   1      33.195  26.013  26.390  1.00  0.00    -0.459 OA
BRANCH   7   8
ATOM      8  C   UNL A   1      31.880  25.905  26.086  1.00  0.00     0.355 C 
ATOM      9  O   UNL A   1      30.973  26.363  26.768  1.00  0.00    -0.244 OA
BRANCH   8  10
ATOM     10  C   UNL A   1      31.712  25.375  24.745  1.00  0.00     0.127 A 
ATOM     11  N   UNL A   1      31.295  25.994  23.566  1.00  0.00    -0.338 N 
ATOM     12  C   UNL A   1      31.509  25.101  22.533  1.00  0.00     0.087 A 
ATOM     13  C   UNL A   1      31.733  23.853  23.055  1.00  0.00     0.020 A 
ATOM     14  C   UNL A   1      31.890  24.027  24.437  1.00  0.00     0.035 A 
BRANCH  11  15
ATOM     15  C   UNL A   1      30.844  27.389  23.365  1.00  0.00     0.159 C 
BRANCH  15  16
ATOM     16  C   UNL A   1      29.326  27.587  23.431  1.00  0.00    -0.010 A 
ATOM     17  C   UNL A   1      28.669  28.703  22.866  1.00  0.00     0.057 A 
ATOM     18  C   UNL A   1      27.277  28.868  23.015  1.00  0.00     0.020 A 
ATOM     19  C   UNL A   1      26.511  27.912  23.678  1.00  0.00     0.001 A 
ATOM     20  C   UNL A   1      28.506  26.599  24.015  1.00  0.00     0.007 A 
ATOM     21  C   UNL A   1      27.126  26.765  24.158  1.00  0.00     0.000 A 
BRANCH  17  22
ATOM     22  C   UNL A   1      29.363  29.660  22.038  1.00  0.00     0.099 C 
ATOM     23  N   UNL A   1      29.865  30.457  21.378  1.00  0.00    -0.192 NA
ENDBRANCH  17  22
ENDBRANCH  15  16
ENDBRANCH  11  15
ENDBRANCH   8  10
ENDBRANCH   7   8
ENDBRANCH   6   7
ENDBRANCH   5   6
ENDBRANCH   4   5
ENDBRANCH   3   4
ENDBRANCH   2   3
ENDBRANCH   1   2
BRANCH   1  24
ATOM     24  C   UNL A   1      35.131  33.502  28.037  1.00  0.00     0.188 C 
BRANCH  24  25
ATOM     25  C   UNL A   1      34.385  34.845  28.058  1.00  0.00     0.188 C 
BRANCH  25  26
ATOM     26  O   UNL A   1      33.308  35.035  28.957  1.00  0.00    -0.376 OA
BRANCH  26  27
ATOM     27  C   UNL A   1      32.926  36.269  29.547  1.00  0.00     0.202 C 
BRANCH  27  28
ATOM     28  C   UNL A   1      32.853  36.604  31.039  1.00  0.00     0.261 C 
BRANCH  28  29
ATOM     29  O   UNL A   1      32.928  35.531  31.945  1.00  0.00    -0.460 OA
BRANCH  29  30
ATOM     30  C   UNL A   1      34.122  35.469  32.548  1.00  0.00     0.338 C 
ATOM     31  O   UNL A   1      34.612  36.270  33.325  1.00  0.00    -0.246 OA
BRANCH  30  32
ATOM     32  C   UNL A   1      34.843  34.329  31.994  1.00  0.00     0.060 A 
ATOM     33  C   UNL A   1      34.736  33.186  32.782  1.00  0.00     0.016 A 
ATOM     34  C   UNL A   1      36.030  34.712  31.355  1.00  0.00     0.016 A 
ATOM     35  C   UNL A   1      35.908  32.619  33.219  1.00  0.00     0.010 A 
ATOM     36  C   UNL A   1      37.204  34.190  31.837  1.00  0.00     0.010 A 
ATOM     37  C   UNL A   1      37.132  33.170  32.797  1.00  0.00    -0.014 A 
BRANCH  37  38
ATOM     38  C   UNL A   1      38.323  32.352  33.026  1.00  0.00     0.031 A 
ATOM     39  C   UNL A   1      38.247  31.233  31.918  1.00  0.00     0.074 A 
ATOM     40  C   UNL A   1      39.116  32.681  34.115  1.00  0.00     0.049 A 
ATOM     41  N   UNL A   1      38.675  30.019  31.966  1.00  0.00    -0.248 NA
ATOM     42  C   UNL A   1      37.470  31.407  30.629  1.00  0.00     0.031 C 
ATOM     43  C   UNL A   1      38.950  33.876  34.996  1.00  0.00     0.029 A 
ATOM     44  N   UNL A   1      40.240  32.128  34.712  1.00  0.00    -0.354 N 
ATOM     45  C   UNL A   1      38.579  29.468  30.668  1.00  0.00     0.074 A 
ATOM     46  C   UNL A   1      37.657  30.273  29.947  1.00  0.00     0.031 C 
ATOM     47  C   UNL A   1      39.824  33.868  36.043  1.00  0.00     0.029 A 
ATOM     48  C   UNL A   1      40.697  32.708  35.956  1.00  0.00     0.049 A 
ATOM     49  H   UNL A   1      40.711  31.366  34.304  1.00  0.00     0.167 HD
ATOM     50  C   UNL A   1      39.472  28.534  30.232  1.00  0.00     0.031 A 
ATOM     51  C   UNL A   1      41.687  32.243  36.812  1.00  0.00     0.031 A 
ATOM     52  C   UNL A   1      40.372  28.250  31.302  1.00  0.00     0.049 A 
ATOM     53  C   UNL A   1      42.373  31.245  35.981  1.00  0.00     0.074 A 
ATOM     54  C   UNL A   1      40.131  27.723  32.549  1.00  0.00     0.029 A 
ATOM     55  N   UNL A   1      41.503  29.039  31.331  1.00  0.00    -0.354 N 
ATOM     56  N   UNL A   1      43.138  31.533  34.971  1.00  0.00    -0.248 NA
ATOM     57  C   UNL A   1      42.127  29.821  36.239  1.00  0.00     0.031 C 
ATOM     58  C   UNL A   1      40.753  28.677  33.375  1.00  0.00     0.029 A 
ATOM     59  C   UNL A   1      41.691  29.405  32.632  1.00  0.00     0.049 A 
ATOM     60  H   UNL A   1      42.066  29.289  30.563  1.00  0.00     0.167 HD
ATOM     61  C   UNL A   1      43.075  30.376  34.244  1.00  0.00     0.074 A 
ATOM     62  C   UNL A   1      42.767  29.310  35.190  1.00  0.00     0.031 C 
ATOM     63  C   UNL A   1      42.626  30.444  32.959  1.00  0.00     0.031 A 
BRANCH  50  64
ATOM     64  C   UNL A   1      39.888  28.060  28.872  1.00  0.00    -0.014 A 
ATOM     65  C   UNL A   1      40.586  26.825  28.853  1.00  0.00     0.010 A 
ATOM     66  C   UNL A   1      39.964  28.870  27.733  1.00  0.00     0.010 A 
ATOM     67  C   UNL A   1      41.431  26.469  27.808  1.00  0.00     0.020 A 
ATOM     68  C   UNL A   1      40.779  28.492  26.647  1.00  0.00     0.020 A 
ATOM     69  C   UNL A   1      41.535  27.316  26.712  1.00  0.00     0.054 A 
BRANCH  69  70
ATOM     70  S   UNL A   1      42.701  26.848  25.406  1.00  0.00     0.124 S 
ATOM     71  O   UNL A   1      42.143  25.587  24.928  1.00  0.00    -0.237 OA
ATOM     72  O   UNL A   1      42.592  27.972  24.479  1.00  0.00    -0.237 OA
ATOM     73  O   UNL A   1      43.979  26.749  26.106  1.00  0.00    -0.744 OA
ENDBRANCH  69  70
ENDBRANCH  50  64
BRANCH  51  74
ATOM     74  C   UNL A   1      42.316  32.326  38.229  1.00  0.00    -0.014 A 
ATOM     75  C   UNL A   1      41.685  32.557  39.457  1.00  0.00     0.010 A 
ATOM     76  C   UNL A   1      43.699  31.943  38.361  1.00  0.00     0.010 A 
ATOM     77  C   UNL A   1      42.331  32.237  40.700  1.00  0.00     0.020 A 
ATOM     78  C   UNL A   1      44.323  31.562  39.559  1.00  0.00     0.020 A 
ATOM     79  C   UNL A   1      43.613  31.667  40.735  1.00  0.00     0.054 A 
BRANCH  79  80
ATOM     80  S   UNL A   1      44.290  30.911  42.256  1.00  0.00     0.124 S 
ATOM     81  O   UNL A   1      45.638  30.521  41.853  1.00  0.00    -0.237 OA
ATOM     82  O   UNL A   1      44.210  32.009  43.216  1.00  0.00    -0.237 OA
ATOM     83  O   UNL A   1      43.379  29.799  42.529  1.00  0.00    -0.744 OA
ENDBRANCH  79  80
ENDBRANCH  51  74
BRANCH  63  84
ATOM     84  C   UNL A   1      42.882  31.732  32.182  1.00  0.00    -0.014 A 
ATOM     85  C   UNL A   1      41.793  32.598  31.954  1.00  0.00     0.010 A 
ATOM     86  C   UNL A   1      44.127  32.123  31.641  1.00  0.00     0.010 A 
ATOM     87  C   UNL A   1      41.931  33.807  31.258  1.00  0.00     0.020 A 
ATOM     88  C   UNL A   1      44.275  33.337  30.926  1.00  0.00     0.020 A 
ATOM     89  C   UNL A   1      43.175  34.182  30.759  1.00  0.00     0.054 A 
BRANCH  89  90
ATOM     90  S   UNL A   1      43.323  35.804  29.945  1.00  0.00     0.124 S 
ATOM     91  O   UNL A   1      44.557  35.672  29.175  1.00  0.00    -0.237 OA
ATOM     92  O   UNL A   1      42.099  35.870  29.151  1.00  0.00    -0.237 OA
ATOM     93  O   UNL A   1      43.390  36.752  31.057  1.00  0.00    -0.744 OA
ENDBRANCH  89  90
ENDBRANCH  63  84
ENDBRANCH  37  38
ENDBRANCH  30  32
ENDBRANCH  29  30
ENDBRANCH  28  29
ENDBRANCH  27  28
ENDBRANCH  26  27
ENDBRANCH  25  26
ENDBRANCH  24  25
ENDBRANCH   1  24
TORSDOF 26
ENDMDL
MODEL 3
REMARK VINA RESULT:      -9.3      1.254      2.041
REMARK SMILES N#Cc1ccccc1Cn1cccc1C(=O)OCCOCCOCCOCCOC(=O)c1ccc(-c2c3nc(c(-c4ccc(S(=O)(=O)[O-])cc4)c4ccc([nH]4)c(-c4ccc(S(=O)(=O)[O-])cc4)c4nc(c(-c5ccc(S(=O)(=O)[O-])cc5)c5ccc2[nH]5)C=C4)C=C3)cc1
REMARK SMILES IDX 23 1 22 2 21 3 20 4 19 5 18 6 17 7 15 8 16 9 14 10 10 11
REMARK SMILES IDX 11 12 12 13 13 14 9 15 8 16 3 17 4 18 5 19 7 20 6 21 2 22
REMARK SMILES IDX 1 23 24 24 25 25 26 26 27 27 28 28 29 29 30 30 31 31 32 32
REMARK SMILES IDX 33 33 91 34 34 35 90 36 35 37 36 38 37 39 84 40 38 41 89 42
REMARK SMILES IDX 83 43 85 44 39 45 88 46 82 47 81 48 40 50 70 51 51 52 69 53
REMARK SMILES IDX 52 54 55 55 68 56 86 57 53 58 54 59 67 61 87 62 56 63 41 64
REMARK SMILES IDX 42 65 50 66 43 67 49 68 44 69 45 70 46 71 47 72 48 73 71 74
REMARK SMILES IDX 72 75 80 76 73 77 79 78 74 79 75 80 76 81 77 82 78 83 57 84
REMARK SMILES IDX 58 85 66 86 59 87 65 88 60 89 61 90 62 91 63 92 64 93
REMARK H PARENT 85 49 55 60
REMARK Flexibility Score: inf
ROOT
ATOM      1  O   UNL A   1      34.436  19.955  25.006  1.00  0.00    -0.377 OA
ENDROOT
BRANCH   1   2
ATOM      2  C   UNL A   1      33.175  20.181  25.616  1.00  0.00     0.188 C 
BRANCH   2   3
ATOM      3  C   UNL A   1      32.069  21.048  24.972  1.00  0.00     0.188 C 
BRANCH   3   4
ATOM      4  O   UNL A   1      31.474  22.005  25.817  1.00  0.00    -0.376 OA
BRANCH   4   5
ATOM      5  C   UNL A   1      30.757  23.127  25.358  1.00  0.00     0.202 C 
BRANCH   5   6
ATOM      6  C   UNL A   1      31.378  24.223  24.477  1.00  0.00     0.261 C 
BRANCH   6   7
ATOM      7  O   UNL A   1      32.019  25.305  25.154  1.00  0.00    -0.459 OA
BRANCH   7   8
ATOM      8  C   UNL A   1      31.196  26.259  25.652  1.00  0.00     0.355 C 
ATOM      9  O   UNL A   1      31.113  26.549  26.838  1.00  0.00    -0.244 OA
BRANCH   8  10
ATOM     10  C   UNL A   1      30.605  27.030  24.574  1.00  0.00     0.127 A 
ATOM     11  N   UNL A   1      31.160  27.993  23.730  1.00  0.00    -0.338 N 
ATOM     12  C   UNL A   1      30.230  28.264  22.744  1.00  0.00     0.087 A 
ATOM     13  C   UNL A   1      29.013  27.759  23.122  1.00  0.00     0.020 A 
ATOM     14  C   UNL A   1      29.251  26.961  24.250  1.00  0.00     0.035 A 
BRANCH  11  15
ATOM     15  C   UNL A   1      32.532  28.549  23.741  1.00  0.00     0.159 C 
BRANCH  15  16
ATOM     16  C   UNL A   1      33.013  29.044  25.108  1.00  0.00    -0.010 A 
ATOM     17  C   UNL A   1      32.409  30.122  25.794  1.00  0.00     0.057 A 
ATOM     18  C   UNL A   1      32.935  30.578  27.020  1.00  0.00     0.020 A 
ATOM     19  C   UNL A   1      34.029  29.948  27.606  1.00  0.00     0.001 A 
ATOM     20  C   UNL A   1      34.060  28.376  25.776  1.00  0.00     0.007 A 
ATOM     21  C   UNL A   1      34.577  28.830  26.993  1.00  0.00     0.000 A 
BRANCH  17  22
ATOM     22  C   UNL A   1      31.186  30.733  25.331  1.00  0.00     0.099 C 
ATOM     23  N   UNL A   1      30.196  31.165  24.936  1.00  0.00    -0.192 NA
ENDBRANCH  17  22
ENDBRANCH  15  16
ENDBRANCH  11  15
ENDBRANCH   8  10
ENDBRANCH   7   8
ENDBRANCH   6   7
ENDBRANCH   5   6
ENDBRANCH   4   5
ENDBRANCH   3   4
ENDBRANCH   2   3
ENDBRANCH   1   2
BRANCH   1  24
ATOM     24  C   UNL A   1      35.282  21.052  24.734  1.00  0.00     0.188 C 
BRANCH  24  25
ATOM     25  C   UNL A   1      36.777  20.779  24.957  1.00  0.00     0.188 C 
BRANCH  25  26
ATOM     26  O   UNL A   1      37.546  21.677  25.738  1.00  0.00    -0.376 OA
BRANCH  26  27
ATOM     27  C   UNL A   1      38.935  21.566  26.004  1.00  0.00     0.202 C 
BRANCH  27  28
ATOM     28  C   UNL A   1      39.769  20.284  26.086  1.00  0.00     0.261 C 
BRANCH  28  29
ATOM     29  O   UNL A   1      40.955  20.237  25.332  1.00  0.00    -0.460 OA
BRANCH  29  30
ATOM     30  C   UNL A   1      41.884  19.466  25.909  1.00  0.00     0.338 C 
ATOM     31  O   UNL A   1      41.825  18.272  26.151  1.00  0.00    -0.246 OA
BRANCH  30  32
ATOM     32  C   UNL A   1      42.963  20.334  26.367  1.00  0.00     0.060 A 
ATOM     33  C   UNL A   1      42.715  20.889  27.620  1.00  0.00     0.016 A 
ATOM     34  C   UNL A   1      43.553  21.047  25.316  1.00  0.00     0.016 A 
ATOM     35  C   UNL A   1      42.733  22.259  27.709  1.00  0.00     0.010 A 
ATOM     36  C   UNL A   1      43.512  22.417  25.380  1.00  0.00     0.010 A 
ATOM     37  C   UNL A   1      43.065  23.013  26.568  1.00  0.00    -0.014 A 
BRANCH  37  38
ATOM     38  C   UNL A   1      43.377  24.424  26.793  1.00  0.00     0.031 A 
ATOM     39  C   UNL A   1      41.968  25.121  26.917  1.00  0.00     0.074 A 
ATOM     40  C   UNL A   1      44.715  24.788  26.765  1.00  0.00     0.049 A 
ATOM     41  N   UNL A   1      41.629  26.321  26.593  1.00  0.00    -0.248 NA
ATOM     42  C   UNL A   1      40.714  24.369  27.314  1.00  0.00     0.031 C 
ATOM     43  C   UNL A   1      45.878  23.857  26.667  1.00  0.00     0.029 A 
ATOM     44  N   UNL A   1      45.406  25.989  26.842  1.00  0.00    -0.354 N 
ATOM     45  C   UNL A   1      40.326  26.558  27.086  1.00  0.00     0.074 A 
ATOM     46  C   UNL A   1      39.742  25.287  27.331  1.00  0.00     0.031 C 
ATOM     47  C   UNL A   1      47.063  24.524  26.559  1.00  0.00     0.029 A 
ATOM     48  C   UNL A   1      46.836  25.958  26.622  1.00  0.00     0.049 A 
ATOM     49  H   UNL A   1      44.941  26.834  27.039  1.00  0.00     0.167 HD
ATOM     50  C   UNL A   1      39.941  27.803  27.485  1.00  0.00     0.031 A 
ATOM     51  C   UNL A   1      47.711  27.030  26.494  1.00  0.00     0.031 A 
ATOM     52  C   UNL A   1      41.028  28.698  27.251  1.00  0.00     0.049 A 
ATOM     53  C   UNL A   1      46.900  28.154  26.980  1.00  0.00     0.074 A 
ATOM     54  C   UNL A   1      41.649  29.053  26.078  1.00  0.00     0.029 A 
ATOM     55  N   UNL A   1      41.900  28.838  28.311  1.00  0.00    -0.354 N 
ATOM     56  N   UNL A   1      46.579  28.340  28.225  1.00  0.00    -0.248 NA
ATOM     57  C   UNL A   1      46.339  29.094  26.004  1.00  0.00     0.031 C 
ATOM     58  C   UNL A   1      42.997  28.809  26.396  1.00  0.00     0.029 A 
ATOM     59  C   UNL A   1      43.159  28.800  27.787  1.00  0.00     0.049 A 
ATOM     60  H   UNL A   1      41.661  28.945  29.260  1.00  0.00     0.167 HD
ATOM     61  C   UNL A   1      45.454  29.109  28.102  1.00  0.00     0.074 A 
ATOM     62  C   UNL A   1      45.564  29.800  26.823  1.00  0.00     0.031 C 
ATOM     63  C   UNL A   1      44.294  28.650  28.653  1.00  0.00     0.031 A 
BRANCH  50  64
ATOM     64  C   UNL A   1      38.846  28.309  28.375  1.00  0.00    -0.014 A 
ATOM     65  C   UNL A   1      38.180  29.472  27.909  1.00  0.00     0.010 A 
ATOM     66  C   UNL A   1      38.688  27.963  29.723  1.00  0.00     0.010 A 
ATOM     67  C   UNL A   1      37.500  30.328  28.767  1.00  0.00     0.020 A 
ATOM     68  C   UNL A   1      37.958  28.801  30.589  1.00  0.00     0.020 A 
ATOM     69  C   UNL A   1      37.405  29.995  30.112  1.00  0.00     0.054 A 
BRANCH  69  70
ATOM     70  S   UNL A   1      36.572  31.175  31.205  1.00  0.00     0.124 S 
ATOM     71  O   UNL A   1      37.687  31.966  31.717  1.00  0.00    -0.237 OA
ATOM     72  O   UNL A   1      35.681  31.875  30.282  1.00  0.00    -0.237 OA
ATOM     73  O   UNL A   1      35.899  30.323  32.182  1.00  0.00    -0.744 OA
ENDBRANCH  69  70
ENDBRANCH  50  64
BRANCH  51  74
ATOM     74  C   UNL A   1      49.120  27.503  26.044  1.00  0.00    -0.014 A 
ATOM     75  C   UNL A   1      49.712  27.413  24.778  1.00  0.00     0.010 A 
ATOM     76  C   UNL A   1      49.876  28.302  26.973  1.00  0.00     0.010 A 
ATOM     77  C   UNL A   1      50.851  28.217  24.429  1.00  0.00     0.020 A 
ATOM     78  C   UNL A   1      50.946  29.145  26.633  1.00  0.00     0.020 A 
ATOM     79  C   UNL A   1      51.406  29.135  25.334  1.00  0.00     0.054 A 
BRANCH  79  80
ATOM     80  S   UNL A   1      52.591  30.420  24.798  1.00  0.00     0.124 S 
ATOM     81  O   UNL A   1      53.883  29.759  24.960  1.00  0.00    -0.237 OA
ATOM     82  O   UNL A   1      52.179  30.672  23.419  1.00  0.00    -0.237 OA
ATOM     83  O   UNL A   1      52.344  31.530  25.718  1.00  0.00    -0.744 OA
ENDBRANCH  79  80
ENDBRANCH  51  74
BRANCH  63  84
ATOM     84  C   UNL A   1      44.396  27.773  29.896  1.00  0.00    -0.014 A 
ATOM     85  C   UNL A   1      44.335  26.374  29.730  1.00  0.00     0.010 A 
ATOM     86  C   UNL A   1      44.519  28.248  31.221  1.00  0.00     0.010 A 
ATOM     87  C   UNL A   1      44.427  25.486  30.811  1.00  0.00     0.020 A 
ATOM     88  C   UNL A   1      44.601  27.361  32.322  1.00  0.00     0.020 A 
ATOM     89  C   UNL A   1      44.576  25.980  32.104  1.00  0.00     0.054 A 
BRANCH  89  90
ATOM     90  S   UNL A   1      44.785  24.787  33.463  1.00  0.00     0.124 S 
ATOM     91  O   UNL A   1      43.898  25.312  34.498  1.00  0.00    -0.237 OA
ATOM     92  O   UNL A   1      44.354  23.534  32.850  1.00  0.00    -0.237 OA
ATOM     93  O   UNL A   1      46.211  24.861  33.781  1.00  0.00    -0.744 OA
ENDBRANCH  89  90
ENDBRANCH  63  84
ENDBRANCH  37  38
ENDBRANCH  30  32
ENDBRANCH  29  30
ENDBRANCH  28  29
ENDBRANCH  27  28
ENDBRANCH  26  27
ENDBRANCH  25  26
ENDBRANCH  24  25
ENDBRANCH   1  24
TORSDOF 26
ENDMDL
