MODEL 1
REMARK VINA RESULT:      -7.8      0.000      0.000
REMARK SMILES CS(=O)(=O)c1ccc(/C=C(/C(=O)OCCOCCOCCOCCOC(=O)c2ccc(-c3c4nc(c(-c5ccc(S(=O)(=O)[O-])cc5)c5ccc([nH]5)c(-c5ccc(S(=O)(=O)[O-])cc5)c5nc(c(-c6ccc(S(=O)(=O)[O-])cc6)c6ccc3[nH]6)C=C5)C=C4)cc2)c2ccc(-c3ccc(F)cc3F)cc2)cc1
REMARK SMILES IDX 20 1 19 2 18 3 17 4 16 5 15 6 14 7 13 8 11 9 12 10 10 11
REMARK SMILES IDX 9 12 8 13 5 14 6 15 103 16 7 17 102 18 2 19 1 20 3 21 4 22
REMARK SMILES IDX 88 23 89 24 101 25 90 26 100 27 91 28 92 29 93 30 98 31
REMARK SMILES IDX 94 32 97 33 99 34 95 35 96 36 21 37 22 38 23 39 24 40 25 41
REMARK SMILES IDX 26 42 27 43 28 44 29 45 87 46 30 47 86 48 31 49 32 50 33 51
REMARK SMILES IDX 80 52 34 53 85 54 79 55 81 56 35 57 84 58 78 59 77 60 36 62
REMARK SMILES IDX 66 63 47 64 65 65 48 66 51 67 64 68 82 69 49 70 50 71 63 73
REMARK SMILES IDX 83 74 52 75 37 76 38 77 46 78 39 79 45 80 40 81 41 82 42 83
REMARK SMILES IDX 43 84 44 85 67 86 68 87 76 88 69 89 75 90 70 91 71 92 72 93
REMARK SMILES IDX 73 94 74 95 53 96 54 97 62 98 55 99 61 100 56 101 57 102
REMARK SMILES IDX 58 103 59 104 60 105
REMARK H PARENT 81 61 51 72
REMARK Flexibility Score: inf
ROOT
ATOM      1  C   UNL A   1      38.040  31.290  28.716  1.00  0.00     0.188 C 
ENDROOT
BRANCH   1   2
ATOM      2  O   UNL A   1      38.505  31.615  30.019  1.00  0.00    -0.377 OA
BRANCH   2   3
ATOM      3  C   UNL A   1      39.207  30.639  30.770  1.00  0.00     0.188 C 
BRANCH   3   4
ATOM      4  C   UNL A   1      38.459  29.776  31.814  1.00  0.00     0.188 C 
BRANCH   4   5
ATOM      5  O   UNL A   1      37.980  28.543  31.312  1.00  0.00    -0.376 OA
BRANCH   5   6
ATOM      6  C   UNL A   1      38.926  27.643  30.765  1.00  0.00     0.202 C 
BRANCH   6   7
ATOM      7  C   UNL A   1      38.820  27.288  29.273  1.00  0.00     0.261 C 
BRANCH   7   8
ATOM      8  O   UNL A   1      39.766  26.324  28.782  1.00  0.00    -0.460 OA
BRANCH   8   9
ATOM      9  C   UNL A   1      39.915  26.225  27.440  1.00  0.00     0.338 C 
ATOM     10  O   UNL A   1      40.570  26.987  26.744  1.00  0.00    -0.246 OA
BRANCH   9  11
ATOM     11  C   UNL A   1      39.308  24.944  26.935  1.00  0.00     0.067 C 
ATOM     12  C   UNL A   1      37.960  24.854  26.805  1.00  0.00     0.024 C 
BRANCH  12  13
ATOM     13  C   UNL A   1      37.159  23.791  26.145  1.00  0.00    -0.025 A 
ATOM     14  C   UNL A   1      35.157  22.136  25.087  1.00  0.00     0.067 A 
ATOM     15  C   UNL A   1      35.921  22.927  24.235  1.00  0.00     0.021 A 
ATOM     16  C   UNL A   1      35.466  22.058  26.445  1.00  0.00     0.021 A 
ATOM     17  C   UNL A   1      36.953  23.701  24.762  1.00  0.00     0.009 A 
ATOM     18  C   UNL A   1      36.466  22.888  26.968  1.00  0.00     0.009 A 
BRANCH  14  19
ATOM     19  S   UNL A   1      33.727  21.318  24.434  1.00  0.00     0.175 S 
ATOM     20  C   UNL A   1      33.300  22.270  23.003  1.00  0.00     0.163 C 
ATOM     21  O   UNL A   1      32.667  21.478  25.411  1.00  0.00    -0.224 OA
ATOM     22  O   UNL A   1      34.130  20.000  23.980  1.00  0.00    -0.224 OA
ENDBRANCH  14  19
ENDBRANCH  12  13
BRANCH  11  23
ATOM     23  C   UNL A   1      40.232  23.844  26.589  1.00  0.00    -0.011 A 
ATOM     24  C   UNL A   1      41.331  24.083  25.749  1.00  0.00     0.009 A 
ATOM     25  C   UNL A   1      40.107  22.588  27.178  1.00  0.00     0.009 A 
ATOM     26  C   UNL A   1      42.286  23.097  25.504  1.00  0.00     0.009 A 
ATOM     27  C   UNL A   1      41.082  21.608  26.952  1.00  0.00     0.009 A 
ATOM     28  C   UNL A   1      42.187  21.839  26.110  1.00  0.00    -0.015 A 
BRANCH  28  29
ATOM     29  C   UNL A   1      43.211  20.804  25.871  1.00  0.00     0.018 A 
ATOM     30  C   UNL A   1      44.566  21.145  25.677  1.00  0.00     0.015 A 
ATOM     31  C   UNL A   1      42.874  19.441  25.811  1.00  0.00     0.133 A 
ATOM     32  C   UNL A   1      45.528  20.162  25.430  1.00  0.00     0.040 A 
ATOM     33  C   UNL A   1      43.826  18.455  25.573  1.00  0.00     0.079 A 
ATOM     34  F   UNL A   1      41.600  19.050  25.966  1.00  0.00    -0.206 F 
ATOM     35  C   UNL A   1      45.147  18.827  25.382  1.00  0.00     0.126 A 
ATOM     36  F   UNL A   1      46.070  17.885  25.147  1.00  0.00    -0.207 F 
ENDBRANCH  28  29
ENDBRANCH  11  23
ENDBRANCH   9  11
ENDBRANCH   8   9
ENDBRANCH   7   8
ENDBRANCH   6   7
ENDBRANCH   5   6
ENDBRANCH   4   5
ENDBRANCH   3   4
ENDBRANCH   2   3
ENDBRANCH   1   2
BRANCH   1  37
ATOM     37  C   UNL A   1      36.661  30.613  28.534  1.00  0.00     0.188 C 
BRANCH  37  38
ATOM     38  O   UNL A   1      35.720  31.372  27.791  1.00  0.00    -0.376 OA
BRANCH  38  39
ATOM     39  C   UNL A   1      34.399  31.458  28.295  1.00  0.00     0.202 C 
BRANCH  39  40
ATOM     40  C   UNL A   1      33.694  32.819  28.201  1.00  0.00     0.261 C 
BRANCH  40  41
ATOM     41  O   UNL A   1      34.349  33.921  28.843  1.00  0.00    -0.460 OA
BRANCH  41  42
ATOM     42  C   UNL A   1      33.781  34.421  29.961  1.00  0.00     0.338 C 
ATOM     43  O   UNL A   1      32.624  34.785  30.097  1.00  0.00    -0.246 OA
BRANCH  42  44
ATOM     44  C   UNL A   1      34.755  34.261  31.059  1.00  0.00     0.060 A 
ATOM     45  C   UNL A   1      34.942  35.310  31.971  1.00  0.00     0.016 A 
ATOM     46  C   UNL A   1      35.451  33.059  31.209  1.00  0.00     0.016 A 
ATOM     47  C   UNL A   1      35.846  35.167  33.023  1.00  0.00     0.010 A 
ATOM     48  C   UNL A   1      36.376  32.929  32.246  1.00  0.00     0.010 A 
ATOM     49  C   UNL A   1      36.600  33.993  33.137  1.00  0.00    -0.014 A 
BRANCH  49  50
ATOM     50  C   UNL A   1      37.765  33.954  34.051  1.00  0.00     0.031 A 
ATOM     51  C   UNL A   1      39.138  34.110  33.455  1.00  0.00     0.074 A 
ATOM     52  C   UNL A   1      37.616  33.793  35.377  1.00  0.00     0.049 A 
ATOM     53  N   UNL A   1      40.307  34.067  34.037  1.00  0.00    -0.248 NA
ATOM     54  C   UNL A   1      39.196  34.338  32.001  1.00  0.00     0.031 C 
ATOM     55  C   UNL A   1      36.339  33.674  36.077  1.00  0.00     0.029 A 
ATOM     56  N   UNL A   1      38.559  33.692  36.370  1.00  0.00    -0.354 N 
ATOM     57  C   UNL A   1      41.238  34.248  33.022  1.00  0.00     0.074 A 
ATOM     58  C   UNL A   1      40.501  34.370  31.784  1.00  0.00     0.031 C 
ATOM     59  C   UNL A   1      36.579  33.504  37.389  1.00  0.00     0.029 A 
ATOM     60  C   UNL A   1      38.024  33.465  37.615  1.00  0.00     0.049 A 
ATOM     61  H   UNL A   1      39.525  33.775  36.206  1.00  0.00     0.167 HD
ATOM     62  C   UNL A   1      42.589  34.307  33.112  1.00  0.00     0.031 A 
ATOM     63  C   UNL A   1      38.630  33.226  38.795  1.00  0.00     0.031 A 
ATOM     64  C   UNL A   1      43.317  34.160  34.344  1.00  0.00     0.049 A 
ATOM     65  C   UNL A   1      40.135  33.223  38.863  1.00  0.00     0.074 A 
ATOM     66  C   UNL A   1      44.683  34.225  34.547  1.00  0.00     0.029 A 
ATOM     67  N   UNL A   1      42.740  33.897  35.578  1.00  0.00    -0.354 N 
ATOM     68  N   UNL A   1      41.006  33.430  37.903  1.00  0.00    -0.248 NA
ATOM     69  C   UNL A   1      40.741  32.964  40.178  1.00  0.00     0.031 C 
ATOM     70  C   UNL A   1      44.938  33.929  35.890  1.00  0.00     0.029 A 
ATOM     71  C   UNL A   1      43.725  33.760  36.541  1.00  0.00     0.049 A 
ATOM     72  H   UNL A   1      41.773  33.820  35.745  1.00  0.00     0.167 HD
ATOM     73  C   UNL A   1      42.260  33.353  38.502  1.00  0.00     0.074 A 
ATOM     74  C   UNL A   1      42.033  33.093  39.910  1.00  0.00     0.031 C 
ATOM     75  C   UNL A   1      43.488  33.491  37.939  1.00  0.00     0.031 A 
BRANCH  62  76
ATOM     76  C   UNL A   1      43.359  34.484  31.829  1.00  0.00    -0.014 A 
ATOM     77  C   UNL A   1      43.763  33.382  31.053  1.00  0.00     0.010 A 
ATOM     78  C   UNL A   1      43.685  35.781  31.393  1.00  0.00     0.010 A 
ATOM     79  C   UNL A   1      44.524  33.571  29.896  1.00  0.00     0.020 A 
ATOM     80  C   UNL A   1      44.416  35.977  30.219  1.00  0.00     0.020 A 
ATOM     81  C   UNL A   1      44.851  34.869  29.490  1.00  0.00     0.054 A 
BRANCH  81  82
ATOM     82  S   UNL A   1      45.847  35.085  27.990  1.00  0.00     0.124 S 
ATOM     83  O   UNL A   1      45.994  36.537  27.934  1.00  0.00    -0.237 OA
ATOM     84  O   UNL A   1      47.065  34.342  28.305  1.00  0.00    -0.237 OA
ATOM     85  O   UNL A   1      45.020  34.502  26.936  1.00  0.00    -0.744 OA
ENDBRANCH  81  82
ENDBRANCH  62  76
BRANCH  63  86
ATOM     86  C   UNL A   1      37.805  32.954  40.004  1.00  0.00    -0.014 A 
ATOM     87  C   UNL A   1      37.267  31.678  40.238  1.00  0.00     0.010 A 
ATOM     88  C   UNL A   1      37.582  33.973  40.950  1.00  0.00     0.010 A 
ATOM     89  C   UNL A   1      36.525  31.422  41.397  1.00  0.00     0.020 A 
ATOM     90  C   UNL A   1      36.865  33.715  42.122  1.00  0.00     0.020 A 
ATOM     91  C   UNL A   1      36.340  32.440  42.337  1.00  0.00     0.054 A 
BRANCH  91  92
ATOM     92  S   UNL A   1      35.456  32.058  43.874  1.00  0.00     0.124 S 
ATOM     93  O   UNL A   1      36.253  32.768  44.870  1.00  0.00    -0.237 OA
ATOM     94  O   UNL A   1      34.127  32.609  43.615  1.00  0.00    -0.237 OA
ATOM     95  O   UNL A   1      35.513  30.600  43.949  1.00  0.00    -0.744 OA
ENDBRANCH  91  92
ENDBRANCH  63  86
BRANCH  75  96
ATOM     96  C   UNL A   1      44.688  33.397  38.847  1.00  0.00    -0.014 A 
ATOM     97  C   UNL A   1      45.198  34.525  39.512  1.00  0.00     0.010 A 
ATOM     98  C   UNL A   1      45.275  32.140  39.088  1.00  0.00     0.010 A 
ATOM     99  C   UNL A   1      46.293  34.405  40.374  1.00  0.00     0.020 A 
ATOM    100  C   UNL A   1      46.347  32.009  39.973  1.00  0.00     0.020 A 
ATOM    101  C   UNL A   1      46.859  33.146  40.600  1.00  0.00     0.054 A 
BRANCH 101 102
ATOM    102  S   UNL A   1      48.250  33.010  41.757  1.00  0.00     0.124 S 
ATOM    103  O   UNL A   1      47.663  33.510  42.997  1.00  0.00    -0.237 OA
ATOM    104  O   UNL A   1      48.547  31.580  41.734  1.00  0.00    -0.237 OA
ATOM    105  O   UNL A   1      49.278  33.864  41.167  1.00  0.00    -0.744 OA
ENDBRANCH 101 102
ENDBRANCH  75  96
ENDBRANCH  49  50
ENDBRANCH  42  44
ENDBRANCH  41  42
ENDBRANCH  40  41
ENDBRANCH  39  40
ENDBRANCH  38  39
ENDBRANCH  37  38
ENDBRANCH   1  37
TORSDOF 27
ENDMDL
MODEL 2
REMARK VINA RESULT:      -7.7      8.222     13.786
REMARK SMILES CS(=O)(=O)c1ccc(/C=C(/C(=O)OCCOCCOCCOCCOC(=O)c2ccc(-c3c4nc(c(-c5ccc(S(=O)(=O)[O-])cc5)c5ccc([nH]5)c(-c5ccc(S(=O)(=O)[O-])cc5)c5nc(c(-c6ccc(S(=O)(=O)[O-])cc6)c6ccc3[nH]6)C=C5)C=C4)cc2)c2ccc(-c3ccc(F)cc3F)cc2)cc1
REMARK SMILES IDX 20 1 19 2 18 3 17 4 16 5 15 6 14 7 13 8 11 9 12 10 10 11
REMARK SMILES IDX 9 12 8 13 5 14 6 15 103 16 7 17 102 18 2 19 1 20 3 21 4 22
REMARK SMILES IDX 88 23 89 24 101 25 90 26 100 27 91 28 92 29 93 30 98 31
REMARK SMILES IDX 94 32 97 33 99 34 95 35 96 36 21 37 22 38 23 39 24 40 25 41
REMARK SMILES IDX 26 42 27 43 28 44 29 45 87 46 30 47 86 48 31 49 32 50 33 51
REMARK SMILES IDX 80 52 34 53 85 54 79 55 81 56 35 57 84 58 78 59 77 60 36 62
REMARK SMILES IDX 66 63 47 64 65 65 48 66 51 67 64 68 82 69 49 70 50 71 63 73
REMARK SMILES IDX 83 74 52 75 37 76 38 77 46 78 39 79 45 80 40 81 41 82 42 83
REMARK SMILES IDX 43 84 44 85 67 86 68 87 76 88 69 89 75 90 70 91 71 92 72 93
REMARK SMILES IDX 73 94 74 95 53 96 54 97 62 98 55 99 61 100 56 101 57 102
REMARK SMILES IDX 58 103 59 104 60 105
REMARK H PARENT 81 61 51 72
REMARK Flexibility Score: inf
ROOT
ATOM      1  C   UNL A   1      41.020  28.722  27.739  1.00  0.00     0.188 C 
ENDROOT
BRANCH   1   2
ATOM      2  O   UNL A   1      41.815  28.711  28.917  1.00  0.00    -0.377 OA
BRANCH   2   3
ATOM      3  C   UNL A   1      41.405  29.474  30.038  1.00  0.00     0.188 C 
BRANCH   3   4
ATOM      4  C   UNL A   1      42.450  30.258  30.868  1.00  0.00     0.188 C 
BRANCH   4   5
ATOM      5  O   UNL A   1      42.715  29.702  32.142  1.00  0.00    -0.376 OA
BRANCH   5   6
ATOM      6  C   UNL A   1      41.665  29.702  33.091  1.00  0.00     0.202 C 
BRANCH   6   7
ATOM      7  C   UNL A   1      41.732  28.700  34.256  1.00  0.00     0.261 C 
BRANCH   7   8
ATOM      8  O   UNL A   1      42.097  27.353  33.913  1.00  0.00    -0.460 OA
BRANCH   8   9
ATOM      9  C   UNL A   1      42.005  26.416  34.886  1.00  0.00     0.338 C 
ATOM     10  O   UNL A   1      41.007  26.190  35.556  1.00  0.00    -0.246 OA
BRANCH   9  11
ATOM     11  C   UNL A   1      43.245  25.565  34.917  1.00  0.00     0.067 C 
ATOM     12  C   UNL A   1      43.302  24.506  35.764  1.00  0.00     0.024 C 
BRANCH  12  13
ATOM     13  C   UNL A   1      44.313  23.418  35.826  1.00  0.00    -0.025 A 
ATOM     14  C   UNL A   1      46.476  21.673  35.453  1.00  0.00     0.067 A 
ATOM     15  C   UNL A   1      46.477  22.553  36.531  1.00  0.00     0.021 A 
ATOM     16  C   UNL A   1      45.353  21.559  34.635  1.00  0.00     0.021 A 
ATOM     17  C   UNL A   1      45.371  23.375  36.743  1.00  0.00     0.009 A 
ATOM     18  C   UNL A   1      44.276  22.434  34.825  1.00  0.00     0.009 A 
BRANCH  14  19
ATOM     19  S   UNL A   1      47.964  20.785  35.081  1.00  0.00     0.175 S 
ATOM     20  C   UNL A   1      49.047  22.016  34.413  1.00  0.00     0.163 C 
ATOM     21  O   UNL A   1      47.642  19.850  34.020  1.00  0.00    -0.224 OA
ATOM     22  O   UNL A   1      48.539  20.325  36.331  1.00  0.00    -0.224 OA
ENDBRANCH  14  19
ENDBRANCH  12  13
BRANCH  11  23
ATOM     23  C   UNL A   1      44.342  25.929  33.997  1.00  0.00    -0.011 A 
ATOM     24  C   UNL A   1      45.417  26.708  34.454  1.00  0.00     0.009 A 
ATOM     25  C   UNL A   1      44.398  25.414  32.705  1.00  0.00     0.009 A 
ATOM     26  C   UNL A   1      46.524  26.965  33.645  1.00  0.00     0.009 A 
ATOM     27  C   UNL A   1      45.522  25.651  31.904  1.00  0.00     0.009 A 
ATOM     28  C   UNL A   1      46.605  26.431  32.354  1.00  0.00    -0.015 A 
BRANCH  28  29
ATOM     29  C   UNL A   1      47.786  26.682  31.507  1.00  0.00     0.018 A 
ATOM     30  C   UNL A   1      48.733  25.668  31.252  1.00  0.00     0.015 A 
ATOM     31  C   UNL A   1      48.024  27.945  30.937  1.00  0.00     0.133 A 
ATOM     32  C   UNL A   1      49.861  25.917  30.466  1.00  0.00     0.040 A 
ATOM     33  C   UNL A   1      49.140  28.200  30.147  1.00  0.00     0.079 A 
ATOM     34  F   UNL A   1      47.174  28.959  31.157  1.00  0.00    -0.206 F 
ATOM     35  C   UNL A   1      50.052  27.181  29.921  1.00  0.00     0.126 A 
ATOM     36  F   UNL A   1      51.132  27.418  29.167  1.00  0.00    -0.207 F 
ENDBRANCH  28  29
ENDBRANCH  11  23
ENDBRANCH   9  11
ENDBRANCH   8   9
ENDBRANCH   7   8
ENDBRANCH   6   7
ENDBRANCH   5   6
ENDBRANCH   4   5
ENDBRANCH   3   4
ENDBRANCH   2   3
ENDBRANCH   1   2
BRANCH   1  37
ATOM     37  C   UNL A   1      40.895  27.441  26.879  1.00  0.00     0.188 C 
BRANCH  37  38
ATOM     38  O   UNL A   1      40.449  26.293  27.586  1.00  0.00    -0.376 OA
BRANCH  38  39
ATOM     39  C   UNL A   1      40.686  25.026  26.998  1.00  0.00     0.202 C 
BRANCH  39  40
ATOM     40  C   UNL A   1      42.133  24.684  26.615  1.00  0.00     0.261 C 
BRANCH  40  41
ATOM     41  O   UNL A   1      42.987  24.244  27.681  1.00  0.00    -0.460 OA
BRANCH  41  42
ATOM     42  C   UNL A   1      44.162  23.672  27.345  1.00  0.00     0.338 C 
ATOM     43  O   UNL A   1      44.361  22.494  27.097  1.00  0.00    -0.246 OA
BRANCH  42  44
ATOM     44  C   UNL A   1      45.136  24.762  27.129  1.00  0.00     0.060 A 
ATOM     45  C   UNL A   1      45.696  25.413  28.238  1.00  0.00     0.016 A 
ATOM     46  C   UNL A   1      45.523  25.108  25.833  1.00  0.00     0.016 A 
ATOM     47  C   UNL A   1      46.629  26.432  28.050  1.00  0.00     0.010 A 
ATOM     48  C   UNL A   1      46.436  26.148  25.647  1.00  0.00     0.010 A 
ATOM     49  C   UNL A   1      46.967  26.834  26.752  1.00  0.00    -0.014 A 
BRANCH  49  50
ATOM     50  C   UNL A   1      47.708  28.100  26.545  1.00  0.00     0.031 A 
ATOM     51  C   UNL A   1      49.185  28.020  26.273  1.00  0.00     0.074 A 
ATOM     52  C   UNL A   1      47.090  29.293  26.587  1.00  0.00     0.049 A 
ATOM     53  N   UNL A   1      50.053  28.982  26.103  1.00  0.00    -0.248 NA
ATOM     54  C   UNL A   1      49.761  26.666  26.190  1.00  0.00     0.031 C 
ATOM     55  C   UNL A   1      45.659  29.498  26.800  1.00  0.00     0.029 A 
ATOM     56  N   UNL A   1      47.600  30.562  26.462  1.00  0.00    -0.354 N 
ATOM     57  C   UNL A   1      51.277  28.353  25.907  1.00  0.00     0.074 A 
ATOM     58  C   UNL A   1      51.045  26.930  26.010  1.00  0.00     0.031 C 
ATOM     59  C   UNL A   1      45.407  30.819  26.802  1.00  0.00     0.029 A 
ATOM     60  C   UNL A   1      46.662  31.551  26.629  1.00  0.00     0.049 A 
ATOM     61  H   UNL A   1      48.548  30.744  26.270  1.00  0.00     0.167 HD
ATOM     62  C   UNL A   1      52.487  28.911  25.663  1.00  0.00     0.031 A 
ATOM     63  C   UNL A   1      46.804  32.891  26.663  1.00  0.00     0.031 A 
ATOM     64  C   UNL A   1      52.714  30.330  25.587  1.00  0.00     0.049 A 
ATOM     65  C   UNL A   1      48.170  33.494  26.463  1.00  0.00     0.074 A 
ATOM     66  C   UNL A   1      53.896  30.997  25.323  1.00  0.00     0.029 A 
ATOM     67  N   UNL A   1      51.743  31.300  25.794  1.00  0.00    -0.354 N 
ATOM     68  N   UNL A   1      49.315  32.890  26.243  1.00  0.00    -0.248 NA
ATOM     69  C   UNL A   1      48.262  34.961  26.505  1.00  0.00     0.031 C 
ATOM     70  C   UNL A   1      53.657  32.370  25.444  1.00  0.00     0.029 A 
ATOM     71  C   UNL A   1      52.308  32.560  25.702  1.00  0.00     0.049 A 
ATOM     72  H   UNL A   1      50.794  31.118  25.980  1.00  0.00     0.167 HD
ATOM     73  C   UNL A   1      50.258  33.903  26.094  1.00  0.00     0.074 A 
ATOM     74  C   UNL A   1      49.546  35.158  26.236  1.00  0.00     0.031 C 
ATOM     75  C   UNL A   1      51.590  33.804  25.856  1.00  0.00     0.031 A 
BRANCH  62  76
ATOM     76  C   UNL A   1      53.661  27.978  25.519  1.00  0.00    -0.014 A 
ATOM     77  C   UNL A   1      53.781  27.106  24.421  1.00  0.00     0.010 A 
ATOM     78  C   UNL A   1      54.664  27.974  26.506  1.00  0.00     0.010 A 
ATOM     79  C   UNL A   1      54.852  26.211  24.342  1.00  0.00     0.020 A 
ATOM     80  C   UNL A   1      55.754  27.105  26.412  1.00  0.00     0.020 A 
ATOM     81  C   UNL A   1      55.828  26.213  25.342  1.00  0.00     0.054 A 
BRANCH  81  82
ATOM     82  S   UNL A   1      57.203  25.036  25.218  1.00  0.00     0.124 S 
ATOM     83  O   UNL A   1      57.906  25.260  26.478  1.00  0.00    -0.237 OA
ATOM     84  O   UNL A   1      56.514  23.752  25.103  1.00  0.00    -0.237 OA
ATOM     85  O   UNL A   1      57.921  25.464  24.020  1.00  0.00    -0.744 OA
ENDBRANCH  81  82
ENDBRANCH  62  76
BRANCH  63  86
ATOM     86  C   UNL A   1      45.613  33.750  26.916  1.00  0.00    -0.014 A 
ATOM     87  C   UNL A   1      45.352  34.262  28.197  1.00  0.00     0.010 A 
ATOM     88  C   UNL A   1      44.751  34.088  25.856  1.00  0.00     0.010 A 
ATOM     89  C   UNL A   1      44.253  35.099  28.415  1.00  0.00     0.020 A 
ATOM     90  C   UNL A   1      43.668  34.948  26.063  1.00  0.00     0.020 A 
ATOM     91  C   UNL A   1      43.425  35.446  27.343  1.00  0.00     0.054 A 
BRANCH  91  92
ATOM     92  S   UNL A   1      42.062  36.609  27.633  1.00  0.00     0.124 S 
ATOM     93  O   UNL A   1      42.392  37.144  28.950  1.00  0.00    -0.237 OA
ATOM     94  O   UNL A   1      42.203  37.539  26.516  1.00  0.00    -0.237 OA
ATOM     95  O   UNL A   1      40.873  35.761  27.582  1.00  0.00    -0.744 OA
ENDBRANCH  91  92
ENDBRANCH  63  86
BRANCH  75  96
ATOM     96  C   UNL A   1      52.370  35.085  25.698  1.00  0.00    -0.014 A 
ATOM     97  C   UNL A   1      53.043  35.676  26.781  1.00  0.00     0.010 A 
ATOM     98  C   UNL A   1      52.484  35.671  24.422  1.00  0.00     0.010 A 
ATOM     99  C   UNL A   1      53.786  36.847  26.601  1.00  0.00     0.020 A 
ATOM    100  C   UNL A   1      53.252  36.821  24.230  1.00  0.00     0.020 A 
ATOM    101  C   UNL A   1      53.887  37.411  25.324  1.00  0.00     0.054 A 
BRANCH 101 102
ATOM    102  S   UNL A   1      54.893  38.905  25.108  1.00  0.00     0.124 S 
ATOM    103  O   UNL A   1      55.862  38.476  24.103  1.00  0.00    -0.237 OA
ATOM    104  O   UNL A   1      53.912  39.888  24.654  1.00  0.00    -0.237 OA
ATOM    105  O   UNL A   1      55.443  39.149  26.438  1.00  0.00    -0.744 OA
ENDBRANCH 101 102
ENDBRANCH  75  96
ENDBRANCH  49  50
ENDBRANCH  42  44
ENDBRANCH  41  42
ENDBRANCH  40  41
ENDBRANCH  39  40
ENDBRANCH  38  39
ENDBRANCH  37  38
ENDBRANCH   1  37
TORSDOF 27
ENDMDL
MODEL 3
REMARK VINA RESULT:      -7.6      5.333     14.159
REMARK SMILES CS(=O)(=O)c1ccc(/C=C(/C(=O)OCCOCCOCCOCCOC(=O)c2ccc(-c3c4nc(c(-c5ccc(S(=O)(=O)[O-])cc5)c5ccc([nH]5)c(-c5ccc(S(=O)(=O)[O-])cc5)c5nc(c(-c6ccc(S(=O)(=O)[O-])cc6)c6ccc3[nH]6)C=C5)C=C4)cc2)c2ccc(-c3ccc(F)cc3F)cc2)cc1
REMARK SMILES IDX 20 1 19 2 18 3 17 4 16 5 15 6 14 7 13 8 11 9 12 10 10 11
REMARK SMILES IDX 9 12 8 13 5 14 6 15 103 16 7 17 102 18 2 19 1 20 3 21 4 22
REMARK SMILES IDX 88 23 89 24 101 25 90 26 100 27 91 28 92 29 93 30 98 31
REMARK SMILES IDX 94 32 97 33 99 34 95 35 96 36 21 37 22 38 23 39 24 40 25 41
REMARK SMILES IDX 26 42 27 43 28 44 29 45 87 46 30 47 86 48 31 49 32 50 33 51
REMARK SMILES IDX 80 52 34 53 85 54 79 55 81 56 35 57 84 58 78 59 77 60 36 62
REMARK SMILES IDX 66 63 47 64 65 65 48 66 51 67 64 68 82 69 49 70 50 71 63 73
REMARK SMILES IDX 83 74 52 75 37 76 38 77 46 78 39 79 45 80 40 81 41 82 42 83
REMARK SMILES IDX 43 84 44 85 67 86 68 87 76 88 69 89 75 90 70 91 71 92 72 93
REMARK SMILES IDX 73 94 74 95 53 96 54 97 62 98 55 99 61 100 56 101 57 102
REMARK SMILES IDX 58 103 59 104 60 105
REMARK H PARENT 81 61 51 72
REMARK Flexibility Score: inf
ROOT
ATOM      1  C   UNL A   1      41.784  38.436  45.529  1.00  0.00     0.188 C 
ENDROOT
BRANCH   1   2
ATOM      2  O   UNL A   1      43.166  38.157  45.710  1.00  0.00    -0.377 OA
BRANCH   2   3
ATOM      3  C   UNL A   1      43.883  37.502  44.679  1.00  0.00     0.188 C 
BRANCH   3   4
ATOM      4  C   UNL A   1      45.288  38.006  44.269  1.00  0.00     0.188 C 
BRANCH   4   5
ATOM      5  O   UNL A   1      45.752  37.491  43.036  1.00  0.00    -0.376 OA
BRANCH   5   6
ATOM      6  C   UNL A   1      45.983  38.409  41.984  1.00  0.00     0.202 C 
BRANCH   6   7
ATOM      7  C   UNL A   1      44.776  39.141  41.374  1.00  0.00     0.261 C 
BRANCH   7   8
ATOM      8  O   UNL A   1      43.783  38.313  40.746  1.00  0.00    -0.460 OA
BRANCH   8   9
ATOM      9  C   UNL A   1      43.577  38.486  39.419  1.00  0.00     0.338 C 
ATOM     10  O   UNL A   1      43.411  39.563  38.865  1.00  0.00    -0.246 OA
BRANCH   9  11
ATOM     11  C   UNL A   1      43.753  37.185  38.684  1.00  0.00     0.067 C 
ATOM     12  C   UNL A   1      43.693  37.174  37.329  1.00  0.00     0.024 C 
BRANCH  12  13
ATOM     13  C   UNL A   1      44.037  36.073  36.392  1.00  0.00    -0.025 A 
ATOM     14  C   UNL A   1      44.611  34.443  34.184  1.00  0.00     0.067 A 
ATOM     15  C   UNL A   1      45.642  34.862  35.019  1.00  0.00     0.021 A 
ATOM     16  C   UNL A   1      43.283  34.715  34.510  1.00  0.00     0.021 A 
ATOM     17  C   UNL A   1      45.340  35.623  36.148  1.00  0.00     0.009 A 
ATOM     18  C   UNL A   1      43.002  35.530  35.613  1.00  0.00     0.009 A 
BRANCH  14  19
ATOM     19  S   UNL A   1      45.026  33.653  32.653  1.00  0.00     0.175 S 
ATOM     20  C   UNL A   1      46.628  32.957  32.945  1.00  0.00     0.163 C 
ATOM     21  O   UNL A   1      45.169  34.704  31.662  1.00  0.00    -0.224 OA
ATOM     22  O   UNL A   1      44.102  32.555  32.446  1.00  0.00    -0.224 OA
ENDBRANCH  14  19
ENDBRANCH  12  13
BRANCH  11  23
ATOM     23  C   UNL A   1      43.999  35.974  39.496  1.00  0.00    -0.011 A 
ATOM     24  C   UNL A   1      42.922  35.199  39.952  1.00  0.00     0.009 A 
ATOM     25  C   UNL A   1      45.293  35.512  39.723  1.00  0.00     0.009 A 
ATOM     26  C   UNL A   1      43.126  33.988  40.613  1.00  0.00     0.009 A 
ATOM     27  C   UNL A   1      45.496  34.284  40.364  1.00  0.00     0.009 A 
ATOM     28  C   UNL A   1      44.421  33.498  40.825  1.00  0.00    -0.015 A 
BRANCH  28  29
ATOM     29  C   UNL A   1      44.637  32.207  41.503  1.00  0.00     0.018 A 
ATOM     30  C   UNL A   1      44.681  32.116  42.910  1.00  0.00     0.015 A 
ATOM     31  C   UNL A   1      44.823  31.019  40.774  1.00  0.00     0.133 A 
ATOM     32  C   UNL A   1      44.906  30.893  43.547  1.00  0.00     0.040 A 
ATOM     33  C   UNL A   1      45.040  29.796  41.400  1.00  0.00     0.079 A 
ATOM     34  F   UNL A   1      44.813  31.038  39.433  1.00  0.00    -0.206 F 
ATOM     35  C   UNL A   1      45.083  29.746  42.784  1.00  0.00     0.126 A 
ATOM     36  F   UNL A   1      45.297  28.573  43.394  1.00  0.00    -0.207 F 
ENDBRANCH  28  29
ENDBRANCH  11  23
ENDBRANCH   9  11
ENDBRANCH   8   9
ENDBRANCH   7   8
ENDBRANCH   6   7
ENDBRANCH   5   6
ENDBRANCH   4   5
ENDBRANCH   3   4
ENDBRANCH   2   3
ENDBRANCH   1   2
BRANCH   1  37
ATOM     37  C   UNL A   1      40.749  37.287  45.592  1.00  0.00     0.188 C 
BRANCH  37  38
ATOM     38  O   UNL A   1      41.305  35.982  45.534  1.00  0.00    -0.376 OA
BRANCH  38  39
ATOM     39  C   UNL A   1      40.786  35.088  44.566  1.00  0.00     0.202 C 
BRANCH  39  40
ATOM     40  C   UNL A   1      39.792  35.654  43.543  1.00  0.00     0.261 C 
BRANCH  40  41
ATOM     41  O   UNL A   1      40.229  35.679  42.177  1.00  0.00    -0.460 OA
BRANCH  41  42
ATOM     42  C   UNL A   1      39.533  36.447  41.312  1.00  0.00     0.338 C 
ATOM     43  O   UNL A   1      39.140  37.588  41.494  1.00  0.00    -0.246 OA
BRANCH  42  44
ATOM     44  C   UNL A   1      39.504  35.736  40.017  1.00  0.00     0.060 A 
ATOM     45  C   UNL A   1      38.987  34.433  39.959  1.00  0.00     0.016 A 
ATOM     46  C   UNL A   1      39.949  36.374  38.857  1.00  0.00     0.016 A 
ATOM     47  C   UNL A   1      38.938  33.756  38.742  1.00  0.00     0.010 A 
ATOM     48  C   UNL A   1      39.925  35.684  37.645  1.00  0.00     0.010 A 
ATOM     49  C   UNL A   1      39.449  34.362  37.588  1.00  0.00    -0.014 A 
BRANCH  49  50
ATOM     50  C   UNL A   1      39.682  33.548  36.372  1.00  0.00     0.031 A 
ATOM     51  C   UNL A   1      40.885  32.646  36.344  1.00  0.00     0.074 A 
ATOM     52  C   UNL A   1      38.847  33.598  35.320  1.00  0.00     0.049 A 
ATOM     53  N   UNL A   1      41.324  31.875  35.384  1.00  0.00    -0.248 NA
ATOM     54  C   UNL A   1      41.709  32.618  37.565  1.00  0.00     0.031 C 
ATOM     55  C   UNL A   1      37.627  34.400  35.245  1.00  0.00     0.029 A 
ATOM     56  N   UNL A   1      38.911  32.961  34.105  1.00  0.00    -0.354 N 
ATOM     57  C   UNL A   1      42.480  31.281  35.878  1.00  0.00     0.074 A 
ATOM     58  C   UNL A   1      42.691  31.805  37.209  1.00  0.00     0.031 C 
ATOM     59  C   UNL A   1      37.062  34.215  34.039  1.00  0.00     0.029 A 
ATOM     60  C   UNL A   1      37.899  33.313  33.246  1.00  0.00     0.049 A 
ATOM     61  H   UNL A   1      39.614  32.314  33.874  1.00  0.00     0.167 HD
ATOM     62  C   UNL A   1      43.293  30.380  35.277  1.00  0.00     0.031 A 
ATOM     63  C   UNL A   1      37.687  32.969  31.960  1.00  0.00     0.031 A 
ATOM     64  C   UNL A   1      43.090  29.884  33.943  1.00  0.00     0.049 A 
ATOM     65  C   UNL A   1      38.643  32.022  31.283  1.00  0.00     0.074 A 
ATOM     66  C   UNL A   1      43.843  28.954  33.249  1.00  0.00     0.029 A 
ATOM     67  N   UNL A   1      42.072  30.290  33.092  1.00  0.00    -0.354 N 
ATOM     68  N   UNL A   1      39.713  31.439  31.771  1.00  0.00    -0.248 NA
ATOM     69  C   UNL A   1      38.357  31.677  29.882  1.00  0.00     0.031 C 
ATOM     70  C   UNL A   1      43.324  28.853  31.954  1.00  0.00     0.029 A 
ATOM     71  C   UNL A   1      42.198  29.658  31.867  1.00  0.00     0.049 A 
ATOM     72  H   UNL A   1      41.364  30.933  33.326  1.00  0.00     0.167 HD
ATOM     73  C   UNL A   1      40.213  30.639  30.747  1.00  0.00     0.074 A 
ATOM     74  C   UNL A   1      39.320  30.803  29.618  1.00  0.00     0.031 C 
ATOM     75  C   UNL A   1      41.308  29.838  30.745  1.00  0.00     0.031 A 
BRANCH  62  76
ATOM     76  C   UNL A   1      44.507  29.925  36.046  1.00  0.00    -0.014 A 
ATOM     77  C   UNL A   1      44.494  28.747  36.815  1.00  0.00     0.010 A 
ATOM     78  C   UNL A   1      45.683  30.696  35.997  1.00  0.00     0.010 A 
ATOM     79  C   UNL A   1      45.615  28.378  37.563  1.00  0.00     0.020 A 
ATOM     80  C   UNL A   1      46.817  30.311  36.716  1.00  0.00     0.020 A 
ATOM     81  C   UNL A   1      46.768  29.167  37.514  1.00  0.00     0.054 A 
BRANCH  81  82
ATOM     82  S   UNL A   1      48.206  28.669  38.501  1.00  0.00     0.124 S 
ATOM     83  O   UNL A   1      49.160  29.733  38.201  1.00  0.00    -0.237 OA
ATOM     84  O   UNL A   1      47.674  28.667  39.861  1.00  0.00    -0.237 OA
ATOM     85  O   UNL A   1      48.554  27.353  37.969  1.00  0.00    -0.744 OA
ENDBRANCH  81  82
ENDBRANCH  62  76
BRANCH  63  86
ATOM     86  C   UNL A   1      36.523  33.541  31.228  1.00  0.00    -0.014 A 
ATOM     87  C   UNL A   1      35.338  33.876  31.906  1.00  0.00     0.010 A 
ATOM     88  C   UNL A   1      36.611  33.787  29.845  1.00  0.00     0.010 A 
ATOM     89  C   UNL A   1      34.265  34.450  31.216  1.00  0.00     0.020 A 
ATOM     90  C   UNL A   1      35.551  34.386  29.157  1.00  0.00     0.020 A 
ATOM     91  C   UNL A   1      34.384  34.712  29.848  1.00  0.00     0.054 A 
BRANCH  91  92
ATOM     92  S   UNL A   1      33.014  35.543  28.996  1.00  0.00     0.124 S 
ATOM     93  O   UNL A   1      32.477  34.471  28.164  1.00  0.00    -0.237 OA
ATOM     94  O   UNL A   1      32.167  35.968  30.108  1.00  0.00    -0.237 OA
ATOM     95  O   UNL A   1      33.670  36.630  28.273  1.00  0.00    -0.744 OA
ENDBRANCH  91  92
ENDBRANCH  63  86
BRANCH  75  96
ATOM     96  C   UNL A   1      41.591  29.045  29.494  1.00  0.00    -0.014 A 
ATOM     97  C   UNL A   1      41.163  27.713  29.353  1.00  0.00     0.010 A 
ATOM     98  C   UNL A   1      42.243  29.670  28.413  1.00  0.00     0.010 A 
ATOM     99  C   UNL A   1      41.410  27.011  28.170  1.00  0.00     0.020 A 
ATOM    100  C   UNL A   1      42.463  28.983  27.217  1.00  0.00     0.020 A 
ATOM    101  C   UNL A   1      42.058  27.652  27.108  1.00  0.00     0.054 A 
BRANCH 101 102
ATOM    102  S   UNL A   1      42.328  26.733  25.567  1.00  0.00     0.124 S 
ATOM    103  O   UNL A   1      43.437  25.854  25.928  1.00  0.00    -0.237 OA
ATOM    104  O   UNL A   1      41.042  26.071  25.361  1.00  0.00    -0.237 OA
ATOM    105  O   UNL A   1      42.650  27.772  24.593  1.00  0.00    -0.744 OA
ENDBRANCH 101 102
ENDBRANCH  75  96
ENDBRANCH  49  50
ENDBRANCH  42  44
ENDBRANCH  41  42
ENDBRANCH  40  41
ENDBRANCH  39  40
ENDBRANCH  38  39
ENDBRANCH  37  38
ENDBRANCH   1  37
TORSDOF 27
ENDMDL
