MODEL 1
REMARK VINA RESULT:      -9.3      0.000      0.000
REMARK SMILES Cc1ccc(C[C@H](C(=O)OCCOCCOCCOCCOC(=O)c2ccc(-c3c4nc(c(-c5ccc(S(=O)(=O)[O-])cc5)c5ccc([nH]5)c(-c5ccc(S(=O)(=O)[O-])cc5)c5nc(c(-c6ccc(S(=O)(=O)[O-])cc6)c6ccc3[nH]6)C=C5)C=C4)cc2)[C@@H]2CCCC[C@@H]2O)cc1
REMARK SMILES IDX 17 1 16 2 15 3 14 4 13 5 12 6 11 7 10 8 8 9 9 10 7 11 6 12
REMARK SMILES IDX 5 13 1 14 2 15 3 16 93 17 4 18 92 19 85 20 86 21 90 22 87 23
REMARK SMILES IDX 89 24 88 25 91 26 18 28 19 29 20 30 21 31 22 32 23 33 24 34
REMARK SMILES IDX 25 35 26 36 84 37 27 38 83 39 28 40 29 41 30 42 77 43 31 44
REMARK SMILES IDX 82 45 76 46 78 47 32 48 81 49 75 50 74 51 33 53 63 54 44 55
REMARK SMILES IDX 62 56 45 57 48 58 61 59 79 60 46 61 47 62 60 64 80 65 49 66
REMARK SMILES IDX 34 67 35 68 43 69 36 70 42 71 37 72 38 73 39 74 40 75 41 76
REMARK SMILES IDX 64 77 65 78 73 79 66 80 72 81 67 82 68 83 69 84 70 85 71 86
REMARK SMILES IDX 50 87 51 88 59 89 52 90 58 91 53 92 54 93 55 94 56 95 57 96
REMARK H PARENT 91 27 78 52 48 63
REMARK Flexibility Score: inf
ROOT
ATOM      1  C   UNL A   1      44.601  19.026  24.756  1.00  0.00     0.188 C 
ENDROOT
BRANCH   1   2
ATOM      2  O   UNL A   1      43.957  18.154  25.695  1.00  0.00    -0.377 OA
BRANCH   2   3
ATOM      3  C   UNL A   1      42.621  18.453  26.060  1.00  0.00     0.188 C 
BRANCH   3   4
ATOM      4  C   UNL A   1      42.187  19.920  26.153  1.00  0.00     0.188 C 
BRANCH   4   5
ATOM      5  O   UNL A   1      42.203  20.599  27.397  1.00  0.00    -0.376 OA
BRANCH   5   6
ATOM      6  C   UNL A   1      41.206  21.610  27.536  1.00  0.00     0.202 C 
BRANCH   6   7
ATOM      7  C   UNL A   1      41.660  23.054  27.390  1.00  0.00     0.261 C 
BRANCH   7   8
ATOM      8  O   UNL A   1      40.661  23.879  28.016  1.00  0.00    -0.463 OA
BRANCH   8   9
ATOM      9  C   UNL A   1      39.943  24.634  27.171  1.00  0.00     0.309 C 
ATOM     10  O   UNL A   1      39.094  24.195  26.396  1.00  0.00    -0.252 OA
BRANCH   9  11
ATOM     11  C   UNL A   1      40.095  26.112  27.509  1.00  0.00     0.109 C 
BRANCH  11  12
ATOM     12  C   UNL A   1      39.519  26.445  28.909  1.00  0.00     0.051 C 
BRANCH  12  13
ATOM     13  C   UNL A   1      38.783  27.737  29.269  1.00  0.00    -0.047 A 
ATOM     14  C   UNL A   1      36.153  31.177  29.902  1.00  0.00     0.044 C 
ATOM     15  C   UNL A   1      37.034  29.972  29.708  1.00  0.00    -0.051 A 
ATOM     16  C   UNL A   1      37.500  29.190  30.777  1.00  0.00     0.004 A 
ATOM     17  C   UNL A   1      37.468  29.641  28.426  1.00  0.00     0.004 A 
ATOM     18  C   UNL A   1      38.362  28.084  30.562  1.00  0.00     0.004 A 
ATOM     19  C   UNL A   1      38.312  28.541  28.212  1.00  0.00     0.004 A 
ENDBRANCH  12  13
ENDBRANCH  11  12
BRANCH  11  20
ATOM     20  C   UNL A   1      41.666  26.353  27.361  1.00  0.00     0.032 C 
ATOM     21  C   UNL A   1      42.314  27.286  28.388  1.00  0.00     0.007 C 
ATOM     22  C   UNL A   1      42.118  26.820  25.944  1.00  0.00     0.118 C 
ATOM     23  C   UNL A   1      41.953  28.745  28.152  1.00  0.00     0.001 C 
ATOM     24  C   UNL A   1      41.753  28.283  25.683  1.00  0.00     0.032 C 
ATOM     25  C   UNL A   1      42.353  29.190  26.748  1.00  0.00     0.003 C 
BRANCH  22  26
ATOM     26  O   UNL A   1      41.609  26.031  24.887  1.00  0.00    -0.393 OA
ATOM     27  H   UNL A   1      42.031  25.157  24.903  1.00  0.00     0.210 HD
ENDBRANCH  22  26
ENDBRANCH  11  20
ENDBRANCH   9  11
ENDBRANCH   8   9
ENDBRANCH   7   8
ENDBRANCH   6   7
ENDBRANCH   5   6
ENDBRANCH   4   5
ENDBRANCH   3   4
ENDBRANCH   2   3
ENDBRANCH   1   2
BRANCH   1  28
ATOM     28  C   UNL A   1      46.045  19.430  25.024  1.00  0.00     0.188 C 
BRANCH  28  29
ATOM     29  O   UNL A   1      46.055  20.818  25.377  1.00  0.00    -0.376 OA
BRANCH  29  30
ATOM     30  C   UNL A   1      44.971  21.581  24.874  1.00  0.00     0.202 C 
BRANCH  30  31
ATOM     31  C   UNL A   1      44.830  22.959  25.524  1.00  0.00     0.261 C 
BRANCH  31  32
ATOM     32  O   UNL A   1      45.210  22.915  26.914  1.00  0.00    -0.460 OA
BRANCH  32  33
ATOM     33  C   UNL A   1      46.255  23.719  27.266  1.00  0.00     0.338 C 
ATOM     34  O   UNL A   1      47.252  23.863  26.580  1.00  0.00    -0.246 OA
BRANCH  33  35
ATOM     35  C   UNL A   1      45.932  24.531  28.469  1.00  0.00     0.060 A 
ATOM     36  C   UNL A   1      46.887  25.356  29.078  1.00  0.00     0.016 A 
ATOM     37  C   UNL A   1      44.672  24.415  29.039  1.00  0.00     0.016 A 
ATOM     38  C   UNL A   1      46.616  25.964  30.317  1.00  0.00     0.010 A 
ATOM     39  C   UNL A   1      44.429  24.975  30.278  1.00  0.00     0.010 A 
ATOM     40  C   UNL A   1      45.400  25.724  30.961  1.00  0.00    -0.014 A 
BRANCH  40  41
ATOM     41  C   UNL A   1      45.110  26.001  32.388  1.00  0.00     0.031 A 
ATOM     42  C   UNL A   1      44.440  27.274  32.813  1.00  0.00     0.074 A 
ATOM     43  C   UNL A   1      45.023  24.924  33.205  1.00  0.00     0.049 A 
ATOM     44  N   UNL A   1      43.941  27.512  33.982  1.00  0.00    -0.248 NA
ATOM     45  C   UNL A   1      44.219  28.392  31.904  1.00  0.00     0.031 C 
ATOM     46  C   UNL A   1      44.191  24.798  34.399  1.00  0.00     0.029 A 
ATOM     47  N   UNL A   1      45.594  23.668  33.124  1.00  0.00    -0.354 N 
ATOM     48  C   UNL A   1      43.061  28.570  33.890  1.00  0.00     0.074 A 
ATOM     49  C   UNL A   1      43.336  29.129  32.586  1.00  0.00     0.031 C 
ATOM     50  C   UNL A   1      44.371  23.609  34.979  1.00  0.00     0.029 A 
ATOM     51  C   UNL A   1      45.564  23.088  34.387  1.00  0.00     0.049 A 
ATOM     52  H   UNL A   1      45.960  23.254  32.310  1.00  0.00     0.167 HD
ATOM     53  C   UNL A   1      42.120  28.765  34.870  1.00  0.00     0.031 A 
ATOM     54  C   UNL A   1      46.702  22.892  35.106  1.00  0.00     0.031 A 
ATOM     55  C   UNL A   1      42.289  27.822  36.010  1.00  0.00     0.049 A 
ATOM     56  C   UNL A   1      46.637  23.752  36.389  1.00  0.00     0.074 A 
ATOM     57  C   UNL A   1      41.446  26.968  36.704  1.00  0.00     0.029 A 
ATOM     58  N   UNL A   1      43.575  27.529  36.499  1.00  0.00    -0.354 N 
ATOM     59  N   UNL A   1      46.036  24.931  36.458  1.00  0.00    -0.248 NA
ATOM     60  C   UNL A   1      46.936  23.236  37.724  1.00  0.00     0.031 C 
ATOM     61  C   UNL A   1      42.238  26.098  37.510  1.00  0.00     0.029 A 
ATOM     62  C   UNL A   1      43.574  26.456  37.372  1.00  0.00     0.049 A 
ATOM     63  H   UNL A   1      44.384  28.032  36.249  1.00  0.00     0.167 HD
ATOM     64  C   UNL A   1      45.680  25.208  37.766  1.00  0.00     0.074 A 
ATOM     65  C   UNL A   1      46.333  24.143  38.519  1.00  0.00     0.031 C 
ATOM     66  C   UNL A   1      44.740  26.122  38.199  1.00  0.00     0.031 A 
BRANCH  53  67
ATOM     67  C   UNL A   1      40.895  29.699  34.715  1.00  0.00    -0.014 A 
ATOM     68  C   UNL A   1      40.188  29.798  33.493  1.00  0.00     0.010 A 
ATOM     69  C   UNL A   1      40.384  30.522  35.739  1.00  0.00     0.010 A 
ATOM     70  C   UNL A   1      39.093  30.672  33.300  1.00  0.00     0.020 A 
ATOM     71  C   UNL A   1      39.300  31.408  35.568  1.00  0.00     0.020 A 
ATOM     72  C   UNL A   1      38.653  31.477  34.345  1.00  0.00     0.054 A 
BRANCH  72  73
ATOM     73  S   UNL A   1      37.204  32.546  34.118  1.00  0.00     0.124 S 
ATOM     74  O   UNL A   1      36.741  32.752  35.487  1.00  0.00    -0.237 OA
ATOM     75  O   UNL A   1      37.775  33.720  33.462  1.00  0.00    -0.237 OA
ATOM     76  O   UNL A   1      36.310  31.748  33.280  1.00  0.00    -0.744 OA
ENDBRANCH  72  73
ENDBRANCH  53  67
BRANCH  54  77
ATOM     77  C   UNL A   1      47.733  22.202  34.248  1.00  0.00    -0.014 A 
ATOM     78  C   UNL A   1      48.987  22.877  34.251  1.00  0.00     0.010 A 
ATOM     79  C   UNL A   1      47.792  20.798  34.112  1.00  0.00     0.010 A 
ATOM     80  C   UNL A   1      50.214  22.212  34.352  1.00  0.00     0.020 A 
ATOM     81  C   UNL A   1      49.037  20.112  34.204  1.00  0.00     0.020 A 
ATOM     82  C   UNL A   1      50.229  20.828  34.393  1.00  0.00     0.054 A 
BRANCH  82  83
ATOM     83  S   UNL A   1      51.775  20.034  34.951  1.00  0.00     0.124 S 
ATOM     84  O   UNL A   1      52.191  20.895  36.053  1.00  0.00    -0.237 OA
ATOM     85  O   UNL A   1      51.317  18.700  35.339  1.00  0.00    -0.237 OA
ATOM     86  O   UNL A   1      52.618  20.073  33.763  1.00  0.00    -0.744 OA
ENDBRANCH  82  83
ENDBRANCH  54  77
BRANCH  66  87
ATOM     87  C   UNL A   1      44.777  26.859  39.542  1.00  0.00    -0.014 A 
ATOM     88  C   UNL A   1      44.303  26.362  40.757  1.00  0.00     0.010 A 
ATOM     89  C   UNL A   1      45.501  28.087  39.608  1.00  0.00     0.010 A 
ATOM     90  C   UNL A   1      44.599  27.005  41.970  1.00  0.00     0.020 A 
ATOM     91  C   UNL A   1      45.822  28.724  40.807  1.00  0.00     0.020 A 
ATOM     92  C   UNL A   1      45.388  28.157  41.991  1.00  0.00     0.054 A 
BRANCH  92  93
ATOM     93  S   UNL A   1      45.930  28.819  43.582  1.00  0.00     0.124 S 
ATOM     94  O   UNL A   1      45.207  30.086  43.649  1.00  0.00    -0.237 OA
ATOM     95  O   UNL A   1      45.476  27.788  44.513  1.00  0.00    -0.237 OA
ATOM     96  O   UNL A   1      47.380  28.932  43.445  1.00  0.00    -0.744 OA
ENDBRANCH  92  93
ENDBRANCH  66  87
ENDBRANCH  40  41
ENDBRANCH  33  35
ENDBRANCH  32  33
ENDBRANCH  31  32
ENDBRANCH  30  31
ENDBRANCH  29  30
ENDBRANCH  28  29
ENDBRANCH   1  28
TORSDOF 27
ENDMDL
MODEL 2
REMARK VINA RESULT:      -9.1      0.989      2.687
REMARK SMILES Cc1ccc(C[C@H](C(=O)OCCOCCOCCOCCOC(=O)c2ccc(-c3c4nc(c(-c5ccc(S(=O)(=O)[O-])cc5)c5ccc([nH]5)c(-c5ccc(S(=O)(=O)[O-])cc5)c5nc(c(-c6ccc(S(=O)(=O)[O-])cc6)c6ccc3[nH]6)C=C5)C=C4)cc2)[C@@H]2CCCC[C@@H]2O)cc1
REMARK SMILES IDX 17 1 16 2 15 3 14 4 13 5 12 6 11 7 10 8 8 9 9 10 7 11 6 12
REMARK SMILES IDX 5 13 1 14 2 15 3 16 93 17 4 18 92 19 85 20 86 21 90 22 87 23
REMARK SMILES IDX 89 24 88 25 91 26 18 28 19 29 20 30 21 31 22 32 23 33 24 34
REMARK SMILES IDX 25 35 26 36 84 37 27 38 83 39 28 40 29 41 30 42 77 43 31 44
REMARK SMILES IDX 82 45 76 46 78 47 32 48 81 49 75 50 74 51 33 53 63 54 44 55
REMARK SMILES IDX 62 56 45 57 48 58 61 59 79 60 46 61 47 62 60 64 80 65 49 66
REMARK SMILES IDX 34 67 35 68 43 69 36 70 42 71 37 72 38 73 39 74 40 75 41 76
REMARK SMILES IDX 64 77 65 78 73 79 66 80 72 81 67 82 68 83 69 84 70 85 71 86
REMARK SMILES IDX 50 87 51 88 59 89 52 90 58 91 53 92 54 93 55 94 56 95 57 96
REMARK H PARENT 91 27 78 52 48 63
REMARK Flexibility Score: inf
ROOT
ATOM      1  C   UNL A   1      44.528  19.049  24.773  1.00  0.00     0.188 C 
ENDROOT
BRANCH   1   2
ATOM      2  O   UNL A   1      43.964  18.107  25.696  1.00  0.00    -0.377 OA
BRANCH   2   3
ATOM      3  C   UNL A   1      42.640  18.340  26.146  1.00  0.00     0.188 C 
BRANCH   3   4
ATOM      4  C   UNL A   1      42.163  19.784  26.333  1.00  0.00     0.188 C 
BRANCH   4   5
ATOM      5  O   UNL A   1      41.886  20.290  27.627  1.00  0.00    -0.376 OA
BRANCH   5   6
ATOM      6  C   UNL A   1      41.167  21.522  27.643  1.00  0.00     0.202 C 
BRANCH   6   7
ATOM      7  C   UNL A   1      41.983  22.798  27.789  1.00  0.00     0.261 C 
BRANCH   7   8
ATOM      8  O   UNL A   1      41.079  23.835  28.208  1.00  0.00    -0.463 OA
BRANCH   8   9
ATOM      9  C   UNL A   1      40.679  24.662  27.230  1.00  0.00     0.309 C 
ATOM     10  O   UNL A   1      39.708  24.461  26.501  1.00  0.00    -0.252 OA
BRANCH   9  11
ATOM     11  C   UNL A   1      41.387  26.008  27.342  1.00  0.00     0.109 C 
BRANCH  11  12
ATOM     12  C   UNL A   1      42.376  26.237  26.172  1.00  0.00     0.051 C 
BRANCH  12  13
ATOM     13  C   UNL A   1      43.726  26.947  26.292  1.00  0.00    -0.047 A 
ATOM     14  C   UNL A   1      47.683  28.576  27.208  1.00  0.00     0.044 C 
ATOM     15  C   UNL A   1      46.339  27.982  26.880  1.00  0.00    -0.051 A 
ATOM     16  C   UNL A   1      46.066  27.343  25.661  1.00  0.00     0.004 A 
ATOM     17  C   UNL A   1      45.292  28.119  27.788  1.00  0.00     0.004 A 
ATOM     18  C   UNL A   1      44.777  26.829  25.369  1.00  0.00     0.004 A 
ATOM     19  C   UNL A   1      44.019  27.601  27.505  1.00  0.00     0.004 A 
ENDBRANCH  12  13
ENDBRANCH  11  12
BRANCH  11  20
ATOM     20  C   UNL A   1      40.176  27.046  27.404  1.00  0.00     0.032 C 
ATOM     21  C   UNL A   1      40.486  28.483  26.978  1.00  0.00     0.007 C 
ATOM     22  C   UNL A   1      39.445  27.105  28.780  1.00  0.00     0.118 C 
ATOM     23  C   UNL A   1      41.322  29.224  28.009  1.00  0.00     0.001 C 
ATOM     24  C   UNL A   1      40.276  27.838  29.835  1.00  0.00     0.032 C 
ATOM     25  C   UNL A   1      40.628  29.244  29.369  1.00  0.00     0.003 C 
BRANCH  22  26
ATOM     26  O   UNL A   1      39.075  25.840  29.292  1.00  0.00    -0.393 OA
ATOM     27  H   UNL A   1      39.633  25.153  28.892  1.00  0.00     0.210 HD
ENDBRANCH  22  26
ENDBRANCH  11  20
ENDBRANCH   9  11
ENDBRANCH   8   9
ENDBRANCH   7   8
ENDBRANCH   6   7
ENDBRANCH   5   6
ENDBRANCH   4   5
ENDBRANCH   3   4
ENDBRANCH   2   3
ENDBRANCH   1   2
BRANCH   1  28
ATOM     28  C   UNL A   1      45.990  19.437  24.948  1.00  0.00     0.188 C 
BRANCH  28  29
ATOM     29  O   UNL A   1      46.035  20.800  25.385  1.00  0.00    -0.376 OA
BRANCH  29  30
ATOM     30  C   UNL A   1      45.000  21.632  24.887  1.00  0.00     0.202 C 
BRANCH  30  31
ATOM     31  C   UNL A   1      45.003  23.044  25.477  1.00  0.00     0.261 C 
BRANCH  31  32
ATOM     32  O   UNL A   1      45.322  23.015  26.883  1.00  0.00    -0.460 OA
BRANCH  32  33
ATOM     33  C   UNL A   1      46.402  23.758  27.259  1.00  0.00     0.338 C 
ATOM     34  O   UNL A   1      47.416  23.855  26.589  1.00  0.00    -0.246 OA
BRANCH  33  35
ATOM     35  C   UNL A   1      46.105  24.574  28.466  1.00  0.00     0.060 A 
ATOM     36  C   UNL A   1      47.103  25.305  29.124  1.00  0.00     0.016 A 
ATOM     37  C   UNL A   1      44.819  24.555  28.989  1.00  0.00     0.016 A 
ATOM     38  C   UNL A   1      46.838  25.913  30.365  1.00  0.00     0.010 A 
ATOM     39  C   UNL A   1      44.580  25.112  30.230  1.00  0.00     0.010 A 
ATOM     40  C   UNL A   1      45.583  25.765  30.961  1.00  0.00    -0.014 A 
BRANCH  40  41
ATOM     41  C   UNL A   1      45.266  26.041  32.382  1.00  0.00     0.031 A 
ATOM     42  C   UNL A   1      44.574  27.307  32.793  1.00  0.00     0.074 A 
ATOM     43  C   UNL A   1      45.177  24.965  33.200  1.00  0.00     0.049 A 
ATOM     44  N   UNL A   1      44.053  27.542  33.953  1.00  0.00    -0.248 NA
ATOM     45  C   UNL A   1      44.357  28.421  31.878  1.00  0.00     0.031 C 
ATOM     46  C   UNL A   1      44.326  24.832  34.380  1.00  0.00     0.029 A 
ATOM     47  N   UNL A   1      45.764  23.715  33.131  1.00  0.00    -0.354 N 
ATOM     48  C   UNL A   1      43.162  28.589  33.843  1.00  0.00     0.074 A 
ATOM     49  C   UNL A   1      43.454  29.149  32.543  1.00  0.00     0.031 C 
ATOM     50  C   UNL A   1      44.510  23.646  34.964  1.00  0.00     0.029 A 
ATOM     51  C   UNL A   1      45.719  23.137  34.395  1.00  0.00     0.049 A 
ATOM     52  H   UNL A   1      46.149  23.304  32.324  1.00  0.00     0.167 HD
ATOM     53  C   UNL A   1      42.202  28.775  34.807  1.00  0.00     0.031 A 
ATOM     54  C   UNL A   1      46.846  22.955  35.134  1.00  0.00     0.031 A 
ATOM     55  C   UNL A   1      42.362  27.837  35.951  1.00  0.00     0.049 A 
ATOM     56  C   UNL A   1      46.750  23.817  36.413  1.00  0.00     0.074 A 
ATOM     57  C   UNL A   1      41.518  26.974  36.632  1.00  0.00     0.029 A 
ATOM     58  N   UNL A   1      43.643  27.559  36.464  1.00  0.00    -0.354 N 
ATOM     59  N   UNL A   1      46.134  24.990  36.469  1.00  0.00    -0.248 NA
ATOM     60  C   UNL A   1      47.031  23.307  37.754  1.00  0.00     0.031 C 
ATOM     61  C   UNL A   1      42.306  26.115  37.453  1.00  0.00     0.029 A 
ATOM     62  C   UNL A   1      43.639  26.487  37.338  1.00  0.00     0.049 A 
ATOM     63  H   UNL A   1      44.451  28.071  36.226  1.00  0.00     0.167 HD
ATOM     64  C   UNL A   1      45.753  25.265  37.771  1.00  0.00     0.074 A 
ATOM     65  C   UNL A   1      46.404  24.208  38.537  1.00  0.00     0.031 C 
ATOM     66  C   UNL A   1      44.794  26.169  38.186  1.00  0.00     0.031 A 
BRANCH  53  67
ATOM     67  C   UNL A   1      40.969  29.695  34.628  1.00  0.00    -0.014 A 
ATOM     68  C   UNL A   1      40.082  29.542  33.537  1.00  0.00     0.010 A 
ATOM     69  C   UNL A   1      40.625  30.746  35.503  1.00  0.00     0.010 A 
ATOM     70  C   UNL A   1      38.971  30.389  33.317  1.00  0.00     0.020 A 
ATOM     71  C   UNL A   1      39.529  31.610  35.298  1.00  0.00     0.020 A 
ATOM     72  C   UNL A   1      38.700  31.425  34.204  1.00  0.00     0.054 A 
BRANCH  72  73
ATOM     73  S   UNL A   1      37.235  32.469  33.960  1.00  0.00     0.124 S 
ATOM     74  O   UNL A   1      36.779  32.704  35.327  1.00  0.00    -0.237 OA
ATOM     75  O   UNL A   1      37.786  33.633  33.270  1.00  0.00    -0.237 OA
ATOM     76  O   UNL A   1      36.347  31.637  33.149  1.00  0.00    -0.744 OA
ENDBRANCH  72  73
ENDBRANCH  53  67
BRANCH  54  77
ATOM     77  C   UNL A   1      47.900  22.276  34.295  1.00  0.00    -0.014 A 
ATOM     78  C   UNL A   1      49.152  22.952  34.337  1.00  0.00     0.010 A 
ATOM     79  C   UNL A   1      47.963  20.873  34.145  1.00  0.00     0.010 A 
ATOM     80  C   UNL A   1      50.377  22.286  34.463  1.00  0.00     0.020 A 
ATOM     81  C   UNL A   1      49.207  20.188  34.261  1.00  0.00     0.020 A 
ATOM     82  C   UNL A   1      50.393  20.902  34.488  1.00  0.00     0.054 A 
BRANCH  82  83
ATOM     83  S   UNL A   1      51.925  20.103  35.078  1.00  0.00     0.124 S 
ATOM     84  O   UNL A   1      51.465  18.766  35.437  1.00  0.00    -0.237 OA
ATOM     85  O   UNL A   1      52.785  20.172  33.897  1.00  0.00    -0.237 OA
ATOM     86  O   UNL A   1      52.336  20.951  36.190  1.00  0.00    -0.744 OA
ENDBRANCH  82  83
ENDBRANCH  54  77
BRANCH  66  87
ATOM     87  C   UNL A   1      44.800  26.908  39.527  1.00  0.00    -0.014 A 
ATOM     88  C   UNL A   1      44.359  26.388  40.746  1.00  0.00     0.010 A 
ATOM     89  C   UNL A   1      45.460  28.172  39.589  1.00  0.00     0.010 A 
ATOM     90  C   UNL A   1      44.627  27.048  41.957  1.00  0.00     0.020 A 
ATOM     91  C   UNL A   1      45.752  28.827  40.785  1.00  0.00     0.020 A 
ATOM     92  C   UNL A   1      45.355  28.240  41.972  1.00  0.00     0.054 A 
BRANCH  92  93
ATOM     93  S   UNL A   1      45.870  28.931  43.559  1.00  0.00     0.124 S 
ATOM     94  O   UNL A   1      44.777  29.851  43.862  1.00  0.00    -0.237 OA
ATOM     95  O   UNL A   1      45.940  27.740  44.404  1.00  0.00    -0.237 OA
ATOM     96  O   UNL A   1      47.156  29.561  43.273  1.00  0.00    -0.744 OA
ENDBRANCH  92  93
ENDBRANCH  66  87
ENDBRANCH  40  41
ENDBRANCH  33  35
ENDBRANCH  32  33
ENDBRANCH  31  32
ENDBRANCH  30  31
ENDBRANCH  29  30
ENDBRANCH  28  29
ENDBRANCH   1  28
TORSDOF 27
ENDMDL
MODEL 3
REMARK VINA RESULT:      -8.3      3.292      5.260
REMARK SMILES Cc1ccc(C[C@H](C(=O)OCCOCCOCCOCCOC(=O)c2ccc(-c3c4nc(c(-c5ccc(S(=O)(=O)[O-])cc5)c5ccc([nH]5)c(-c5ccc(S(=O)(=O)[O-])cc5)c5nc(c(-c6ccc(S(=O)(=O)[O-])cc6)c6ccc3[nH]6)C=C5)C=C4)cc2)[C@@H]2CCCC[C@@H]2O)cc1
REMARK SMILES IDX 17 1 16 2 15 3 14 4 13 5 12 6 11 7 10 8 8 9 9 10 7 11 6 12
REMARK SMILES IDX 5 13 1 14 2 15 3 16 93 17 4 18 92 19 85 20 86 21 90 22 87 23
REMARK SMILES IDX 89 24 88 25 91 26 18 28 19 29 20 30 21 31 22 32 23 33 24 34
REMARK SMILES IDX 25 35 26 36 84 37 27 38 83 39 28 40 29 41 30 42 77 43 31 44
REMARK SMILES IDX 82 45 76 46 78 47 32 48 81 49 75 50 74 51 33 53 63 54 44 55
REMARK SMILES IDX 62 56 45 57 48 58 61 59 79 60 46 61 47 62 60 64 80 65 49 66
REMARK SMILES IDX 34 67 35 68 43 69 36 70 42 71 37 72 38 73 39 74 40 75 41 76
REMARK SMILES IDX 64 77 65 78 73 79 66 80 72 81 67 82 68 83 69 84 70 85 71 86
REMARK SMILES IDX 50 87 51 88 59 89 52 90 58 91 53 92 54 93 55 94 56 95 57 96
REMARK H PARENT 91 27 78 52 48 63
REMARK Flexibility Score: inf
ROOT
ATOM      1  C   UNL A   1      44.930  19.160  24.311  1.00  0.00     0.188 C 
ENDROOT
BRANCH   1   2
ATOM      2  O   UNL A   1      45.106  18.186  25.348  1.00  0.00    -0.377 OA
BRANCH   2   3
ATOM      3  C   UNL A   1      43.979  17.863  26.146  1.00  0.00     0.188 C 
BRANCH   3   4
ATOM      4  C   UNL A   1      42.719  18.726  26.032  1.00  0.00     0.188 C 
BRANCH   4   5
ATOM      5  O   UNL A   1      42.604  19.935  26.764  1.00  0.00    -0.376 OA
BRANCH   5   6
ATOM      6  C   UNL A   1      41.342  20.128  27.400  1.00  0.00     0.202 C 
BRANCH   6   7
ATOM      7  C   UNL A   1      40.126  20.266  26.498  1.00  0.00     0.261 C 
BRANCH   7   8
ATOM      8  O   UNL A   1      39.483  21.508  26.837  1.00  0.00    -0.463 OA
BRANCH   8   9
ATOM      9  C   UNL A   1      38.752  22.051  25.852  1.00  0.00     0.309 C 
ATOM     10  O   UNL A   1      38.092  21.406  25.036  1.00  0.00    -0.252 OA
BRANCH   9  11
ATOM     11  C   UNL A   1      38.600  23.553  26.062  1.00  0.00     0.109 C 
BRANCH  11  12
ATOM     12  C   UNL A   1      37.154  23.935  26.468  1.00  0.00     0.051 C 
BRANCH  12  13
ATOM     13  C   UNL A   1      35.893  23.532  25.700  1.00  0.00    -0.047 A 
ATOM     14  C   UNL A   1      32.730  22.056  23.061  1.00  0.00     0.044 C 
ATOM     15  C   UNL A   1      33.823  22.527  23.983  1.00  0.00    -0.051 A 
ATOM     16  C   UNL A   1      33.875  22.180  25.342  1.00  0.00     0.004 A 
ATOM     17  C   UNL A   1      34.798  23.396  23.499  1.00  0.00     0.004 A 
ATOM     18  C   UNL A   1      34.897  22.673  26.191  1.00  0.00     0.004 A 
ATOM     19  C   UNL A   1      35.817  23.876  24.336  1.00  0.00     0.004 A 
ENDBRANCH  12  13
ENDBRANCH  11  12
BRANCH  11  20
ATOM     20  C   UNL A   1      39.708  23.874  27.165  1.00  0.00     0.032 C 
ATOM     21  C   UNL A   1      39.351  24.941  28.202  1.00  0.00     0.007 C 
ATOM     22  C   UNL A   1      41.113  24.225  26.587  1.00  0.00     0.118 C 
ATOM     23  C   UNL A   1      39.365  26.344  27.616  1.00  0.00     0.001 C 
ATOM     24  C   UNL A   1      41.145  25.630  25.982  1.00  0.00     0.032 C 
ATOM     25  C   UNL A   1      40.727  26.673  27.009  1.00  0.00     0.003 C 
BRANCH  22  26
ATOM     26  O   UNL A   1      41.586  23.305  25.623  1.00  0.00    -0.393 OA
ATOM     27  H   UNL A   1      41.623  22.417  26.014  1.00  0.00     0.210 HD
ENDBRANCH  22  26
ENDBRANCH  11  20
ENDBRANCH   9  11
ENDBRANCH   8   9
ENDBRANCH   7   8
ENDBRANCH   6   7
ENDBRANCH   5   6
ENDBRANCH   4   5
ENDBRANCH   3   4
ENDBRANCH   2   3
ENDBRANCH   1   2
BRANCH   1  28
ATOM     28  C   UNL A   1      45.496  20.556  24.533  1.00  0.00     0.188 C 
BRANCH  28  29
ATOM     29  O   UNL A   1      44.429  21.496  24.365  1.00  0.00    -0.376 OA
BRANCH  29  30
ATOM     30  C   UNL A   1      44.792  22.726  23.760  1.00  0.00     0.202 C 
BRANCH  30  31
ATOM     31  C   UNL A   1      44.745  23.922  24.714  1.00  0.00     0.261 C 
BRANCH  31  32
ATOM     32  O   UNL A   1      44.513  23.492  26.071  1.00  0.00    -0.460 OA
BRANCH  32  33
ATOM     33  C   UNL A   1      45.577  23.604  26.916  1.00  0.00     0.338 C 
ATOM     34  O   UNL A   1      46.724  23.351  26.589  1.00  0.00    -0.246 OA
BRANCH  33  35
ATOM     35  C   UNL A   1      45.187  24.254  28.195  1.00  0.00     0.060 A 
ATOM     36  C   UNL A   1      43.957  23.986  28.811  1.00  0.00     0.016 A 
ATOM     37  C   UNL A   1      46.036  25.199  28.755  1.00  0.00     0.016 A 
ATOM     38  C   UNL A   1      43.531  24.750  29.913  1.00  0.00     0.010 A 
ATOM     39  C   UNL A   1      45.592  25.977  29.805  1.00  0.00     0.010 A 
ATOM     40  C   UNL A   1      44.324  25.801  30.381  1.00  0.00    -0.014 A 
BRANCH  40  41
ATOM     41  C   UNL A   1      43.872  26.888  31.281  1.00  0.00     0.031 A 
ATOM     42  C   UNL A   1      43.046  28.031  30.768  1.00  0.00     0.074 A 
ATOM     43  C   UNL A   1      43.808  26.591  32.601  1.00  0.00     0.049 A 
ATOM     44  N   UNL A   1      42.416  28.895  31.494  1.00  0.00    -0.248 NA
ATOM     45  C   UNL A   1      42.811  28.259  29.347  1.00  0.00     0.031 C 
ATOM     46  C   UNL A   1      42.879  27.151  33.579  1.00  0.00     0.029 A 
ATOM     47  N   UNL A   1      44.500  25.668  33.364  1.00  0.00    -0.354 N 
ATOM     48  C   UNL A   1      41.453  29.514  30.725  1.00  0.00     0.074 A 
ATOM     49  C   UNL A   1      41.800  29.134  29.374  1.00  0.00     0.031 C 
ATOM     50  C   UNL A   1      43.113  26.652  34.795  1.00  0.00     0.029 A 
ATOM     51  C   UNL A   1      44.402  26.040  34.700  1.00  0.00     0.049 A 
ATOM     52  H   UNL A   1      44.981  24.882  33.020  1.00  0.00     0.167 HD
ATOM     53  C   UNL A   1      40.406  30.164  31.331  1.00  0.00     0.031 A 
ATOM     54  C   UNL A   1      45.478  26.508  35.388  1.00  0.00     0.031 A 
ATOM     55  C   UNL A   1      40.552  30.209  32.811  1.00  0.00     0.049 A 
ATOM     56  C   UNL A   1      45.207  27.973  35.803  1.00  0.00     0.074 A 
ATOM     57  C   UNL A   1      39.730  29.898  33.884  1.00  0.00     0.029 A 
ATOM     58  N   UNL A   1      41.806  30.477  33.390  1.00  0.00    -0.354 N 
ATOM     59  N   UNL A   1      44.494  28.825  35.080  1.00  0.00    -0.248 NA
ATOM     60  C   UNL A   1      45.422  28.483  37.155  1.00  0.00     0.031 C 
ATOM     61  C   UNL A   1      40.518  29.868  35.071  1.00  0.00     0.029 A 
ATOM     62  C   UNL A   1      41.821  30.229  34.751  1.00  0.00     0.049 A 
ATOM     63  H   UNL A   1      42.585  30.805  32.884  1.00  0.00     0.167 HD
ATOM     64  C   UNL A   1      43.988  29.827  35.889  1.00  0.00     0.074 A 
ATOM     65  C   UNL A   1      44.661  29.596  37.162  1.00  0.00     0.031 C 
ATOM     66  C   UNL A   1      42.927  30.667  35.611  1.00  0.00     0.031 A 
BRANCH  53  67
ATOM     67  C   UNL A   1      39.120  30.602  30.590  1.00  0.00    -0.014 A 
ATOM     68  C   UNL A   1      37.865  30.013  30.871  1.00  0.00     0.010 A 
ATOM     69  C   UNL A   1      39.075  31.594  29.588  1.00  0.00     0.010 A 
ATOM     70  C   UNL A   1      36.677  30.357  30.185  1.00  0.00     0.020 A 
ATOM     71  C   UNL A   1      37.904  31.946  28.884  1.00  0.00     0.020 A 
ATOM     72  C   UNL A   1      36.703  31.326  29.189  1.00  0.00     0.054 A 
BRANCH  72  73
ATOM     73  S   UNL A   1      35.166  31.816  28.357  1.00  0.00     0.124 S 
ATOM     74  O   UNL A   1      34.274  32.103  29.477  1.00  0.00    -0.237 OA
ATOM     75  O   UNL A   1      35.585  32.975  27.573  1.00  0.00    -0.237 OA
ATOM     76  O   UNL A   1      34.806  30.638  27.569  1.00  0.00    -0.744 OA
ENDBRANCH  72  73
ENDBRANCH  53  67
BRANCH  54  77
ATOM     77  C   UNL A   1      46.648  25.576  35.198  1.00  0.00    -0.014 A 
ATOM     78  C   UNL A   1      47.685  26.153  34.412  1.00  0.00     0.010 A 
ATOM     79  C   UNL A   1      47.066  24.669  36.197  1.00  0.00     0.010 A 
ATOM     80  C   UNL A   1      49.043  26.036  34.731  1.00  0.00     0.020 A 
ATOM     81  C   UNL A   1      48.447  24.535  36.522  1.00  0.00     0.020 A 
ATOM     82  C   UNL A   1      49.414  25.276  35.828  1.00  0.00     0.054 A 
BRANCH  82  83
ATOM     83  S   UNL A   1      51.115  25.501  36.451  1.00  0.00     0.124 S 
ATOM     84  O   UNL A   1      51.707  26.375  35.444  1.00  0.00    -0.237 OA
ATOM     85  O   UNL A   1      50.888  26.117  37.758  1.00  0.00    -0.237 OA
ATOM     86  O   UNL A   1      51.637  24.141  36.495  1.00  0.00    -0.744 OA
ENDBRANCH  82  83
ENDBRANCH  54  77
BRANCH  66  87
ATOM     87  C   UNL A   1      42.764  32.091  36.153  1.00  0.00    -0.014 A 
ATOM     88  C   UNL A   1      43.004  33.267  35.440  1.00  0.00     0.010 A 
ATOM     89  C   UNL A   1      42.159  32.250  37.436  1.00  0.00     0.010 A 
ATOM     90  C   UNL A   1      42.596  34.515  35.939  1.00  0.00     0.020 A 
ATOM     91  C   UNL A   1      41.728  33.480  37.933  1.00  0.00     0.020 A 
ATOM     92  C   UNL A   1      41.926  34.609  37.161  1.00  0.00     0.054 A 
BRANCH  92  93
ATOM     93  S   UNL A   1      41.222  36.198  37.654  1.00  0.00     0.124 S 
ATOM     94  O   UNL A   1      42.418  36.998  37.907  1.00  0.00    -0.237 OA
ATOM     95  O   UNL A   1      40.456  36.575  36.468  1.00  0.00    -0.237 OA
ATOM     96  O   UNL A   1      40.420  35.881  38.832  1.00  0.00    -0.744 OA
ENDBRANCH  92  93
ENDBRANCH  66  87
ENDBRANCH  40  41
ENDBRANCH  33  35
ENDBRANCH  32  33
ENDBRANCH  31  32
ENDBRANCH  30  31
ENDBRANCH  29  30
ENDBRANCH  28  29
ENDBRANCH   1  28
TORSDOF 27
ENDMDL
