MODEL 1
REMARK VINA RESULT:      -8.6      0.000      0.000
REMARK SMILES CCN1C(=O)C[C@H](C(=O)Nc2cccc(C(=O)OCCOCCOCCOCCOC(=O)c3ccc(-c4c5nc(c(-c6ccc(S(=O)(=O)[O-])cc6)c6ccc([nH]6)c(-c6ccc(S(=O)(=O)[O-])cc6)c6nc(c(-c7ccc(S(=O)(=O)[O-])cc7)c7ccc4[nH]7)C=C6)C=C5)cc3)c2)S/C1=[NH+]/c1cccc(C(F)(F)F)c1
REMARK SMILES IDX 23 1 22 2 21 3 20 4 19 5 18 6 16 7 17 8 15 9 11 10 12 11
REMARK SMILES IDX 93 12 13 13 14 14 10 15 8 16 9 17 7 19 3 20 4 21 95 22 5 23
REMARK SMILES IDX 6 24 94 25 96 26 2 28 1 29 97 30 98 31 106 32 99 33 101 34
REMARK SMILES IDX 100 35 102 36 103 37 104 38 105 39 24 40 25 41 26 42 27 43
REMARK SMILES IDX 28 44 29 45 30 46 31 47 32 48 33 49 34 50 92 51 35 52 91 53
REMARK SMILES IDX 36 54 37 55 38 56 85 57 39 58 90 59 84 60 86 61 40 62 89 63
REMARK SMILES IDX 83 64 82 65 41 67 71 68 52 69 70 70 53 71 56 72 69 73 87 74
REMARK SMILES IDX 54 75 55 76 68 78 88 79 57 80 42 81 43 82 51 83 44 84 50 85
REMARK SMILES IDX 45 86 46 87 47 88 48 89 49 90 72 91 73 92 81 93 74 94 80 95
REMARK SMILES IDX 75 96 76 97 77 98 78 99 79 100 58 101 59 102 67 103 60 104
REMARK SMILES IDX 66 105 61 106 62 107 63 108 64 109 65 110
REMARK H PARENT 10 18 96 27 86 66 56 77
REMARK Flexibility Score: inf
ROOT
ATOM      1  C   UNL A   1      41.129  26.496  28.314  1.00  0.00     0.188 C 
ENDROOT
BRANCH   1   2
ATOM      2  C   UNL A   1      39.751  25.957  28.750  1.00  0.00     0.188 C 
BRANCH   2   3
ATOM      3  O   UNL A   1      38.773  25.538  27.807  1.00  0.00    -0.376 OA
BRANCH   3   4
ATOM      4  C   UNL A   1      38.757  24.251  27.205  1.00  0.00     0.202 C 
BRANCH   4   5
ATOM      5  C   UNL A   1      37.950  23.888  25.947  1.00  0.00     0.261 C 
BRANCH   5   6
ATOM      6  O   UNL A   1      36.824  23.040  26.140  1.00  0.00    -0.460 OA
BRANCH   6   7
ATOM      7  C   UNL A   1      36.954  21.781  25.672  1.00  0.00     0.338 C 
ATOM      8  O   UNL A   1      37.996  21.196  25.419  1.00  0.00    -0.246 OA
BRANCH   7   9
ATOM      9  C   UNL A   1      35.612  21.152  25.649  1.00  0.00     0.062 A 
ATOM     10  C   UNL A   1      33.262  21.337  26.046  1.00  0.00     0.042 A 
ATOM     11  C   UNL A   1      33.051  20.140  25.355  1.00  0.00     0.026 A 
ATOM     12  C   UNL A   1      34.549  21.720  26.358  1.00  0.00     0.041 A 
ATOM     13  C   UNL A   1      34.129  19.466  24.778  1.00  0.00     0.003 A 
ATOM     14  C   UNL A   1      35.406  20.016  24.862  1.00  0.00     0.016 A 
BRANCH  10  15
ATOM     15  N   UNL A   1      32.162  22.155  26.294  1.00  0.00    -0.325 N 
ATOM     16  C   UNL A   1      31.436  23.000  25.507  1.00  0.00     0.238 C 
ATOM     17  O   UNL A   1      30.535  23.590  26.127  1.00  0.00    -0.273 OA
ATOM     18  H   UNL A   1      31.846  22.116  27.226  1.00  0.00     0.169 HD
BRANCH  16  19
ATOM     19  C   UNL A   1      31.633  23.275  23.983  1.00  0.00     0.160 C 
ATOM     20  N   UNL A   1      31.517  26.265  23.980  1.00  0.00    -0.191 N 
ATOM     21  C   UNL A   1      30.426  25.437  23.746  1.00  0.00     0.311 C 
ATOM     22  C   UNL A   1      32.753  25.757  24.369  1.00  0.00     0.319 C 
ATOM     23  O   UNL A   1      29.268  25.804  23.943  1.00  0.00    -0.247 OA
ATOM     24  C   UNL A   1      30.733  24.117  23.119  1.00  0.00     0.153 C 
ATOM     25  S   UNL A   1      33.221  24.172  23.745  1.00  0.00    -0.024 SA
ATOM     26  N   UNL A   1      33.633  26.248  25.175  1.00  0.00    -0.235 N 
ATOM     27  H   UNL A   1      34.521  25.824  25.195  1.00  0.00     0.313 HD
BRANCH  20  28
ATOM     28  C   UNL A   1      31.237  27.600  23.431  1.00  0.00     0.243 C 
ATOM     29  C   UNL A   1      32.260  28.451  22.727  1.00  0.00     0.054 C 
ENDBRANCH  20  28
BRANCH  26  30
ATOM     30  C   UNL A   1      33.417  27.330  26.017  1.00  0.00     0.126 A 
ATOM     31  C   UNL A   1      32.126  27.545  26.501  1.00  0.00     0.052 A 
ATOM     32  C   UNL A   1      34.429  28.244  26.324  1.00  0.00     0.064 A 
ATOM     33  C   UNL A   1      31.862  28.604  27.367  1.00  0.00     0.005 A 
ATOM     34  C   UNL A   1      34.180  29.319  27.190  1.00  0.00     0.060 A 
ATOM     35  C   UNL A   1      32.888  29.480  27.719  1.00  0.00     0.013 A 
BRANCH  34  36
ATOM     36  C   UNL A   1      35.278  30.275  27.570  1.00  0.00     0.416 C 
ATOM     37  F   UNL A   1      35.584  30.220  28.897  1.00  0.00    -0.166 F 
ATOM     38  F   UNL A   1      36.442  30.013  26.912  1.00  0.00    -0.166 F 
ATOM     39  F   UNL A   1      34.990  31.581  27.310  1.00  0.00    -0.166 F 
ENDBRANCH  34  36
ENDBRANCH  26  30
ENDBRANCH  16  19
ENDBRANCH  10  15
ENDBRANCH   7   9
ENDBRANCH   6   7
ENDBRANCH   5   6
ENDBRANCH   4   5
ENDBRANCH   3   4
ENDBRANCH   2   3
ENDBRANCH   1   2
BRANCH   1  40
ATOM     40  O   UNL A   1      41.088  27.293  27.148  1.00  0.00    -0.377 OA
BRANCH  40  41
ATOM     41  C   UNL A   1      41.399  28.669  27.327  1.00  0.00     0.188 C 
BRANCH  41  42
ATOM     42  C   UNL A   1      42.886  29.090  27.306  1.00  0.00     0.188 C 
BRANCH  42  43
ATOM     43  O   UNL A   1      43.789  28.046  26.954  1.00  0.00    -0.376 OA
BRANCH  43  44
ATOM     44  C   UNL A   1      44.232  27.951  25.609  1.00  0.00     0.202 C 
BRANCH  44  45
ATOM     45  C   UNL A   1      44.756  26.581  25.150  1.00  0.00     0.261 C 
BRANCH  45  46
ATOM     46  O   UNL A   1      46.071  26.576  24.578  1.00  0.00    -0.460 OA
BRANCH  46  47
ATOM     47  C   UNL A   1      46.927  25.623  25.007  1.00  0.00     0.338 C 
ATOM     48  O   UNL A   1      47.593  24.873  24.320  1.00  0.00    -0.246 OA
BRANCH  47  49
ATOM     49  C   UNL A   1      47.078  25.780  26.468  1.00  0.00     0.060 A 
ATOM     50  C   UNL A   1      46.605  24.762  27.306  1.00  0.00     0.016 A 
ATOM     51  C   UNL A   1      47.679  26.921  27.003  1.00  0.00     0.016 A 
ATOM     52  C   UNL A   1      46.686  24.906  28.689  1.00  0.00     0.010 A 
ATOM     53  C   UNL A   1      47.741  27.073  28.390  1.00  0.00     0.010 A 
ATOM     54  C   UNL A   1      47.208  26.085  29.236  1.00  0.00    -0.014 A 
BRANCH  54  55
ATOM     55  C   UNL A   1      46.993  26.380  30.672  1.00  0.00     0.031 A 
ATOM     56  C   UNL A   1      48.051  25.949  31.651  1.00  0.00     0.074 A 
ATOM     57  C   UNL A   1      45.899  27.037  31.099  1.00  0.00     0.049 A 
ATOM     58  N   UNL A   1      48.075  26.068  32.952  1.00  0.00    -0.248 NA
ATOM     59  C   UNL A   1      49.242  25.294  31.082  1.00  0.00     0.031 C 
ATOM     60  C   UNL A   1      44.829  27.548  30.243  1.00  0.00     0.029 A 
ATOM     61  N   UNL A   1      45.510  27.382  32.369  1.00  0.00    -0.354 N 
ATOM     62  C   UNL A   1      49.277  25.496  33.358  1.00  0.00     0.074 A 
ATOM     63  C   UNL A   1      49.938  25.003  32.171  1.00  0.00     0.031 C 
ATOM     64  C   UNL A   1      43.899  28.137  31.017  1.00  0.00     0.029 A 
ATOM     65  C   UNL A   1      44.291  28.013  32.420  1.00  0.00     0.049 A 
ATOM     66  H   UNL A   1      46.054  27.194  33.168  1.00  0.00     0.167 HD
ATOM     67  C   UNL A   1      49.786  25.394  34.609  1.00  0.00     0.031 A 
ATOM     68  C   UNL A   1      43.567  28.425  33.481  1.00  0.00     0.031 A 
ATOM     69  C   UNL A   1      49.116  25.867  35.790  1.00  0.00     0.049 A 
ATOM     70  C   UNL A   1      44.119  28.228  34.871  1.00  0.00     0.074 A 
ATOM     71  C   UNL A   1      49.553  25.820  37.102  1.00  0.00     0.029 A 
ATOM     72  N   UNL A   1      47.865  26.467  35.804  1.00  0.00    -0.354 N 
ATOM     73  N   UNL A   1      45.266  27.708  35.238  1.00  0.00    -0.248 NA
ATOM     74  C   UNL A   1      43.280  28.687  35.988  1.00  0.00     0.031 C 
ATOM     75  C   UNL A   1      48.538  26.333  37.917  1.00  0.00     0.029 A 
ATOM     76  C   UNL A   1      47.501  26.768  37.105  1.00  0.00     0.049 A 
ATOM     77  H   UNL A   1      47.319  26.650  35.007  1.00  0.00     0.167 HD
ATOM     78  C   UNL A   1      45.300  27.807  36.627  1.00  0.00     0.074 A 
ATOM     79  C   UNL A   1      44.066  28.449  37.030  1.00  0.00     0.031 C 
ATOM     80  C   UNL A   1      46.267  27.407  37.491  1.00  0.00     0.031 A 
BRANCH  67  81
ATOM     81  C   UNL A   1      51.117  24.706  34.762  1.00  0.00    -0.014 A 
ATOM     82  C   UNL A   1      51.202  23.328  35.029  1.00  0.00     0.010 A 
ATOM     83  C   UNL A   1      52.303  25.447  34.607  1.00  0.00     0.010 A 
ATOM     84  C   UNL A   1      52.448  22.712  35.176  1.00  0.00     0.020 A 
ATOM     85  C   UNL A   1      53.550  24.829  34.723  1.00  0.00     0.020 A 
ATOM     86  C   UNL A   1      53.615  23.468  35.022  1.00  0.00     0.054 A 
BRANCH  86  87
ATOM     87  S   UNL A   1      55.218  22.637  35.194  1.00  0.00     0.124 S 
ATOM     88  O   UNL A   1      54.821  21.235  35.304  1.00  0.00    -0.237 OA
ATOM     89  O   UNL A   1      55.900  23.000  33.954  1.00  0.00    -0.237 OA
ATOM     90  O   UNL A   1      55.783  23.220  36.408  1.00  0.00    -0.744 OA
ENDBRANCH  86  87
ENDBRANCH  67  81
BRANCH  68  91
ATOM     91  C   UNL A   1      42.231  29.050  33.275  1.00  0.00    -0.014 A 
ATOM     92  C   UNL A   1      42.101  30.444  33.142  1.00  0.00     0.010 A 
ATOM     93  C   UNL A   1      41.075  28.248  33.216  1.00  0.00     0.010 A 
ATOM     94  C   UNL A   1      40.840  31.025  32.972  1.00  0.00     0.020 A 
ATOM     95  C   UNL A   1      39.817  28.824  33.016  1.00  0.00     0.020 A 
ATOM     96  C   UNL A   1      39.706  30.210  32.906  1.00  0.00     0.054 A 
BRANCH  96  97
ATOM     97  S   UNL A   1      38.089  30.985  32.629  1.00  0.00     0.124 S 
ATOM     98  O   UNL A   1      37.588  31.141  33.990  1.00  0.00    -0.237 OA
ATOM     99  O   UNL A   1      38.448  32.222  31.939  1.00  0.00    -0.237 OA
ATOM    100  O   UNL A   1      37.379  30.007  31.807  1.00  0.00    -0.744 OA
ENDBRANCH  96  97
ENDBRANCH  68  91
BRANCH  80 101
ATOM    101  C   UNL A   1      46.057  27.693  38.956  1.00  0.00    -0.014 A 
ATOM    102  C   UNL A   1      46.452  28.913  39.532  1.00  0.00     0.010 A 
ATOM    103  C   UNL A   1      45.400  26.739  39.757  1.00  0.00     0.010 A 
ATOM    104  C   UNL A   1      46.228  29.158  40.890  1.00  0.00     0.020 A 
ATOM    105  C   UNL A   1      45.146  26.993  41.107  1.00  0.00     0.020 A 
ATOM    106  C   UNL A   1      45.578  28.196  41.669  1.00  0.00     0.054 A 
BRANCH 106 107
ATOM    107  S   UNL A   1      45.269  28.553  43.420  1.00  0.00     0.124 S 
ATOM    108  O   UNL A   1      45.502  29.993  43.483  1.00  0.00    -0.237 OA
ATOM    109  O   UNL A   1      43.881  28.134  43.593  1.00  0.00    -0.237 OA
ATOM    110  O   UNL A   1      46.254  27.732  44.122  1.00  0.00    -0.744 OA
ENDBRANCH 106 107
ENDBRANCH  80 101
ENDBRANCH  54  55
ENDBRANCH  47  49
ENDBRANCH  46  47
ENDBRANCH  45  46
ENDBRANCH  44  45
ENDBRANCH  43  44
ENDBRANCH  42  43
ENDBRANCH  41  42
ENDBRANCH  40  41
ENDBRANCH   1  40
TORSDOF 28
ENDMDL
MODEL 2
REMARK VINA RESULT:      -7.5      5.024      9.392
REMARK SMILES CCN1C(=O)C[C@H](C(=O)Nc2cccc(C(=O)OCCOCCOCCOCCOC(=O)c3ccc(-c4c5nc(c(-c6ccc(S(=O)(=O)[O-])cc6)c6ccc([nH]6)c(-c6ccc(S(=O)(=O)[O-])cc6)c6nc(c(-c7ccc(S(=O)(=O)[O-])cc7)c7ccc4[nH]7)C=C6)C=C5)cc3)c2)S/C1=[NH+]/c1cccc(C(F)(F)F)c1
REMARK SMILES IDX 23 1 22 2 21 3 20 4 19 5 18 6 16 7 17 8 15 9 11 10 12 11
REMARK SMILES IDX 93 12 13 13 14 14 10 15 8 16 9 17 7 19 3 20 4 21 95 22 5 23
REMARK SMILES IDX 6 24 94 25 96 26 2 28 1 29 97 30 98 31 106 32 99 33 101 34
REMARK SMILES IDX 100 35 102 36 103 37 104 38 105 39 24 40 25 41 26 42 27 43
REMARK SMILES IDX 28 44 29 45 30 46 31 47 32 48 33 49 34 50 92 51 35 52 91 53
REMARK SMILES IDX 36 54 37 55 38 56 85 57 39 58 90 59 84 60 86 61 40 62 89 63
REMARK SMILES IDX 83 64 82 65 41 67 71 68 52 69 70 70 53 71 56 72 69 73 87 74
REMARK SMILES IDX 54 75 55 76 68 78 88 79 57 80 42 81 43 82 51 83 44 84 50 85
REMARK SMILES IDX 45 86 46 87 47 88 48 89 49 90 72 91 73 92 81 93 74 94 80 95
REMARK SMILES IDX 75 96 76 97 77 98 78 99 79 100 58 101 59 102 67 103 60 104
REMARK SMILES IDX 66 105 61 106 62 107 63 108 64 109 65 110
REMARK H PARENT 10 18 96 27 86 66 56 77
REMARK Flexibility Score: inf
ROOT
ATOM      1  C   UNL A   1      35.169  33.845  28.007  1.00  0.00     0.188 C 
ENDROOT
BRANCH   1   2
ATOM      2  C   UNL A   1      33.733  34.406  27.961  1.00  0.00     0.188 C 
BRANCH   2   3
ATOM      3  O   UNL A   1      32.593  33.573  28.123  1.00  0.00    -0.376 OA
BRANCH   3   4
ATOM      4  C   UNL A   1      32.005  32.827  27.066  1.00  0.00     0.202 C 
BRANCH   4   5
ATOM      5  C   UNL A   1      32.484  31.438  26.610  1.00  0.00     0.261 C 
BRANCH   5   6
ATOM      6  O   UNL A   1      31.650  30.755  25.681  1.00  0.00    -0.460 OA
BRANCH   6   7
ATOM      7  C   UNL A   1      32.194  29.667  25.098  1.00  0.00     0.338 C 
ATOM      8  O   UNL A   1      33.089  29.650  24.266  1.00  0.00    -0.246 OA
BRANCH   7   9
ATOM      9  C   UNL A   1      31.626  28.459  25.742  1.00  0.00     0.062 A 
ATOM     10  C   UNL A   1      30.638  26.294  25.512  1.00  0.00     0.042 A 
ATOM     11  C   UNL A   1      30.826  26.063  26.879  1.00  0.00     0.026 A 
ATOM     12  C   UNL A   1      30.851  27.558  25.004  1.00  0.00     0.041 A 
ATOM     13  C   UNL A   1      31.454  27.027  27.671  1.00  0.00     0.003 A 
ATOM     14  C   UNL A   1      31.923  28.199  27.083  1.00  0.00     0.016 A 
BRANCH  10  15
ATOM     15  N   UNL A   1      30.347  25.204  24.695  1.00  0.00    -0.325 N 
ATOM     16  C   UNL A   1      31.004  24.625  23.650  1.00  0.00     0.238 C 
ATOM     17  O   UNL A   1      30.381  23.673  23.151  1.00  0.00    -0.273 OA
ATOM     18  H   UNL A   1      29.494  24.764  24.917  1.00  0.00     0.169 HD
BRANCH  16  19
ATOM     19  C   UNL A   1      32.389  25.038  23.060  1.00  0.00     0.160 C 
ATOM     20  N   UNL A   1      34.129  22.962  24.334  1.00  0.00    -0.191 N 
ATOM     21  C   UNL A   1      33.911  24.231  24.856  1.00  0.00     0.311 C 
ATOM     22  C   UNL A   1      33.439  22.500  23.217  1.00  0.00     0.319 C 
ATOM     23  O   UNL A   1      34.038  24.480  26.054  1.00  0.00    -0.247 OA
ATOM     24  C   UNL A   1      33.637  25.307  23.858  1.00  0.00     0.153 C 
ATOM     25  S   UNL A   1      32.999  23.681  21.978  1.00  0.00    -0.024 SA
ATOM     26  N   UNL A   1      33.010  21.315  22.940  1.00  0.00    -0.235 N 
ATOM     27  H   UNL A   1      32.691  21.146  22.025  1.00  0.00     0.313 HD
BRANCH  20  28
ATOM     28  C   UNL A   1      35.365  22.410  24.907  1.00  0.00     0.243 C 
ATOM     29  C   UNL A   1      36.700  23.103  24.848  1.00  0.00     0.054 C 
ENDBRANCH  20  28
BRANCH  26  30
ATOM     30  C   UNL A   1      32.965  20.261  23.842  1.00  0.00     0.126 A 
ATOM     31  C   UNL A   1      32.424  20.494  25.108  1.00  0.00     0.052 A 
ATOM     32  C   UNL A   1      33.513  19.009  23.547  1.00  0.00     0.064 A 
ATOM     33  C   UNL A   1      32.336  19.464  26.040  1.00  0.00     0.005 A 
ATOM     34  C   UNL A   1      33.438  17.961  24.476  1.00  0.00     0.060 A 
ATOM     35  C   UNL A   1      32.830  18.199  25.721  1.00  0.00     0.013 A 
BRANCH  34  36
ATOM     36  C   UNL A   1      33.975  16.595  24.145  1.00  0.00     0.416 C 
ATOM     37  F   UNL A   1      34.108  16.396  22.804  1.00  0.00    -0.166 F 
ATOM     38  F   UNL A   1      35.213  16.385  24.675  1.00  0.00    -0.166 F 
ATOM     39  F   UNL A   1      33.198  15.570  24.598  1.00  0.00    -0.166 F 
ENDBRANCH  34  36
ENDBRANCH  26  30
ENDBRANCH  16  19
ENDBRANCH  10  15
ENDBRANCH   7   9
ENDBRANCH   6   7
ENDBRANCH   5   6
ENDBRANCH   4   5
ENDBRANCH   3   4
ENDBRANCH   2   3
ENDBRANCH   1   2
BRANCH   1  40
ATOM     40  O   UNL A   1      35.869  34.158  29.193  1.00  0.00    -0.377 OA
BRANCH  40  41
ATOM     41  C   UNL A   1      35.944  33.118  30.161  1.00  0.00     0.188 C 
BRANCH  41  42
ATOM     42  C   UNL A   1      34.630  32.621  30.801  1.00  0.00     0.188 C 
BRANCH  42  43
ATOM     43  O   UNL A   1      34.789  32.012  32.079  1.00  0.00    -0.376 OA
BRANCH  43  44
ATOM     44  C   UNL A   1      36.071  32.026  32.688  1.00  0.00     0.202 C 
BRANCH  44  45
ATOM     45  C   UNL A   1      36.731  30.661  32.938  1.00  0.00     0.261 C 
BRANCH  45  46
ATOM     46  O   UNL A   1      38.161  30.672  33.055  1.00  0.00    -0.460 OA
BRANCH  46  47
ATOM     47  C   UNL A   1      38.683  30.367  34.263  1.00  0.00     0.338 C 
ATOM     48  O   UNL A   1      38.102  30.350  35.330  1.00  0.00    -0.246 OA
BRANCH  47  49
ATOM     49  C   UNL A   1      40.050  29.852  34.044  1.00  0.00     0.060 A 
ATOM     50  C   UNL A   1      41.130  30.557  34.589  1.00  0.00     0.016 A 
ATOM     51  C   UNL A   1      40.262  28.686  33.305  1.00  0.00     0.016 A 
ATOM     52  C   UNL A   1      42.433  30.125  34.354  1.00  0.00     0.010 A 
ATOM     53  C   UNL A   1      41.569  28.265  33.053  1.00  0.00     0.010 A 
ATOM     54  C   UNL A   1      42.659  29.005  33.541  1.00  0.00    -0.014 A 
BRANCH  54  55
ATOM     55  C   UNL A   1      44.022  28.744  33.022  1.00  0.00     0.031 A 
ATOM     56  C   UNL A   1      44.723  27.490  33.471  1.00  0.00     0.074 A 
ATOM     57  C   UNL A   1      44.616  29.582  32.154  1.00  0.00     0.049 A 
ATOM     58  N   UNL A   1      45.923  27.061  33.180  1.00  0.00    -0.248 NA
ATOM     59  C   UNL A   1      43.967  26.603  34.372  1.00  0.00     0.031 C 
ATOM     60  C   UNL A   1      44.021  30.802  31.609  1.00  0.00     0.029 A 
ATOM     61  N   UNL A   1      45.863  29.530  31.584  1.00  0.00    -0.354 N 
ATOM     62  C   UNL A   1      46.068  25.861  33.866  1.00  0.00     0.074 A 
ATOM     63  C   UNL A   1      44.849  25.645  34.613  1.00  0.00     0.031 C 
ATOM     64  C   UNL A   1      44.909  31.387  30.784  1.00  0.00     0.029 A 
ATOM     65  C   UNL A   1      46.143  30.603  30.773  1.00  0.00     0.049 A 
ATOM     66  H   UNL A   1      46.497  28.793  31.740  1.00  0.00     0.167 HD
ATOM     67  C   UNL A   1      47.122  25.010  33.872  1.00  0.00     0.031 A 
ATOM     68  C   UNL A   1      47.275  30.926  30.114  1.00  0.00     0.031 A 
ATOM     69  C   UNL A   1      48.341  25.238  33.144  1.00  0.00     0.049 A 
ATOM     70  C   UNL A   1      48.466  30.003  30.199  1.00  0.00     0.074 A 
ATOM     71  C   UNL A   1      49.464  24.432  33.077  1.00  0.00     0.029 A 
ATOM     72  N   UNL A   1      48.601  26.356  32.365  1.00  0.00    -0.354 N 
ATOM     73  N   UNL A   1      48.581  28.859  30.832  1.00  0.00    -0.248 NA
ATOM     74  C   UNL A   1      49.675  30.411  29.469  1.00  0.00     0.031 C 
ATOM     75  C   UNL A   1      50.428  25.094  32.307  1.00  0.00     0.029 A 
ATOM     76  C   UNL A   1      49.877  26.276  31.836  1.00  0.00     0.049 A 
ATOM     77  H   UNL A   1      47.971  27.096  32.212  1.00  0.00     0.167 HD
ATOM     78  C   UNL A   1      49.863  28.396  30.550  1.00  0.00     0.074 A 
ATOM     79  C   UNL A   1      50.478  29.376  29.678  1.00  0.00     0.031 C 
ATOM     80  C   UNL A   1      50.476  27.261  30.969  1.00  0.00     0.031 A 
BRANCH  67  81
ATOM     81  C   UNL A   1      47.013  23.775  34.726  1.00  0.00    -0.014 A 
ATOM     82  C   UNL A   1      46.337  22.628  34.273  1.00  0.00     0.010 A 
ATOM     83  C   UNL A   1      47.623  23.753  35.994  1.00  0.00     0.010 A 
ATOM     84  C   UNL A   1      46.241  21.496  35.086  1.00  0.00     0.020 A 
ATOM     85  C   UNL A   1      47.555  22.612  36.798  1.00  0.00     0.020 A 
ATOM     86  C   UNL A   1      46.851  21.496  36.345  1.00  0.00     0.054 A 
BRANCH  86  87
ATOM     87  S   UNL A   1      46.731  20.004  37.369  1.00  0.00     0.124 S 
ATOM     88  O   UNL A   1      48.138  19.677  37.591  1.00  0.00    -0.237 OA
ATOM     89  O   UNL A   1      46.006  20.481  38.544  1.00  0.00    -0.237 OA
ATOM     90  O   UNL A   1      45.998  19.062  36.528  1.00  0.00    -0.744 OA
ENDBRANCH  86  87
ENDBRANCH  67  81
BRANCH  68  91
ATOM     91  C   UNL A   1      47.347  32.188  29.327  1.00  0.00    -0.014 A 
ATOM     92  C   UNL A   1      47.620  33.415  29.958  1.00  0.00     0.010 A 
ATOM     93  C   UNL A   1      47.135  32.169  27.935  1.00  0.00     0.010 A 
ATOM     94  C   UNL A   1      47.663  34.599  29.216  1.00  0.00     0.020 A 
ATOM     95  C   UNL A   1      47.206  33.347  27.186  1.00  0.00     0.020 A 
ATOM     96  C   UNL A   1      47.460  34.557  27.834  1.00  0.00     0.054 A 
BRANCH  96  97
ATOM     97  S   UNL A   1      47.576  36.100  26.886  1.00  0.00     0.124 S 
ATOM     98  O   UNL A   1      48.914  36.569  27.230  1.00  0.00    -0.237 OA
ATOM     99  O   UNL A   1      47.400  35.637  25.511  1.00  0.00    -0.237 OA
ATOM    100  O   UNL A   1      46.474  36.906  27.408  1.00  0.00    -0.744 OA
ENDBRANCH  96  97
ENDBRANCH  68  91
BRANCH  80 101
ATOM    101  C   UNL A   1      51.867  26.987  30.457  1.00  0.00    -0.014 A 
ATOM    102  C   UNL A   1      52.085  26.408  29.193  1.00  0.00     0.010 A 
ATOM    103  C   UNL A   1      52.977  27.368  31.234  1.00  0.00     0.010 A 
ATOM    104  C   UNL A   1      53.386  26.181  28.736  1.00  0.00     0.020 A 
ATOM    105  C   UNL A   1      54.278  27.173  30.766  1.00  0.00     0.020 A 
ATOM    106  C   UNL A   1      54.475  26.565  29.525  1.00  0.00     0.054 A 
BRANCH 106 107
ATOM    107  S   UNL A   1      56.153  26.292  28.893  1.00  0.00     0.124 S 
ATOM    108  O   UNL A   1      55.927  25.285  27.859  1.00  0.00    -0.237 OA
ATOM    109  O   UNL A   1      56.532  27.616  28.409  1.00  0.00    -0.237 OA
ATOM    110  O   UNL A   1      56.894  25.826  30.064  1.00  0.00    -0.744 OA
ENDBRANCH 106 107
ENDBRANCH  80 101
ENDBRANCH  54  55
ENDBRANCH  47  49
ENDBRANCH  46  47
ENDBRANCH  45  46
ENDBRANCH  44  45
ENDBRANCH  43  44
ENDBRANCH  42  43
ENDBRANCH  41  42
ENDBRANCH  40  41
ENDBRANCH   1  40
TORSDOF 28
ENDMDL
MODEL 3
REMARK VINA RESULT:      -7.4      5.046      7.163
REMARK SMILES CCN1C(=O)C[C@H](C(=O)Nc2cccc(C(=O)OCCOCCOCCOCCOC(=O)c3ccc(-c4c5nc(c(-c6ccc(S(=O)(=O)[O-])cc6)c6ccc([nH]6)c(-c6ccc(S(=O)(=O)[O-])cc6)c6nc(c(-c7ccc(S(=O)(=O)[O-])cc7)c7ccc4[nH]7)C=C6)C=C5)cc3)c2)S/C1=[NH+]/c1cccc(C(F)(F)F)c1
REMARK SMILES IDX 23 1 22 2 21 3 20 4 19 5 18 6 16 7 17 8 15 9 11 10 12 11
REMARK SMILES IDX 93 12 13 13 14 14 10 15 8 16 9 17 7 19 3 20 4 21 95 22 5 23
REMARK SMILES IDX 6 24 94 25 96 26 2 28 1 29 97 30 98 31 106 32 99 33 101 34
REMARK SMILES IDX 100 35 102 36 103 37 104 38 105 39 24 40 25 41 26 42 27 43
REMARK SMILES IDX 28 44 29 45 30 46 31 47 32 48 33 49 34 50 92 51 35 52 91 53
REMARK SMILES IDX 36 54 37 55 38 56 85 57 39 58 90 59 84 60 86 61 40 62 89 63
REMARK SMILES IDX 83 64 82 65 41 67 71 68 52 69 70 70 53 71 56 72 69 73 87 74
REMARK SMILES IDX 54 75 55 76 68 78 88 79 57 80 42 81 43 82 51 83 44 84 50 85
REMARK SMILES IDX 45 86 46 87 47 88 48 89 49 90 72 91 73 92 81 93 74 94 80 95
REMARK SMILES IDX 75 96 76 97 77 98 78 99 79 100 58 101 59 102 67 103 60 104
REMARK SMILES IDX 66 105 61 106 62 107 63 108 64 109 65 110
REMARK H PARENT 10 18 96 27 86 66 56 77
REMARK Flexibility Score: inf
ROOT
ATOM      1  C   UNL A   1      41.243  28.164  28.670  1.00  0.00     0.188 C 
ENDROOT
BRANCH   1   2
ATOM      2  C   UNL A   1      40.212  27.372  29.500  1.00  0.00     0.188 C 
BRANCH   2   3
ATOM      3  O   UNL A   1      39.192  26.593  28.890  1.00  0.00    -0.376 OA
BRANCH   3   4
ATOM      4  C   UNL A   1      39.401  25.286  28.372  1.00  0.00     0.202 C 
BRANCH   4   5
ATOM      5  C   UNL A   1      39.485  24.947  26.874  1.00  0.00     0.261 C 
BRANCH   5   6
ATOM      6  O   UNL A   1      38.311  24.401  26.283  1.00  0.00    -0.460 OA
BRANCH   6   7
ATOM      7  C   UNL A   1      38.296  23.059  26.148  1.00  0.00     0.338 C 
ATOM      8  O   UNL A   1      39.156  22.274  26.517  1.00  0.00    -0.246 OA
BRANCH   7   9
ATOM      9  C   UNL A   1      36.977  22.661  25.599  1.00  0.00     0.062 A 
ATOM     10  C   UNL A   1      34.597  22.633  25.820  1.00  0.00     0.042 A 
ATOM     11  C   UNL A   1      34.479  22.208  24.493  1.00  0.00     0.026 A 
ATOM     12  C   UNL A   1      35.841  22.657  26.414  1.00  0.00     0.041 A 
ATOM     13  C   UNL A   1      35.621  22.045  23.706  1.00  0.00     0.003 A 
ATOM     14  C   UNL A   1      36.871  22.346  24.242  1.00  0.00     0.016 A 
BRANCH  10  15
ATOM     15  N   UNL A   1      33.459  23.123  26.457  1.00  0.00    -0.325 N 
ATOM     16  C   UNL A   1      32.298  23.670  25.995  1.00  0.00     0.238 C 
ATOM     17  O   UNL A   1      31.531  24.024  26.905  1.00  0.00    -0.273 OA
ATOM     18  H   UNL A   1      33.502  23.062  27.439  1.00  0.00     0.169 HD
BRANCH  16  19
ATOM     19  C   UNL A   1      31.881  23.879  24.505  1.00  0.00     0.160 C 
ATOM     20  N   UNL A   1      31.293  26.813  24.544  1.00  0.00    -0.191 N 
ATOM     21  C   UNL A   1      30.339  25.819  24.729  1.00  0.00     0.311 C 
ATOM     22  C   UNL A   1      32.650  26.520  24.450  1.00  0.00     0.319 C 
ATOM     23  O   UNL A   1      29.290  26.020  25.338  1.00  0.00    -0.247 OA
ATOM     24  C   UNL A   1      30.606  24.525  24.034  1.00  0.00     0.153 C 
ATOM     25  S   UNL A   1      33.107  24.987  23.698  1.00  0.00    -0.024 SA
ATOM     26  N   UNL A   1      33.672  27.184  24.874  1.00  0.00    -0.235 N 
ATOM     27  H   UNL A   1      34.563  26.899  24.566  1.00  0.00     0.313 HD
BRANCH  20  28
ATOM     28  C   UNL A   1      30.621  28.057  24.136  1.00  0.00     0.243 C 
ATOM     29  C   UNL A   1      29.803  28.196  22.880  1.00  0.00     0.054 C 
ENDBRANCH  20  28
BRANCH  26  30
ATOM     30  C   UNL A   1      33.606  28.269  25.736  1.00  0.00     0.126 A 
ATOM     31  C   UNL A   1      32.371  28.893  25.924  1.00  0.00     0.052 A 
ATOM     32  C   UNL A   1      34.745  28.798  26.351  1.00  0.00     0.064 A 
ATOM     33  C   UNL A   1      32.249  29.971  26.796  1.00  0.00     0.005 A 
ATOM     34  C   UNL A   1      34.641  29.887  27.228  1.00  0.00     0.060 A 
ATOM     35  C   UNL A   1      33.378  30.459  27.454  1.00  0.00     0.013 A 
BRANCH  34  36
ATOM     36  C   UNL A   1      35.854  30.426  27.937  1.00  0.00     0.416 C 
ATOM     37  F   UNL A   1      35.894  30.068  29.251  1.00  0.00    -0.166 F 
ATOM     38  F   UNL A   1      37.017  29.968  27.393  1.00  0.00    -0.166 F 
ATOM     39  F   UNL A   1      35.946  31.786  27.920  1.00  0.00    -0.166 F 
ENDBRANCH  34  36
ENDBRANCH  26  30
ENDBRANCH  16  19
ENDBRANCH  10  15
ENDBRANCH   7   9
ENDBRANCH   6   7
ENDBRANCH   5   6
ENDBRANCH   4   5
ENDBRANCH   3   4
ENDBRANCH   2   3
ENDBRANCH   1   2
BRANCH   1  40
ATOM     40  O   UNL A   1      40.900  28.295  27.306  1.00  0.00    -0.377 OA
BRANCH  40  41
ATOM     41  C   UNL A   1      41.821  29.022  26.502  1.00  0.00     0.188 C 
BRANCH  41  42
ATOM     42  C   UNL A   1      43.301  28.580  26.507  1.00  0.00     0.188 C 
BRANCH  42  43
ATOM     43  O   UNL A   1      44.136  29.320  27.393  1.00  0.00    -0.376 OA
BRANCH  43  44
ATOM     44  C   UNL A   1      44.184  30.733  27.266  1.00  0.00     0.202 C 
BRANCH  44  45
ATOM     45  C   UNL A   1      45.574  31.363  27.089  1.00  0.00     0.261 C 
BRANCH  45  46
ATOM     46  O   UNL A   1      45.795  32.592  27.796  1.00  0.00    -0.460 OA
BRANCH  46  47
ATOM     47  C   UNL A   1      46.724  32.581  28.777  1.00  0.00     0.338 C 
ATOM     48  O   UNL A   1      47.928  32.681  28.648  1.00  0.00    -0.246 OA
BRANCH  47  49
ATOM     49  C   UNL A   1      46.011  32.632  30.070  1.00  0.00     0.060 A 
ATOM     50  C   UNL A   1      45.525  31.438  30.618  1.00  0.00     0.016 A 
ATOM     51  C   UNL A   1      45.824  33.846  30.732  1.00  0.00     0.016 A 
ATOM     52  C   UNL A   1      44.803  31.463  31.809  1.00  0.00     0.010 A 
ATOM     53  C   UNL A   1      45.083  33.873  31.916  1.00  0.00     0.010 A 
ATOM     54  C   UNL A   1      44.536  32.687  32.435  1.00  0.00    -0.014 A 
BRANCH  54  55
ATOM     55  C   UNL A   1      43.506  32.753  33.498  1.00  0.00     0.031 A 
ATOM     56  C   UNL A   1      43.946  32.564  34.925  1.00  0.00     0.074 A 
ATOM     57  C   UNL A   1      42.215  32.999  33.212  1.00  0.00     0.049 A 
ATOM     58  N   UNL A   1      43.231  32.549  36.019  1.00  0.00    -0.248 NA
ATOM     59  C   UNL A   1      45.389  32.364  35.145  1.00  0.00     0.031 C 
ATOM     60  C   UNL A   1      41.674  33.246  31.876  1.00  0.00     0.029 A 
ATOM     61  N   UNL A   1      41.122  33.075  34.038  1.00  0.00    -0.354 N 
ATOM     62  C   UNL A   1      44.134  32.331  37.054  1.00  0.00     0.074 A 
ATOM     63  C   UNL A   1      45.442  32.188  36.456  1.00  0.00     0.031 C 
ATOM     64  C   UNL A   1      40.346  33.441  31.974  1.00  0.00     0.029 A 
ATOM     65  C   UNL A   1      39.941  33.298  33.371  1.00  0.00     0.049 A 
ATOM     66  H   UNL A   1      41.179  32.980  35.016  1.00  0.00     0.167 HD
ATOM     67  C   UNL A   1      43.895  32.260  38.385  1.00  0.00     0.031 A 
ATOM     68  C   UNL A   1      38.676  33.358  33.836  1.00  0.00     0.031 A 
ATOM     69  C   UNL A   1      42.590  32.383  38.974  1.00  0.00     0.049 A 
ATOM     70  C   UNL A   1      38.425  33.196  35.315  1.00  0.00     0.074 A 
ATOM     71  C   UNL A   1      42.243  32.335  40.313  1.00  0.00     0.029 A 
ATOM     72  N   UNL A   1      41.413  32.569  38.262  1.00  0.00    -0.354 N 
ATOM     73  N   UNL A   1      39.291  33.014  36.284  1.00  0.00    -0.248 NA
ATOM     74  C   UNL A   1      37.026  33.260  35.761  1.00  0.00     0.031 C 
ATOM     75  C   UNL A   1      40.851  32.429  40.406  1.00  0.00     0.029 A 
ATOM     76  C   UNL A   1      40.337  32.609  39.131  1.00  0.00     0.049 A 
ATOM     77  H   UNL A   1      41.355  32.659  37.284  1.00  0.00     0.167 HD
ATOM     78  C   UNL A   1      38.543  32.974  37.458  1.00  0.00     0.074 A 
ATOM     79  C   UNL A   1      37.158  33.166  37.077  1.00  0.00     0.031 C 
ATOM     80  C   UNL A   1      38.963  32.800  38.736  1.00  0.00     0.031 A 
BRANCH  67  81
ATOM     81  C   UNL A   1      45.071  31.997  39.288  1.00  0.00    -0.014 A 
ATOM     82  C   UNL A   1      45.403  30.693  39.697  1.00  0.00     0.010 A 
ATOM     83  C   UNL A   1      45.876  33.071  39.709  1.00  0.00     0.010 A 
ATOM     84  C   UNL A   1      46.494  30.472  40.543  1.00  0.00     0.020 A 
ATOM     85  C   UNL A   1      46.985  32.852  40.530  1.00  0.00     0.020 A 
ATOM     86  C   UNL A   1      47.278  31.555  40.954  1.00  0.00     0.054 A 
BRANCH  86  87
ATOM     87  S   UNL A   1      48.702  31.237  42.031  1.00  0.00     0.124 S 
ATOM     88  O   UNL A   1      49.078  29.879  41.641  1.00  0.00    -0.237 OA
ATOM     89  O   UNL A   1      49.641  32.284  41.635  1.00  0.00    -0.237 OA
ATOM     90  O   UNL A   1      48.156  31.369  43.378  1.00  0.00    -0.744 OA
ENDBRANCH  86  87
ENDBRANCH  67  81
BRANCH  68  91
ATOM     91  C   UNL A   1      37.544  33.566  32.891  1.00  0.00    -0.014 A 
ATOM     92  C   UNL A   1      37.202  32.579  31.949  1.00  0.00     0.010 A 
ATOM     93  C   UNL A   1      36.802  34.762  32.925  1.00  0.00     0.010 A 
ATOM     94  C   UNL A   1      36.152  32.791  31.050  1.00  0.00     0.020 A 
ATOM     95  C   UNL A   1      35.733  34.964  32.047  1.00  0.00     0.020 A 
ATOM     96  C   UNL A   1      35.422  33.981  31.108  1.00  0.00     0.054 A 
BRANCH  96  97
ATOM     97  S   UNL A   1      34.029  34.208  29.968  1.00  0.00     0.124 S 
ATOM     98  O   UNL A   1      33.660  32.830  29.658  1.00  0.00    -0.237 OA
ATOM     99  O   UNL A   1      33.073  34.952  30.785  1.00  0.00    -0.237 OA
ATOM    100  O   UNL A   1      34.612  34.965  28.862  1.00  0.00    -0.744 OA
ENDBRANCH  96  97
ENDBRANCH  68  91
BRANCH  80 101
ATOM    101  C   UNL A   1      37.924  32.855  39.827  1.00  0.00    -0.014 A 
ATOM    102  C   UNL A   1      36.999  31.813  40.016  1.00  0.00     0.010 A 
ATOM    103  C   UNL A   1      37.912  33.948  40.714  1.00  0.00     0.010 A 
ATOM    104  C   UNL A   1      36.058  31.882  41.047  1.00  0.00     0.020 A 
ATOM    105  C   UNL A   1      36.994  34.005  41.765  1.00  0.00     0.020 A 
ATOM    106  C   UNL A   1      36.061  32.978  41.914  1.00  0.00     0.054 A 
BRANCH 106 107
ATOM    107  S   UNL A   1      34.851  33.026  43.265  1.00  0.00     0.124 S 
ATOM    108  O   UNL A   1      35.161  31.799  43.994  1.00  0.00    -0.237 OA
ATOM    109  O   UNL A   1      35.190  34.269  43.954  1.00  0.00    -0.237 OA
ATOM    110  O   UNL A   1      33.562  33.033  42.578  1.00  0.00    -0.744 OA
ENDBRANCH 106 107
ENDBRANCH  80 101
ENDBRANCH  54  55
ENDBRANCH  47  49
ENDBRANCH  46  47
ENDBRANCH  45  46
ENDBRANCH  44  45
ENDBRANCH  43  44
ENDBRANCH  42  43
ENDBRANCH  41  42
ENDBRANCH  40  41
ENDBRANCH   1  40
TORSDOF 28
ENDMDL
