MODEL 1
REMARK VINA RESULT:      -6.9      0.000      0.000
REMARK SMILES C=CCN1C(=O)/C(=C/c2ccc(-c3ccc(Cl)c(C(=O)OCCOCCOCCOCCOC(=O)c4ccc(-c5c6nc(c(-c7ccc(S(=O)(=O)[O-])cc7)c7ccc([nH]7)c(-c7ccc(S(=O)(=O)[O-])cc7)c7nc(c(-c8ccc(S(=O)(=O)[O-])cc8)c8ccc5[nH]8)C=C7)C=C6)cc4)c3)o2)C(=O)NC1=S
REMARK SMILES IDX 26 1 25 2 24 3 23 4 22 5 21 6 19 7 20 8 18 9 13 10 14 11
REMARK SMILES IDX 96 12 15 13 16 14 17 15 12 16 9 17 10 18 97 19 11 20 8 21
REMARK SMILES IDX 4 22 5 23 101 24 6 25 7 26 100 27 102 28 98 29 99 31 3 32
REMARK SMILES IDX 2 33 1 34 27 35 28 36 29 37 30 38 31 39 32 40 33 41 34 42
REMARK SMILES IDX 35 43 36 44 37 45 95 46 38 47 94 48 39 49 40 50 41 51 88 52
REMARK SMILES IDX 42 53 93 54 87 55 89 56 43 57 92 58 86 59 85 60 44 62 74 63
REMARK SMILES IDX 55 64 73 65 56 66 59 67 72 68 90 69 57 70 58 71 71 73 91 74
REMARK SMILES IDX 60 75 45 76 46 77 54 78 47 79 53 80 48 81 49 82 50 83 51 84
REMARK SMILES IDX 52 85 75 86 76 87 84 88 77 89 83 90 78 91 79 92 80 93 81 94
REMARK SMILES IDX 82 95 61 96 62 97 70 98 63 99 69 100 64 101 65 102 66 103
REMARK SMILES IDX 67 104 68 105
REMARK H PARENT 100 30 89 61 59 72
REMARK Flexibility Score: inf
ROOT
ATOM      1  C   UNL A   1      45.035  19.313  25.095  1.00  0.00     0.188 C 
ENDROOT
BRANCH   1   2
ATOM      2  C   UNL A   1      43.765  18.536  24.685  1.00  0.00     0.188 C 
BRANCH   2   3
ATOM      3  O   UNL A   1      42.873  18.272  25.748  1.00  0.00    -0.376 OA
BRANCH   3   4
ATOM      4  C   UNL A   1      42.616  19.246  26.741  1.00  0.00     0.202 C 
BRANCH   4   5
ATOM      5  C   UNL A   1      41.461  20.253  26.634  1.00  0.00     0.261 C 
BRANCH   5   6
ATOM      6  O   UNL A   1      41.569  21.421  27.445  1.00  0.00    -0.460 OA
BRANCH   6   7
ATOM      7  C   UNL A   1      40.866  22.514  27.086  1.00  0.00     0.339 C 
ATOM      8  O   UNL A   1      39.660  22.587  26.925  1.00  0.00    -0.246 OA
BRANCH   7   9
ATOM      9  C   UNL A   1      41.766  23.690  27.162  1.00  0.00     0.079 A 
ATOM     10  C   UNL A   1      42.460  25.638  28.452  1.00  0.00     0.018 A 
ATOM     11  C   UNL A   1      43.459  25.888  27.505  1.00  0.00     0.013 A 
ATOM     12  C   UNL A   1      41.629  24.524  28.291  1.00  0.00     0.029 A 
ATOM     13  C   UNL A   1      43.602  25.062  26.388  1.00  0.00     0.022 A 
ATOM     14  C   UNL A   1      42.744  23.973  26.199  1.00  0.00     0.055 A 
ATOM     15  Cl  UNL A   1      42.920  23.082  24.731  1.00  0.00    -0.083 Cl
BRANCH  10  16
ATOM     16  C   UNL A   1      42.187  26.633  29.472  1.00  0.00     0.134 A 
ATOM     17  C   UNL A   1      40.895  27.979  30.670  1.00  0.00     0.128 A 
ATOM     18  C   UNL A   1      42.194  28.091  31.148  1.00  0.00     0.051 A 
ATOM     19  O   UNL A   1      40.903  27.048  29.645  1.00  0.00    -0.457 OA
ATOM     20  C   UNL A   1      43.017  27.254  30.373  1.00  0.00     0.051 A 
BRANCH  17  21
ATOM     21  C   UNL A   1      39.715  28.623  31.126  1.00  0.00     0.066 C 
ATOM     22  N   UNL A   1      37.654  31.480  30.785  1.00  0.00    -0.281 N 
ATOM     23  C   UNL A   1      38.155  30.392  31.501  1.00  0.00     0.266 C 
ATOM     24  C   UNL A   1      38.467  32.376  30.103  1.00  0.00     0.183 C 
ATOM     25  O   UNL A   1      37.543  29.808  32.394  1.00  0.00    -0.268 OA
ATOM     26  C   UNL A   1      39.509  29.953  31.091  1.00  0.00     0.109 C 
ATOM     27  N   UNL A   1      39.808  32.092  30.086  1.00  0.00    -0.298 N 
ATOM     28  S   UNL A   1      37.994  33.776  29.310  1.00  0.00    -0.040 S 
ATOM     29  C   UNL A   1      40.433  30.969  30.555  1.00  0.00     0.263 C 
ATOM     30  H   UNL A   1      40.392  32.779  29.690  1.00  0.00     0.172 HD
ATOM     31  O   UNL A   1      41.652  30.873  30.520  1.00  0.00    -0.269 OA
BRANCH  22  32
ATOM     32  C   UNL A   1      36.195  31.590  30.789  1.00  0.00     0.155 C 
BRANCH  32  33
ATOM     33  C   UNL A   1      35.835  32.468  31.962  1.00  0.00    -0.013 C 
ATOM     34  C   UNL A   1      34.606  32.939  32.207  1.00  0.00     0.006 C 
ENDBRANCH  32  33
ENDBRANCH  22  32
ENDBRANCH  17  21
ENDBRANCH  10  16
ENDBRANCH   7   9
ENDBRANCH   6   7
ENDBRANCH   5   6
ENDBRANCH   4   5
ENDBRANCH   3   4
ENDBRANCH   2   3
ENDBRANCH   1   2
BRANCH   1  35
ATOM     35  O   UNL A   1      45.177  20.668  24.701  1.00  0.00    -0.377 OA
BRANCH  35  36
ATOM     36  C   UNL A   1      46.388  21.371  24.962  1.00  0.00     0.188 C 
BRANCH  36  37
ATOM     37  C   UNL A   1      46.400  22.857  25.392  1.00  0.00     0.188 C 
BRANCH  37  38
ATOM     38  O   UNL A   1      46.543  23.787  24.331  1.00  0.00    -0.376 OA
BRANCH  38  39
ATOM     39  C   UNL A   1      46.527  25.165  24.651  1.00  0.00     0.202 C 
BRANCH  39  40
ATOM     40  C   UNL A   1      47.796  25.974  24.343  1.00  0.00     0.261 C 
BRANCH  40  41
ATOM     41  O   UNL A   1      47.714  27.389  24.564  1.00  0.00    -0.460 OA
BRANCH  41  42
ATOM     42  C   UNL A   1      48.660  27.944  25.350  1.00  0.00     0.338 C 
ATOM     43  O   UNL A   1      49.798  28.249  25.025  1.00  0.00    -0.246 OA
BRANCH  42  44
ATOM     44  C   UNL A   1      48.027  28.298  26.635  1.00  0.00     0.060 A 
ATOM     45  C   UNL A   1      46.682  27.970  26.848  1.00  0.00     0.016 A 
ATOM     46  C   UNL A   1      48.764  28.954  27.625  1.00  0.00     0.016 A 
ATOM     47  C   UNL A   1      46.055  28.340  28.038  1.00  0.00     0.010 A 
ATOM     48  C   UNL A   1      48.129  29.342  28.806  1.00  0.00     0.010 A 
ATOM     49  C   UNL A   1      46.761  29.074  28.999  1.00  0.00    -0.014 A 
BRANCH  49  50
ATOM     50  C   UNL A   1      46.021  29.758  30.088  1.00  0.00     0.031 A 
ATOM     51  C   UNL A   1      45.863  29.030  31.397  1.00  0.00     0.074 A 
ATOM     52  C   UNL A   1      45.525  30.999  29.936  1.00  0.00     0.049 A 
ATOM     53  N   UNL A   1      45.227  29.397  32.479  1.00  0.00    -0.248 NA
ATOM     54  C   UNL A   1      46.507  27.708  31.496  1.00  0.00     0.031 C 
ATOM     55  C   UNL A   1      45.657  31.826  28.737  1.00  0.00     0.029 A 
ATOM     56  N   UNL A   1      44.801  31.779  30.804  1.00  0.00    -0.354 N 
ATOM     57  C   UNL A   1      45.382  28.347  33.379  1.00  0.00     0.074 A 
ATOM     58  C   UNL A   1      46.145  27.319  32.709  1.00  0.00     0.031 C 
ATOM     59  C   UNL A   1      45.029  32.997  28.945  1.00  0.00     0.029 A 
ATOM     60  C   UNL A   1      44.419  32.988  30.274  1.00  0.00     0.049 A 
ATOM     61  H   UNL A   1      44.578  31.497  31.722  1.00  0.00     0.167 HD
ATOM     62  C   UNL A   1      44.935  28.252  34.653  1.00  0.00     0.031 A 
ATOM     63  C   UNL A   1      43.647  33.963  30.795  1.00  0.00     0.031 A 
ATOM     64  C   UNL A   1      44.168  29.273  35.314  1.00  0.00     0.049 A 
ATOM     65  C   UNL A   1      43.091  33.797  32.188  1.00  0.00     0.074 A 
ATOM     66  C   UNL A   1      43.681  29.280  36.608  1.00  0.00     0.029 A 
ATOM     67  N   UNL A   1      43.770  30.466  34.729  1.00  0.00    -0.354 N 
ATOM     68  N   UNL A   1      43.269  32.813  33.038  1.00  0.00    -0.248 NA
ATOM     69  C   UNL A   1      42.237  34.881  32.697  1.00  0.00     0.031 C 
ATOM     70  C   UNL A   1      42.930  30.446  36.785  1.00  0.00     0.029 A 
ATOM     71  C   UNL A   1      43.016  31.203  35.627  1.00  0.00     0.049 A 
ATOM     72  H   UNL A   1      43.991  30.748  33.812  1.00  0.00     0.167 HD
ATOM     73  C   UNL A   1      42.580  33.177  34.193  1.00  0.00     0.074 A 
ATOM     74  C   UNL A   1      41.995  34.476  33.937  1.00  0.00     0.031 C 
ATOM     75  C   UNL A   1      42.446  32.499  35.360  1.00  0.00     0.031 A 
BRANCH  62  76
ATOM     76  C   UNL A   1      45.227  26.979  35.404  1.00  0.00    -0.014 A 
ATOM     77  C   UNL A   1      46.354  26.862  36.236  1.00  0.00     0.010 A 
ATOM     78  C   UNL A   1      44.332  25.898  35.309  1.00  0.00     0.010 A 
ATOM     79  C   UNL A   1      46.596  25.677  36.937  1.00  0.00     0.020 A 
ATOM     80  C   UNL A   1      44.553  24.724  36.032  1.00  0.00     0.020 A 
ATOM     81  C   UNL A   1      45.691  24.616  36.833  1.00  0.00     0.054 A 
BRANCH  81  82
ATOM     82  S   UNL A   1      46.008  23.105  37.785  1.00  0.00     0.124 S 
ATOM     83  O   UNL A   1      45.287  23.375  39.027  1.00  0.00    -0.237 OA
ATOM     84  O   UNL A   1      45.431  22.067  36.937  1.00  0.00    -0.237 OA
ATOM     85  O   UNL A   1      47.463  23.070  37.907  1.00  0.00    -0.744 OA
ENDBRANCH  81  82
ENDBRANCH  62  76
BRANCH  63  86
ATOM     86  C   UNL A   1      43.327  35.179  29.993  1.00  0.00    -0.014 A 
ATOM     87  C   UNL A   1      44.130  36.331  30.079  1.00  0.00     0.010 A 
ATOM     88  C   UNL A   1      42.195  35.200  29.157  1.00  0.00     0.010 A 
ATOM     89  C   UNL A   1      43.792  37.487  29.367  1.00  0.00     0.020 A 
ATOM     90  C   UNL A   1      41.873  36.342  28.417  1.00  0.00     0.020 A 
ATOM     91  C   UNL A   1      42.667  37.484  28.539  1.00  0.00     0.054 A 
BRANCH  91  92
ATOM     92  S   UNL A   1      42.269  38.984  27.600  1.00  0.00     0.124 S 
ATOM     93  O   UNL A   1      43.595  39.502  27.277  1.00  0.00    -0.237 OA
ATOM     94  O   UNL A   1      41.503  38.456  26.475  1.00  0.00    -0.237 OA
ATOM     95  O   UNL A   1      41.497  39.787  28.547  1.00  0.00    -0.744 OA
ENDBRANCH  91  92
ENDBRANCH  63  86
BRANCH  75  96
ATOM     96  C   UNL A   1      41.681  33.167  36.475  1.00  0.00    -0.014 A 
ATOM     97  C   UNL A   1      40.302  32.958  36.651  1.00  0.00     0.010 A 
ATOM     98  C   UNL A   1      42.373  33.970  37.401  1.00  0.00     0.010 A 
ATOM     99  C   UNL A   1      39.624  33.568  37.710  1.00  0.00     0.020 A 
ATOM    100  C   UNL A   1      41.706  34.554  38.480  1.00  0.00     0.020 A 
ATOM    101  C   UNL A   1      40.331  34.361  38.620  1.00  0.00     0.054 A 
BRANCH 101 102
ATOM    102  S   UNL A   1      39.435  35.107  40.009  1.00  0.00     0.124 S 
ATOM    103  O   UNL A   1      40.298  34.777  41.140  1.00  0.00    -0.237 OA
ATOM    104  O   UNL A   1      39.396  36.521  39.642  1.00  0.00    -0.237 OA
ATOM    105  O   UNL A   1      38.141  34.429  39.994  1.00  0.00    -0.744 OA
ENDBRANCH 101 102
ENDBRANCH  75  96
ENDBRANCH  49  50
ENDBRANCH  42  44
ENDBRANCH  41  42
ENDBRANCH  40  41
ENDBRANCH  39  40
ENDBRANCH  38  39
ENDBRANCH  37  38
ENDBRANCH  36  37
ENDBRANCH  35  36
ENDBRANCH   1  35
TORSDOF 27
ENDMDL
MODEL 2
REMARK VINA RESULT:      -6.5      4.805      9.710
REMARK SMILES C=CCN1C(=O)/C(=C/c2ccc(-c3ccc(Cl)c(C(=O)OCCOCCOCCOCCOC(=O)c4ccc(-c5c6nc(c(-c7ccc(S(=O)(=O)[O-])cc7)c7ccc([nH]7)c(-c7ccc(S(=O)(=O)[O-])cc7)c7nc(c(-c8ccc(S(=O)(=O)[O-])cc8)c8ccc5[nH]8)C=C7)C=C6)cc4)c3)o2)C(=O)NC1=S
REMARK SMILES IDX 26 1 25 2 24 3 23 4 22 5 21 6 19 7 20 8 18 9 13 10 14 11
REMARK SMILES IDX 96 12 15 13 16 14 17 15 12 16 9 17 10 18 97 19 11 20 8 21
REMARK SMILES IDX 4 22 5 23 101 24 6 25 7 26 100 27 102 28 98 29 99 31 3 32
REMARK SMILES IDX 2 33 1 34 27 35 28 36 29 37 30 38 31 39 32 40 33 41 34 42
REMARK SMILES IDX 35 43 36 44 37 45 95 46 38 47 94 48 39 49 40 50 41 51 88 52
REMARK SMILES IDX 42 53 93 54 87 55 89 56 43 57 92 58 86 59 85 60 44 62 74 63
REMARK SMILES IDX 55 64 73 65 56 66 59 67 72 68 90 69 57 70 58 71 71 73 91 74
REMARK SMILES IDX 60 75 45 76 46 77 54 78 47 79 53 80 48 81 49 82 50 83 51 84
REMARK SMILES IDX 52 85 75 86 76 87 84 88 77 89 83 90 78 91 79 92 80 93 81 94
REMARK SMILES IDX 82 95 61 96 62 97 70 98 63 99 69 100 64 101 65 102 66 103
REMARK SMILES IDX 67 104 68 105
REMARK H PARENT 100 30 89 61 59 72
REMARK Flexibility Score: inf
ROOT
ATOM      1  C   UNL A   1      42.711  26.039  25.356  1.00  0.00     0.188 C 
ENDROOT
BRANCH   1   2
ATOM      2  C   UNL A   1      42.226  24.766  26.085  1.00  0.00     0.188 C 
BRANCH   2   3
ATOM      3  O   UNL A   1      41.523  25.012  27.285  1.00  0.00    -0.376 OA
BRANCH   3   4
ATOM      4  C   UNL A   1      40.118  25.178  27.285  1.00  0.00     0.202 C 
BRANCH   4   5
ATOM      5  C   UNL A   1      39.378  25.968  28.376  1.00  0.00     0.261 C 
BRANCH   5   6
ATOM      6  O   UNL A   1      39.169  27.355  28.113  1.00  0.00    -0.460 OA
BRANCH   6   7
ATOM      7  C   UNL A   1      39.729  28.254  28.947  1.00  0.00     0.339 C 
ATOM      8  O   UNL A   1      40.852  28.211  29.419  1.00  0.00    -0.246 OA
BRANCH   7   9
ATOM      9  C   UNL A   1      38.851  29.446  29.002  1.00  0.00     0.079 A 
ATOM     10  C   UNL A   1      36.609  30.337  28.653  1.00  0.00     0.018 A 
ATOM     11  C   UNL A   1      37.040  31.572  29.149  1.00  0.00     0.013 A 
ATOM     12  C   UNL A   1      37.510  29.268  28.603  1.00  0.00     0.029 A 
ATOM     13  C   UNL A   1      38.366  31.751  29.551  1.00  0.00     0.022 A 
ATOM     14  C   UNL A   1      39.282  30.698  29.460  1.00  0.00     0.055 A 
ATOM     15  Cl  UNL A   1      40.923  31.049  29.867  1.00  0.00    -0.083 Cl
BRANCH  10  16
ATOM     16  C   UNL A   1      35.301  30.241  28.034  1.00  0.00     0.134 A 
ATOM     17  C   UNL A   1      33.481  29.183  27.334  1.00  0.00     0.128 A 
ATOM     18  C   UNL A   1      33.311  30.540  27.091  1.00  0.00     0.051 A 
ATOM     19  O   UNL A   1      34.713  29.017  27.945  1.00  0.00    -0.457 OA
ATOM     20  C   UNL A   1      34.474  31.207  27.514  1.00  0.00     0.051 A 
BRANCH  17  21
ATOM     21  C   UNL A   1      32.588  28.110  27.082  1.00  0.00     0.066 C 
ATOM     22  N   UNL A   1      32.144  25.049  25.361  1.00  0.00    -0.281 N 
ATOM     23  C   UNL A   1      31.663  26.203  25.980  1.00  0.00     0.266 C 
ATOM     24  C   UNL A   1      33.167  25.064  24.421  1.00  0.00     0.183 C 
ATOM     25  O   UNL A   1      30.559  26.295  26.515  1.00  0.00    -0.268 OA
ATOM     26  C   UNL A   1      32.605  27.346  25.972  1.00  0.00     0.109 C 
ATOM     27  N   UNL A   1      33.760  26.277  24.185  1.00  0.00    -0.298 N 
ATOM     28  S   UNL A   1      33.748  23.766  23.531  1.00  0.00    -0.040 S 
ATOM     29  C   UNL A   1      33.552  27.455  24.849  1.00  0.00     0.263 C 
ATOM     30  H   UNL A   1      34.413  26.305  23.448  1.00  0.00     0.172 HD
ATOM     31  O   UNL A   1      34.119  28.479  24.493  1.00  0.00    -0.269 OA
BRANCH  22  32
ATOM     32  C   UNL A   1      31.500  23.810  25.800  1.00  0.00     0.155 C 
BRANCH  32  33
ATOM     33  C   UNL A   1      32.193  23.395  27.074  1.00  0.00    -0.013 C 
ATOM     34  C   UNL A   1      33.158  22.469  27.145  1.00  0.00     0.006 C 
ENDBRANCH  32  33
ENDBRANCH  22  32
ENDBRANCH  17  21
ENDBRANCH  10  16
ENDBRANCH   7   9
ENDBRANCH   6   7
ENDBRANCH   5   6
ENDBRANCH   4   5
ENDBRANCH   3   4
ENDBRANCH   2   3
ENDBRANCH   1   2
BRANCH   1  35
ATOM     35  O   UNL A   1      44.102  26.302  25.272  1.00  0.00    -0.377 OA
BRANCH  35  36
ATOM     36  C   UNL A   1      44.902  26.332  26.451  1.00  0.00     0.188 C 
BRANCH  36  37
ATOM     37  C   UNL A   1      45.460  27.653  27.032  1.00  0.00     0.188 C 
BRANCH  37  38
ATOM     38  O   UNL A   1      46.198  28.446  26.117  1.00  0.00    -0.376 OA
BRANCH  38  39
ATOM     39  C   UNL A   1      46.164  29.851  26.280  1.00  0.00     0.202 C 
BRANCH  39  40
ATOM     40  C   UNL A   1      44.906  30.456  26.920  1.00  0.00     0.261 C 
BRANCH  40  41
ATOM     41  O   UNL A   1      44.323  31.574  26.236  1.00  0.00    -0.460 OA
BRANCH  41  42
ATOM     42  C   UNL A   1      44.965  32.758  26.335  1.00  0.00     0.338 C 
ATOM     43  O   UNL A   1      45.484  33.389  25.427  1.00  0.00    -0.246 OA
BRANCH  42  44
ATOM     44  C   UNL A   1      44.770  33.261  27.708  1.00  0.00     0.060 A 
ATOM     45  C   UNL A   1      45.877  33.369  28.560  1.00  0.00     0.016 A 
ATOM     46  C   UNL A   1      43.496  33.625  28.149  1.00  0.00     0.016 A 
ATOM     47  C   UNL A   1      45.703  33.798  29.876  1.00  0.00     0.010 A 
ATOM     48  C   UNL A   1      43.321  34.035  29.473  1.00  0.00     0.010 A 
ATOM     49  C   UNL A   1      44.417  34.081  30.353  1.00  0.00    -0.014 A 
BRANCH  49  50
ATOM     50  C   UNL A   1      44.187  34.199  31.814  1.00  0.00     0.031 A 
ATOM     51  C   UNL A   1      44.243  35.573  32.428  1.00  0.00     0.074 A 
ATOM     52  C   UNL A   1      43.911  33.125  32.576  1.00  0.00     0.049 A 
ATOM     53  N   UNL A   1      44.116  35.929  33.679  1.00  0.00    -0.248 NA
ATOM     54  C   UNL A   1      44.475  36.697  31.503  1.00  0.00     0.031 C 
ATOM     55  C   UNL A   1      43.780  31.751  32.092  1.00  0.00     0.029 A 
ATOM     56  N   UNL A   1      43.694  33.028  33.928  1.00  0.00    -0.354 N 
ATOM     57  C   UNL A   1      44.268  37.312  33.693  1.00  0.00     0.074 A 
ATOM     58  C   UNL A   1      44.525  37.727  32.333  1.00  0.00     0.031 C 
ATOM     59  C   UNL A   1      43.510  30.947  33.135  1.00  0.00     0.029 A 
ATOM     60  C   UNL A   1      43.488  31.740  34.363  1.00  0.00     0.049 A 
ATOM     61  H   UNL A   1      43.687  33.808  34.530  1.00  0.00     0.167 HD
ATOM     62  C   UNL A   1      44.194  38.161  34.745  1.00  0.00     0.031 A 
ATOM     63  C   UNL A   1      43.322  31.258  35.612  1.00  0.00     0.031 A 
ATOM     64  C   UNL A   1      43.948  37.743  36.098  1.00  0.00     0.049 A 
ATOM     65  C   UNL A   1      43.324  32.217  36.778  1.00  0.00     0.074 A 
ATOM     66  C   UNL A   1      43.838  38.527  37.233  1.00  0.00     0.029 A 
ATOM     67  N   UNL A   1      43.782  36.427  36.502  1.00  0.00    -0.354 N 
ATOM     68  N   UNL A   1      43.441  33.524  36.774  1.00  0.00    -0.248 NA
ATOM     69  C   UNL A   1      43.164  31.634  38.118  1.00  0.00     0.031 C 
ATOM     70  C   UNL A   1      43.674  37.680  38.332  1.00  0.00     0.029 A 
ATOM     71  C   UNL A   1      43.601  36.374  37.874  1.00  0.00     0.049 A 
ATOM     72  H   UNL A   1      43.790  35.646  35.903  1.00  0.00     0.167 HD
ATOM     73  C   UNL A   1      43.330  33.921  38.104  1.00  0.00     0.074 A 
ATOM     74  C   UNL A   1      43.124  32.718  38.882  1.00  0.00     0.031 C 
ATOM     75  C   UNL A   1      43.390  35.168  38.634  1.00  0.00     0.031 A 
BRANCH  62  76
ATOM     76  C   UNL A   1      44.424  39.626  34.479  1.00  0.00    -0.014 A 
ATOM     77  C   UNL A   1      43.355  40.496  34.199  1.00  0.00     0.010 A 
ATOM     78  C   UNL A   1      45.727  40.148  34.557  1.00  0.00     0.010 A 
ATOM     79  C   UNL A   1      43.590  41.855  33.973  1.00  0.00     0.020 A 
ATOM     80  C   UNL A   1      45.963  41.510  34.363  1.00  0.00     0.020 A 
ATOM     81  C   UNL A   1      44.894  42.354  34.059  1.00  0.00     0.054 A 
BRANCH  81  82
ATOM     82  S   UNL A   1      45.164  44.129  33.802  1.00  0.00     0.124 S 
ATOM     83  O   UNL A   1      43.854  44.685  34.133  1.00  0.00    -0.237 OA
ATOM     84  O   UNL A   1      46.231  44.430  34.752  1.00  0.00    -0.237 OA
ATOM     85  O   UNL A   1      45.542  44.223  32.394  1.00  0.00    -0.744 OA
ENDBRANCH  81  82
ENDBRANCH  62  76
BRANCH  63  86
ATOM     86  C   UNL A   1      43.163  29.792  35.838  1.00  0.00    -0.014 A 
ATOM     87  C   UNL A   1      41.886  29.212  35.930  1.00  0.00     0.010 A 
ATOM     88  C   UNL A   1      44.296  28.972  35.992  1.00  0.00     0.010 A 
ATOM     89  C   UNL A   1      41.743  27.846  36.198  1.00  0.00     0.020 A 
ATOM     90  C   UNL A   1      44.159  27.600  36.227  1.00  0.00     0.020 A 
ATOM     91  C   UNL A   1      42.882  27.049  36.343  1.00  0.00     0.054 A 
BRANCH  91  92
ATOM     92  S   UNL A   1      42.672  25.274  36.656  1.00  0.00     0.124 S 
ATOM     93  O   UNL A   1      41.337  25.225  37.244  1.00  0.00    -0.237 OA
ATOM     94  O   UNL A   1      42.797  24.702  35.319  1.00  0.00    -0.237 OA
ATOM     95  O   UNL A   1      43.769  24.955  37.568  1.00  0.00    -0.744 OA
ENDBRANCH  91  92
ENDBRANCH  63  86
BRANCH  75  96
ATOM     96  C   UNL A   1      43.178  35.310  40.121  1.00  0.00    -0.014 A 
ATOM     97  C   UNL A   1      44.249  35.233  41.029  1.00  0.00     0.010 A 
ATOM     98  C   UNL A   1      41.888  35.586  40.610  1.00  0.00     0.010 A 
ATOM     99  C   UNL A   1      44.027  35.396  42.399  1.00  0.00     0.020 A 
ATOM    100  C   UNL A   1      41.666  35.783  41.975  1.00  0.00     0.020 A 
ATOM    101  C   UNL A   1      42.737  35.672  42.863  1.00  0.00     0.054 A 
BRANCH 101 102
ATOM    102  S   UNL A   1      42.483  35.920  44.642  1.00  0.00     0.124 S 
ATOM    103  O   UNL A   1      43.396  34.937  45.220  1.00  0.00    -0.237 OA
ATOM    104  O   UNL A   1      42.867  37.318  44.827  1.00  0.00    -0.237 OA
ATOM    105  O   UNL A   1      41.063  35.639  44.834  1.00  0.00    -0.744 OA
ENDBRANCH 101 102
ENDBRANCH  75  96
ENDBRANCH  49  50
ENDBRANCH  42  44
ENDBRANCH  41  42
ENDBRANCH  40  41
ENDBRANCH  39  40
ENDBRANCH  38  39
ENDBRANCH  37  38
ENDBRANCH  36  37
ENDBRANCH  35  36
ENDBRANCH   1  35
TORSDOF 27
ENDMDL
MODEL 3
REMARK VINA RESULT:      -6.4      5.710     10.327
REMARK SMILES C=CCN1C(=O)/C(=C/c2ccc(-c3ccc(Cl)c(C(=O)OCCOCCOCCOCCOC(=O)c4ccc(-c5c6nc(c(-c7ccc(S(=O)(=O)[O-])cc7)c7ccc([nH]7)c(-c7ccc(S(=O)(=O)[O-])cc7)c7nc(c(-c8ccc(S(=O)(=O)[O-])cc8)c8ccc5[nH]8)C=C7)C=C6)cc4)c3)o2)C(=O)NC1=S
REMARK SMILES IDX 26 1 25 2 24 3 23 4 22 5 21 6 19 7 20 8 18 9 13 10 14 11
REMARK SMILES IDX 96 12 15 13 16 14 17 15 12 16 9 17 10 18 97 19 11 20 8 21
REMARK SMILES IDX 4 22 5 23 101 24 6 25 7 26 100 27 102 28 98 29 99 31 3 32
REMARK SMILES IDX 2 33 1 34 27 35 28 36 29 37 30 38 31 39 32 40 33 41 34 42
REMARK SMILES IDX 35 43 36 44 37 45 95 46 38 47 94 48 39 49 40 50 41 51 88 52
REMARK SMILES IDX 42 53 93 54 87 55 89 56 43 57 92 58 86 59 85 60 44 62 74 63
REMARK SMILES IDX 55 64 73 65 56 66 59 67 72 68 90 69 57 70 58 71 71 73 91 74
REMARK SMILES IDX 60 75 45 76 46 77 54 78 47 79 53 80 48 81 49 82 50 83 51 84
REMARK SMILES IDX 52 85 75 86 76 87 84 88 77 89 83 90 78 91 79 92 80 93 81 94
REMARK SMILES IDX 82 95 61 96 62 97 70 98 63 99 69 100 64 101 65 102 66 103
REMARK SMILES IDX 67 104 68 105
REMARK H PARENT 100 30 89 61 59 72
REMARK Flexibility Score: inf
ROOT
ATOM      1  C   UNL A   1      41.769  26.493  25.501  1.00  0.00     0.188 C 
ENDROOT
BRANCH   1   2
ATOM      2  C   UNL A   1      41.619  25.267  26.429  1.00  0.00     0.188 C 
BRANCH   2   3
ATOM      3  O   UNL A   1      41.394  25.586  27.787  1.00  0.00    -0.376 OA
BRANCH   3   4
ATOM      4  C   UNL A   1      40.135  25.354  28.390  1.00  0.00     0.202 C 
BRANCH   4   5
ATOM      5  C   UNL A   1      39.165  26.491  28.744  1.00  0.00     0.261 C 
BRANCH   5   6
ATOM      6  O   UNL A   1      39.379  27.731  28.071  1.00  0.00    -0.460 OA
BRANCH   6   7
ATOM      7  C   UNL A   1      39.952  28.740  28.760  1.00  0.00     0.339 C 
ATOM      8  O   UNL A   1      41.137  28.871  29.013  1.00  0.00    -0.246 OA
BRANCH   7   9
ATOM      9  C   UNL A   1      38.940  29.805  28.949  1.00  0.00     0.079 A 
ATOM     10  C   UNL A   1      36.611  30.470  28.670  1.00  0.00     0.018 A 
ATOM     11  C   UNL A   1      36.893  31.672  29.327  1.00  0.00     0.013 A 
ATOM     12  C   UNL A   1      37.631  29.527  28.502  1.00  0.00     0.029 A 
ATOM     13  C   UNL A   1      38.186  31.950  29.776  1.00  0.00     0.022 A 
ATOM     14  C   UNL A   1      39.219  31.030  29.570  1.00  0.00     0.055 A 
ATOM     15  Cl  UNL A   1      40.805  31.512  30.053  1.00  0.00    -0.083 Cl
BRANCH  10  16
ATOM     16  C   UNL A   1      35.326  30.306  28.016  1.00  0.00     0.134 A 
ATOM     17  C   UNL A   1      33.559  29.161  27.318  1.00  0.00     0.128 A 
ATOM     18  C   UNL A   1      33.361  30.498  26.998  1.00  0.00     0.051 A 
ATOM     19  O   UNL A   1      34.774  29.062  27.975  1.00  0.00    -0.457 OA
ATOM     20  C   UNL A   1      34.492  31.219  27.421  1.00  0.00     0.051 A 
BRANCH  17  21
ATOM     21  C   UNL A   1      32.703  28.051  27.096  1.00  0.00     0.066 C 
ATOM     22  N   UNL A   1      32.317  24.987  25.368  1.00  0.00    -0.281 N 
ATOM     23  C   UNL A   1      31.814  26.114  26.018  1.00  0.00     0.266 C 
ATOM     24  C   UNL A   1      33.294  25.054  24.383  1.00  0.00     0.183 C 
ATOM     25  O   UNL A   1      30.733  26.153  26.604  1.00  0.00    -0.268 OA
ATOM     26  C   UNL A   1      32.703  27.298  25.980  1.00  0.00     0.109 C 
ATOM     27  N   UNL A   1      33.822  26.295  24.131  1.00  0.00    -0.298 N 
ATOM     28  S   UNL A   1      33.890  23.791  23.455  1.00  0.00    -0.040 S 
ATOM     29  C   UNL A   1      33.593  27.457  24.816  1.00  0.00     0.263 C 
ATOM     30  H   UNL A   1      34.439  26.357  23.367  1.00  0.00     0.172 HD
ATOM     31  O   UNL A   1      34.097  28.508  24.445  1.00  0.00    -0.269 OA
BRANCH  22  32
ATOM     32  C   UNL A   1      31.748  23.718  25.823  1.00  0.00     0.155 C 
BRANCH  32  33
ATOM     33  C   UNL A   1      32.472  23.356  27.096  1.00  0.00    -0.013 C 
ATOM     34  C   UNL A   1      33.255  22.280  27.244  1.00  0.00     0.006 C 
ENDBRANCH  32  33
ENDBRANCH  22  32
ENDBRANCH  17  21
ENDBRANCH  10  16
ENDBRANCH   7   9
ENDBRANCH   6   7
ENDBRANCH   5   6
ENDBRANCH   4   5
ENDBRANCH   3   4
ENDBRANCH   2   3
ENDBRANCH   1   2
BRANCH   1  35
ATOM     35  O   UNL A   1      43.042  27.101  25.357  1.00  0.00    -0.377 OA
BRANCH  35  36
ATOM     36  C   UNL A   1      43.858  27.344  26.500  1.00  0.00     0.188 C 
BRANCH  36  37
ATOM     37  C   UNL A   1      44.317  28.768  26.894  1.00  0.00     0.188 C 
BRANCH  37  38
ATOM     38  O   UNL A   1      45.308  29.332  26.052  1.00  0.00    -0.376 OA
BRANCH  38  39
ATOM     39  C   UNL A   1      45.605  30.707  26.206  1.00  0.00     0.202 C 
BRANCH  39  40
ATOM     40  C   UNL A   1      44.455  31.633  26.628  1.00  0.00     0.261 C 
BRANCH  40  41
ATOM     41  O   UNL A   1      43.770  32.316  25.569  1.00  0.00    -0.460 OA
BRANCH  41  42
ATOM     42  C   UNL A   1      44.305  33.479  25.142  1.00  0.00     0.338 C 
ATOM     43  O   UNL A   1      44.507  33.813  23.984  1.00  0.00    -0.246 OA
BRANCH  42  44
ATOM     44  C   UNL A   1      44.436  34.370  26.311  1.00  0.00     0.060 A 
ATOM     45  C   UNL A   1      45.604  34.319  27.083  1.00  0.00     0.016 A 
ATOM     46  C   UNL A   1      43.405  35.254  26.640  1.00  0.00     0.016 A 
ATOM     47  C   UNL A   1      45.724  35.120  28.218  1.00  0.00     0.010 A 
ATOM     48  C   UNL A   1      43.518  36.039  27.789  1.00  0.00     0.010 A 
ATOM     49  C   UNL A   1      44.660  35.945  28.606  1.00  0.00    -0.014 A 
BRANCH  49  50
ATOM     50  C   UNL A   1      44.642  36.524  29.971  1.00  0.00     0.031 A 
ATOM     51  C   UNL A   1      45.537  37.703  30.248  1.00  0.00     0.074 A 
ATOM     52  C   UNL A   1      43.838  36.040  30.935  1.00  0.00     0.049 A 
ATOM     53  N   UNL A   1      45.729  38.356  31.364  1.00  0.00    -0.248 NA
ATOM     54  C   UNL A   1      46.323  38.212  29.110  1.00  0.00     0.031 C 
ATOM     55  C   UNL A   1      42.891  34.937  30.777  1.00  0.00     0.029 A 
ATOM     56  N   UNL A   1      43.697  36.419  32.247  1.00  0.00    -0.354 N 
ATOM     57  C   UNL A   1      46.666  39.340  31.067  1.00  0.00     0.074 A 
ATOM     58  C   UNL A   1      47.026  39.182  29.677  1.00  0.00     0.031 C 
ATOM     59  C   UNL A   1      42.270  34.725  31.951  1.00  0.00     0.029 A 
ATOM     60  C   UNL A   1      42.802  35.649  32.952  1.00  0.00     0.049 A 
ATOM     61  H   UNL A   1      44.191  37.172  32.646  1.00  0.00     0.167 HD
ATOM     62  C   UNL A   1      47.177  40.295  31.879  1.00  0.00     0.031 A 
ATOM     63  C   UNL A   1      42.469  35.676  34.258  1.00  0.00     0.031 A 
ATOM     64  C   UNL A   1      46.823  40.444  33.265  1.00  0.00     0.049 A 
ATOM     65  C   UNL A   1      43.113  36.699  35.162  1.00  0.00     0.074 A 
ATOM     66  C   UNL A   1      47.272  41.389  34.169  1.00  0.00     0.029 A 
ATOM     67  N   UNL A   1      45.941  39.621  33.950  1.00  0.00    -0.354 N 
ATOM     68  N   UNL A   1      43.976  37.641  34.862  1.00  0.00    -0.248 NA
ATOM     69  C   UNL A   1      42.730  36.666  36.581  1.00  0.00     0.031 C 
ATOM     70  C   UNL A   1      46.715  41.097  35.417  1.00  0.00     0.029 A 
ATOM     71  C   UNL A   1      45.857  40.018  35.273  1.00  0.00     0.049 A 
ATOM     72  H   UNL A   1      45.448  38.867  33.553  1.00  0.00     0.167 HD
ATOM     73  C   UNL A   1      44.210  38.335  36.047  1.00  0.00     0.074 A 
ATOM     74  C   UNL A   1      43.387  37.713  37.063  1.00  0.00     0.031 C 
ATOM     75  C   UNL A   1      45.028  39.393  36.272  1.00  0.00     0.031 A 
BRANCH  62  76
ATOM     76  C   UNL A   1      48.206  41.229  31.299  1.00  0.00    -0.014 A 
ATOM     77  C   UNL A   1      49.580  40.934  31.359  1.00  0.00     0.010 A 
ATOM     78  C   UNL A   1      47.786  42.400  30.642  1.00  0.00     0.010 A 
ATOM     79  C   UNL A   1      50.516  41.808  30.798  1.00  0.00     0.020 A 
ATOM     80  C   UNL A   1      48.716  43.259  30.053  1.00  0.00     0.020 A 
ATOM     81  C   UNL A   1      50.077  42.964  30.145  1.00  0.00     0.054 A 
BRANCH  81  82
ATOM     82  S   UNL A   1      51.311  44.059  29.391  1.00  0.00     0.124 S 
ATOM     83  O   UNL A   1      52.528  43.679  30.106  1.00  0.00    -0.237 OA
ATOM     84  O   UNL A   1      51.263  43.670  27.984  1.00  0.00    -0.237 OA
ATOM     85  O   UNL A   1      50.812  45.400  29.682  1.00  0.00    -0.744 OA
ENDBRANCH  81  82
ENDBRANCH  62  76
BRANCH  63  86
ATOM     86  C   UNL A   1      41.492  34.690  34.806  1.00  0.00    -0.014 A 
ATOM     87  C   UNL A   1      40.114  34.969  34.815  1.00  0.00     0.010 A 
ATOM     88  C   UNL A   1      41.944  33.473  35.351  1.00  0.00     0.010 A 
ATOM     89  C   UNL A   1      39.210  34.064  35.382  1.00  0.00     0.020 A 
ATOM     90  C   UNL A   1      41.040  32.551  35.887  1.00  0.00     0.020 A 
ATOM     91  C   UNL A   1      39.679  32.860  35.912  1.00  0.00     0.054 A 
BRANCH  91  92
ATOM     92  S   UNL A   1      38.483  31.688  36.611  1.00  0.00     0.124 S 
ATOM     93  O   UNL A   1      37.250  32.067  35.929  1.00  0.00    -0.237 OA
ATOM     94  O   UNL A   1      39.049  30.398  36.229  1.00  0.00    -0.237 OA
ATOM     95  O   UNL A   1      38.519  31.975  38.044  1.00  0.00    -0.744 OA
ENDBRANCH  91  92
ENDBRANCH  63  86
BRANCH  75  96
ATOM     96  C   UNL A   1      45.040  39.987  37.659  1.00  0.00    -0.014 A 
ATOM     97  C   UNL A   1      45.968  39.572  38.631  1.00  0.00     0.010 A 
ATOM     98  C   UNL A   1      44.143  41.025  37.972  1.00  0.00     0.010 A 
ATOM     99  C   UNL A   1      45.974  40.159  39.899  1.00  0.00     0.020 A 
ATOM    100  C   UNL A   1      44.168  41.639  39.226  1.00  0.00     0.020 A 
ATOM    101  C   UNL A   1      45.075  41.191  40.188  1.00  0.00     0.054 A 
BRANCH 101 102
ATOM    102  S   UNL A   1      45.132  41.965  41.827  1.00  0.00     0.124 S 
ATOM    103  O   UNL A   1      43.759  42.434  41.991  1.00  0.00    -0.237 OA
ATOM    104  O   UNL A   1      45.523  40.854  42.692  1.00  0.00    -0.237 OA
ATOM    105  O   UNL A   1      46.136  43.016  41.681  1.00  0.00    -0.744 OA
ENDBRANCH 101 102
ENDBRANCH  75  96
ENDBRANCH  49  50
ENDBRANCH  42  44
ENDBRANCH  41  42
ENDBRANCH  40  41
ENDBRANCH  39  40
ENDBRANCH  38  39
ENDBRANCH  37  38
ENDBRANCH  36  37
ENDBRANCH  35  36
ENDBRANCH   1  35
TORSDOF 27
ENDMDL
