MODEL 1
REMARK VINA RESULT:      -7.7      0.000      0.000
REMARK SMILES [NH3+][C@@]1(C(=O)OCCOCCOCCOCCOC(=O)c2ccc(-c3c4nc(c(-c5ccc(S(=O)(=O)[O-])cc5)c5ccc([nH]5)c(-c5ccc(S(=O)(=O)[O-])cc5)c5nc(c(-c6ccc(S(=O)(=O)[O-])cc6)c6ccc3[nH]6)C=C5)C=C4)cc2)CC[N@H+](Cc2ccc(OCC(=O)N3CCCCC3)cc2)C1
REMARK SMILES IDX 10 1 9 2 8 3 7 4 6 5 5 6 3 7 4 8 2 9 80 10 100 11 81 12
REMARK SMILES IDX 82 13 1 15 83 19 84 20 85 21 99 22 86 23 98 24 87 25 88 26
REMARK SMILES IDX 89 27 90 28 91 29 92 30 93 31 97 32 94 33 96 34 95 35 11 36
REMARK SMILES IDX 12 37 13 38 14 39 15 40 16 41 17 42 18 43 19 44 20 45 21 46
REMARK SMILES IDX 79 47 22 48 78 49 23 50 24 51 25 52 72 53 26 54 77 55 71 56
REMARK SMILES IDX 73 57 27 58 76 59 70 60 69 61 28 63 58 64 39 65 57 66 40 67
REMARK SMILES IDX 43 68 56 69 74 70 41 71 42 72 55 74 75 75 44 76 29 77 30 78
REMARK SMILES IDX 38 79 31 80 37 81 32 82 33 83 34 84 35 85 36 86 59 87 60 88
REMARK SMILES IDX 68 89 61 90 67 91 62 92 63 93 64 94 65 95 66 96 45 97 46 98
REMARK SMILES IDX 54 99 47 100 53 101 48 102 49 103 50 104 51 105 52 106
REMARK H PARENT 82 14 1 16 1 17 1 18 73 62 43 73
REMARK Flexibility Score: inf
ROOT
ATOM      1  C   UNL A   1      37.403  32.749  31.617  1.00  0.00     0.188 C 
ENDROOT
BRANCH   1   2
ATOM      2  C   UNL A   1      35.876  32.840  31.427  1.00  0.00     0.188 C 
BRANCH   2   3
ATOM      3  O   UNL A   1      35.247  33.421  30.299  1.00  0.00    -0.376 OA
BRANCH   3   4
ATOM      4  C   UNL A   1      34.441  32.652  29.434  1.00  0.00     0.202 C 
BRANCH   4   5
ATOM      5  C   UNL A   1      35.294  31.990  28.348  1.00  0.00     0.261 C 
BRANCH   5   6
ATOM      6  O   UNL A   1      34.441  31.543  27.292  1.00  0.00    -0.458 OA
BRANCH   6   7
ATOM      7  C   UNL A   1      34.209  30.208  27.298  1.00  0.00     0.374 C 
ATOM      8  O   UNL A   1      34.932  29.369  27.829  1.00  0.00    -0.244 OA
BRANCH   7   9
ATOM      9  C   UNL A   1      32.830  29.889  26.663  1.00  0.00     0.246 C 
ATOM     10  C   UNL A   1      32.198  28.665  27.316  1.00  0.00     0.148 C 
ATOM     11  C   UNL A   1      33.005  29.446  25.185  1.00  0.00     0.344 C 
ATOM     12  C   UNL A   1      32.682  27.485  26.465  1.00  0.00     0.270 C 
ATOM     13  N   UNL A   1      32.729  28.013  25.112  1.00  0.00    -0.325 N 
ATOM     14  H   UNL A   1      31.804  27.906  24.695  1.00  0.00     0.348 HD
BRANCH   9  15
ATOM     15  N   UNL A   1      31.981  31.101  26.843  1.00  0.00    -0.338 N 
ATOM     16  H   UNL A   1      32.578  31.928  26.895  1.00  0.00     0.345 HD
ATOM     17  H   UNL A   1      31.444  31.015  27.705  1.00  0.00     0.345 HD
ATOM     18  H   UNL A   1      31.344  31.191  26.051  1.00  0.00     0.345 HD
ENDBRANCH   9  15
BRANCH  13  19
ATOM     19  C   UNL A   1      33.396  27.207  24.072  1.00  0.00     0.299 C 
BRANCH  19  20
ATOM     20  C   UNL A   1      32.750  25.924  23.548  1.00  0.00     0.006 A 
ATOM     21  C   UNL A   1      33.386  25.188  22.538  1.00  0.00     0.013 A 
ATOM     22  C   UNL A   1      31.520  25.415  23.996  1.00  0.00     0.013 A 
ATOM     23  C   UNL A   1      32.941  23.899  22.191  1.00  0.00     0.047 A 
ATOM     24  C   UNL A   1      31.085  24.104  23.662  1.00  0.00     0.047 A 
ATOM     25  C   UNL A   1      31.882  23.291  22.868  1.00  0.00     0.120 A 
BRANCH  25  26
ATOM     26  O   UNL A   1      31.869  21.924  22.780  1.00  0.00    -0.484 OA
BRANCH  26  27
ATOM     27  C   UNL A   1      32.565  21.083  23.682  1.00  0.00     0.329 C 
BRANCH  27  28
ATOM     28  C   UNL A   1      33.396  21.478  24.959  1.00  0.00     0.260 C 
ATOM     29  O   UNL A   1      32.837  21.383  26.060  1.00  0.00    -0.271 OA
ATOM     30  N   UNL A   1      34.751  21.834  24.896  1.00  0.00    -0.340 N 
ATOM     31  C   UNL A   1      35.548  21.772  26.127  1.00  0.00     0.119 C 
ATOM     32  C   UNL A   1      35.532  22.157  23.701  1.00  0.00     0.119 C 
ATOM     33  C   UNL A   1      36.328  23.055  26.393  1.00  0.00     0.022 C 
ATOM     34  C   UNL A   1      36.427  23.399  23.896  1.00  0.00     0.022 C 
ATOM     35  C   UNL A   1      37.212  23.417  25.207  1.00  0.00     0.004 C 
ENDBRANCH  27  28
ENDBRANCH  26  27
ENDBRANCH  25  26
ENDBRANCH  19  20
ENDBRANCH  13  19
ENDBRANCH   7   9
ENDBRANCH   6   7
ENDBRANCH   5   6
ENDBRANCH   4   5
ENDBRANCH   3   4
ENDBRANCH   2   3
ENDBRANCH   1   2
BRANCH   1  36
ATOM     36  O   UNL A   1      38.272  33.803  31.241  1.00  0.00    -0.377 OA
BRANCH  36  37
ATOM     37  C   UNL A   1      39.009  34.480  32.238  1.00  0.00     0.188 C 
BRANCH  37  38
ATOM     38  C   UNL A   1      38.505  34.373  33.669  1.00  0.00     0.188 C 
BRANCH  38  39
ATOM     39  O   UNL A   1      39.481  33.788  34.516  1.00  0.00    -0.376 OA
BRANCH  39  40
ATOM     40  C   UNL A   1      38.958  32.819  35.415  1.00  0.00     0.202 C 
BRANCH  40  41
ATOM     41  C   UNL A   1      39.500  32.792  36.865  1.00  0.00     0.261 C 
BRANCH  41  42
ATOM     42  O   UNL A   1      38.771  33.496  37.887  1.00  0.00    -0.460 OA
BRANCH  42  43
ATOM     43  C   UNL A   1      39.294  33.518  39.126  1.00  0.00     0.338 C 
ATOM     44  O   UNL A   1      39.547  32.528  39.815  1.00  0.00    -0.246 OA
BRANCH  43  45
ATOM     45  C   UNL A   1      39.653  34.901  39.524  1.00  0.00     0.060 A 
ATOM     46  C   UNL A   1      39.459  35.937  38.601  1.00  0.00     0.016 A 
ATOM     47  C   UNL A   1      40.286  35.170  40.744  1.00  0.00     0.016 A 
ATOM     48  C   UNL A   1      39.949  37.221  38.862  1.00  0.00     0.010 A 
ATOM     49  C   UNL A   1      40.795  36.457  40.996  1.00  0.00     0.010 A 
ATOM     50  C   UNL A   1      40.675  37.477  40.034  1.00  0.00    -0.014 A 
BRANCH  50  51
ATOM     51  C   UNL A   1      41.506  38.714  40.115  1.00  0.00     0.031 A 
ATOM     52  C   UNL A   1      42.948  38.637  39.668  1.00  0.00     0.074 A 
ATOM     53  C   UNL A   1      41.005  39.898  40.514  1.00  0.00     0.049 A 
ATOM     54  N   UNL A   1      43.850  39.583  39.592  1.00  0.00    -0.248 NA
ATOM     55  C   UNL A   1      43.431  37.311  39.252  1.00  0.00     0.031 C 
ATOM     56  C   UNL A   1      39.630  40.135  40.946  1.00  0.00     0.029 A 
ATOM     57  N   UNL A   1      41.610  41.130  40.621  1.00  0.00    -0.354 N 
ATOM     58  C   UNL A   1      45.003  38.969  39.111  1.00  0.00     0.074 A 
ATOM     59  C   UNL A   1      44.698  37.563  38.961  1.00  0.00     0.031 C 
ATOM     60  C   UNL A   1      39.498  41.431  41.284  1.00  0.00     0.029 A 
ATOM     61  C   UNL A   1      40.782  42.112  41.111  1.00  0.00     0.049 A 
ATOM     62  H   UNL A   1      42.547  41.292  40.369  1.00  0.00     0.167 HD
ATOM     63  C   UNL A   1      46.205  39.518  38.809  1.00  0.00     0.031 A 
ATOM     64  C   UNL A   1      41.031  43.408  41.401  1.00  0.00     0.031 A 
ATOM     65  C   UNL A   1      46.532  40.907  38.994  1.00  0.00     0.049 A 
ATOM     66  C   UNL A   1      42.396  43.990  41.127  1.00  0.00     0.074 A 
ATOM     67  C   UNL A   1      47.722  41.556  38.715  1.00  0.00     0.029 A 
ATOM     68  N   UNL A   1      45.674  41.860  39.523  1.00  0.00    -0.354 N 
ATOM     69  N   UNL A   1      43.461  43.405  40.629  1.00  0.00    -0.248 NA
ATOM     70  C   UNL A   1      42.586  45.416  41.434  1.00  0.00     0.031 C 
ATOM     71  C   UNL A   1      47.605  42.887  39.134  1.00  0.00     0.029 A 
ATOM     72  C   UNL A   1      46.317  43.085  39.604  1.00  0.00     0.049 A 
ATOM     73  H   UNL A   1      44.745  41.690  39.799  1.00  0.00     0.167 HD
ATOM     74  C   UNL A   1      44.436  44.397  40.538  1.00  0.00     0.074 A 
ATOM     75  C   UNL A   1      43.829  45.622  41.017  1.00  0.00     0.031 C 
ATOM     76  C   UNL A   1      45.713  44.302  40.091  1.00  0.00     0.031 A 
BRANCH  63  77
ATOM     77  C   UNL A   1      47.270  38.588  38.283  1.00  0.00    -0.014 A 
ATOM     78  C   UNL A   1      48.243  38.033  39.136  1.00  0.00     0.010 A 
ATOM     79  C   UNL A   1      47.304  38.269  36.913  1.00  0.00     0.010 A 
ATOM     80  C   UNL A   1      49.265  37.233  38.620  1.00  0.00     0.020 A 
ATOM     81  C   UNL A   1      48.305  37.440  36.397  1.00  0.00     0.020 A 
ATOM     82  C   UNL A   1      49.295  36.949  37.252  1.00  0.00     0.054 A 
BRANCH  82  83
ATOM     83  S   UNL A   1      50.644  35.923  36.605  1.00  0.00     0.124 S 
ATOM     84  O   UNL A   1      50.145  35.575  35.276  1.00  0.00    -0.237 OA
ATOM     85  O   UNL A   1      51.781  36.840  36.627  1.00  0.00    -0.237 OA
ATOM     86  O   UNL A   1      50.722  34.813  37.551  1.00  0.00    -0.744 OA
ENDBRANCH  82  83
ENDBRANCH  63  77
BRANCH  64  87
ATOM     87  C   UNL A   1      39.955  44.246  42.004  1.00  0.00    -0.014 A 
ATOM     88  C   UNL A   1      39.163  45.098  41.214  1.00  0.00     0.010 A 
ATOM     89  C   UNL A   1      39.712  44.183  43.390  1.00  0.00     0.010 A 
ATOM     90  C   UNL A   1      38.151  45.870  41.797  1.00  0.00     0.020 A 
ATOM     91  C   UNL A   1      38.684  44.931  43.971  1.00  0.00     0.020 A 
ATOM     92  C   UNL A   1      37.914  45.774  43.171  1.00  0.00     0.054 A 
BRANCH  92  93
ATOM     93  S   UNL A   1      36.543  46.723  43.892  1.00  0.00     0.124 S 
ATOM     94  O   UNL A   1      37.230  47.548  44.880  1.00  0.00    -0.237 OA
ATOM     95  O   UNL A   1      36.011  47.435  42.731  1.00  0.00    -0.237 OA
ATOM     96  O   UNL A   1      35.663  45.692  44.438  1.00  0.00    -0.744 OA
ENDBRANCH  92  93
ENDBRANCH  64  87
BRANCH  76  97
ATOM     97  C   UNL A   1      46.544  45.563  40.057  1.00  0.00    -0.014 A 
ATOM     98  C   UNL A   1      47.432  45.892  41.098  1.00  0.00     0.010 A 
ATOM     99  C   UNL A   1      46.468  46.411  38.935  1.00  0.00     0.010 A 
ATOM    100  C   UNL A   1      48.194  47.063  41.036  1.00  0.00     0.020 A 
ATOM    101  C   UNL A   1      47.252  47.566  38.855  1.00  0.00     0.020 A 
ATOM    102  C   UNL A   1      48.097  47.895  39.916  1.00  0.00     0.054 A 
BRANCH 102 103
ATOM    103  S   UNL A   1      49.114  49.396  39.848  1.00  0.00     0.124 S 
ATOM    104  O   UNL A   1      49.942  49.150  38.669  1.00  0.00    -0.237 OA
ATOM    105  O   UNL A   1      48.115  50.453  39.705  1.00  0.00    -0.237 OA
ATOM    106  O   UNL A   1      49.828  49.390  41.122  1.00  0.00    -0.744 OA
ENDBRANCH 102 103
ENDBRANCH  76  97
ENDBRANCH  50  51
ENDBRANCH  43  45
ENDBRANCH  42  43
ENDBRANCH  41  42
ENDBRANCH  40  41
ENDBRANCH  39  40
ENDBRANCH  38  39
ENDBRANCH  37  38
ENDBRANCH  36  37
ENDBRANCH   1  36
TORSDOF 29
ENDMDL
MODEL 2
REMARK VINA RESULT:      -7.5      0.905      7.626
REMARK SMILES [NH3+][C@@]1(C(=O)OCCOCCOCCOCCOC(=O)c2ccc(-c3c4nc(c(-c5ccc(S(=O)(=O)[O-])cc5)c5ccc([nH]5)c(-c5ccc(S(=O)(=O)[O-])cc5)c5nc(c(-c6ccc(S(=O)(=O)[O-])cc6)c6ccc3[nH]6)C=C5)C=C4)cc2)CC[N@H+](Cc2ccc(OCC(=O)N3CCCCC3)cc2)C1
REMARK SMILES IDX 10 1 9 2 8 3 7 4 6 5 5 6 3 7 4 8 2 9 80 10 100 11 81 12
REMARK SMILES IDX 82 13 1 15 83 19 84 20 85 21 99 22 86 23 98 24 87 25 88 26
REMARK SMILES IDX 89 27 90 28 91 29 92 30 93 31 97 32 94 33 96 34 95 35 11 36
REMARK SMILES IDX 12 37 13 38 14 39 15 40 16 41 17 42 18 43 19 44 20 45 21 46
REMARK SMILES IDX 79 47 22 48 78 49 23 50 24 51 25 52 72 53 26 54 77 55 71 56
REMARK SMILES IDX 73 57 27 58 76 59 70 60 69 61 28 63 58 64 39 65 57 66 40 67
REMARK SMILES IDX 43 68 56 69 74 70 41 71 42 72 55 74 75 75 44 76 29 77 30 78
REMARK SMILES IDX 38 79 31 80 37 81 32 82 33 83 34 84 35 85 36 86 59 87 60 88
REMARK SMILES IDX 68 89 61 90 67 91 62 92 63 93 64 94 65 95 66 96 45 97 46 98
REMARK SMILES IDX 54 99 47 100 53 101 48 102 49 103 50 104 51 105 52 106
REMARK H PARENT 82 14 1 16 1 17 1 18 73 62 43 73
REMARK Flexibility Score: inf
ROOT
ATOM      1  C   UNL A   1      37.336  32.738  31.585  1.00  0.00     0.188 C 
ENDROOT
BRANCH   1   2
ATOM      2  C   UNL A   1      35.802  32.751  31.441  1.00  0.00     0.188 C 
BRANCH   2   3
ATOM      3  O   UNL A   1      35.107  33.406  30.396  1.00  0.00    -0.376 OA
BRANCH   3   4
ATOM      4  C   UNL A   1      34.354  32.679  29.449  1.00  0.00     0.202 C 
BRANCH   4   5
ATOM      5  C   UNL A   1      35.257  32.163  28.325  1.00  0.00     0.261 C 
BRANCH   5   6
ATOM      6  O   UNL A   1      34.444  31.750  27.225  1.00  0.00    -0.458 OA
BRANCH   6   7
ATOM      7  C   UNL A   1      34.081  30.445  27.266  1.00  0.00     0.374 C 
ATOM      8  O   UNL A   1      34.734  29.548  27.793  1.00  0.00    -0.244 OA
BRANCH   7   9
ATOM      9  C   UNL A   1      32.658  30.253  26.679  1.00  0.00     0.246 C 
ATOM     10  C   UNL A   1      31.789  29.419  27.614  1.00  0.00     0.148 C 
ATOM     11  C   UNL A   1      32.716  29.388  25.391  1.00  0.00     0.344 C 
ATOM     12  C   UNL A   1      32.001  27.975  27.146  1.00  0.00     0.270 C 
ATOM     13  N   UNL A   1      32.142  28.082  25.704  1.00  0.00    -0.325 N 
ATOM     14  H   UNL A   1      31.210  28.056  25.289  1.00  0.00     0.348 HD
BRANCH   9  15
ATOM     15  N   UNL A   1      32.087  31.615  26.476  1.00  0.00    -0.338 N 
ATOM     16  H   UNL A   1      31.803  32.002  27.377  1.00  0.00     0.345 HD
ATOM     17  H   UNL A   1      31.276  31.556  25.862  1.00  0.00     0.345 HD
ATOM     18  H   UNL A   1      32.792  32.220  26.054  1.00  0.00     0.345 HD
ENDBRANCH   9  15
BRANCH  13  19
ATOM     19  C   UNL A   1      32.610  26.897  24.959  1.00  0.00     0.299 C 
BRANCH  19  20
ATOM     20  C   UNL A   1      31.900  25.551  25.112  1.00  0.00     0.006 A 
ATOM     21  C   UNL A   1      31.486  24.849  23.971  1.00  0.00     0.013 A 
ATOM     22  C   UNL A   1      31.599  24.948  26.346  1.00  0.00     0.013 A 
ATOM     23  C   UNL A   1      31.036  23.520  24.061  1.00  0.00     0.047 A 
ATOM     24  C   UNL A   1      31.168  23.598  26.433  1.00  0.00     0.047 A 
ATOM     25  C   UNL A   1      31.027  22.838  25.280  1.00  0.00     0.120 A 
BRANCH  25  26
ATOM     26  O   UNL A   1      31.041  21.474  25.163  1.00  0.00    -0.484 OA
BRANCH  26  27
ATOM     27  C   UNL A   1      32.221  20.698  25.270  1.00  0.00     0.329 C 
BRANCH  27  28
ATOM     28  C   UNL A   1      33.598  21.081  25.931  1.00  0.00     0.260 C 
ATOM     29  O   UNL A   1      33.779  20.751  27.111  1.00  0.00    -0.271 OA
ATOM     30  N   UNL A   1      34.636  21.687  25.211  1.00  0.00    -0.340 N 
ATOM     31  C   UNL A   1      35.997  21.624  25.759  1.00  0.00     0.119 C 
ATOM     32  C   UNL A   1      34.563  22.293  23.881  1.00  0.00     0.119 C 
ATOM     33  C   UNL A   1      36.678  22.987  25.811  1.00  0.00     0.022 C 
ATOM     34  C   UNL A   1      35.302  23.645  23.803  1.00  0.00     0.022 C 
ATOM     35  C   UNL A   1      36.690  23.648  24.440  1.00  0.00     0.004 C 
ENDBRANCH  27  28
ENDBRANCH  26  27
ENDBRANCH  25  26
ENDBRANCH  19  20
ENDBRANCH  13  19
ENDBRANCH   7   9
ENDBRANCH   6   7
ENDBRANCH   5   6
ENDBRANCH   4   5
ENDBRANCH   3   4
ENDBRANCH   2   3
ENDBRANCH   1   2
BRANCH   1  36
ATOM     36  O   UNL A   1      38.132  33.866  31.267  1.00  0.00    -0.377 OA
BRANCH  36  37
ATOM     37  C   UNL A   1      38.808  34.550  32.302  1.00  0.00     0.188 C 
BRANCH  37  38
ATOM     38  C   UNL A   1      38.301  34.341  33.720  1.00  0.00     0.188 C 
BRANCH  38  39
ATOM     39  O   UNL A   1      39.308  33.783  34.550  1.00  0.00    -0.376 OA
BRANCH  39  40
ATOM     40  C   UNL A   1      38.852  32.715  35.371  1.00  0.00     0.202 C 
BRANCH  40  41
ATOM     41  C   UNL A   1      39.348  32.650  36.835  1.00  0.00     0.261 C 
BRANCH  41  42
ATOM     42  O   UNL A   1      38.500  33.171  37.875  1.00  0.00    -0.460 OA
BRANCH  42  43
ATOM     43  C   UNL A   1      39.000  33.226  39.122  1.00  0.00     0.338 C 
ATOM     44  O   UNL A   1      39.159  32.263  39.873  1.00  0.00    -0.246 OA
BRANCH  43  45
ATOM     45  C   UNL A   1      39.463  34.597  39.447  1.00  0.00     0.060 A 
ATOM     46  C   UNL A   1      39.163  35.635  38.555  1.00  0.00     0.016 A 
ATOM     47  C   UNL A   1      40.285  34.850  40.551  1.00  0.00     0.016 A 
ATOM     48  C   UNL A   1      39.731  36.903  38.724  1.00  0.00     0.010 A 
ATOM     49  C   UNL A   1      40.869  36.119  40.710  1.00  0.00     0.010 A 
ATOM     50  C   UNL A   1      40.637  37.138  39.768  1.00  0.00    -0.014 A 
BRANCH  50  51
ATOM     51  C   UNL A   1      41.513  38.346  39.708  1.00  0.00     0.031 A 
ATOM     52  C   UNL A   1      41.003  39.629  40.322  1.00  0.00     0.074 A 
ATOM     53  C   UNL A   1      42.752  38.316  39.183  1.00  0.00     0.049 A 
ATOM     54  N   UNL A   1      41.596  40.790  40.445  1.00  0.00    -0.248 NA
ATOM     55  C   UNL A   1      39.638  39.591  40.871  1.00  0.00     0.031 C 
ATOM     56  C   UNL A   1      43.392  37.149  38.583  1.00  0.00     0.029 A 
ATOM     57  N   UNL A   1      43.696  39.313  39.073  1.00  0.00    -0.354 N 
ATOM     58  C   UNL A   1      40.682  41.617  41.091  1.00  0.00     0.074 A 
ATOM     59  C   UNL A   1      39.480  40.837  41.290  1.00  0.00     0.031 C 
ATOM     60  C   UNL A   1      44.619  37.498  38.154  1.00  0.00     0.029 A 
ATOM     61  C   UNL A   1      44.846  38.917  38.433  1.00  0.00     0.049 A 
ATOM     62  H   UNL A   1      43.559  40.223  39.421  1.00  0.00     0.167 HD
ATOM     63  C   UNL A   1      40.824  42.903  41.496  1.00  0.00     0.031 A 
ATOM     64  C   UNL A   1      45.950  39.618  38.096  1.00  0.00     0.031 A 
ATOM     65  C   UNL A   1      42.001  43.699  41.267  1.00  0.00     0.049 A 
ATOM     66  C   UNL A   1      46.068  41.070  38.489  1.00  0.00     0.074 A 
ATOM     67  C   UNL A   1      42.240  45.010  41.642  1.00  0.00     0.029 A 
ATOM     68  N   UNL A   1      43.130  43.269  40.586  1.00  0.00    -0.354 N 
ATOM     69  N   UNL A   1      45.212  41.823  39.142  1.00  0.00    -0.248 NA
ATOM     70  C   UNL A   1      47.312  41.762  38.121  1.00  0.00     0.031 C 
ATOM     71  C   UNL A   1      43.486  45.392  41.132  1.00  0.00     0.029 A 
ATOM     72  C   UNL A   1      44.057  44.296  40.505  1.00  0.00     0.049 A 
ATOM     73  H   UNL A   1      43.254  42.365  40.215  1.00  0.00     0.167 HD
ATOM     74  C   UNL A   1      45.826  43.066  39.284  1.00  0.00     0.074 A 
ATOM     75  C   UNL A   1      47.130  42.959  38.665  1.00  0.00     0.031 C 
ATOM     76  C   UNL A   1      45.353  44.190  39.880  1.00  0.00     0.031 A 
BRANCH  63  77
ATOM     77  C   UNL A   1      39.647  43.535  42.197  1.00  0.00    -0.014 A 
ATOM     78  C   UNL A   1      38.736  44.352  41.501  1.00  0.00     0.010 A 
ATOM     79  C   UNL A   1      39.453  43.315  43.572  1.00  0.00     0.010 A 
ATOM     80  C   UNL A   1      37.695  44.989  42.181  1.00  0.00     0.020 A 
ATOM     81  C   UNL A   1      38.391  43.922  44.249  1.00  0.00     0.020 A 
ATOM     82  C   UNL A   1      37.534  44.776  43.552  1.00  0.00     0.054 A 
BRANCH  82  83
ATOM     83  S   UNL A   1      36.185  45.631  44.414  1.00  0.00     0.124 S 
ATOM     84  O   UNL A   1      36.884  46.224  45.552  1.00  0.00    -0.237 OA
ATOM     85  O   UNL A   1      35.711  46.577  43.407  1.00  0.00    -0.237 OA
ATOM     86  O   UNL A   1      35.251  44.559  44.748  1.00  0.00    -0.744 OA
ENDBRANCH  82  83
ENDBRANCH  63  77
BRANCH  64  87
ATOM     87  C   UNL A   1      47.038  38.951  37.323  1.00  0.00    -0.014 A 
ATOM     88  C   UNL A   1      48.113  38.317  37.972  1.00  0.00     0.010 A 
ATOM     89  C   UNL A   1      46.992  38.940  35.916  1.00  0.00     0.010 A 
ATOM     90  C   UNL A   1      49.119  37.688  37.230  1.00  0.00     0.020 A 
ATOM     91  C   UNL A   1      47.979  38.288  35.172  1.00  0.00     0.020 A 
ATOM     92  C   UNL A   1      49.040  37.671  35.834  1.00  0.00     0.054 A 
BRANCH  92  93
ATOM     93  S   UNL A   1      50.313  36.778  34.896  1.00  0.00     0.124 S 
ATOM     94  O   UNL A   1      49.843  36.931  33.523  1.00  0.00    -0.237 OA
ATOM     95  O   UNL A   1      51.528  37.515  35.237  1.00  0.00    -0.237 OA
ATOM     96  O   UNL A   1      50.245  35.421  35.434  1.00  0.00    -0.744 OA
ENDBRANCH  92  93
ENDBRANCH  64  87
BRANCH  76  97
ATOM     97  C   UNL A   1      46.262  45.395  39.933  1.00  0.00    -0.014 A 
ATOM     98  C   UNL A   1      47.243  45.537  40.930  1.00  0.00     0.010 A 
ATOM     99  C   UNL A   1      46.161  46.381  38.933  1.00  0.00     0.010 A 
ATOM    100  C   UNL A   1      48.076  46.660  40.951  1.00  0.00     0.020 A 
ATOM    101  C   UNL A   1      47.012  47.490  38.932  1.00  0.00     0.020 A 
ATOM    102  C   UNL A   1      47.954  47.632  39.952  1.00  0.00     0.054 A 
BRANCH 102 103
ATOM    103  S   UNL A   1      49.061  49.069  39.986  1.00  0.00     0.124 S 
ATOM    104  O   UNL A   1      49.257  49.268  41.420  1.00  0.00    -0.237 OA
ATOM    105  O   UNL A   1      50.230  48.589  39.252  1.00  0.00    -0.237 OA
ATOM    106  O   UNL A   1      48.295  50.114  39.312  1.00  0.00    -0.744 OA
ENDBRANCH 102 103
ENDBRANCH  76  97
ENDBRANCH  50  51
ENDBRANCH  43  45
ENDBRANCH  42  43
ENDBRANCH  41  42
ENDBRANCH  40  41
ENDBRANCH  39  40
ENDBRANCH  38  39
ENDBRANCH  37  38
ENDBRANCH  36  37
ENDBRANCH   1  36
TORSDOF 29
ENDMDL
MODEL 3
REMARK VINA RESULT:      -7.4      5.259      9.614
REMARK SMILES [NH3+][C@@]1(C(=O)OCCOCCOCCOCCOC(=O)c2ccc(-c3c4nc(c(-c5ccc(S(=O)(=O)[O-])cc5)c5ccc([nH]5)c(-c5ccc(S(=O)(=O)[O-])cc5)c5nc(c(-c6ccc(S(=O)(=O)[O-])cc6)c6ccc3[nH]6)C=C5)C=C4)cc2)CC[N@H+](Cc2ccc(OCC(=O)N3CCCCC3)cc2)C1
REMARK SMILES IDX 10 1 9 2 8 3 7 4 6 5 5 6 3 7 4 8 2 9 80 10 100 11 81 12
REMARK SMILES IDX 82 13 1 15 83 19 84 20 85 21 99 22 86 23 98 24 87 25 88 26
REMARK SMILES IDX 89 27 90 28 91 29 92 30 93 31 97 32 94 33 96 34 95 35 11 36
REMARK SMILES IDX 12 37 13 38 14 39 15 40 16 41 17 42 18 43 19 44 20 45 21 46
REMARK SMILES IDX 79 47 22 48 78 49 23 50 24 51 25 52 72 53 26 54 77 55 71 56
REMARK SMILES IDX 73 57 27 58 76 59 70 60 69 61 28 63 58 64 39 65 57 66 40 67
REMARK SMILES IDX 43 68 56 69 74 70 41 71 42 72 55 74 75 75 44 76 29 77 30 78
REMARK SMILES IDX 38 79 31 80 37 81 32 82 33 83 34 84 35 85 36 86 59 87 60 88
REMARK SMILES IDX 68 89 61 90 67 91 62 92 63 93 64 94 65 95 66 96 45 97 46 98
REMARK SMILES IDX 54 99 47 100 53 101 48 102 49 103 50 104 51 105 52 106
REMARK H PARENT 82 14 1 16 1 17 1 18 73 62 43 73
REMARK Flexibility Score: inf
ROOT
ATOM      1  C   UNL A   1      39.151  29.561  32.737  1.00  0.00     0.188 C 
ENDROOT
BRANCH   1   2
ATOM      2  C   UNL A   1      40.168  30.485  32.040  1.00  0.00     0.188 C 
BRANCH   2   3
ATOM      3  O   UNL A   1      39.949  31.861  31.785  1.00  0.00    -0.376 OA
BRANCH   3   4
ATOM      4  C   UNL A   1      39.837  32.352  30.467  1.00  0.00     0.202 C 
BRANCH   4   5
ATOM      5  C   UNL A   1      38.842  33.515  30.408  1.00  0.00     0.261 C 
BRANCH   5   6
ATOM      6  O   UNL A   1      37.588  33.085  30.944  1.00  0.00    -0.458 OA
BRANCH   6   7
ATOM      7  C   UNL A   1      36.565  33.131  30.057  1.00  0.00     0.374 C 
ATOM      8  O   UNL A   1      36.542  33.823  29.043  1.00  0.00    -0.244 OA
BRANCH   7   9
ATOM      9  C   UNL A   1      35.479  32.084  30.418  1.00  0.00     0.246 C 
ATOM     10  C   UNL A   1      36.110  30.807  30.961  1.00  0.00     0.148 C 
ATOM     11  C   UNL A   1      34.749  31.596  29.137  1.00  0.00     0.344 C 
ATOM     12  C   UNL A   1      36.317  29.927  29.723  1.00  0.00     0.270 C 
ATOM     13  N   UNL A   1      35.173  30.223  28.877  1.00  0.00    -0.325 N 
ATOM     14  H   UNL A   1      34.404  29.613  29.155  1.00  0.00     0.348 HD
BRANCH   9  15
ATOM     15  N   UNL A   1      34.585  32.720  31.427  1.00  0.00    -0.338 N 
ATOM     16  H   UNL A   1      33.824  33.205  30.948  1.00  0.00     0.345 HD
ATOM     17  H   UNL A   1      35.118  33.390  31.980  1.00  0.00     0.345 HD
ATOM     18  H   UNL A   1      34.198  32.003  32.040  1.00  0.00     0.345 HD
ENDBRANCH   9  15
BRANCH  13  19
ATOM     19  C   UNL A   1      35.188  29.729  27.487  1.00  0.00     0.299 C 
BRANCH  19  20
ATOM     20  C   UNL A   1      33.934  29.113  26.866  1.00  0.00     0.006 A 
ATOM     21  C   UNL A   1      33.930  28.763  25.508  1.00  0.00     0.013 A 
ATOM     22  C   UNL A   1      32.736  28.880  27.563  1.00  0.00     0.013 A 
ATOM     23  C   UNL A   1      32.886  27.997  24.960  1.00  0.00     0.047 A 
ATOM     24  C   UNL A   1      31.693  28.087  27.015  1.00  0.00     0.047 A 
ATOM     25  C   UNL A   1      31.840  27.523  25.755  1.00  0.00     0.120 A 
BRANCH  25  26
ATOM     26  O   UNL A   1      31.189  26.434  25.238  1.00  0.00    -0.484 OA
BRANCH  26  27
ATOM     27  C   UNL A   1      30.839  25.300  26.010  1.00  0.00     0.329 C 
BRANCH  27  28
ATOM     28  C   UNL A   1      31.770  24.154  26.558  1.00  0.00     0.260 C 
ATOM     29  O   UNL A   1      31.411  23.568  27.589  1.00  0.00    -0.271 OA
ATOM     30  N   UNL A   1      32.917  23.725  25.877  1.00  0.00    -0.340 N 
ATOM     31  C   UNL A   1      33.476  22.409  26.211  1.00  0.00     0.119 C 
ATOM     32  C   UNL A   1      33.586  24.383  24.755  1.00  0.00     0.119 C 
ATOM     33  C   UNL A   1      34.973  22.459  26.503  1.00  0.00     0.022 C 
ATOM     34  C   UNL A   1      35.121  24.410  24.912  1.00  0.00     0.022 C 
ATOM     35  C   UNL A   1      35.738  23.081  25.343  1.00  0.00     0.004 C 
ENDBRANCH  27  28
ENDBRANCH  26  27
ENDBRANCH  25  26
ENDBRANCH  19  20
ENDBRANCH  13  19
ENDBRANCH   7   9
ENDBRANCH   6   7
ENDBRANCH   5   6
ENDBRANCH   4   5
ENDBRANCH   3   4
ENDBRANCH   2   3
ENDBRANCH   1   2
BRANCH   1  36
ATOM     36  O   UNL A   1      38.482  29.939  33.928  1.00  0.00    -0.377 OA
BRANCH  36  37
ATOM     37  C   UNL A   1      39.239  30.394  35.031  1.00  0.00     0.188 C 
BRANCH  37  38
ATOM     38  C   UNL A   1      38.475  30.993  36.200  1.00  0.00     0.188 C 
BRANCH  38  39
ATOM     39  O   UNL A   1      38.495  32.411  36.157  1.00  0.00    -0.376 OA
BRANCH  39  40
ATOM     40  C   UNL A   1      37.523  33.027  36.992  1.00  0.00     0.202 C 
BRANCH  40  41
ATOM     41  C   UNL A   1      37.888  33.292  38.473  1.00  0.00     0.261 C 
BRANCH  41  42
ATOM     42  O   UNL A   1      38.590  34.503  38.804  1.00  0.00    -0.460 OA
BRANCH  42  43
ATOM     43  C   UNL A   1      39.919  34.423  39.000  1.00  0.00     0.338 C 
ATOM     44  O   UNL A   1      40.469  33.965  40.003  1.00  0.00    -0.246 OA
BRANCH  43  45
ATOM     45  C   UNL A   1      40.659  34.845  37.786  1.00  0.00     0.060 A 
ATOM     46  C   UNL A   1      41.984  34.419  37.627  1.00  0.00     0.016 A 
ATOM     47  C   UNL A   1      40.107  35.746  36.868  1.00  0.00     0.016 A 
ATOM     48  C   UNL A   1      42.777  34.936  36.596  1.00  0.00     0.010 A 
ATOM     49  C   UNL A   1      40.911  36.280  35.844  1.00  0.00     0.010 A 
ATOM     50  C   UNL A   1      42.266  35.917  35.735  1.00  0.00    -0.014 A 
BRANCH  50  51
ATOM     51  C   UNL A   1      43.215  36.724  34.912  1.00  0.00     0.031 A 
ATOM     52  C   UNL A   1      43.934  37.876  35.573  1.00  0.00     0.074 A 
ATOM     53  C   UNL A   1      43.493  36.426  33.628  1.00  0.00     0.049 A 
ATOM     54  N   UNL A   1      44.842  38.684  35.087  1.00  0.00    -0.248 NA
ATOM     55  C   UNL A   1      43.576  38.148  36.974  1.00  0.00     0.031 C 
ATOM     56  C   UNL A   1      42.904  35.331  32.864  1.00  0.00     0.029 A 
ATOM     57  N   UNL A   1      44.351  37.034  32.740  1.00  0.00    -0.354 N 
ATOM     58  C   UNL A   1      45.170  39.554  36.123  1.00  0.00     0.074 A 
ATOM     59  C   UNL A   1      44.329  39.204  37.246  1.00  0.00     0.031 C 
ATOM     60  C   UNL A   1      43.407  35.350  31.617  1.00  0.00     0.029 A 
ATOM     61  C   UNL A   1      44.341  36.471  31.486  1.00  0.00     0.049 A 
ATOM     62  H   UNL A   1      44.920  37.800  32.981  1.00  0.00     0.167 HD
ATOM     63  C   UNL A   1      46.092  40.547  36.150  1.00  0.00     0.031 A 
ATOM     64  C   UNL A   1      44.995  36.822  30.358  1.00  0.00     0.031 A 
ATOM     65  C   UNL A   1      46.904  40.931  35.026  1.00  0.00     0.049 A 
ATOM     66  C   UNL A   1      45.966  37.977  30.383  1.00  0.00     0.074 A 
ATOM     67  C   UNL A   1      47.867  41.923  34.958  1.00  0.00     0.029 A 
ATOM     68  N   UNL A   1      46.838  40.354  33.766  1.00  0.00    -0.354 N 
ATOM     69  N   UNL A   1      46.298  38.759  31.384  1.00  0.00    -0.248 NA
ATOM     70  C   UNL A   1      46.670  38.283  29.127  1.00  0.00     0.031 C 
ATOM     71  C   UNL A   1      48.337  41.989  33.641  1.00  0.00     0.029 A 
ATOM     72  C   UNL A   1      47.722  40.987  32.906  1.00  0.00     0.049 A 
ATOM     73  H   UNL A   1      46.249  39.605  33.519  1.00  0.00     0.167 HD
ATOM     74  C   UNL A   1      47.267  39.629  30.887  1.00  0.00     0.074 A 
ATOM     75  C   UNL A   1      47.479  39.266  29.501  1.00  0.00     0.031 C 
ATOM     76  C   UNL A   1      47.924  40.630  31.523  1.00  0.00     0.031 A 
BRANCH  63  77
ATOM     77  C   UNL A   1      46.233  41.316  37.441  1.00  0.00    -0.014 A 
ATOM     78  C   UNL A   1      47.082  40.865  38.470  1.00  0.00     0.010 A 
ATOM     79  C   UNL A   1      45.502  42.502  37.631  1.00  0.00     0.010 A 
ATOM     80  C   UNL A   1      47.144  41.550  39.687  1.00  0.00     0.020 A 
ATOM     81  C   UNL A   1      45.588  43.209  38.833  1.00  0.00     0.020 A 
ATOM     82  C   UNL A   1      46.390  42.713  39.864  1.00  0.00     0.054 A 
BRANCH  82  83
ATOM     83  S   UNL A   1      46.475  43.571  41.460  1.00  0.00     0.124 S 
ATOM     84  O   UNL A   1      45.151  44.186  41.540  1.00  0.00    -0.237 OA
ATOM     85  O   UNL A   1      46.716  42.478  42.398  1.00  0.00    -0.237 OA
ATOM     86  O   UNL A   1      47.585  44.505  41.295  1.00  0.00    -0.744 OA
ENDBRANCH  82  83
ENDBRANCH  63  77
BRANCH  64  87
ATOM     87  C   UNL A   1      44.738  36.073  29.095  1.00  0.00    -0.014 A 
ATOM     88  C   UNL A   1      43.504  36.168  28.427  1.00  0.00     0.010 A 
ATOM     89  C   UNL A   1      45.748  35.262  28.544  1.00  0.00     0.010 A 
ATOM     90  C   UNL A   1      43.285  35.465  27.236  1.00  0.00     0.020 A 
ATOM     91  C   UNL A   1      45.544  34.582  27.340  1.00  0.00     0.020 A 
ATOM     92  C   UNL A   1      44.311  34.684  26.697  1.00  0.00     0.054 A 
BRANCH  92  93
ATOM     93  S   UNL A   1      44.032  33.847  25.109  1.00  0.00     0.124 S 
ATOM     94  O   UNL A   1      43.809  32.467  25.527  1.00  0.00    -0.237 OA
ATOM     95  O   UNL A   1      42.860  34.548  24.588  1.00  0.00    -0.237 OA
ATOM     96  O   UNL A   1      45.271  34.088  24.373  1.00  0.00    -0.744 OA
ENDBRANCH  92  93
ENDBRANCH  64  87
BRANCH  76  97
ATOM     97  C   UNL A   1      48.972  41.392  30.746  1.00  0.00    -0.014 A 
ATOM     98  C   UNL A   1      48.672  42.596  30.085  1.00  0.00     0.010 A 
ATOM     99  C   UNL A   1      50.296  40.913  30.719  1.00  0.00     0.010 A 
ATOM    100  C   UNL A   1      49.664  43.284  29.378  1.00  0.00     0.020 A 
ATOM    101  C   UNL A   1      51.298  41.614  30.040  1.00  0.00     0.020 A 
ATOM    102  C   UNL A   1      50.971  42.787  29.358  1.00  0.00     0.054 A 
BRANCH 102 103
ATOM    103  S   UNL A   1      52.246  43.709  28.454  1.00  0.00     0.124 S 
ATOM    104  O   UNL A   1      51.497  44.220  27.309  1.00  0.00    -0.237 OA
ATOM    105  O   UNL A   1      52.667  44.712  29.429  1.00  0.00    -0.237 OA
ATOM    106  O   UNL A   1      53.250  42.695  28.138  1.00  0.00    -0.744 OA
ENDBRANCH 102 103
ENDBRANCH  76  97
ENDBRANCH  50  51
ENDBRANCH  43  45
ENDBRANCH  42  43
ENDBRANCH  41  42
ENDBRANCH  40  41
ENDBRANCH  39  40
ENDBRANCH  38  39
ENDBRANCH  37  38
ENDBRANCH  36  37
ENDBRANCH   1  36
TORSDOF 29
ENDMDL
