MODEL 1
REMARK VINA RESULT:      -9.6      0.000      0.000
REMARK SMILES O=C(COc1ccc(N2C[C@@H](C(=O)OCCOCCOCCOCCOC(=O)c3ccc(-c4c5nc(c(-c6ccc(S(=O)(=O)[O-])cc6)c6ccc([nH]6)c(-c6ccc(S(=O)(=O)[O-])cc6)c6nc(c(-c7ccc(S(=O)(=O)[O-])cc7)c7ccc4[nH]7)C=C6)C=C5)cc3)CC2=O)cc1)Nc1ccc(Cl)cc1Cl
REMARK SMILES IDX 19 1 18 2 17 3 16 4 15 5 14 6 12 7 13 8 11 9 9 10 10 11
REMARK SMILES IDX 90 12 89 13 91 14 8 15 5 16 6 17 93 18 7 19 92 20 4 21 3 22
REMARK SMILES IDX 2 23 1 24 94 25 95 27 96 28 101 29 97 30 100 31 102 32 98 33
REMARK SMILES IDX 99 34 20 35 21 36 22 37 23 38 24 39 25 40 26 41 27 42 28 43
REMARK SMILES IDX 29 44 30 45 88 46 31 47 87 48 32 49 33 50 34 51 81 52 35 53
REMARK SMILES IDX 86 54 80 55 82 56 36 57 85 58 79 59 78 60 37 62 67 63 48 64
REMARK SMILES IDX 66 65 49 66 52 67 65 68 83 69 50 70 51 71 64 73 84 74 53 75
REMARK SMILES IDX 38 76 39 77 47 78 40 79 46 80 41 81 42 82 43 83 44 84 45 85
REMARK SMILES IDX 68 86 69 87 77 88 70 89 76 90 71 91 72 92 73 93 74 94 75 95
REMARK SMILES IDX 54 96 55 97 63 98 56 99 62 100 57 101 58 102 59 103 60 104
REMARK SMILES IDX 61 105
REMARK H PARENT 94 26 82 61 52 72
REMARK Flexibility Score: inf
ROOT
ATOM      1  C   UNL A   1      37.608  22.259  25.501  1.00  0.00     0.188 C 
ENDROOT
BRANCH   1   2
ATOM      2  C   UNL A   1      36.711  22.814  24.388  1.00  0.00     0.188 C 
BRANCH   2   3
ATOM      3  O   UNL A   1      35.295  22.789  24.477  1.00  0.00    -0.376 OA
BRANCH   3   4
ATOM      4  C   UNL A   1      34.473  22.360  23.400  1.00  0.00     0.202 C 
BRANCH   4   5
ATOM      5  C   UNL A   1      33.409  23.263  22.758  1.00  0.00     0.261 C 
BRANCH   5   6
ATOM      6  O   UNL A   1      33.865  24.563  22.368  1.00  0.00    -0.463 OA
BRANCH   6   7
ATOM      7  C   UNL A   1      33.057  25.238  21.530  1.00  0.00     0.311 C 
ATOM      8  O   UNL A   1      33.037  25.106  20.311  1.00  0.00    -0.252 OA
BRANCH   7   9
ATOM      9  C   UNL A   1      32.104  26.170  22.226  1.00  0.00     0.128 C 
ATOM     10  N   UNL A   1      32.014  27.418  24.176  1.00  0.00    -0.312 N 
ATOM     11  C   UNL A   1      32.953  26.938  23.206  1.00  0.00     0.141 C 
ATOM     12  C   UNL A   1      30.837  26.675  24.170  1.00  0.00     0.227 C 
ATOM     13  C   UNL A   1      30.957  25.647  23.088  1.00  0.00     0.117 C 
ATOM     14  O   UNL A   1      29.840  26.808  24.864  1.00  0.00    -0.274 OA
BRANCH  10  15
ATOM     15  C   UNL A   1      32.409  28.296  25.191  1.00  0.00     0.044 A 
ATOM     16  C   UNL A   1      33.390  30.136  27.039  1.00  0.00     0.120 A 
ATOM     17  C   UNL A   1      32.189  30.395  26.389  1.00  0.00     0.048 A 
ATOM     18  C   UNL A   1      34.053  28.934  26.816  1.00  0.00     0.048 A 
ATOM     19  C   UNL A   1      31.708  29.480  25.449  1.00  0.00     0.030 A 
ATOM     20  C   UNL A   1      33.571  28.020  25.899  1.00  0.00     0.030 A 
BRANCH  16  21
ATOM     21  O   UNL A   1      33.871  31.048  27.939  1.00  0.00    -0.484 OA
BRANCH  21  22
ATOM     22  C   UNL A   1      33.871  32.374  27.392  1.00  0.00     0.329 C 
BRANCH  22  23
ATOM     23  C   UNL A   1      34.404  33.462  28.334  1.00  0.00     0.262 C 
ATOM     24  O   UNL A   1      35.608  33.658  28.454  1.00  0.00    -0.271 OA
ATOM     25  N   UNL A   1      33.387  34.062  29.076  1.00  0.00    -0.322 N 
ATOM     26  H   UNL A   1      32.458  33.906  28.792  1.00  0.00     0.170 HD
BRANCH  25  27
ATOM     27  C   UNL A   1      33.605  34.883  30.210  1.00  0.00     0.060 A 
ATOM     28  C   UNL A   1      33.299  36.246  30.040  1.00  0.00     0.029 A 
ATOM     29  C   UNL A   1      34.050  34.445  31.469  1.00  0.00     0.066 A 
ATOM     30  C   UNL A   1      33.350  37.131  31.118  1.00  0.00     0.023 A 
ATOM     31  C   UNL A   1      34.096  35.335  32.549  1.00  0.00     0.043 A 
ATOM     32  Cl  UNL A   1      34.755  32.886  31.730  1.00  0.00    -0.082 Cl
ATOM     33  C   UNL A   1      33.735  36.668  32.372  1.00  0.00     0.042 A 
ATOM     34  Cl  UNL A   1      33.808  37.762  33.698  1.00  0.00    -0.084 Cl
ENDBRANCH  25  27
ENDBRANCH  22  23
ENDBRANCH  21  22
ENDBRANCH  16  21
ENDBRANCH  10  15
ENDBRANCH   7   9
ENDBRANCH   6   7
ENDBRANCH   5   6
ENDBRANCH   4   5
ENDBRANCH   3   4
ENDBRANCH   2   3
ENDBRANCH   1   2
BRANCH   1  35
ATOM     35  O   UNL A   1      38.380  23.214  26.193  1.00  0.00    -0.377 OA
BRANCH  35  36
ATOM     36  C   UNL A   1      39.719  22.853  26.513  1.00  0.00     0.188 C 
BRANCH  36  37
ATOM     37  C   UNL A   1      40.137  21.379  26.323  1.00  0.00     0.188 C 
BRANCH  37  38
ATOM     38  O   UNL A   1      41.140  20.931  27.225  1.00  0.00    -0.376 OA
BRANCH  38  39
ATOM     39  C   UNL A   1      41.473  19.549  27.259  1.00  0.00     0.202 C 
BRANCH  39  40
ATOM     40  C   UNL A   1      42.394  18.981  26.165  1.00  0.00     0.261 C 
BRANCH  40  41
ATOM     41  O   UNL A   1      42.574  19.779  24.985  1.00  0.00    -0.460 OA
BRANCH  41  42
ATOM     42  C   UNL A   1      43.820  20.195  24.679  1.00  0.00     0.338 C 
ATOM     43  O   UNL A   1      44.586  19.681  23.879  1.00  0.00    -0.246 OA
BRANCH  42  44
ATOM     44  C   UNL A   1      44.026  21.514  25.314  1.00  0.00     0.060 A 
ATOM     45  C   UNL A   1      43.660  22.669  24.609  1.00  0.00     0.016 A 
ATOM     46  C   UNL A   1      44.574  21.613  26.594  1.00  0.00     0.016 A 
ATOM     47  C   UNL A   1      43.881  23.929  25.165  1.00  0.00     0.010 A 
ATOM     48  C   UNL A   1      44.819  22.876  27.140  1.00  0.00     0.010 A 
ATOM     49  C   UNL A   1      44.509  24.039  26.412  1.00  0.00    -0.014 A 
BRANCH  49  50
ATOM     50  C   UNL A   1      45.028  25.357  26.855  1.00  0.00     0.031 A 
ATOM     51  C   UNL A   1      44.125  26.235  27.680  1.00  0.00     0.074 A 
ATOM     52  C   UNL A   1      46.277  25.758  26.560  1.00  0.00     0.049 A 
ATOM     53  N   UNL A   1      44.335  27.439  28.143  1.00  0.00    -0.248 NA
ATOM     54  C   UNL A   1      42.806  25.677  28.030  1.00  0.00     0.031 C 
ATOM     55  C   UNL A   1      47.266  24.977  25.816  1.00  0.00     0.029 A 
ATOM     56  N   UNL A   1      46.926  26.934  26.849  1.00  0.00    -0.354 N 
ATOM     57  C   UNL A   1      43.174  27.789  28.824  1.00  0.00     0.074 A 
ATOM     58  C   UNL A   1      42.254  26.682  28.694  1.00  0.00     0.031 C 
ATOM     59  C   UNL A   1      48.393  25.702  25.698  1.00  0.00     0.029 A 
ATOM     60  C   UNL A   1      48.193  27.010  26.322  1.00  0.00     0.049 A 
ATOM     61  H   UNL A   1      46.519  27.654  27.383  1.00  0.00     0.167 HD
ATOM     62  C   UNL A   1      42.900  28.929  29.500  1.00  0.00     0.031 A 
ATOM     63  C   UNL A   1      49.078  28.028  26.320  1.00  0.00     0.031 A 
ATOM     64  C   UNL A   1      43.813  30.034  29.617  1.00  0.00     0.049 A 
ATOM     65  C   UNL A   1      48.716  29.321  27.009  1.00  0.00     0.074 A 
ATOM     66  C   UNL A   1      43.634  31.228  30.294  1.00  0.00     0.029 A 
ATOM     67  N   UNL A   1      45.072  30.087  29.037  1.00  0.00    -0.354 N 
ATOM     68  N   UNL A   1      47.625  29.628  27.671  1.00  0.00    -0.248 NA
ATOM     69  C   UNL A   1      49.709  30.404  26.956  1.00  0.00     0.031 C 
ATOM     70  C   UNL A   1      44.756  32.030  30.066  1.00  0.00     0.029 A 
ATOM     71  C   UNL A   1      45.667  31.306  29.313  1.00  0.00     0.049 A 
ATOM     72  H   UNL A   1      45.480  29.365  28.508  1.00  0.00     0.167 HD
ATOM     73  C   UNL A   1      47.817  30.925  28.142  1.00  0.00     0.074 A 
ATOM     74  C   UNL A   1      49.134  31.337  27.702  1.00  0.00     0.031 C 
ATOM     75  C   UNL A   1      46.981  31.702  28.873  1.00  0.00     0.031 A 
BRANCH  62  76
ATOM     76  C   UNL A   1      41.540  29.058  30.135  1.00  0.00    -0.014 A 
ATOM     77  C   UNL A   1      41.206  28.351  31.304  1.00  0.00     0.010 A 
ATOM     78  C   UNL A   1      40.599  29.945  29.581  1.00  0.00     0.010 A 
ATOM     79  C   UNL A   1      39.948  28.508  31.891  1.00  0.00     0.020 A 
ATOM     80  C   UNL A   1      39.351  30.129  30.181  1.00  0.00     0.020 A 
ATOM     81  C   UNL A   1      39.029  29.399  31.327  1.00  0.00     0.054 A 
BRANCH  81  82
ATOM     82  S   UNL A   1      37.420  29.615  32.136  1.00  0.00     0.124 S 
ATOM     83  O   UNL A   1      36.493  29.361  31.037  1.00  0.00    -0.237 OA
ATOM     84  O   UNL A   1      37.450  28.595  33.180  1.00  0.00    -0.237 OA
ATOM     85  O   UNL A   1      37.454  30.995  32.615  1.00  0.00    -0.744 OA
ENDBRANCH  81  82
ENDBRANCH  62  76
BRANCH  63  86
ATOM     86  C   UNL A   1      50.386  27.884  25.620  1.00  0.00    -0.014 A 
ATOM     87  C   UNL A   1      51.582  27.751  26.348  1.00  0.00     0.010 A 
ATOM     88  C   UNL A   1      50.444  27.905  24.214  1.00  0.00     0.010 A 
ATOM     89  C   UNL A   1      52.811  27.666  25.686  1.00  0.00     0.020 A 
ATOM     90  C   UNL A   1      51.668  27.786  23.547  1.00  0.00     0.020 A 
ATOM     91  C   UNL A   1      52.844  27.682  24.288  1.00  0.00     0.054 A 
BRANCH  91  92
ATOM     92  S   UNL A   1      54.448  27.530  23.452  1.00  0.00     0.124 S 
ATOM     93  O   UNL A   1      54.154  26.558  22.403  1.00  0.00    -0.237 OA
ATOM     94  O   UNL A   1      54.694  28.896  22.997  1.00  0.00    -0.237 OA
ATOM     95  O   UNL A   1      55.341  27.062  24.508  1.00  0.00    -0.744 OA
ENDBRANCH  91  92
ENDBRANCH  63  86
BRANCH  75  96
ATOM     96  C   UNL A   1      47.477  33.063  29.293  1.00  0.00    -0.014 A 
ATOM     97  C   UNL A   1      47.514  34.143  28.393  1.00  0.00     0.010 A 
ATOM     98  C   UNL A   1      47.853  33.278  30.633  1.00  0.00     0.010 A 
ATOM     99  C   UNL A   1      47.952  35.402  28.817  1.00  0.00     0.020 A 
ATOM    100  C   UNL A   1      48.258  34.542  31.068  1.00  0.00     0.020 A 
ATOM    101  C   UNL A   1      48.319  35.594  30.153  1.00  0.00     0.054 A 
BRANCH 101 102
ATOM    102  S   UNL A   1      48.840  37.247  30.685  1.00  0.00     0.124 S 
ATOM    103  O   UNL A   1      48.092  37.417  31.928  1.00  0.00    -0.237 OA
ATOM    104  O   UNL A   1      50.285  37.093  30.837  1.00  0.00    -0.237 OA
ATOM    105  O   UNL A   1      48.424  38.114  29.585  1.00  0.00    -0.744 OA
ENDBRANCH 101 102
ENDBRANCH  75  96
ENDBRANCH  49  50
ENDBRANCH  42  44
ENDBRANCH  41  42
ENDBRANCH  40  41
ENDBRANCH  39  40
ENDBRANCH  38  39
ENDBRANCH  37  38
ENDBRANCH  36  37
ENDBRANCH  35  36
ENDBRANCH   1  35
TORSDOF 28
ENDMDL
MODEL 2
REMARK VINA RESULT:      -9.0      1.722      2.591
REMARK SMILES O=C(COc1ccc(N2C[C@@H](C(=O)OCCOCCOCCOCCOC(=O)c3ccc(-c4c5nc(c(-c6ccc(S(=O)(=O)[O-])cc6)c6ccc([nH]6)c(-c6ccc(S(=O)(=O)[O-])cc6)c6nc(c(-c7ccc(S(=O)(=O)[O-])cc7)c7ccc4[nH]7)C=C6)C=C5)cc3)CC2=O)cc1)Nc1ccc(Cl)cc1Cl
REMARK SMILES IDX 19 1 18 2 17 3 16 4 15 5 14 6 12 7 13 8 11 9 9 10 10 11
REMARK SMILES IDX 90 12 89 13 91 14 8 15 5 16 6 17 93 18 7 19 92 20 4 21 3 22
REMARK SMILES IDX 2 23 1 24 94 25 95 27 96 28 101 29 97 30 100 31 102 32 98 33
REMARK SMILES IDX 99 34 20 35 21 36 22 37 23 38 24 39 25 40 26 41 27 42 28 43
REMARK SMILES IDX 29 44 30 45 88 46 31 47 87 48 32 49 33 50 34 51 81 52 35 53
REMARK SMILES IDX 86 54 80 55 82 56 36 57 85 58 79 59 78 60 37 62 67 63 48 64
REMARK SMILES IDX 66 65 49 66 52 67 65 68 83 69 50 70 51 71 64 73 84 74 53 75
REMARK SMILES IDX 38 76 39 77 47 78 40 79 46 80 41 81 42 82 43 83 44 84 45 85
REMARK SMILES IDX 68 86 69 87 77 88 70 89 76 90 71 91 72 92 73 93 74 94 75 95
REMARK SMILES IDX 54 96 55 97 63 98 56 99 62 100 57 101 58 102 59 103 60 104
REMARK SMILES IDX 61 105
REMARK H PARENT 94 26 82 61 52 72
REMARK Flexibility Score: inf
ROOT
ATOM      1  C   UNL A   1      37.525  22.086  25.551  1.00  0.00     0.188 C 
ENDROOT
BRANCH   1   2
ATOM      2  C   UNL A   1      36.298  22.621  24.802  1.00  0.00     0.188 C 
BRANCH   2   3
ATOM      3  O   UNL A   1      34.974  22.332  25.221  1.00  0.00    -0.376 OA
BRANCH   3   4
ATOM      4  C   UNL A   1      33.884  22.273  24.310  1.00  0.00     0.202 C 
BRANCH   4   5
ATOM      5  C   UNL A   1      32.634  23.155  24.455  1.00  0.00     0.261 C 
BRANCH   5   6
ATOM      6  O   UNL A   1      32.883  24.565  24.496  1.00  0.00    -0.463 OA
BRANCH   6   7
ATOM      7  C   UNL A   1      31.907  25.344  23.992  1.00  0.00     0.311 C 
ATOM      8  O   UNL A   1      31.358  25.174  22.909  1.00  0.00    -0.252 OA
BRANCH   7   9
ATOM      9  C   UNL A   1      31.486  26.456  24.912  1.00  0.00     0.128 C 
ATOM     10  N   UNL A   1      32.474  28.089  26.225  1.00  0.00    -0.312 N 
ATOM     11  C   UNL A   1      32.687  27.361  25.010  1.00  0.00     0.141 C 
ATOM     12  C   UNL A   1      31.586  27.433  27.074  1.00  0.00     0.227 C 
ATOM     13  C   UNL A   1      31.121  26.195  26.371  1.00  0.00     0.117 C 
ATOM     14  O   UNL A   1      31.191  27.769  28.180  1.00  0.00    -0.274 OA
BRANCH  10  15
ATOM     15  C   UNL A   1      33.325  29.134  26.600  1.00  0.00     0.044 A 
ATOM     16  C   UNL A   1      34.914  31.192  27.599  1.00  0.00     0.120 A 
ATOM     17  C   UNL A   1      35.486  29.952  27.340  1.00  0.00     0.048 A 
ATOM     18  C   UNL A   1      33.577  31.416  27.292  1.00  0.00     0.048 A 
ATOM     19  C   UNL A   1      34.684  28.916  26.857  1.00  0.00     0.030 A 
ATOM     20  C   UNL A   1      32.785  30.398  26.798  1.00  0.00     0.030 A 
BRANCH  16  21
ATOM     21  O   UNL A   1      35.699  32.198  28.098  1.00  0.00    -0.484 OA
BRANCH  21  22
ATOM     22  C   UNL A   1      35.824  32.104  29.524  1.00  0.00     0.329 C 
BRANCH  22  23
ATOM     23  C   UNL A   1      36.902  33.007  30.138  1.00  0.00     0.262 C 
ATOM     24  O   UNL A   1      37.122  34.124  29.684  1.00  0.00    -0.271 OA
ATOM     25  N   UNL A   1      37.628  32.360  31.138  1.00  0.00    -0.322 N 
ATOM     26  H   UNL A   1      37.268  31.516  31.494  1.00  0.00     0.170 HD
BRANCH  25  27
ATOM     27  C   UNL A   1      38.849  32.839  31.674  1.00  0.00     0.060 A 
ATOM     28  C   UNL A   1      40.003  32.514  30.938  1.00  0.00     0.029 A 
ATOM     29  C   UNL A   1      38.986  33.628  32.829  1.00  0.00     0.066 A 
ATOM     30  C   UNL A   1      41.249  33.035  31.293  1.00  0.00     0.023 A 
ATOM     31  C   UNL A   1      40.237  34.152  33.180  1.00  0.00     0.043 A 
ATOM     32  Cl  UNL A   1      37.717  33.834  33.987  1.00  0.00    -0.082 Cl
ATOM     33  C   UNL A   1      41.357  33.864  32.405  1.00  0.00     0.042 A 
ATOM     34  Cl  UNL A   1      42.895  34.497  32.849  1.00  0.00    -0.084 Cl
ENDBRANCH  25  27
ENDBRANCH  22  23
ENDBRANCH  21  22
ENDBRANCH  16  21
ENDBRANCH  10  15
ENDBRANCH   7   9
ENDBRANCH   6   7
ENDBRANCH   5   6
ENDBRANCH   4   5
ENDBRANCH   3   4
ENDBRANCH   2   3
ENDBRANCH   1   2
BRANCH   1  35
ATOM     35  O   UNL A   1      38.338  23.061  26.162  1.00  0.00    -0.377 OA
BRANCH  35  36
ATOM     36  C   UNL A   1      39.662  22.673  26.509  1.00  0.00     0.188 C 
BRANCH  36  37
ATOM     37  C   UNL A   1      40.013  21.171  26.463  1.00  0.00     0.188 C 
BRANCH  37  38
ATOM     38  O   UNL A   1      41.048  20.780  27.356  1.00  0.00    -0.376 OA
BRANCH  38  39
ATOM     39  C   UNL A   1      41.479  19.425  27.365  1.00  0.00     0.202 C 
BRANCH  39  40
ATOM     40  C   UNL A   1      42.456  18.949  26.275  1.00  0.00     0.261 C 
BRANCH  40  41
ATOM     41  O   UNL A   1      42.547  19.751  25.088  1.00  0.00    -0.460 OA
BRANCH  41  42
ATOM     42  C   UNL A   1      43.770  20.129  24.664  1.00  0.00     0.338 C 
ATOM     43  O   UNL A   1      44.402  19.652  23.734  1.00  0.00    -0.246 OA
BRANCH  42  44
ATOM     44  C   UNL A   1      44.133  21.371  25.378  1.00  0.00     0.060 A 
ATOM     45  C   UNL A   1      43.302  22.492  25.252  1.00  0.00     0.016 A 
ATOM     46  C   UNL A   1      45.283  21.432  26.167  1.00  0.00     0.016 A 
ATOM     47  C   UNL A   1      43.640  23.690  25.880  1.00  0.00     0.010 A 
ATOM     48  C   UNL A   1      45.635  22.640  26.776  1.00  0.00     0.010 A 
ATOM     49  C   UNL A   1      44.836  23.785  26.603  1.00  0.00    -0.014 A 
BRANCH  49  50
ATOM     50  C   UNL A   1      45.350  25.120  26.996  1.00  0.00     0.031 A 
ATOM     51  C   UNL A   1      44.465  26.002  27.836  1.00  0.00     0.074 A 
ATOM     52  C   UNL A   1      46.579  25.534  26.642  1.00  0.00     0.049 A 
ATOM     53  N   UNL A   1      44.672  27.219  28.263  1.00  0.00    -0.248 NA
ATOM     54  C   UNL A   1      43.170  25.432  28.250  1.00  0.00     0.031 C 
ATOM     55  C   UNL A   1      47.552  24.751  25.878  1.00  0.00     0.029 A 
ATOM     56  N   UNL A   1      47.219  26.726  26.879  1.00  0.00    -0.354 N 
ATOM     57  C   UNL A   1      43.534  27.567  28.981  1.00  0.00     0.074 A 
ATOM     58  C   UNL A   1      42.628  26.443  28.913  1.00  0.00     0.031 C 
ATOM     59  C   UNL A   1      48.661  25.492  25.699  1.00  0.00     0.029 A 
ATOM     60  C   UNL A   1      48.463  26.810  26.301  1.00  0.00     0.049 A 
ATOM     61  H   UNL A   1      46.822  27.452  27.412  1.00  0.00     0.167 HD
ATOM     62  C   UNL A   1      43.267  28.718  29.642  1.00  0.00     0.031 A 
ATOM     63  C   UNL A   1      49.330  27.842  26.241  1.00  0.00     0.031 A 
ATOM     64  C   UNL A   1      44.166  29.839  29.698  1.00  0.00     0.049 A 
ATOM     65  C   UNL A   1      48.974  29.145  26.915  1.00  0.00     0.074 A 
ATOM     66  C   UNL A   1      43.993  31.046  30.355  1.00  0.00     0.029 A 
ATOM     67  N   UNL A   1      45.400  29.899  29.068  1.00  0.00    -0.354 N 
ATOM     68  N   UNL A   1      47.905  29.449  27.612  1.00  0.00    -0.248 NA
ATOM     69  C   UNL A   1      49.946  30.241  26.799  1.00  0.00     0.031 C 
ATOM     70  C   UNL A   1      45.092  31.860  30.065  1.00  0.00     0.029 A 
ATOM     71  C   UNL A   1      45.984  31.133  29.293  1.00  0.00     0.049 A 
ATOM     72  H   UNL A   1      45.799  29.172  28.539  1.00  0.00     0.167 HD
ATOM     73  C   UNL A   1      48.094  30.759  28.046  1.00  0.00     0.074 A 
ATOM     74  C   UNL A   1      49.385  31.182  27.546  1.00  0.00     0.031 C 
ATOM     75  C   UNL A   1      47.274  31.540  28.793  1.00  0.00     0.031 A 
BRANCH  62  76
ATOM     76  C   UNL A   1      41.931  28.840  30.327  1.00  0.00    -0.014 A 
ATOM     77  C   UNL A   1      40.735  28.920  29.592  1.00  0.00     0.010 A 
ATOM     78  C   UNL A   1      41.869  28.817  31.732  1.00  0.00     0.010 A 
ATOM     79  C   UNL A   1      39.504  29.003  30.249  1.00  0.00     0.020 A 
ATOM     80  C   UNL A   1      40.639  28.870  32.394  1.00  0.00     0.020 A 
ATOM     81  C   UNL A   1      39.465  28.975  31.647  1.00  0.00     0.054 A 
BRANCH  81  82
ATOM     82  S   UNL A   1      37.851  29.040  32.472  1.00  0.00     0.124 S 
ATOM     83  O   UNL A   1      37.744  27.695  33.030  1.00  0.00    -0.237 OA
ATOM     84  O   UNL A   1      38.034  30.111  33.446  1.00  0.00    -0.237 OA
ATOM     85  O   UNL A   1      36.918  29.339  31.388  1.00  0.00    -0.744 OA
ENDBRANCH  81  82
ENDBRANCH  62  76
BRANCH  63  86
ATOM     86  C   UNL A   1      50.612  27.702  25.494  1.00  0.00    -0.014 A 
ATOM     87  C   UNL A   1      51.752  27.158  26.114  1.00  0.00     0.010 A 
ATOM     88  C   UNL A   1      50.707  28.139  24.160  1.00  0.00     0.010 A 
ATOM     89  C   UNL A   1      52.965  27.076  25.422  1.00  0.00     0.020 A 
ATOM     90  C   UNL A   1      51.908  28.028  23.453  1.00  0.00     0.020 A 
ATOM     91  C   UNL A   1      53.033  27.510  24.094  1.00  0.00     0.054 A 
BRANCH  91  92
ATOM     92  S   UNL A   1      54.609  27.356  23.206  1.00  0.00     0.124 S 
ATOM     93  O   UNL A   1      55.119  28.723  23.252  1.00  0.00    -0.237 OA
ATOM     94  O   UNL A   1      55.333  26.382  24.021  1.00  0.00    -0.237 OA
ATOM     95  O   UNL A   1      54.210  26.879  21.885  1.00  0.00    -0.744 OA
ENDBRANCH  91  92
ENDBRANCH  63  86
BRANCH  75  96
ATOM     96  C   UNL A   1      47.763  32.918  29.162  1.00  0.00    -0.014 A 
ATOM     97  C   UNL A   1      47.497  34.036  28.351  1.00  0.00     0.010 A 
ATOM     98  C   UNL A   1      48.448  33.104  30.378  1.00  0.00     0.010 A 
ATOM     99  C   UNL A   1      47.938  35.307  28.732  1.00  0.00     0.020 A 
ATOM    100  C   UNL A   1      48.860  34.378  30.779  1.00  0.00     0.020 A 
ATOM    101  C   UNL A   1      48.615  35.470  29.945  1.00  0.00     0.054 A 
BRANCH 101 102
ATOM    102  S   UNL A   1      49.137  37.136  30.436  1.00  0.00     0.124 S 
ATOM    103  O   UNL A   1      50.270  37.375  29.546  1.00  0.00    -0.237 OA
ATOM    104  O   UNL A   1      47.945  37.937  30.166  1.00  0.00    -0.237 OA
ATOM    105  O   UNL A   1      49.475  36.991  31.850  1.00  0.00    -0.744 OA
ENDBRANCH 101 102
ENDBRANCH  75  96
ENDBRANCH  49  50
ENDBRANCH  42  44
ENDBRANCH  41  42
ENDBRANCH  40  41
ENDBRANCH  39  40
ENDBRANCH  38  39
ENDBRANCH  37  38
ENDBRANCH  36  37
ENDBRANCH  35  36
ENDBRANCH   1  35
TORSDOF 28
ENDMDL
MODEL 3
REMARK VINA RESULT:      -8.4      5.073      7.718
REMARK SMILES O=C(COc1ccc(N2C[C@@H](C(=O)OCCOCCOCCOCCOC(=O)c3ccc(-c4c5nc(c(-c6ccc(S(=O)(=O)[O-])cc6)c6ccc([nH]6)c(-c6ccc(S(=O)(=O)[O-])cc6)c6nc(c(-c7ccc(S(=O)(=O)[O-])cc7)c7ccc4[nH]7)C=C6)C=C5)cc3)CC2=O)cc1)Nc1ccc(Cl)cc1Cl
REMARK SMILES IDX 19 1 18 2 17 3 16 4 15 5 14 6 12 7 13 8 11 9 9 10 10 11
REMARK SMILES IDX 90 12 89 13 91 14 8 15 5 16 6 17 93 18 7 19 92 20 4 21 3 22
REMARK SMILES IDX 2 23 1 24 94 25 95 27 96 28 101 29 97 30 100 31 102 32 98 33
REMARK SMILES IDX 99 34 20 35 21 36 22 37 23 38 24 39 25 40 26 41 27 42 28 43
REMARK SMILES IDX 29 44 30 45 88 46 31 47 87 48 32 49 33 50 34 51 81 52 35 53
REMARK SMILES IDX 86 54 80 55 82 56 36 57 85 58 79 59 78 60 37 62 67 63 48 64
REMARK SMILES IDX 66 65 49 66 52 67 65 68 83 69 50 70 51 71 64 73 84 74 53 75
REMARK SMILES IDX 38 76 39 77 47 78 40 79 46 80 41 81 42 82 43 83 44 84 45 85
REMARK SMILES IDX 68 86 69 87 77 88 70 89 76 90 71 91 72 92 73 93 74 94 75 95
REMARK SMILES IDX 54 96 55 97 63 98 56 99 62 100 57 101 58 102 59 103 60 104
REMARK SMILES IDX 61 105
REMARK H PARENT 94 26 82 61 52 72
REMARK Flexibility Score: inf
ROOT
ATOM      1  C   UNL A   1      38.555  22.914  26.149  1.00  0.00     0.188 C 
ENDROOT
BRANCH   1   2
ATOM      2  C   UNL A   1      37.431  23.701  25.464  1.00  0.00     0.188 C 
BRANCH   2   3
ATOM      3  O   UNL A   1      36.070  23.545  25.828  1.00  0.00    -0.376 OA
BRANCH   3   4
ATOM      4  C   UNL A   1      35.010  23.697  24.893  1.00  0.00     0.202 C 
BRANCH   4   5
ATOM      5  C   UNL A   1      33.835  24.660  25.120  1.00  0.00     0.261 C 
BRANCH   5   6
ATOM      6  O   UNL A   1      34.026  25.988  24.616  1.00  0.00    -0.463 OA
BRANCH   6   7
ATOM      7  C   UNL A   1      32.930  26.583  24.110  1.00  0.00     0.311 C 
ATOM      8  O   UNL A   1      32.160  26.072  23.304  1.00  0.00    -0.252 OA
BRANCH   7   9
ATOM      9  C   UNL A   1      32.677  27.958  24.663  1.00  0.00     0.128 C 
ATOM     10  N   UNL A   1      33.516  29.340  26.323  1.00  0.00    -0.312 N 
ATOM     11  C   UNL A   1      33.935  28.316  25.412  1.00  0.00     0.141 C 
ATOM     12  C   UNL A   1      32.141  29.309  26.541  1.00  0.00     0.227 C 
ATOM     13  C   UNL A   1      31.572  28.220  25.683  1.00  0.00     0.117 C 
ATOM     14  O   UNL A   1      31.460  30.028  27.256  1.00  0.00    -0.274 OA
BRANCH  10  15
ATOM     15  C   UNL A   1      34.443  30.027  27.113  1.00  0.00     0.044 A 
ATOM     16  C   UNL A   1      36.094  31.408  28.882  1.00  0.00     0.120 A 
ATOM     17  C   UNL A   1      36.299  30.049  28.676  1.00  0.00     0.048 A 
ATOM     18  C   UNL A   1      35.117  32.079  28.154  1.00  0.00     0.048 A 
ATOM     19  C   UNL A   1      35.458  29.354  27.804  1.00  0.00     0.030 A 
ATOM     20  C   UNL A   1      34.296  31.398  27.278  1.00  0.00     0.030 A 
BRANCH  16  21
ATOM     21  O   UNL A   1      36.903  32.080  29.759  1.00  0.00    -0.484 OA
BRANCH  21  22
ATOM     22  C   UNL A   1      36.134  32.816  30.721  1.00  0.00     0.329 C 
BRANCH  22  23
ATOM     23  C   UNL A   1      36.784  32.944  32.105  1.00  0.00     0.262 C 
ATOM     24  O   UNL A   1      36.107  33.185  33.098  1.00  0.00    -0.271 OA
ATOM     25  N   UNL A   1      38.175  32.876  32.045  1.00  0.00    -0.322 N 
ATOM     26  H   UNL A   1      38.584  32.552  31.210  1.00  0.00     0.170 HD
BRANCH  25  27
ATOM     27  C   UNL A   1      39.038  33.243  33.107  1.00  0.00     0.060 A 
ATOM     28  C   UNL A   1      39.780  34.422  32.906  1.00  0.00     0.029 A 
ATOM     29  C   UNL A   1      39.174  32.562  34.328  1.00  0.00     0.066 A 
ATOM     30  C   UNL A   1      40.567  34.955  33.928  1.00  0.00     0.023 A 
ATOM     31  C   UNL A   1      39.962  33.102  35.353  1.00  0.00     0.043 A 
ATOM     32  Cl  UNL A   1      38.578  30.957  34.585  1.00  0.00    -0.082 Cl
ATOM     33  C   UNL A   1      40.644  34.299  35.152  1.00  0.00     0.042 A 
ATOM     34  Cl  UNL A   1      41.622  34.951  36.408  1.00  0.00    -0.084 Cl
ENDBRANCH  25  27
ENDBRANCH  22  23
ENDBRANCH  21  22
ENDBRANCH  16  21
ENDBRANCH  10  15
ENDBRANCH   7   9
ENDBRANCH   6   7
ENDBRANCH   5   6
ENDBRANCH   4   5
ENDBRANCH   3   4
ENDBRANCH   2   3
ENDBRANCH   1   2
BRANCH   1  35
ATOM     35  O   UNL A   1      39.169  23.556  27.243  1.00  0.00    -0.377 OA
BRANCH  35  36
ATOM     36  C   UNL A   1      40.588  23.488  27.318  1.00  0.00     0.188 C 
BRANCH  36  37
ATOM     37  C   UNL A   1      41.340  22.749  26.190  1.00  0.00     0.188 C 
BRANCH  37  38
ATOM     38  O   UNL A   1      42.512  22.066  26.613  1.00  0.00    -0.376 OA
BRANCH  38  39
ATOM     39  C   UNL A   1      43.181  21.208  25.698  1.00  0.00     0.202 C 
BRANCH  39  40
ATOM     40  C   UNL A   1      44.359  21.767  24.882  1.00  0.00     0.261 C 
BRANCH  40  41
ATOM     41  O   UNL A   1      44.303  23.157  24.525  1.00  0.00    -0.460 OA
BRANCH  41  42
ATOM     42  C   UNL A   1      45.438  23.881  24.596  1.00  0.00     0.338 C 
ATOM     43  O   UNL A   1      46.379  23.845  23.818  1.00  0.00    -0.246 OA
BRANCH  42  44
ATOM     44  C   UNL A   1      45.263  24.896  25.657  1.00  0.00     0.060 A 
ATOM     45  C   UNL A   1      46.401  25.489  26.219  1.00  0.00     0.016 A 
ATOM     46  C   UNL A   1      43.989  25.260  26.094  1.00  0.00     0.016 A 
ATOM     47  C   UNL A   1      46.269  26.419  27.251  1.00  0.00     0.010 A 
ATOM     48  C   UNL A   1      43.858  26.173  27.144  1.00  0.00     0.010 A 
ATOM     49  C   UNL A   1      44.999  26.727  27.753  1.00  0.00    -0.014 A 
BRANCH  49  50
ATOM     50  C   UNL A   1      44.878  27.457  29.039  1.00  0.00     0.031 A 
ATOM     51  C   UNL A   1      45.009  26.670  30.317  1.00  0.00     0.074 A 
ATOM     52  C   UNL A   1      44.683  28.786  29.080  1.00  0.00     0.049 A 
ATOM     53  N   UNL A   1      44.896  27.073  31.554  1.00  0.00    -0.248 NA
ATOM     54  C   UNL A   1      45.310  25.233  30.177  1.00  0.00     0.031 C 
ATOM     55  C   UNL A   1      44.594  29.667  27.915  1.00  0.00     0.029 A 
ATOM     56  N   UNL A   1      44.519  29.629  30.152  1.00  0.00    -0.354 N 
ATOM     57  C   UNL A   1      45.096  25.943  32.339  1.00  0.00     0.074 A 
ATOM     58  C   UNL A   1      45.313  24.832  31.439  1.00  0.00     0.031 C 
ATOM     59  C   UNL A   1      44.379  30.926  28.338  1.00  0.00     0.029 A 
ATOM     60  C   UNL A   1      44.278  30.935  29.797  1.00  0.00     0.049 A 
ATOM     61  H   UNL A   1      44.570  29.325  31.087  1.00  0.00     0.167 HD
ATOM     62  C   UNL A   1      45.102  25.839  33.689  1.00  0.00     0.031 A 
ATOM     63  C   UNL A   1      43.981  32.007  30.560  1.00  0.00     0.031 A 
ATOM     64  C   UNL A   1      44.875  26.943  34.582  1.00  0.00     0.049 A 
ATOM     65  C   UNL A   1      43.911  31.848  32.060  1.00  0.00     0.074 A 
ATOM     66  C   UNL A   1      44.875  26.942  35.966  1.00  0.00     0.029 A 
ATOM     67  N   UNL A   1      44.596  28.241  34.182  1.00  0.00    -0.354 N 
ATOM     68  N   UNL A   1      44.128  30.778  32.788  1.00  0.00    -0.248 NA
ATOM     69  C   UNL A   1      43.562  33.044  32.840  1.00  0.00     0.031 C 
ATOM     70  C   UNL A   1      44.529  28.224  36.402  1.00  0.00     0.029 A 
ATOM     71  C   UNL A   1      44.391  29.042  35.291  1.00  0.00     0.049 A 
ATOM     72  H   UNL A   1      44.551  28.547  33.247  1.00  0.00     0.167 HD
ATOM     73  C   UNL A   1      43.976  31.182  34.113  1.00  0.00     0.074 A 
ATOM     74  C   UNL A   1      43.665  32.597  34.083  1.00  0.00     0.031 C 
ATOM     75  C   UNL A   1      44.086  30.451  35.249  1.00  0.00     0.031 A 
BRANCH  62  76
ATOM     76  C   UNL A   1      45.325  24.473  34.286  1.00  0.00    -0.014 A 
ATOM     77  C   UNL A   1      44.246  23.653  34.663  1.00  0.00     0.010 A 
ATOM     78  C   UNL A   1      46.636  23.982  34.418  1.00  0.00     0.010 A 
ATOM     79  C   UNL A   1      44.476  22.379  35.188  1.00  0.00     0.020 A 
ATOM     80  C   UNL A   1      46.870  22.696  34.915  1.00  0.00     0.020 A 
ATOM     81  C   UNL A   1      45.788  21.907  35.308  1.00  0.00     0.054 A 
BRANCH  81  82
ATOM     82  S   UNL A   1      46.052  20.232  35.951  1.00  0.00     0.124 S 
ATOM     83  O   UNL A   1      45.648  20.378  37.346  1.00  0.00    -0.237 OA
ATOM     84  O   UNL A   1      45.161  19.428  35.120  1.00  0.00    -0.237 OA
ATOM     85  O   UNL A   1      47.479  19.999  35.738  1.00  0.00    -0.744 OA
ENDBRANCH  81  82
ENDBRANCH  62  76
BRANCH  63  86
ATOM     86  C   UNL A   1      43.700  33.325  29.925  1.00  0.00    -0.014 A 
ATOM     87  C   UNL A   1      42.385  33.704  29.602  1.00  0.00     0.010 A 
ATOM     88  C   UNL A   1      44.756  34.202  29.614  1.00  0.00     0.010 A 
ATOM     89  C   UNL A   1      42.133  34.921  28.960  1.00  0.00     0.020 A 
ATOM     90  C   UNL A   1      44.507  35.435  29.003  1.00  0.00     0.020 A 
ATOM     91  C   UNL A   1      43.198  35.780  28.667  1.00  0.00     0.054 A 
BRANCH  91  92
ATOM     92  S   UNL A   1      42.841  37.371  27.871  1.00  0.00     0.124 S 
ATOM     93  O   UNL A   1      41.520  37.134  27.297  1.00  0.00    -0.237 OA
ATOM     94  O   UNL A   1      42.885  38.302  28.996  1.00  0.00    -0.237 OA
ATOM     95  O   UNL A   1      43.926  37.520  26.905  1.00  0.00    -0.744 OA
ENDBRANCH  91  92
ENDBRANCH  63  86
BRANCH  75  96
ATOM     96  C   UNL A   1      43.921  31.169  36.565  1.00  0.00    -0.014 A 
ATOM     97  C   UNL A   1      45.012  31.767  37.220  1.00  0.00     0.010 A 
ATOM     98  C   UNL A   1      42.634  31.302  37.121  1.00  0.00     0.010 A 
ATOM     99  C   UNL A   1      44.825  32.451  38.425  1.00  0.00     0.020 A 
ATOM    100  C   UNL A   1      42.438  32.015  38.306  1.00  0.00     0.020 A 
ATOM    101  C   UNL A   1      43.538  32.573  38.959  1.00  0.00     0.054 A 
BRANCH 101 102
ATOM    102  S   UNL A   1      43.317  33.504  40.500  1.00  0.00     0.124 S 
ATOM    103  O   UNL A   1      44.158  32.756  41.431  1.00  0.00    -0.237 OA
ATOM    104  O   UNL A   1      43.804  34.835  40.142  1.00  0.00    -0.237 OA
ATOM    105  O   UNL A   1      41.881  33.421  40.753  1.00  0.00    -0.744 OA
ENDBRANCH 101 102
ENDBRANCH  75  96
ENDBRANCH  49  50
ENDBRANCH  42  44
ENDBRANCH  41  42
ENDBRANCH  40  41
ENDBRANCH  39  40
ENDBRANCH  38  39
ENDBRANCH  37  38
ENDBRANCH  36  37
ENDBRANCH  35  36
ENDBRANCH   1  35
TORSDOF 28
ENDMDL
