MODEL 1
REMARK VINA RESULT:      -8.8      0.000      0.000
REMARK SMILES O=C(Cn1cccc1C(=O)NCCC1CCCCC1)OCCOCCOCCOCCOC(=O)c1ccc(-c2c3nc(c(-c4ccc(S(=O)(=O)[O-])cc4)c4ccc([nH]4)c(-c4ccc(S(=O)(=O)[O-])cc4)c4nc(c(-c5ccc(S(=O)(=O)[O-])cc5)c5ccc2[nH]5)C=C4)C=C3)cc1
REMARK SMILES IDX 25 1 24 2 23 3 22 4 21 5 20 6 2 7 1 8 3 9 4 10 5 11 8 12
REMARK SMILES IDX 6 13 7 14 9 15 10 16 11 17 12 19 13 20 14 21 15 22 19 23
REMARK SMILES IDX 16 24 18 25 17 26 26 27 27 28 28 29 29 30 30 31 31 32 32 33
REMARK SMILES IDX 33 34 34 35 35 36 36 37 94 38 37 39 93 40 38 41 39 42 40 43
REMARK SMILES IDX 87 44 41 45 92 46 86 47 88 48 42 49 91 50 85 51 84 52 43 54
REMARK SMILES IDX 73 55 54 56 72 57 55 58 58 59 71 60 89 61 56 62 57 63 70 65
REMARK SMILES IDX 90 66 59 67 44 68 45 69 53 70 46 71 52 72 47 73 48 74 49 75
REMARK SMILES IDX 50 76 51 77 74 78 75 79 83 80 76 81 82 82 77 83 78 84 79 85
REMARK SMILES IDX 80 86 81 87 60 88 61 89 69 90 62 91 68 92 63 93 64 94 65 95
REMARK SMILES IDX 66 96 67 97
REMARK H PARENT 11 18 88 53 58 64
REMARK Flexibility Score: inf
ROOT
ATOM      1  C   UNL A   1      44.212  23.783  29.043  1.00  0.00     0.188 C 
ENDROOT
BRANCH   1   2
ATOM      2  C   UNL A   1      42.873  23.587  28.318  1.00  0.00     0.188 C 
BRANCH   2   3
ATOM      3  O   UNL A   1      41.828  24.475  28.701  1.00  0.00    -0.376 OA
BRANCH   3   4
ATOM      4  C   UNL A   1      40.604  24.277  28.009  1.00  0.00     0.202 C 
BRANCH   4   5
ATOM      5  C   UNL A   1      40.762  23.138  27.010  1.00  0.00     0.261 C 
BRANCH   5   6
ATOM      6  O   UNL A   1      39.660  22.206  27.071  1.00  0.00    -0.462 OA
BRANCH   6   7
ATOM      7  C   UNL A   1      39.112  21.554  26.017  1.00  0.00     0.326 C 
ATOM      8  O   UNL A   1      39.545  20.436  25.724  1.00  0.00    -0.250 OA
BRANCH   7   9
ATOM      9  C   UNL A   1      38.011  22.177  25.187  1.00  0.00     0.244 C 
BRANCH   9  10
ATOM     10  N   UNL A   1      36.851  21.328  24.987  1.00  0.00    -0.332 N 
ATOM     11  C   UNL A   1      36.948  19.959  24.883  1.00  0.00     0.087 A 
ATOM     12  C   UNL A   1      35.522  21.718  24.939  1.00  0.00     0.107 A 
ATOM     13  C   UNL A   1      35.679  19.440  24.893  1.00  0.00     0.020 A 
ATOM     14  C   UNL A   1      34.788  20.536  24.939  1.00  0.00     0.033 A 
BRANCH  12  15
ATOM     15  C   UNL A   1      34.955  23.049  25.086  1.00  0.00     0.267 C 
ATOM     16  O   UNL A   1      35.256  23.797  26.012  1.00  0.00    -0.268 OA
ATOM     17  N   UNL A   1      33.885  23.371  24.276  1.00  0.00    -0.351 N 
ATOM     18  H   UNL A   1      32.995  22.986  24.450  1.00  0.00     0.163 HD
BRANCH  17  19
ATOM     19  C   UNL A   1      34.082  24.283  23.161  1.00  0.00     0.116 C 
BRANCH  19  20
ATOM     20  C   UNL A   1      32.897  24.341  22.183  1.00  0.00     0.025 C 
BRANCH  20  21
ATOM     21  C   UNL A   1      31.685  25.298  22.440  1.00  0.00    -0.009 C 
ATOM     22  C   UNL A   1      30.661  24.855  23.502  1.00  0.00     0.003 C 
ATOM     23  C   UNL A   1      32.208  26.739  22.652  1.00  0.00     0.003 C 
ATOM     24  C   UNL A   1      29.649  25.938  23.898  1.00  0.00     0.000 C 
ATOM     25  C   UNL A   1      31.113  27.751  22.967  1.00  0.00     0.000 C 
ATOM     26  C   UNL A   1      30.298  27.289  24.158  1.00  0.00     0.000 C 
ENDBRANCH  20  21
ENDBRANCH  19  20
ENDBRANCH  17  19
ENDBRANCH  12  15
ENDBRANCH   9  10
ENDBRANCH   7   9
ENDBRANCH   6   7
ENDBRANCH   5   6
ENDBRANCH   4   5
ENDBRANCH   3   4
ENDBRANCH   2   3
ENDBRANCH   1   2
BRANCH   1  27
ATOM     27  O   UNL A   1      45.102  24.815  28.634  1.00  0.00    -0.377 OA
BRANCH  27  28
ATOM     28  C   UNL A   1      46.207  24.487  27.813  1.00  0.00     0.188 C 
BRANCH  28  29
ATOM     29  C   UNL A   1      45.947  24.124  26.351  1.00  0.00     0.188 C 
BRANCH  29  30
ATOM     30  O   UNL A   1      45.018  24.938  25.653  1.00  0.00    -0.376 OA
BRANCH  30  31
ATOM     31  C   UNL A   1      45.501  26.255  25.383  1.00  0.00     0.202 C 
BRANCH  31  32
ATOM     32  C   UNL A   1      44.750  27.318  26.204  1.00  0.00     0.261 C 
BRANCH  32  33
ATOM     33  O   UNL A   1      43.902  28.167  25.416  1.00  0.00    -0.460 OA
BRANCH  33  34
ATOM     34  C   UNL A   1      42.636  27.726  25.366  1.00  0.00     0.338 C 
ATOM     35  O   UNL A   1      42.206  26.774  24.715  1.00  0.00    -0.246 OA
BRANCH  34  36
ATOM     36  C   UNL A   1      41.765  28.452  26.274  1.00  0.00     0.060 A 
ATOM     37  C   UNL A   1      42.325  29.525  26.987  1.00  0.00     0.016 A 
ATOM     38  C   UNL A   1      40.677  27.739  26.747  1.00  0.00     0.016 A 
ATOM     39  C   UNL A   1      41.943  29.754  28.291  1.00  0.00     0.010 A 
ATOM     40  C   UNL A   1      40.282  27.979  28.045  1.00  0.00     0.010 A 
ATOM     41  C   UNL A   1      40.958  28.934  28.829  1.00  0.00    -0.014 A 
BRANCH  41  42
ATOM     42  C   UNL A   1      40.460  29.144  30.193  1.00  0.00     0.031 A 
ATOM     43  C   UNL A   1      41.425  28.576  31.221  1.00  0.00     0.074 A 
ATOM     44  C   UNL A   1      39.374  29.959  30.316  1.00  0.00     0.049 A 
ATOM     45  N   UNL A   1      41.534  28.847  32.481  1.00  0.00    -0.248 NA
ATOM     46  C   UNL A   1      42.476  27.618  30.771  1.00  0.00     0.031 C 
ATOM     47  C   UNL A   1      38.480  30.373  29.211  1.00  0.00     0.029 A 
ATOM     48  N   UNL A   1      38.831  30.630  31.389  1.00  0.00    -0.354 N 
ATOM     49  C   UNL A   1      42.768  28.318  32.897  1.00  0.00     0.074 A 
ATOM     50  C   UNL A   1      43.279  27.520  31.826  1.00  0.00     0.031 C 
ATOM     51  C   UNL A   1      37.490  31.171  29.671  1.00  0.00     0.029 A 
ATOM     52  C   UNL A   1      37.706  31.429  31.082  1.00  0.00     0.049 A 
ATOM     53  H   UNL A   1      39.198  30.559  32.300  1.00  0.00     0.167 HD
ATOM     54  C   UNL A   1      43.372  28.671  34.061  1.00  0.00     0.031 A 
ATOM     55  C   UNL A   1      37.016  32.279  31.893  1.00  0.00     0.031 A 
ATOM     56  C   UNL A   1      42.513  29.455  34.878  1.00  0.00     0.049 A 
ATOM     57  C   UNL A   1      37.879  32.530  33.059  1.00  0.00     0.074 A 
ATOM     58  C   UNL A   1      41.403  29.130  35.612  1.00  0.00     0.029 A 
ATOM     59  N   UNL A   1      42.574  30.820  34.739  1.00  0.00    -0.354 N 
ATOM     60  N   UNL A   1      38.978  33.222  33.019  1.00  0.00    -0.248 NA
ATOM     61  C   UNL A   1      37.516  31.975  34.364  1.00  0.00     0.031 C 
ATOM     62  C   UNL A   1      40.593  30.283  35.544  1.00  0.00     0.029 A 
ATOM     63  C   UNL A   1      41.284  31.290  34.863  1.00  0.00     0.049 A 
ATOM     64  H   UNL A   1      43.382  31.360  34.582  1.00  0.00     0.167 HD
ATOM     65  C   UNL A   1      39.614  32.851  34.175  1.00  0.00     0.074 A 
ATOM     66  C   UNL A   1      38.583  32.358  35.062  1.00  0.00     0.031 C 
ATOM     67  C   UNL A   1      40.921  32.486  34.132  1.00  0.00     0.031 A 
BRANCH  54  68
ATOM     68  C   UNL A   1      44.795  28.497  34.476  1.00  0.00    -0.014 A 
ATOM     69  C   UNL A   1      45.053  27.591  35.528  1.00  0.00     0.010 A 
ATOM     70  C   UNL A   1      45.797  29.417  34.127  1.00  0.00     0.010 A 
ATOM     71  C   UNL A   1      46.220  27.675  36.284  1.00  0.00     0.020 A 
ATOM     72  C   UNL A   1      46.987  29.487  34.867  1.00  0.00     0.020 A 
ATOM     73  C   UNL A   1      47.164  28.650  35.972  1.00  0.00     0.054 A 
BRANCH  73  74
ATOM     74  S   UNL A   1      48.574  28.859  37.092  1.00  0.00     0.124 S 
ATOM     75  O   UNL A   1      48.515  30.287  37.392  1.00  0.00    -0.237 OA
ATOM     76  O   UNL A   1      48.231  27.972  38.202  1.00  0.00    -0.237 OA
ATOM     77  O   UNL A   1      49.716  28.430  36.291  1.00  0.00    -0.744 OA
ENDBRANCH  73  74
ENDBRANCH  54  68
BRANCH  55  78
ATOM     78  C   UNL A   1      35.693  32.995  31.891  1.00  0.00    -0.014 A 
ATOM     79  C   UNL A   1      34.910  33.231  33.028  1.00  0.00     0.010 A 
ATOM     80  C   UNL A   1      35.319  33.697  30.711  1.00  0.00     0.010 A 
ATOM     81  C   UNL A   1      33.907  34.226  33.021  1.00  0.00     0.020 A 
ATOM     82  C   UNL A   1      34.373  34.723  30.708  1.00  0.00     0.020 A 
ATOM     83  C   UNL A   1      33.689  35.007  31.879  1.00  0.00     0.054 A 
BRANCH  83  84
ATOM     84  S   UNL A   1      32.663  36.503  31.951  1.00  0.00     0.124 S 
ATOM     85  O   UNL A   1      31.437  36.013  32.571  1.00  0.00    -0.237 OA
ATOM     86  O   UNL A   1      33.462  37.415  32.766  1.00  0.00    -0.237 OA
ATOM     87  O   UNL A   1      32.544  36.890  30.545  1.00  0.00    -0.744 OA
ENDBRANCH  83  84
ENDBRANCH  55  78
BRANCH  67  88
ATOM     88  C   UNL A   1      41.725  33.090  32.987  1.00  0.00    -0.014 A 
ATOM     89  C   UNL A   1      41.950  32.344  31.814  1.00  0.00     0.010 A 
ATOM     90  C   UNL A   1      42.325  34.362  33.069  1.00  0.00     0.010 A 
ATOM     91  C   UNL A   1      42.743  32.844  30.767  1.00  0.00     0.020 A 
ATOM     92  C   UNL A   1      43.101  34.878  32.019  1.00  0.00     0.020 A 
ATOM     93  C   UNL A   1      43.314  34.112  30.874  1.00  0.00     0.054 A 
BRANCH  93  94
ATOM     94  S   UNL A   1      44.359  34.734  29.523  1.00  0.00     0.124 S 
ATOM     95  O   UNL A   1      45.575  35.151  30.218  1.00  0.00    -0.237 OA
ATOM     96  O   UNL A   1      44.500  33.560  28.668  1.00  0.00    -0.237 OA
ATOM     97  O   UNL A   1      43.575  35.830  28.951  1.00  0.00    -0.744 OA
ENDBRANCH  93  94
ENDBRANCH  67  88
ENDBRANCH  41  42
ENDBRANCH  34  36
ENDBRANCH  33  34
ENDBRANCH  32  33
ENDBRANCH  31  32
ENDBRANCH  30  31
ENDBRANCH  29  30
ENDBRANCH  28  29
ENDBRANCH  27  28
ENDBRANCH   1  27
TORSDOF 28
ENDMDL
MODEL 2
REMARK VINA RESULT:      -8.4      2.031      3.397
REMARK SMILES O=C(Cn1cccc1C(=O)NCCC1CCCCC1)OCCOCCOCCOCCOC(=O)c1ccc(-c2c3nc(c(-c4ccc(S(=O)(=O)[O-])cc4)c4ccc([nH]4)c(-c4ccc(S(=O)(=O)[O-])cc4)c4nc(c(-c5ccc(S(=O)(=O)[O-])cc5)c5ccc2[nH]5)C=C4)C=C3)cc1
REMARK SMILES IDX 25 1 24 2 23 3 22 4 21 5 20 6 2 7 1 8 3 9 4 10 5 11 8 12
REMARK SMILES IDX 6 13 7 14 9 15 10 16 11 17 12 19 13 20 14 21 15 22 19 23
REMARK SMILES IDX 16 24 18 25 17 26 26 27 27 28 28 29 29 30 30 31 31 32 32 33
REMARK SMILES IDX 33 34 34 35 35 36 36 37 94 38 37 39 93 40 38 41 39 42 40 43
REMARK SMILES IDX 87 44 41 45 92 46 86 47 88 48 42 49 91 50 85 51 84 52 43 54
REMARK SMILES IDX 73 55 54 56 72 57 55 58 58 59 71 60 89 61 56 62 57 63 70 65
REMARK SMILES IDX 90 66 59 67 44 68 45 69 53 70 46 71 52 72 47 73 48 74 49 75
REMARK SMILES IDX 50 76 51 77 74 78 75 79 83 80 76 81 82 82 77 83 78 84 79 85
REMARK SMILES IDX 80 86 81 87 60 88 61 89 69 90 62 91 68 92 63 93 64 94 65 95
REMARK SMILES IDX 66 96 67 97
REMARK H PARENT 11 18 88 53 58 64
REMARK Flexibility Score: inf
ROOT
ATOM      1  C   UNL A   1      43.956  23.715  29.986  1.00  0.00     0.188 C 
ENDROOT
BRANCH   1   2
ATOM      2  C   UNL A   1      42.604  23.385  29.338  1.00  0.00     0.188 C 
BRANCH   2   3
ATOM      3  O   UNL A   1      41.953  24.469  28.682  1.00  0.00    -0.376 OA
BRANCH   3   4
ATOM      4  C   UNL A   1      41.379  24.137  27.426  1.00  0.00     0.202 C 
BRANCH   4   5
ATOM      5  C   UNL A   1      42.484  23.916  26.403  1.00  0.00     0.261 C 
BRANCH   5   6
ATOM      6  O   UNL A   1      43.168  22.660  26.608  1.00  0.00    -0.462 OA
BRANCH   6   7
ATOM      7  C   UNL A   1      43.927  22.010  25.692  1.00  0.00     0.326 C 
ATOM      8  O   UNL A   1      45.092  22.380  25.520  1.00  0.00    -0.250 OA
BRANCH   7   9
ATOM      9  C   UNL A   1      43.369  20.872  24.865  1.00  0.00     0.244 C 
BRANCH   9  10
ATOM     10  N   UNL A   1      43.367  19.585  25.534  1.00  0.00    -0.332 N 
ATOM     11  C   UNL A   1      44.436  18.719  25.471  1.00  0.00     0.087 A 
ATOM     12  C   UNL A   1      42.380  19.065  26.358  1.00  0.00     0.107 A 
ATOM     13  C   UNL A   1      44.205  17.692  26.350  1.00  0.00     0.020 A 
ATOM     14  C   UNL A   1      42.927  17.913  26.912  1.00  0.00     0.033 A 
BRANCH  12  15
ATOM     15  C   UNL A   1      41.122  19.668  26.766  1.00  0.00     0.267 C 
ATOM     16  O   UNL A   1      41.025  20.390  27.755  1.00  0.00    -0.268 OA
ATOM     17  N   UNL A   1      39.976  19.221  26.138  1.00  0.00    -0.351 N 
ATOM     18  H   UNL A   1      39.606  18.334  26.352  1.00  0.00     0.163 HD
BRANCH  17  19
ATOM     19  C   UNL A   1      39.320  20.073  25.160  1.00  0.00     0.116 C 
BRANCH  19  20
ATOM     20  C   UNL A   1      37.815  19.800  25.003  1.00  0.00     0.025 C 
BRANCH  20  21
ATOM     21  C   UNL A   1      36.773  20.968  25.051  1.00  0.00    -0.009 C 
ATOM     22  C   UNL A   1      37.000  22.144  24.083  1.00  0.00     0.003 C 
ATOM     23  C   UNL A   1      35.343  20.379  24.979  1.00  0.00     0.003 C 
ATOM     24  C   UNL A   1      35.823  23.123  23.987  1.00  0.00     0.000 C 
ATOM     25  C   UNL A   1      34.244  21.434  24.962  1.00  0.00     0.000 C 
ATOM     26  C   UNL A   1      34.482  22.421  23.838  1.00  0.00     0.000 C 
ENDBRANCH  20  21
ENDBRANCH  19  20
ENDBRANCH  17  19
ENDBRANCH  12  15
ENDBRANCH   9  10
ENDBRANCH   7   9
ENDBRANCH   6   7
ENDBRANCH   5   6
ENDBRANCH   4   5
ENDBRANCH   3   4
ENDBRANCH   2   3
ENDBRANCH   1   2
BRANCH   1  27
ATOM     27  O   UNL A   1      44.496  25.028  29.883  1.00  0.00    -0.377 OA
BRANCH  27  28
ATOM     28  C   UNL A   1      45.787  25.200  29.328  1.00  0.00     0.188 C 
BRANCH  28  29
ATOM     29  C   UNL A   1      46.043  24.698  27.907  1.00  0.00     0.188 C 
BRANCH  29  30
ATOM     30  O   UNL A   1      45.326  25.347  26.868  1.00  0.00    -0.376 OA
BRANCH  30  31
ATOM     31  C   UNL A   1      45.823  26.650  26.560  1.00  0.00     0.202 C 
BRANCH  31  32
ATOM     32  C   UNL A   1      44.762  27.737  26.806  1.00  0.00     0.261 C 
BRANCH  32  33
ATOM     33  O   UNL A   1      44.111  28.194  25.611  1.00  0.00    -0.460 OA
BRANCH  33  34
ATOM     34  C   UNL A   1      42.866  27.709  25.486  1.00  0.00     0.338 C 
ATOM     35  O   UNL A   1      42.508  26.751  24.803  1.00  0.00    -0.246 OA
BRANCH  34  36
ATOM     36  C   UNL A   1      41.921  28.394  26.352  1.00  0.00     0.060 A 
ATOM     37  C   UNL A   1      42.375  29.537  27.029  1.00  0.00     0.016 A 
ATOM     38  C   UNL A   1      40.889  27.609  26.838  1.00  0.00     0.016 A 
ATOM     39  C   UNL A   1      41.952  29.783  28.317  1.00  0.00     0.010 A 
ATOM     40  C   UNL A   1      40.452  27.865  28.119  1.00  0.00     0.010 A 
ATOM     41  C   UNL A   1      41.031  28.904  28.874  1.00  0.00    -0.014 A 
BRANCH  41  42
ATOM     42  C   UNL A   1      40.493  29.124  30.220  1.00  0.00     0.031 A 
ATOM     43  C   UNL A   1      41.417  28.545  31.280  1.00  0.00     0.074 A 
ATOM     44  C   UNL A   1      39.415  29.953  30.308  1.00  0.00     0.049 A 
ATOM     45  N   UNL A   1      41.489  28.817  32.543  1.00  0.00    -0.248 NA
ATOM     46  C   UNL A   1      42.468  27.572  30.865  1.00  0.00     0.031 C 
ATOM     47  C   UNL A   1      38.562  30.377  29.174  1.00  0.00     0.029 A 
ATOM     48  N   UNL A   1      38.847  30.634  31.362  1.00  0.00    -0.354 N 
ATOM     49  C   UNL A   1      42.703  28.273  32.998  1.00  0.00     0.074 A 
ATOM     50  C   UNL A   1      43.236  27.465  31.946  1.00  0.00     0.031 C 
ATOM     51  C   UNL A   1      37.569  31.190  29.602  1.00  0.00     0.029 A 
ATOM     52  C   UNL A   1      37.744  31.448  31.018  1.00  0.00     0.049 A 
ATOM     53  H   UNL A   1      39.184  30.560  32.284  1.00  0.00     0.167 HD
ATOM     54  C   UNL A   1      43.274  28.620  34.180  1.00  0.00     0.031 A 
ATOM     55  C   UNL A   1      37.039  32.309  31.806  1.00  0.00     0.031 A 
ATOM     56  C   UNL A   1      42.400  29.417  34.968  1.00  0.00     0.049 A 
ATOM     57  C   UNL A   1      37.869  32.551  32.998  1.00  0.00     0.074 A 
ATOM     58  C   UNL A   1      41.263  29.109  35.667  1.00  0.00     0.029 A 
ATOM     59  N   UNL A   1      42.484  30.781  34.829  1.00  0.00    -0.354 N 
ATOM     60  N   UNL A   1      38.978  33.228  32.991  1.00  0.00    -0.248 NA
ATOM     61  C   UNL A   1      37.457  32.003  34.292  1.00  0.00     0.031 C 
ATOM     62  C   UNL A   1      40.472  30.272  35.572  1.00  0.00     0.029 A 
ATOM     63  C   UNL A   1      41.197  31.268  34.911  1.00  0.00     0.049 A 
ATOM     64  H   UNL A   1      43.305  31.309  34.696  1.00  0.00     0.167 HD
ATOM     65  C   UNL A   1      39.572  32.851  34.168  1.00  0.00     0.074 A 
ATOM     66  C   UNL A   1      38.506  32.373  35.022  1.00  0.00     0.031 C 
ATOM     67  C   UNL A   1      40.874  32.467  34.166  1.00  0.00     0.031 A 
BRANCH  54  68
ATOM     68  C   UNL A   1      44.681  28.427  34.640  1.00  0.00    -0.014 A 
ATOM     69  C   UNL A   1      45.277  29.491  35.353  1.00  0.00     0.010 A 
ATOM     70  C   UNL A   1      45.516  27.430  34.110  1.00  0.00     0.010 A 
ATOM     71  C   UNL A   1      46.661  29.622  35.433  1.00  0.00     0.020 A 
ATOM     72  C   UNL A   1      46.911  27.541  34.213  1.00  0.00     0.020 A 
ATOM     73  C   UNL A   1      47.471  28.663  34.829  1.00  0.00     0.054 A 
BRANCH  73  74
ATOM     74  S   UNL A   1      49.257  28.964  34.784  1.00  0.00     0.124 S 
ATOM     75  O   UNL A   1      49.433  29.920  35.874  1.00  0.00    -0.237 OA
ATOM     76  O   UNL A   1      49.810  27.633  35.024  1.00  0.00    -0.237 OA
ATOM     77  O   UNL A   1      49.484  29.492  33.441  1.00  0.00    -0.744 OA
ENDBRANCH  73  74
ENDBRANCH  54  68
BRANCH  55  78
ATOM     78  C   UNL A   1      35.727  33.042  31.760  1.00  0.00    -0.014 A 
ATOM     79  C   UNL A   1      34.930  33.324  32.876  1.00  0.00     0.010 A 
ATOM     80  C   UNL A   1      35.382  33.713  30.553  1.00  0.00     0.010 A 
ATOM     81  C   UNL A   1      33.942  34.332  32.823  1.00  0.00     0.020 A 
ATOM     82  C   UNL A   1      34.451  34.750  30.504  1.00  0.00     0.020 A 
ATOM     83  C   UNL A   1      33.753  35.080  31.654  1.00  0.00     0.054 A 
BRANCH  83  84
ATOM     84  S   UNL A   1      32.747  36.592  31.663  1.00  0.00     0.124 S 
ATOM     85  O   UNL A   1      33.701  37.602  32.108  1.00  0.00    -0.237 OA
ATOM     86  O   UNL A   1      32.309  36.706  30.274  1.00  0.00    -0.237 OA
ATOM     87  O   UNL A   1      31.680  36.274  32.612  1.00  0.00    -0.744 OA
ENDBRANCH  83  84
ENDBRANCH  55  78
BRANCH  67  88
ATOM     88  C   UNL A   1      41.722  33.058  33.047  1.00  0.00    -0.014 A 
ATOM     89  C   UNL A   1      41.883  32.354  31.838  1.00  0.00     0.010 A 
ATOM     90  C   UNL A   1      42.424  34.271  33.185  1.00  0.00     0.010 A 
ATOM     91  C   UNL A   1      42.712  32.837  30.812  1.00  0.00     0.020 A 
ATOM     92  C   UNL A   1      43.237  34.773  32.156  1.00  0.00     0.020 A 
ATOM     93  C   UNL A   1      43.385  34.047  30.975  1.00  0.00     0.054 A 
BRANCH  93  94
ATOM     94  S   UNL A   1      44.473  34.646  29.649  1.00  0.00     0.124 S 
ATOM     95  O   UNL A   1      43.530  35.181  28.670  1.00  0.00    -0.237 OA
ATOM     96  O   UNL A   1      45.290  35.641  30.336  1.00  0.00    -0.237 OA
ATOM     97  O   UNL A   1      45.190  33.446  29.215  1.00  0.00    -0.744 OA
ENDBRANCH  93  94
ENDBRANCH  67  88
ENDBRANCH  41  42
ENDBRANCH  34  36
ENDBRANCH  33  34
ENDBRANCH  32  33
ENDBRANCH  31  32
ENDBRANCH  30  31
ENDBRANCH  29  30
ENDBRANCH  28  29
ENDBRANCH  27  28
ENDBRANCH   1  27
TORSDOF 28
ENDMDL
MODEL 3
REMARK VINA RESULT:      -7.4      5.088     10.983
REMARK SMILES O=C(Cn1cccc1C(=O)NCCC1CCCCC1)OCCOCCOCCOCCOC(=O)c1ccc(-c2c3nc(c(-c4ccc(S(=O)(=O)[O-])cc4)c4ccc([nH]4)c(-c4ccc(S(=O)(=O)[O-])cc4)c4nc(c(-c5ccc(S(=O)(=O)[O-])cc5)c5ccc2[nH]5)C=C4)C=C3)cc1
REMARK SMILES IDX 25 1 24 2 23 3 22 4 21 5 20 6 2 7 1 8 3 9 4 10 5 11 8 12
REMARK SMILES IDX 6 13 7 14 9 15 10 16 11 17 12 19 13 20 14 21 15 22 19 23
REMARK SMILES IDX 16 24 18 25 17 26 26 27 27 28 28 29 29 30 30 31 31 32 32 33
REMARK SMILES IDX 33 34 34 35 35 36 36 37 94 38 37 39 93 40 38 41 39 42 40 43
REMARK SMILES IDX 87 44 41 45 92 46 86 47 88 48 42 49 91 50 85 51 84 52 43 54
REMARK SMILES IDX 73 55 54 56 72 57 55 58 58 59 71 60 89 61 56 62 57 63 70 65
REMARK SMILES IDX 90 66 59 67 44 68 45 69 53 70 46 71 52 72 47 73 48 74 49 75
REMARK SMILES IDX 50 76 51 77 74 78 75 79 83 80 76 81 82 82 77 83 78 84 79 85
REMARK SMILES IDX 80 86 81 87 60 88 61 89 69 90 62 91 68 92 63 93 64 94 65 95
REMARK SMILES IDX 66 96 67 97
REMARK H PARENT 11 18 88 53 58 64
REMARK Flexibility Score: inf
ROOT
ATOM      1  C   UNL A   1      37.819  32.353  36.798  1.00  0.00     0.188 C 
ENDROOT
BRANCH   1   2
ATOM      2  C   UNL A   1      39.348  32.323  36.660  1.00  0.00     0.188 C 
BRANCH   2   3
ATOM      3  O   UNL A   1      39.846  32.286  35.326  1.00  0.00    -0.376 OA
BRANCH   3   4
ATOM      4  C   UNL A   1      41.180  31.811  35.210  1.00  0.00     0.202 C 
BRANCH   4   5
ATOM      5  C   UNL A   1      41.292  30.900  33.995  1.00  0.00     0.261 C 
BRANCH   5   6
ATOM      6  O   UNL A   1      40.721  29.596  34.241  1.00  0.00    -0.462 OA
BRANCH   6   7
ATOM      7  C   UNL A   1      40.339  28.704  33.294  1.00  0.00     0.326 C 
ATOM      8  O   UNL A   1      40.027  27.564  33.648  1.00  0.00    -0.250 OA
BRANCH   7   9
ATOM      9  C   UNL A   1      40.319  29.069  31.826  1.00  0.00     0.244 C 
BRANCH   9  10
ATOM     10  N   UNL A   1      41.278  28.347  31.010  1.00  0.00    -0.332 N 
ATOM     11  C   UNL A   1      42.554  28.070  31.446  1.00  0.00     0.087 A 
ATOM     12  C   UNL A   1      41.067  27.787  29.760  1.00  0.00     0.107 A 
ATOM     13  C   UNL A   1      43.139  27.223  30.539  1.00  0.00     0.020 A 
ATOM     14  C   UNL A   1      42.208  27.038  29.492  1.00  0.00     0.033 A 
BRANCH  12  15
ATOM     15  C   UNL A   1      39.852  27.767  28.962  1.00  0.00     0.267 C 
ATOM     16  O   UNL A   1      39.146  26.768  28.860  1.00  0.00    -0.268 OA
ATOM     17  N   UNL A   1      39.629  28.844  28.127  1.00  0.00    -0.351 N 
ATOM     18  H   UNL A   1      40.155  28.951  27.302  1.00  0.00     0.163 HD
BRANCH  17  19
ATOM     19  C   UNL A   1      38.610  29.819  28.478  1.00  0.00     0.116 C 
BRANCH  19  20
ATOM     20  C   UNL A   1      37.189  29.422  28.044  1.00  0.00     0.025 C 
BRANCH  20  21
ATOM     21  C   UNL A   1      35.940  30.233  28.529  1.00  0.00    -0.009 C 
ATOM     22  C   UNL A   1      36.214  31.540  29.295  1.00  0.00     0.003 C 
ATOM     23  C   UNL A   1      34.954  30.406  27.348  1.00  0.00     0.003 C 
ATOM     24  C   UNL A   1      34.975  32.419  29.513  1.00  0.00     0.000 C 
ATOM     25  C   UNL A   1      33.722  31.233  27.692  1.00  0.00     0.000 C 
ATOM     26  C   UNL A   1      34.133  32.577  28.257  1.00  0.00     0.000 C 
ENDBRANCH  20  21
ENDBRANCH  19  20
ENDBRANCH  17  19
ENDBRANCH  12  15
ENDBRANCH   9  10
ENDBRANCH   7   9
ENDBRANCH   6   7
ENDBRANCH   5   6
ENDBRANCH   4   5
ENDBRANCH   3   4
ENDBRANCH   2   3
ENDBRANCH   1   2
BRANCH   1  27
ATOM     27  O   UNL A   1      37.001  32.513  35.645  1.00  0.00    -0.377 OA
BRANCH  27  28
ATOM     28  C   UNL A   1      36.745  33.816  35.156  1.00  0.00     0.188 C 
BRANCH  28  29
ATOM     29  C   UNL A   1      36.583  34.010  33.648  1.00  0.00     0.188 C 
BRANCH  29  30
ATOM     30  O   UNL A   1      37.237  33.065  32.815  1.00  0.00    -0.376 OA
BRANCH  30  31
ATOM     31  C   UNL A   1      38.364  33.599  32.120  1.00  0.00     0.202 C 
BRANCH  31  32
ATOM     32  C   UNL A   1      39.178  32.497  31.420  1.00  0.00     0.261 C 
BRANCH  32  33
ATOM     33  O   UNL A   1      39.787  32.918  30.191  1.00  0.00    -0.460 OA
BRANCH  33  34
ATOM     34  C   UNL A   1      40.927  33.597  30.387  1.00  0.00     0.338 C 
ATOM     35  O   UNL A   1      41.095  34.812  30.286  1.00  0.00    -0.246 OA
BRANCH  34  36
ATOM     36  C   UNL A   1      42.005  32.739  30.849  1.00  0.00     0.060 A 
ATOM     37  C   UNL A   1      42.949  33.300  31.724  1.00  0.00     0.016 A 
ATOM     38  C   UNL A   1      42.309  31.673  30.020  1.00  0.00     0.016 A 
ATOM     39  C   UNL A   1      44.277  32.947  31.617  1.00  0.00     0.010 A 
ATOM     40  C   UNL A   1      43.634  31.307  29.924  1.00  0.00     0.010 A 
ATOM     41  C   UNL A   1      44.616  31.989  30.670  1.00  0.00    -0.014 A 
BRANCH  41  42
ATOM     42  C   UNL A   1      45.999  31.521  30.527  1.00  0.00     0.031 A 
ATOM     43  C   UNL A   1      46.255  30.299  31.395  1.00  0.00     0.074 A 
ATOM     44  C   UNL A   1      46.729  32.099  29.532  1.00  0.00     0.049 A 
ATOM     45  N   UNL A   1      47.188  29.408  31.302  1.00  0.00    -0.248 NA
ATOM     46  C   UNL A   1      45.288  29.974  32.483  1.00  0.00     0.031 C 
ATOM     47  C   UNL A   1      46.373  33.348  28.819  1.00  0.00     0.029 A 
ATOM     48  N   UNL A   1      47.894  31.731  28.897  1.00  0.00    -0.354 N 
ATOM     49  C   UNL A   1      46.792  28.330  32.113  1.00  0.00     0.074 A 
ATOM     50  C   UNL A   1      45.651  28.752  32.865  1.00  0.00     0.031 C 
ATOM     51  C   UNL A   1      47.315  33.657  27.899  1.00  0.00     0.029 A 
ATOM     52  C   UNL A   1      48.304  32.597  27.859  1.00  0.00     0.049 A 
ATOM     53  H   UNL A   1      48.402  30.926  29.148  1.00  0.00     0.167 HD
ATOM     54  C   UNL A   1      47.348  27.095  32.029  1.00  0.00     0.031 A 
ATOM     55  C   UNL A   1      49.345  32.456  26.990  1.00  0.00     0.031 A 
ATOM     56  C   UNL A   1      48.497  27.095  31.191  1.00  0.00     0.049 A 
ATOM     57  C   UNL A   1      49.749  31.042  27.057  1.00  0.00     0.074 A 
ATOM     58  C   UNL A   1      49.759  27.596  31.371  1.00  0.00     0.029 A 
ATOM     59  N   UNL A   1      48.313  26.815  29.859  1.00  0.00    -0.354 N 
ATOM     60  N   UNL A   1      49.038  30.056  26.599  1.00  0.00    -0.248 NA
ATOM     61  C   UNL A   1      51.024  30.681  27.679  1.00  0.00     0.031 C 
ATOM     62  C   UNL A   1      50.161  27.996  30.080  1.00  0.00     0.029 A 
ATOM     63  C   UNL A   1      49.175  27.631  29.158  1.00  0.00     0.049 A 
ATOM     64  H   UNL A   1      47.686  26.158  29.478  1.00  0.00     0.167 HD
ATOM     65  C   UNL A   1      49.588  28.967  27.224  1.00  0.00     0.074 A 
ATOM     66  C   UNL A   1      50.930  29.355  27.602  1.00  0.00     0.031 C 
ATOM     67  C   UNL A   1      48.778  28.067  27.836  1.00  0.00     0.031 A 
BRANCH  54  68
ATOM     68  C   UNL A   1      46.828  25.789  32.532  1.00  0.00    -0.014 A 
ATOM     69  C   UNL A   1      45.554  25.386  32.079  1.00  0.00     0.010 A 
ATOM     70  C   UNL A   1      47.369  25.150  33.660  1.00  0.00     0.010 A 
ATOM     71  C   UNL A   1      44.792  24.463  32.791  1.00  0.00     0.020 A 
ATOM     72  C   UNL A   1      46.617  24.197  34.366  1.00  0.00     0.020 A 
ATOM     73  C   UNL A   1      45.315  23.902  33.954  1.00  0.00     0.054 A 
BRANCH  73  74
ATOM     74  S   UNL A   1      44.228  22.858  34.960  1.00  0.00     0.124 S 
ATOM     75  O   UNL A   1      44.611  23.237  36.317  1.00  0.00    -0.237 OA
ATOM     76  O   UNL A   1      42.896  23.291  34.541  1.00  0.00    -0.237 OA
ATOM     77  O   UNL A   1      44.587  21.500  34.560  1.00  0.00    -0.744 OA
ENDBRANCH  73  74
ENDBRANCH  54  68
BRANCH  55  78
ATOM     78  C   UNL A   1      50.119  33.315  26.029  1.00  0.00    -0.014 A 
ATOM     79  C   UNL A   1      50.019  34.710  25.944  1.00  0.00     0.010 A 
ATOM     80  C   UNL A   1      51.205  32.718  25.329  1.00  0.00     0.010 A 
ATOM     81  C   UNL A   1      51.033  35.471  25.321  1.00  0.00     0.020 A 
ATOM     82  C   UNL A   1      52.241  33.462  24.763  1.00  0.00     0.020 A 
ATOM     83  C   UNL A   1      52.166  34.844  24.790  1.00  0.00     0.054 A 
BRANCH  83  84
ATOM     84  S   UNL A   1      53.626  35.808  24.302  1.00  0.00     0.124 S 
ATOM     85  O   UNL A   1      53.075  36.738  23.321  1.00  0.00    -0.237 OA
ATOM     86  O   UNL A   1      54.065  36.406  25.560  1.00  0.00    -0.237 OA
ATOM     87  O   UNL A   1      54.529  34.791  23.764  1.00  0.00    -0.744 OA
ENDBRANCH  83  84
ENDBRANCH  55  78
BRANCH  67  88
ATOM     88  C   UNL A   1      47.364  27.981  27.274  1.00  0.00    -0.014 A 
ATOM     89  C   UNL A   1      46.302  28.626  27.937  1.00  0.00     0.010 A 
ATOM     90  C   UNL A   1      47.045  27.217  26.134  1.00  0.00     0.010 A 
ATOM     91  C   UNL A   1      44.977  28.512  27.484  1.00  0.00     0.020 A 
ATOM     92  C   UNL A   1      45.726  27.115  25.662  1.00  0.00     0.020 A 
ATOM     93  C   UNL A   1      44.695  27.757  26.345  1.00  0.00     0.054 A 
BRANCH  93  94
ATOM     94  S   UNL A   1      42.973  27.597  25.787  1.00  0.00     0.124 S 
ATOM     95  O   UNL A   1      42.298  28.680  26.500  1.00  0.00    -0.237 OA
ATOM     96  O   UNL A   1      43.091  27.778  24.344  1.00  0.00    -0.237 OA
ATOM     97  O   UNL A   1      42.589  26.251  26.215  1.00  0.00    -0.744 OA
ENDBRANCH  93  94
ENDBRANCH  67  88
ENDBRANCH  41  42
ENDBRANCH  34  36
ENDBRANCH  33  34
ENDBRANCH  32  33
ENDBRANCH  31  32
ENDBRANCH  30  31
ENDBRANCH  29  30
ENDBRANCH  28  29
ENDBRANCH  27  28
ENDBRANCH   1  27
TORSDOF 28
ENDMDL
