MODEL 1
REMARK VINA RESULT:      -9.1      0.000      0.000
REMARK SMILES C[C@H]1[C@H](C(=O)OCCOCCOCCOCCOC(=O)c2ccc(-c3c4nc(c(-c5ccc(S(=O)(=O)[O-])cc5)c5ccc([nH]5)c(-c5ccc(S(=O)(=O)[O-])cc5)c5nc(c(-c6ccc(S(=O)(=O)[O-])cc6)c6ccc3[nH]6)C=C5)C=C4)cc2)CCN1C(=O)Nc1ccc(F)cc1
REMARK SMILES IDX 13 1 12 2 11 3 10 4 9 5 8 6 7 7 6 8 4 9 5 10 3 11 1 12 2 13
REMARK SMILES IDX 83 14 81 15 82 16 84 17 85 18 86 19 87 21 88 22 93 23 89 24
REMARK SMILES IDX 92 25 90 26 91 27 14 28 15 29 16 30 17 31 18 32 19 33 20 34
REMARK SMILES IDX 21 35 22 36 80 37 23 38 79 39 24 40 25 41 26 42 73 43 27 44
REMARK SMILES IDX 78 45 72 46 74 47 28 48 77 49 71 50 70 51 29 53 59 54 40 55
REMARK SMILES IDX 58 56 41 57 44 58 57 59 75 60 42 61 43 62 56 64 76 65 45 66
REMARK SMILES IDX 30 67 31 68 39 69 32 70 38 71 33 72 34 73 35 74 36 75 37 76
REMARK SMILES IDX 60 77 61 78 69 79 62 80 68 81 63 82 64 83 65 84 66 85 67 86
REMARK SMILES IDX 46 87 47 88 55 89 48 90 54 91 49 92 50 93 51 94 52 95 53 96
REMARK H PARENT 86 20 74 52 44 63
REMARK Flexibility Score: inf
ROOT
ATOM      1  C   UNL A   1      34.593  34.041  28.740  1.00  0.00     0.188 C 
ENDROOT
BRANCH   1   2
ATOM      2  O   UNL A   1      35.269  32.902  28.242  1.00  0.00    -0.377 OA
BRANCH   2   3
ATOM      3  C   UNL A   1      34.505  31.895  27.622  1.00  0.00     0.188 C 
BRANCH   3   4
ATOM      4  C   UNL A   1      34.745  30.456  28.091  1.00  0.00     0.188 C 
BRANCH   4   5
ATOM      5  O   UNL A   1      33.947  29.364  27.651  1.00  0.00    -0.376 OA
BRANCH   5   6
ATOM      6  C   UNL A   1      33.128  29.481  26.501  1.00  0.00     0.202 C 
BRANCH   6   7
ATOM      7  C   UNL A   1      33.751  28.996  25.183  1.00  0.00     0.261 C 
BRANCH   7   8
ATOM      8  O   UNL A   1      32.855  28.842  24.060  1.00  0.00    -0.463 OA
BRANCH   8   9
ATOM      9  C   UNL A   1      31.675  28.227  24.320  1.00  0.00     0.311 C 
ATOM     10  O   UNL A   1      30.639  28.808  24.629  1.00  0.00    -0.252 OA
BRANCH   9  11
ATOM     11  C   UNL A   1      31.750  26.709  24.330  1.00  0.00     0.123 C 
ATOM     12  C   UNL A   1      33.407  25.444  25.725  1.00  0.00     0.032 C 
ATOM     13  C   UNL A   1      31.950  25.927  25.660  1.00  0.00     0.098 C 
ATOM     14  N   UNL A   1      31.003  24.801  25.598  1.00  0.00    -0.321 N 
ATOM     15  C   UNL A   1      30.459  26.160  23.740  1.00  0.00     0.039 C 
ATOM     16  C   UNL A   1      30.391  24.754  24.280  1.00  0.00     0.122 C 
BRANCH  14  17
ATOM     17  C   UNL A   1      30.703  23.776  26.445  1.00  0.00     0.322 C 
ATOM     18  O   UNL A   1      29.732  23.863  27.210  1.00  0.00    -0.248 OA
ATOM     19  N   UNL A   1      31.262  22.553  26.412  1.00  0.00    -0.308 N 
ATOM     20  H   UNL A   1      30.650  21.887  26.800  1.00  0.00     0.171 HD
BRANCH  19  21
ATOM     21  C   UNL A   1      32.442  21.938  25.995  1.00  0.00     0.043 A 
ATOM     22  C   UNL A   1      33.516  21.990  26.904  1.00  0.00     0.029 A 
ATOM     23  C   UNL A   1      32.645  21.392  24.735  1.00  0.00     0.029 A 
ATOM     24  C   UNL A   1      34.751  21.418  26.596  1.00  0.00     0.041 A 
ATOM     25  C   UNL A   1      33.903  20.868  24.413  1.00  0.00     0.041 A 
ATOM     26  C   UNL A   1      34.931  20.852  25.348  1.00  0.00     0.123 A 
ATOM     27  F   UNL A   1      36.111  20.305  25.032  1.00  0.00    -0.207 F 
ENDBRANCH  19  21
ENDBRANCH  14  17
ENDBRANCH   9  11
ENDBRANCH   8   9
ENDBRANCH   7   8
ENDBRANCH   6   7
ENDBRANCH   5   6
ENDBRANCH   4   5
ENDBRANCH   3   4
ENDBRANCH   2   3
ENDBRANCH   1   2
BRANCH   1  28
ATOM     28  C   UNL A   1      34.214  34.063  30.221  1.00  0.00     0.188 C 
BRANCH  28  29
ATOM     29  O   UNL A   1      34.387  32.861  30.968  1.00  0.00    -0.376 OA
BRANCH  29  30
ATOM     30  C   UNL A   1      35.064  32.861  32.223  1.00  0.00     0.202 C 
BRANCH  30  31
ATOM     31  C   UNL A   1      36.540  32.482  32.277  1.00  0.00     0.261 C 
BRANCH  31  32
ATOM     32  O   UNL A   1      36.697  31.108  32.656  1.00  0.00    -0.460 OA
BRANCH  32  33
ATOM     33  C   UNL A   1      36.935  30.271  31.623  1.00  0.00     0.338 C 
ATOM     34  O   UNL A   1      36.119  29.585  31.034  1.00  0.00    -0.246 OA
BRANCH  33  35
ATOM     35  C   UNL A   1      38.314  30.446  31.142  1.00  0.00     0.060 A 
ATOM     36  C   UNL A   1      38.476  30.584  29.760  1.00  0.00     0.016 A 
ATOM     37  C   UNL A   1      39.423  30.345  31.988  1.00  0.00     0.016 A 
ATOM     38  C   UNL A   1      39.744  30.498  29.202  1.00  0.00     0.010 A 
ATOM     39  C   UNL A   1      40.701  30.261  31.423  1.00  0.00     0.010 A 
ATOM     40  C   UNL A   1      40.852  30.257  30.025  1.00  0.00    -0.014 A 
BRANCH  40  41
ATOM     41  C   UNL A   1      42.082  29.740  29.372  1.00  0.00     0.031 A 
ATOM     42  C   UNL A   1      43.295  30.636  29.320  1.00  0.00     0.074 A 
ATOM     43  C   UNL A   1      42.172  28.457  28.979  1.00  0.00     0.049 A 
ATOM     44  N   UNL A   1      44.517  30.354  28.952  1.00  0.00    -0.248 NA
ATOM     45  C   UNL A   1      43.106  32.032  29.752  1.00  0.00     0.031 C 
ATOM     46  C   UNL A   1      41.088  27.478  29.032  1.00  0.00     0.029 A 
ATOM     47  N   UNL A   1      43.241  27.754  28.486  1.00  0.00    -0.354 N 
ATOM     48  C   UNL A   1      45.241  31.531  29.114  1.00  0.00     0.074 A 
ATOM     49  C   UNL A   1      44.314  32.541  29.569  1.00  0.00     0.031 C 
ATOM     50  C   UNL A   1      41.554  26.291  28.602  1.00  0.00     0.029 A 
ATOM     51  C   UNL A   1      42.961  26.434  28.230  1.00  0.00     0.049 A 
ATOM     52  H   UNL A   1      44.126  28.156  28.330  1.00  0.00     0.167 HD
ATOM     53  C   UNL A   1      46.563  31.751  28.918  1.00  0.00     0.031 A 
ATOM     54  C   UNL A   1      43.751  25.451  27.753  1.00  0.00     0.031 A 
ATOM     55  C   UNL A   1      47.487  30.752  28.456  1.00  0.00     0.049 A 
ATOM     56  C   UNL A   1      45.204  25.738  27.476  1.00  0.00     0.074 A 
ATOM     57  C   UNL A   1      48.846  30.877  28.229  1.00  0.00     0.029 A 
ATOM     58  N   UNL A   1      47.146  29.446  28.140  1.00  0.00    -0.354 N 
ATOM     59  N   UNL A   1      45.877  26.849  27.660  1.00  0.00    -0.248 NA
ATOM     60  C   UNL A   1      46.007  24.629  26.943  1.00  0.00     0.031 C 
ATOM     61  C   UNL A   1      49.317  29.661  27.721  1.00  0.00     0.029 A 
ATOM     62  C   UNL A   1      48.264  28.761  27.695  1.00  0.00     0.049 A 
ATOM     63  H   UNL A   1      46.243  29.063  28.222  1.00  0.00     0.167 HD
ATOM     64  C   UNL A   1      47.190  26.563  27.296  1.00  0.00     0.074 A 
ATOM     65  C   UNL A   1      47.217  25.170  26.897  1.00  0.00     0.031 C 
ATOM     66  C   UNL A   1      48.275  27.377  27.295  1.00  0.00     0.031 A 
BRANCH  53  67
ATOM     67  C   UNL A   1      47.077  33.144  29.175  1.00  0.00    -0.014 A 
ATOM     68  C   UNL A   1      47.084  34.121  28.163  1.00  0.00     0.010 A 
ATOM     69  C   UNL A   1      47.540  33.486  30.459  1.00  0.00     0.010 A 
ATOM     70  C   UNL A   1      47.580  35.402  28.419  1.00  0.00     0.020 A 
ATOM     71  C   UNL A   1      48.012  34.773  30.727  1.00  0.00     0.020 A 
ATOM     72  C   UNL A   1      48.044  35.719  29.699  1.00  0.00     0.054 A 
BRANCH  72  73
ATOM     73  S   UNL A   1      48.667  37.394  30.009  1.00  0.00     0.124 S 
ATOM     74  O   UNL A   1      49.083  37.306  31.407  1.00  0.00    -0.237 OA
ATOM     75  O   UNL A   1      49.750  37.518  29.037  1.00  0.00    -0.237 OA
ATOM     76  O   UNL A   1      47.508  38.247  29.758  1.00  0.00    -0.744 OA
ENDBRANCH  72  73
ENDBRANCH  53  67
BRANCH  54  77
ATOM     77  C   UNL A   1      43.183  24.097  27.503  1.00  0.00    -0.014 A 
ATOM     78  C   UNL A   1      42.674  23.746  26.240  1.00  0.00     0.010 A 
ATOM     79  C   UNL A   1      43.139  23.151  28.544  1.00  0.00     0.010 A 
ATOM     80  C   UNL A   1      42.114  22.482  26.029  1.00  0.00     0.020 A 
ATOM     81  C   UNL A   1      42.606  21.878  28.329  1.00  0.00     0.020 A 
ATOM     82  C   UNL A   1      42.085  21.556  27.076  1.00  0.00     0.054 A 
BRANCH  82  83
ATOM     83  S   UNL A   1      41.395  19.906  26.768  1.00  0.00     0.124 S 
ATOM     84  O   UNL A   1      41.107  19.440  28.121  1.00  0.00    -0.237 OA
ATOM     85  O   UNL A   1      40.230  20.202  25.938  1.00  0.00    -0.237 OA
ATOM     86  O   UNL A   1      42.478  19.206  26.081  1.00  0.00    -0.744 OA
ENDBRANCH  82  83
ENDBRANCH  54  77
BRANCH  66  87
ATOM     87  C   UNL A   1      49.595  26.774  26.884  1.00  0.00    -0.014 A 
ATOM     88  C   UNL A   1      50.478  26.226  27.831  1.00  0.00     0.010 A 
ATOM     89  C   UNL A   1      49.939  26.724  25.520  1.00  0.00     0.010 A 
ATOM     90  C   UNL A   1      51.703  25.686  27.427  1.00  0.00     0.020 A 
ATOM     91  C   UNL A   1      51.147  26.156  25.109  1.00  0.00     0.020 A 
ATOM     92  C   UNL A   1      52.031  25.660  26.068  1.00  0.00     0.054 A 
BRANCH  92  93
ATOM     93  S   UNL A   1      53.620  24.941  25.566  1.00  0.00     0.124 S 
ATOM     94  O   UNL A   1      53.201  23.700  24.921  1.00  0.00    -0.237 OA
ATOM     95  O   UNL A   1      54.165  25.961  24.673  1.00  0.00    -0.237 OA
ATOM     96  O   UNL A   1      54.339  24.776  26.827  1.00  0.00    -0.744 OA
ENDBRANCH  92  93
ENDBRANCH  66  87
ENDBRANCH  40  41
ENDBRANCH  33  35
ENDBRANCH  32  33
ENDBRANCH  31  32
ENDBRANCH  30  31
ENDBRANCH  29  30
ENDBRANCH  28  29
ENDBRANCH   1  28
TORSDOF 25
ENDMDL
MODEL 2
REMARK VINA RESULT:      -8.9      4.788      6.529
REMARK SMILES C[C@H]1[C@H](C(=O)OCCOCCOCCOCCOC(=O)c2ccc(-c3c4nc(c(-c5ccc(S(=O)(=O)[O-])cc5)c5ccc([nH]5)c(-c5ccc(S(=O)(=O)[O-])cc5)c5nc(c(-c6ccc(S(=O)(=O)[O-])cc6)c6ccc3[nH]6)C=C5)C=C4)cc2)CCN1C(=O)Nc1ccc(F)cc1
REMARK SMILES IDX 13 1 12 2 11 3 10 4 9 5 8 6 7 7 6 8 4 9 5 10 3 11 1 12 2 13
REMARK SMILES IDX 83 14 81 15 82 16 84 17 85 18 86 19 87 21 88 22 93 23 89 24
REMARK SMILES IDX 92 25 90 26 91 27 14 28 15 29 16 30 17 31 18 32 19 33 20 34
REMARK SMILES IDX 21 35 22 36 80 37 23 38 79 39 24 40 25 41 26 42 73 43 27 44
REMARK SMILES IDX 78 45 72 46 74 47 28 48 77 49 71 50 70 51 29 53 59 54 40 55
REMARK SMILES IDX 58 56 41 57 44 58 57 59 75 60 42 61 43 62 56 64 76 65 45 66
REMARK SMILES IDX 30 67 31 68 39 69 32 70 38 71 33 72 34 73 35 74 36 75 37 76
REMARK SMILES IDX 60 77 61 78 69 79 62 80 68 81 63 82 64 83 65 84 66 85 67 86
REMARK SMILES IDX 46 87 47 88 55 89 48 90 54 91 49 92 50 93 51 94 52 95 53 96
REMARK H PARENT 86 20 74 52 44 63
REMARK Flexibility Score: inf
ROOT
ATOM      1  C   UNL A   1      33.721  28.899  23.963  1.00  0.00     0.188 C 
ENDROOT
BRANCH   1   2
ATOM      2  O   UNL A   1      33.042  28.862  22.722  1.00  0.00    -0.377 OA
BRANCH   2   3
ATOM      3  C   UNL A   1      31.678  29.209  22.701  1.00  0.00     0.188 C 
BRANCH   3   4
ATOM      4  C   UNL A   1      30.680  28.081  22.422  1.00  0.00     0.188 C 
BRANCH   4   5
ATOM      5  O   UNL A   1      29.272  28.270  22.486  1.00  0.00    -0.376 OA
BRANCH   5   6
ATOM      6  C   UNL A   1      28.490  27.582  23.446  1.00  0.00     0.202 C 
BRANCH   6   7
ATOM      7  C   UNL A   1      29.125  26.316  24.044  1.00  0.00     0.261 C 
BRANCH   7   8
ATOM      8  O   UNL A   1      29.665  26.430  25.379  1.00  0.00    -0.463 OA
BRANCH   8   9
ATOM      9  C   UNL A   1      29.844  25.266  26.049  1.00  0.00     0.311 C 
ATOM     10  O   UNL A   1      29.046  24.795  26.854  1.00  0.00    -0.252 OA
BRANCH   9  11
ATOM     11  C   UNL A   1      31.201  24.618  25.828  1.00  0.00     0.123 C 
ATOM     12  C   UNL A   1      31.548  22.716  24.229  1.00  0.00     0.032 C 
ATOM     13  C   UNL A   1      31.681  24.237  24.397  1.00  0.00     0.098 C 
ATOM     14  N   UNL A   1      33.085  24.675  24.327  1.00  0.00    -0.321 N 
ATOM     15  C   UNL A   1      32.274  25.551  26.369  1.00  0.00     0.039 C 
ATOM     16  C   UNL A   1      33.521  25.118  25.641  1.00  0.00     0.122 C 
BRANCH  14  17
ATOM     17  C   UNL A   1      34.039  24.624  23.354  1.00  0.00     0.322 C 
ATOM     18  O   UNL A   1      34.047  25.467  22.446  1.00  0.00    -0.248 OA
ATOM     19  N   UNL A   1      35.128  23.835  23.374  1.00  0.00    -0.308 N 
ATOM     20  H   UNL A   1      35.846  24.230  22.830  1.00  0.00     0.171 HD
BRANCH  19  21
ATOM     21  C   UNL A   1      35.552  22.628  23.930  1.00  0.00     0.043 A 
ATOM     22  C   UNL A   1      36.931  22.362  23.842  1.00  0.00     0.029 A 
ATOM     23  C   UNL A   1      34.704  21.658  24.450  1.00  0.00     0.029 A 
ATOM     24  C   UNL A   1      37.473  21.182  24.353  1.00  0.00     0.041 A 
ATOM     25  C   UNL A   1      35.249  20.454  24.911  1.00  0.00     0.041 A 
ATOM     26  C   UNL A   1      36.621  20.237  24.894  1.00  0.00     0.123 A 
ATOM     27  F   UNL A   1      37.122  19.096  25.382  1.00  0.00    -0.207 F 
ENDBRANCH  19  21
ENDBRANCH  14  17
ENDBRANCH   9  11
ENDBRANCH   8   9
ENDBRANCH   7   8
ENDBRANCH   6   7
ENDBRANCH   5   6
ENDBRANCH   4   5
ENDBRANCH   3   4
ENDBRANCH   2   3
ENDBRANCH   1   2
BRANCH   1  28
ATOM     28  C   UNL A   1      32.884  29.018  25.237  1.00  0.00     0.188 C 
BRANCH  28  29
ATOM     29  O   UNL A   1      32.326  30.292  25.549  1.00  0.00    -0.376 OA
BRANCH  29  30
ATOM     30  C   UNL A   1      32.445  30.852  26.855  1.00  0.00     0.202 C 
BRANCH  30  31
ATOM     31  C   UNL A   1      33.781  30.767  27.586  1.00  0.00     0.261 C 
BRANCH  31  32
ATOM     32  O   UNL A   1      34.196  32.064  28.035  1.00  0.00    -0.460 OA
BRANCH  32  33
ATOM     33  C   UNL A   1      34.780  32.070  29.253  1.00  0.00     0.338 C 
ATOM     34  O   UNL A   1      34.292  32.462  30.297  1.00  0.00    -0.246 OA
BRANCH  33  35
ATOM     35  C   UNL A   1      36.050  31.330  29.204  1.00  0.00     0.060 A 
ATOM     36  C   UNL A   1      36.105  30.144  29.942  1.00  0.00     0.016 A 
ATOM     37  C   UNL A   1      37.191  31.837  28.573  1.00  0.00     0.016 A 
ATOM     38  C   UNL A   1      37.327  29.522  30.159  1.00  0.00     0.010 A 
ATOM     39  C   UNL A   1      38.422  31.206  28.792  1.00  0.00     0.010 A 
ATOM     40  C   UNL A   1      38.500  30.095  29.650  1.00  0.00    -0.014 A 
BRANCH  40  41
ATOM     41  C   UNL A   1      39.785  29.666  30.260  1.00  0.00     0.031 A 
ATOM     42  C   UNL A   1      40.207  30.303  31.561  1.00  0.00     0.074 A 
ATOM     43  C   UNL A   1      40.477  28.628  29.759  1.00  0.00     0.049 A 
ATOM     44  N   UNL A   1      41.193  29.983  32.358  1.00  0.00    -0.248 NA
ATOM     45  C   UNL A   1      39.404  31.445  32.031  1.00  0.00     0.031 C 
ATOM     46  C   UNL A   1      40.140  27.894  28.541  1.00  0.00     0.029 A 
ATOM     47  N   UNL A   1      41.597  27.996  30.237  1.00  0.00    -0.354 N 
ATOM     48  C   UNL A   1      41.123  30.876  33.422  1.00  0.00     0.074 A 
ATOM     49  C   UNL A   1      40.030  31.779  33.148  1.00  0.00     0.031 C 
ATOM     50  C   UNL A   1      41.027  26.896  28.376  1.00  0.00     0.029 A 
ATOM     51  C   UNL A   1      42.001  26.934  29.465  1.00  0.00     0.049 A 
ATOM     52  H   UNL A   1      42.066  28.275  31.056  1.00  0.00     0.167 HD
ATOM     53  C   UNL A   1      41.889  30.932  34.538  1.00  0.00     0.031 A 
ATOM     54  C   UNL A   1      43.037  26.086  29.623  1.00  0.00     0.031 A 
ATOM     55  C   UNL A   1      42.984  30.042  34.809  1.00  0.00     0.049 A 
ATOM     56  C   UNL A   1      43.920  26.213  30.838  1.00  0.00     0.074 A 
ATOM     57  C   UNL A   1      43.818  30.016  35.913  1.00  0.00     0.029 A 
ATOM     58  N   UNL A   1      43.404  29.025  33.966  1.00  0.00    -0.354 N 
ATOM     59  N   UNL A   1      43.822  27.046  31.847  1.00  0.00    -0.248 NA
ATOM     60  C   UNL A   1      45.040  25.268  30.942  1.00  0.00     0.031 C 
ATOM     61  C   UNL A   1      44.780  29.021  35.710  1.00  0.00     0.029 A 
ATOM     62  C   UNL A   1      44.502  28.383  34.512  1.00  0.00     0.049 A 
ATOM     63  H   UNL A   1      42.983  28.794  33.107  1.00  0.00     0.167 HD
ATOM     64  C   UNL A   1      44.851  26.705  32.721  1.00  0.00     0.074 A 
ATOM     65  C   UNL A   1      45.545  25.580  32.128  1.00  0.00     0.031 C 
ATOM     66  C   UNL A   1      45.189  27.269  33.908  1.00  0.00     0.031 A 
BRANCH  53  67
ATOM     67  C   UNL A   1      41.582  32.021  35.533  1.00  0.00    -0.014 A 
ATOM     68  C   UNL A   1      40.665  31.819  36.580  1.00  0.00     0.010 A 
ATOM     69  C   UNL A   1      42.243  33.258  35.430  1.00  0.00     0.010 A 
ATOM     70  C   UNL A   1      40.384  32.849  37.482  1.00  0.00     0.020 A 
ATOM     71  C   UNL A   1      41.985  34.282  36.347  1.00  0.00     0.020 A 
ATOM     72  C   UNL A   1      41.044  34.075  37.357  1.00  0.00     0.054 A 
BRANCH  72  73
ATOM     73  S   UNL A   1      40.674  35.389  38.552  1.00  0.00     0.124 S 
ATOM     74  O   UNL A   1      41.647  36.415  38.182  1.00  0.00    -0.237 OA
ATOM     75  O   UNL A   1      39.280  35.708  38.256  1.00  0.00    -0.237 OA
ATOM     76  O   UNL A   1      40.903  34.754  39.848  1.00  0.00    -0.744 OA
ENDBRANCH  72  73
ENDBRANCH  53  67
BRANCH  54  77
ATOM     77  C   UNL A   1      43.302  25.039  28.597  1.00  0.00    -0.014 A 
ATOM     78  C   UNL A   1      44.224  25.258  27.558  1.00  0.00     0.010 A 
ATOM     79  C   UNL A   1      42.615  23.812  28.654  1.00  0.00     0.010 A 
ATOM     80  C   UNL A   1      44.437  24.277  26.584  1.00  0.00     0.020 A 
ATOM     81  C   UNL A   1      42.847  22.819  27.699  1.00  0.00     0.020 A 
ATOM     82  C   UNL A   1      43.748  23.064  26.662  1.00  0.00     0.054 A 
BRANCH  82  83
ATOM     83  S   UNL A   1      44.074  21.788  25.413  1.00  0.00     0.124 S 
ATOM     84  O   UNL A   1      43.367  20.637  25.964  1.00  0.00    -0.237 OA
ATOM     85  O   UNL A   1      43.492  22.372  24.207  1.00  0.00    -0.237 OA
ATOM     86  O   UNL A   1      45.531  21.684  25.405  1.00  0.00    -0.744 OA
ENDBRANCH  82  83
ENDBRANCH  54  77
BRANCH  66  87
ATOM     87  C   UNL A   1      46.339  26.655  34.666  1.00  0.00    -0.014 A 
ATOM     88  C   UNL A   1      46.139  25.601  35.576  1.00  0.00     0.010 A 
ATOM     89  C   UNL A   1      47.646  27.121  34.435  1.00  0.00     0.010 A 
ATOM     90  C   UNL A   1      47.220  25.059  36.277  1.00  0.00     0.020 A 
ATOM     91  C   UNL A   1      48.733  26.559  35.110  1.00  0.00     0.020 A 
ATOM     92  C   UNL A   1      48.510  25.546  36.044  1.00  0.00     0.054 A 
BRANCH  92  93
ATOM     93  S   UNL A   1      49.899  24.817  36.956  1.00  0.00     0.124 S 
ATOM     94  O   UNL A   1      51.032  25.144  36.095  1.00  0.00    -0.237 OA
ATOM     95  O   UNL A   1      49.852  25.527  38.232  1.00  0.00    -0.237 OA
ATOM     96  O   UNL A   1      49.559  23.398  37.028  1.00  0.00    -0.744 OA
ENDBRANCH  92  93
ENDBRANCH  66  87
ENDBRANCH  40  41
ENDBRANCH  33  35
ENDBRANCH  32  33
ENDBRANCH  31  32
ENDBRANCH  30  31
ENDBRANCH  29  30
ENDBRANCH  28  29
ENDBRANCH   1  28
TORSDOF 25
ENDMDL
MODEL 3
REMARK VINA RESULT:      -8.3      6.178     11.314
REMARK SMILES C[C@H]1[C@H](C(=O)OCCOCCOCCOCCOC(=O)c2ccc(-c3c4nc(c(-c5ccc(S(=O)(=O)[O-])cc5)c5ccc([nH]5)c(-c5ccc(S(=O)(=O)[O-])cc5)c5nc(c(-c6ccc(S(=O)(=O)[O-])cc6)c6ccc3[nH]6)C=C5)C=C4)cc2)CCN1C(=O)Nc1ccc(F)cc1
REMARK SMILES IDX 13 1 12 2 11 3 10 4 9 5 8 6 7 7 6 8 4 9 5 10 3 11 1 12 2 13
REMARK SMILES IDX 83 14 81 15 82 16 84 17 85 18 86 19 87 21 88 22 93 23 89 24
REMARK SMILES IDX 92 25 90 26 91 27 14 28 15 29 16 30 17 31 18 32 19 33 20 34
REMARK SMILES IDX 21 35 22 36 80 37 23 38 79 39 24 40 25 41 26 42 73 43 27 44
REMARK SMILES IDX 78 45 72 46 74 47 28 48 77 49 71 50 70 51 29 53 59 54 40 55
REMARK SMILES IDX 58 56 41 57 44 58 57 59 75 60 42 61 43 62 56 64 76 65 45 66
REMARK SMILES IDX 30 67 31 68 39 69 32 70 38 71 33 72 34 73 35 74 36 75 37 76
REMARK SMILES IDX 60 77 61 78 69 79 62 80 68 81 63 82 64 83 65 84 66 85 67 86
REMARK SMILES IDX 46 87 47 88 55 89 48 90 54 91 49 92 50 93 51 94 52 95 53 96
REMARK H PARENT 86 20 74 52 44 63
REMARK Flexibility Score: inf
ROOT
ATOM      1  C   UNL A   1      38.111  32.082  29.648  1.00  0.00     0.188 C 
ENDROOT
BRANCH   1   2
ATOM      2  O   UNL A   1      38.700  31.076  28.847  1.00  0.00    -0.377 OA
BRANCH   2   3
ATOM      3  C   UNL A   1      38.282  29.745  29.039  1.00  0.00     0.188 C 
BRANCH   3   4
ATOM      4  C   UNL A   1      36.947  29.535  29.761  1.00  0.00     0.188 C 
BRANCH   4   5
ATOM      5  O   UNL A   1      35.726  29.317  29.066  1.00  0.00    -0.376 OA
BRANCH   5   6
ATOM      6  C   UNL A   1      35.673  29.391  27.653  1.00  0.00     0.202 C 
BRANCH   6   7
ATOM      7  C   UNL A   1      34.278  29.605  27.044  1.00  0.00     0.261 C 
BRANCH   7   8
ATOM      8  O   UNL A   1      33.899  28.723  25.964  1.00  0.00    -0.463 OA
BRANCH   8   9
ATOM      9  C   UNL A   1      32.575  28.664  25.681  1.00  0.00     0.311 C 
ATOM     10  O   UNL A   1      31.680  28.946  26.473  1.00  0.00    -0.252 OA
BRANCH   9  11
ATOM     11  C   UNL A   1      32.252  28.086  24.313  1.00  0.00     0.123 C 
ATOM     12  C   UNL A   1      33.768  28.368  22.333  1.00  0.00     0.032 C 
ATOM     13  C   UNL A   1      33.354  27.402  23.454  1.00  0.00     0.098 C 
ATOM     14  N   UNL A   1      32.730  26.179  22.920  1.00  0.00    -0.321 N 
ATOM     15  C   UNL A   1      31.169  27.032  24.479  1.00  0.00     0.039 C 
ATOM     16  C   UNL A   1      31.314  26.176  23.246  1.00  0.00     0.122 C 
BRANCH  14  17
ATOM     17  C   UNL A   1      33.172  25.173  22.114  1.00  0.00     0.322 C 
ATOM     18  O   UNL A   1      33.221  25.336  20.886  1.00  0.00    -0.248 OA
ATOM     19  N   UNL A   1      33.756  24.038  22.537  1.00  0.00    -0.308 N 
ATOM     20  H   UNL A   1      34.337  23.670  21.833  1.00  0.00     0.171 HD
BRANCH  19  21
ATOM     21  C   UNL A   1      33.792  23.222  23.667  1.00  0.00     0.043 A 
ATOM     22  C   UNL A   1      32.790  22.237  23.746  1.00  0.00     0.029 A 
ATOM     23  C   UNL A   1      34.663  23.391  24.735  1.00  0.00     0.029 A 
ATOM     24  C   UNL A   1      32.716  21.367  24.834  1.00  0.00     0.041 A 
ATOM     25  C   UNL A   1      34.549  22.549  25.848  1.00  0.00     0.041 A 
ATOM     26  C   UNL A   1      33.608  21.528  25.878  1.00  0.00     0.123 A 
ATOM     27  F   UNL A   1      33.548  20.707  26.934  1.00  0.00    -0.207 F 
ENDBRANCH  19  21
ENDBRANCH  14  17
ENDBRANCH   9  11
ENDBRANCH   8   9
ENDBRANCH   7   8
ENDBRANCH   6   7
ENDBRANCH   5   6
ENDBRANCH   4   5
ENDBRANCH   3   4
ENDBRANCH   2   3
ENDBRANCH   1   2
BRANCH   1  28
ATOM     28  C   UNL A   1      37.806  33.432  28.998  1.00  0.00     0.188 C 
BRANCH  28  29
ATOM     29  O   UNL A   1      36.589  33.557  28.265  1.00  0.00    -0.376 OA
BRANCH  29  30
ATOM     30  C   UNL A   1      35.436  32.794  28.612  1.00  0.00     0.202 C 
BRANCH  30  31
ATOM     31  C   UNL A   1      34.661  33.142  29.879  1.00  0.00     0.261 C 
BRANCH  31  32
ATOM     32  O   UNL A   1      35.156  32.394  30.997  1.00  0.00    -0.460 OA
BRANCH  32  33
ATOM     33  C   UNL A   1      34.684  32.804  32.194  1.00  0.00     0.338 C 
ATOM     34  O   UNL A   1      33.531  32.757  32.581  1.00  0.00    -0.246 OA
BRANCH  33  35
ATOM     35  C   UNL A   1      35.804  33.141  33.087  1.00  0.00     0.060 A 
ATOM     36  C   UNL A   1      36.013  34.501  33.333  1.00  0.00     0.016 A 
ATOM     37  C   UNL A   1      36.703  32.179  33.559  1.00  0.00     0.016 A 
ATOM     38  C   UNL A   1      37.186  34.918  33.947  1.00  0.00     0.010 A 
ATOM     39  C   UNL A   1      37.884  32.603  34.180  1.00  0.00     0.010 A 
ATOM     40  C   UNL A   1      38.161  33.977  34.301  1.00  0.00    -0.014 A 
BRANCH  40  41
ATOM     41  C   UNL A   1      39.539  34.480  34.532  1.00  0.00     0.031 A 
ATOM     42  C   UNL A   1      40.485  34.540  33.358  1.00  0.00     0.074 A 
ATOM     43  C   UNL A   1      39.891  35.019  35.712  1.00  0.00     0.049 A 
ATOM     44  N   UNL A   1      41.671  35.085  33.277  1.00  0.00    -0.248 NA
ATOM     45  C   UNL A   1      40.029  33.911  32.106  1.00  0.00     0.031 C 
ATOM     46  C   UNL A   1      39.046  35.073  36.904  1.00  0.00     0.029 A 
ATOM     47  N   UNL A   1      41.049  35.651  36.088  1.00  0.00    -0.354 N 
ATOM     48  C   UNL A   1      42.096  34.872  31.970  1.00  0.00     0.074 A 
ATOM     49  C   UNL A   1      41.064  34.109  31.306  1.00  0.00     0.031 C 
ATOM     50  C   UNL A   1      39.710  35.722  37.878  1.00  0.00     0.029 A 
ATOM     51  C   UNL A   1      41.029  36.112  37.382  1.00  0.00     0.049 A 
ATOM     52  H   UNL A   1      41.821  35.765  35.488  1.00  0.00     0.167 HD
ATOM     53  C   UNL A   1      43.235  35.287  31.367  1.00  0.00     0.031 A 
ATOM     54  C   UNL A   1      41.968  36.776  38.086  1.00  0.00     0.031 A 
ATOM     55  C   UNL A   1      44.269  36.037  32.026  1.00  0.00     0.049 A 
ATOM     56  C   UNL A   1      43.259  37.165  37.413  1.00  0.00     0.074 A 
ATOM     57  C   UNL A   1      45.460  36.507  31.500  1.00  0.00     0.029 A 
ATOM     58  N   UNL A   1      44.240  36.421  33.358  1.00  0.00    -0.354 N 
ATOM     59  N   UNL A   1      43.633  36.979  36.169  1.00  0.00    -0.248 NA
ATOM     60  C   UNL A   1      44.247  37.874  38.239  1.00  0.00     0.031 C 
ATOM     61  C   UNL A   1      46.178  37.124  32.530  1.00  0.00     0.029 A 
ATOM     62  C   UNL A   1      45.404  37.098  33.679  1.00  0.00     0.049 A 
ATOM     63  H   UNL A   1      43.501  36.239  33.982  1.00  0.00     0.167 HD
ATOM     64  C   UNL A   1      44.885  37.575  36.056  1.00  0.00     0.074 A 
ATOM     65  C   UNL A   1      45.196  38.142  37.353  1.00  0.00     0.031 C 
ATOM     66  C   UNL A   1      45.704  37.651  34.976  1.00  0.00     0.031 A 
BRANCH  53  67
ATOM     67  C   UNL A   1      43.433  34.903  29.924  1.00  0.00    -0.014 A 
ATOM     68  C   UNL A   1      42.965  35.719  28.878  1.00  0.00     0.010 A 
ATOM     69  C   UNL A   1      44.121  33.717  29.611  1.00  0.00     0.010 A 
ATOM     70  C   UNL A   1      43.145  35.335  27.546  1.00  0.00     0.020 A 
ATOM     71  C   UNL A   1      44.328  33.343  28.280  1.00  0.00     0.020 A 
ATOM     72  C   UNL A   1      43.824  34.148  27.256  1.00  0.00     0.054 A 
BRANCH  72  73
ATOM     73  S   UNL A   1      44.060  33.682  25.520  1.00  0.00     0.124 S 
ATOM     74  O   UNL A   1      42.974  34.405  24.863  1.00  0.00    -0.237 OA
ATOM     75  O   UNL A   1      45.406  34.176  25.236  1.00  0.00    -0.237 OA
ATOM     76  O   UNL A   1      43.923  32.227  25.528  1.00  0.00    -0.744 OA
ENDBRANCH  72  73
ENDBRANCH  53  67
BRANCH  54  77
ATOM     77  C   UNL A   1      41.724  37.114  39.515  1.00  0.00    -0.014 A 
ATOM     78  C   UNL A   1      41.121  38.330  39.880  1.00  0.00     0.010 A 
ATOM     79  C   UNL A   1      42.109  36.212  40.525  1.00  0.00     0.010 A 
ATOM     80  C   UNL A   1      40.928  38.648  41.229  1.00  0.00     0.020 A 
ATOM     81  C   UNL A   1      41.891  36.514  41.872  1.00  0.00     0.020 A 
ATOM     82  C   UNL A   1      41.313  37.736  42.216  1.00  0.00     0.054 A 
BRANCH  82  83
ATOM     83  S   UNL A   1      41.012  38.148  43.957  1.00  0.00     0.124 S 
ATOM     84  O   UNL A   1      41.161  36.850  44.606  1.00  0.00    -0.237 OA
ATOM     85  O   UNL A   1      42.065  39.121  44.236  1.00  0.00    -0.237 OA
ATOM     86  O   UNL A   1      39.657  38.694  43.948  1.00  0.00    -0.744 OA
ENDBRANCH  82  83
ENDBRANCH  54  77
BRANCH  66  87
ATOM     87  C   UNL A   1      47.000  38.405  35.138  1.00  0.00    -0.014 A 
ATOM     88  C   UNL A   1      47.088  39.780  34.860  1.00  0.00     0.010 A 
ATOM     89  C   UNL A   1      48.139  37.727  35.610  1.00  0.00     0.010 A 
ATOM     90  C   UNL A   1      48.305  40.453  35.005  1.00  0.00     0.020 A 
ATOM     91  C   UNL A   1      49.350  38.404  35.786  1.00  0.00     0.020 A 
ATOM     92  C   UNL A   1      49.429  39.758  35.461  1.00  0.00     0.054 A 
BRANCH  92  93
ATOM     93  S   UNL A   1      50.994  40.657  35.653  1.00  0.00     0.124 S 
ATOM     94  O   UNL A   1      50.611  42.016  35.281  1.00  0.00    -0.237 OA
ATOM     95  O   UNL A   1      51.308  40.456  37.066  1.00  0.00    -0.237 OA
ATOM     96  O   UNL A   1      51.896  39.985  34.719  1.00  0.00    -0.744 OA
ENDBRANCH  92  93
ENDBRANCH  66  87
ENDBRANCH  40  41
ENDBRANCH  33  35
ENDBRANCH  32  33
ENDBRANCH  31  32
ENDBRANCH  30  31
ENDBRANCH  29  30
ENDBRANCH  28  29
ENDBRANCH   1  28
TORSDOF 25
ENDMDL
