MODEL 1
REMARK VINA RESULT:     -10.1      0.000      0.000
REMARK SMILES CC(C)(C)c1cc2c(cc1Cl)C=C(C(=O)OCCOCCOCCOCCOC(=O)c1ccc(-c3c4nc(c(-c5ccc(S(=O)(=O)[O-])cc5)c5ccc([nH]5)c(-c5ccc(S(=O)(=O)[O-])cc5)c5nc(c(-c6ccc(S(=O)(=O)[O-])cc6)c6ccc3[nH]6)C=C5)C=C4)cc1)[C@H](C(F)(F)F)O2
REMARK SMILES IDX 23 1 22 2 21 3 20 4 19 5 18 6 17 7 16 8 14 9 15 10 13 11
REMARK SMILES IDX 5 12 6 13 10 14 7 15 9 16 11 17 8 18 96 19 12 20 91 21 2 22
REMARK SMILES IDX 1 23 3 24 4 25 92 26 93 27 94 28 95 29 24 30 25 31 26 32
REMARK SMILES IDX 27 33 28 34 29 35 30 36 31 37 32 38 90 39 33 40 89 41 34 42
REMARK SMILES IDX 35 43 36 44 83 45 37 46 88 47 82 48 84 49 38 50 87 51 81 52
REMARK SMILES IDX 80 53 39 55 69 56 50 57 68 58 51 59 54 60 67 61 85 62 52 63
REMARK SMILES IDX 53 64 66 66 86 67 55 68 40 69 41 70 49 71 42 72 48 73 43 74
REMARK SMILES IDX 44 75 45 76 46 77 47 78 70 79 71 80 79 81 72 82 78 83 73 84
REMARK SMILES IDX 74 85 75 86 76 87 77 88 56 89 57 90 65 91 58 92 64 93 59 94
REMARK SMILES IDX 60 95 61 96 62 97 63 98
REMARK H PARENT 84 54 54 65
REMARK Flexibility Score: inf
ROOT
ATOM      1  C   UNL A   1      40.558  22.331  27.022  1.00  0.00     0.188 C 
ENDROOT
BRANCH   1   2
ATOM      2  O   UNL A   1      39.283  21.714  26.832  1.00  0.00    -0.377 OA
BRANCH   2   3
ATOM      3  C   UNL A   1      38.835  21.426  25.521  1.00  0.00     0.188 C 
BRANCH   3   4
ATOM      4  C   UNL A   1      37.325  21.199  25.385  1.00  0.00     0.188 C 
BRANCH   4   5
ATOM      5  O   UNL A   1      36.583  22.076  24.553  1.00  0.00    -0.376 OA
BRANCH   5   6
ATOM      6  C   UNL A   1      35.272  22.474  24.957  1.00  0.00     0.202 C 
BRANCH   6   7
ATOM      7  C   UNL A   1      35.081  23.377  26.189  1.00  0.00     0.261 C 
BRANCH   7   8
ATOM      8  O   UNL A   1      34.431  24.630  25.893  1.00  0.00    -0.460 OA
BRANCH   8   9
ATOM      9  C   UNL A   1      33.088  24.580  25.771  1.00  0.00     0.338 C 
ATOM     10  O   UNL A   1      32.326  23.878  26.419  1.00  0.00    -0.246 OA
BRANCH   9  11
ATOM     11  C   UNL A   1      32.595  25.630  24.864  1.00  0.00     0.087 C 
ATOM     12  C   UNL A   1      29.770  29.596  23.479  1.00  0.00    -0.020 A 
ATOM     13  C   UNL A   1      30.021  28.290  22.978  1.00  0.00     0.053 A 
ATOM     14  C   UNL A   1      30.611  30.021  24.529  1.00  0.00     0.045 A 
ATOM     15  C   UNL A   1      30.939  27.416  23.565  1.00  0.00     0.128 A 
ATOM     16  C   UNL A   1      31.535  29.137  25.121  1.00  0.00     0.032 A 
ATOM     17  Cl  UNL A   1      30.639  31.612  25.200  1.00  0.00    -0.084 Cl
ATOM     18  C   UNL A   1      31.668  27.825  24.670  1.00  0.00     0.019 A 
ATOM     19  O   UNL A   1      30.987  26.144  23.060  1.00  0.00    -0.475 OA
ATOM     20  C   UNL A   1      32.436  26.843  25.415  1.00  0.00     0.027 C 
ATOM     21  C   UNL A   1      32.086  25.282  23.495  1.00  0.00     0.316 C 
BRANCH  12  22
ATOM     22  C   UNL A   1      28.600  30.387  22.836  1.00  0.00    -0.012 C 
ATOM     23  C   UNL A   1      28.059  31.396  23.869  1.00  0.00     0.016 C 
ATOM     24  C   UNL A   1      27.401  29.566  22.312  1.00  0.00     0.016 C 
ATOM     25  C   UNL A   1      29.105  31.168  21.589  1.00  0.00     0.016 C 
ENDBRANCH  12  22
BRANCH  21  26
ATOM     26  C   UNL A   1      33.165  25.250  22.400  1.00  0.00     0.430 C 
ATOM     27  F   UNL A   1      33.876  26.397  22.349  1.00  0.00    -0.167 F 
ATOM     28  F   UNL A   1      34.062  24.257  22.644  1.00  0.00    -0.167 F 
ATOM     29  F   UNL A   1      32.651  25.012  21.171  1.00  0.00    -0.167 F 
ENDBRANCH  21  26
ENDBRANCH   9  11
ENDBRANCH   8   9
ENDBRANCH   7   8
ENDBRANCH   6   7
ENDBRANCH   5   6
ENDBRANCH   4   5
ENDBRANCH   3   4
ENDBRANCH   2   3
ENDBRANCH   1   2
BRANCH   1  30
ATOM     30  C   UNL A   1      41.816  21.575  26.568  1.00  0.00     0.188 C 
BRANCH  30  31
ATOM     31  O   UNL A   1      42.338  21.864  25.265  1.00  0.00    -0.376 OA
BRANCH  31  32
ATOM     32  C   UNL A   1      43.583  22.549  25.160  1.00  0.00     0.202 C 
BRANCH  32  33
ATOM     33  C   UNL A   1      43.467  24.053  24.923  1.00  0.00     0.261 C 
BRANCH  33  34
ATOM     34  O   UNL A   1      43.186  24.751  26.143  1.00  0.00    -0.460 OA
BRANCH  34  35
ATOM     35  C   UNL A   1      42.264  25.737  26.049  1.00  0.00     0.338 C 
ATOM     36  O   UNL A   1      41.470  25.922  25.142  1.00  0.00    -0.246 OA
BRANCH  35  37
ATOM     37  C   UNL A   1      42.238  26.484  27.322  1.00  0.00     0.060 A 
ATOM     38  C   UNL A   1      43.019  27.629  27.503  1.00  0.00     0.016 A 
ATOM     39  C   UNL A   1      41.379  26.043  28.336  1.00  0.00     0.016 A 
ATOM     40  C   UNL A   1      42.898  28.360  28.683  1.00  0.00     0.010 A 
ATOM     41  C   UNL A   1      41.255  26.776  29.514  1.00  0.00     0.010 A 
ATOM     42  C   UNL A   1      41.986  27.961  29.676  1.00  0.00    -0.014 A 
BRANCH  42  43
ATOM     43  C   UNL A   1      41.636  28.904  30.764  1.00  0.00     0.031 A 
ATOM     44  C   UNL A   1      40.470  29.833  30.667  1.00  0.00     0.074 A 
ATOM     45  C   UNL A   1      42.422  28.899  31.858  1.00  0.00     0.049 A 
ATOM     46  N   UNL A   1      39.988  30.628  31.585  1.00  0.00    -0.248 NA
ATOM     47  C   UNL A   1      39.756  29.890  29.382  1.00  0.00     0.031 C 
ATOM     48  C   UNL A   1      43.610  28.056  32.027  1.00  0.00     0.029 A 
ATOM     49  N   UNL A   1      42.342  29.598  33.035  1.00  0.00    -0.354 N 
ATOM     50  C   UNL A   1      38.900  31.264  31.006  1.00  0.00     0.074 A 
ATOM     51  C   UNL A   1      38.822  30.802  29.636  1.00  0.00     0.031 C 
ATOM     52  C   UNL A   1      44.115  28.250  33.251  1.00  0.00     0.029 A 
ATOM     53  C   UNL A   1      43.317  29.256  33.943  1.00  0.00     0.049 A 
ATOM     54  H   UNL A   1      41.653  30.279  33.212  1.00  0.00     0.167 HD
ATOM     55  C   UNL A   1      38.037  32.134  31.583  1.00  0.00     0.031 A 
ATOM     56  C   UNL A   1      43.540  29.691  35.199  1.00  0.00     0.031 A 
ATOM     57  C   UNL A   1      38.147  32.592  32.947  1.00  0.00     0.049 A 
ATOM     58  C   UNL A   1      42.584  30.679  35.800  1.00  0.00     0.074 A 
ATOM     59  C   UNL A   1      37.294  33.437  33.636  1.00  0.00     0.029 A 
ATOM     60  N   UNL A   1      39.169  32.261  33.825  1.00  0.00    -0.354 N 
ATOM     61  N   UNL A   1      41.499  31.197  35.273  1.00  0.00    -0.248 NA
ATOM     62  C   UNL A   1      42.865  31.132  37.169  1.00  0.00     0.031 C 
ATOM     63  C   UNL A   1      37.841  33.682  34.896  1.00  0.00     0.029 A 
ATOM     64  C   UNL A   1      38.991  32.920  35.032  1.00  0.00     0.049 A 
ATOM     65  H   UNL A   1      39.912  31.647  33.622  1.00  0.00     0.167 HD
ATOM     66  C   UNL A   1      40.963  32.028  36.248  1.00  0.00     0.074 A 
ATOM     67  C   UNL A   1      41.822  31.917  37.409  1.00  0.00     0.031 C 
ATOM     68  C   UNL A   1      39.861  32.817  36.180  1.00  0.00     0.031 A 
BRANCH  55  69
ATOM     69  C   UNL A   1      36.871  32.642  30.770  1.00  0.00    -0.014 A 
ATOM     70  C   UNL A   1      37.085  33.577  29.740  1.00  0.00     0.010 A 
ATOM     71  C   UNL A   1      35.551  32.323  31.136  1.00  0.00     0.010 A 
ATOM     72  C   UNL A   1      36.006  34.218  29.125  1.00  0.00     0.020 A 
ATOM     73  C   UNL A   1      34.468  32.939  30.502  1.00  0.00     0.020 A 
ATOM     74  C   UNL A   1      34.703  33.904  29.521  1.00  0.00     0.054 A 
BRANCH  74  75
ATOM     75  S   UNL A   1      33.318  34.794  28.757  1.00  0.00     0.124 S 
ATOM     76  O   UNL A   1      32.800  33.809  27.814  1.00  0.00    -0.237 OA
ATOM     77  O   UNL A   1      32.460  35.088  29.902  1.00  0.00    -0.237 OA
ATOM     78  O   UNL A   1      33.955  35.963  28.153  1.00  0.00    -0.744 OA
ENDBRANCH  74  75
ENDBRANCH  55  69
BRANCH  56  79
ATOM     79  C   UNL A   1      44.688  29.131  35.965  1.00  0.00    -0.014 A 
ATOM     80  C   UNL A   1      45.956  29.740  35.895  1.00  0.00     0.010 A 
ATOM     81  C   UNL A   1      44.548  27.933  36.686  1.00  0.00     0.010 A 
ATOM     82  C   UNL A   1      47.072  29.130  36.471  1.00  0.00     0.020 A 
ATOM     83  C   UNL A   1      45.657  27.338  37.297  1.00  0.00     0.020 A 
ATOM     84  C   UNL A   1      46.916  27.923  37.157  1.00  0.00     0.054 A 
BRANCH  84  85
ATOM     85  S   UNL A   1      48.390  27.117  37.842  1.00  0.00     0.124 S 
ATOM     86  O   UNL A   1      48.612  27.890  39.062  1.00  0.00    -0.237 OA
ATOM     87  O   UNL A   1      47.938  25.743  38.041  1.00  0.00    -0.237 OA
ATOM     88  O   UNL A   1      49.396  27.297  36.798  1.00  0.00    -0.744 OA
ENDBRANCH  84  85
ENDBRANCH  56  79
BRANCH  68  89
ATOM     89  C   UNL A   1      39.519  33.657  37.387  1.00  0.00    -0.014 A 
ATOM     90  C   UNL A   1      40.033  34.963  37.504  1.00  0.00     0.010 A 
ATOM     91  C   UNL A   1      38.793  33.112  38.460  1.00  0.00     0.010 A 
ATOM     92  C   UNL A   1      39.862  35.691  38.684  1.00  0.00     0.020 A 
ATOM     93  C   UNL A   1      38.587  33.851  39.629  1.00  0.00     0.020 A 
ATOM     94  C   UNL A   1      39.147  35.125  39.744  1.00  0.00     0.054 A 
BRANCH  94  95
ATOM     95  S   UNL A   1      38.968  36.072  41.280  1.00  0.00     0.124 S 
ATOM     96  O   UNL A   1      40.225  35.786  41.966  1.00  0.00    -0.237 OA
ATOM     97  O   UNL A   1      38.813  37.442  40.795  1.00  0.00    -0.237 OA
ATOM     98  O   UNL A   1      37.775  35.499  41.899  1.00  0.00    -0.744 OA
ENDBRANCH  94  95
ENDBRANCH  68  89
ENDBRANCH  42  43
ENDBRANCH  35  37
ENDBRANCH  34  35
ENDBRANCH  33  34
ENDBRANCH  32  33
ENDBRANCH  31  32
ENDBRANCH  30  31
ENDBRANCH   1  30
TORSDOF 25
ENDMDL
MODEL 2
REMARK VINA RESULT:      -9.5      1.194      7.872
REMARK SMILES CC(C)(C)c1cc2c(cc1Cl)C=C(C(=O)OCCOCCOCCOCCOC(=O)c1ccc(-c3c4nc(c(-c5ccc(S(=O)(=O)[O-])cc5)c5ccc([nH]5)c(-c5ccc(S(=O)(=O)[O-])cc5)c5nc(c(-c6ccc(S(=O)(=O)[O-])cc6)c6ccc3[nH]6)C=C5)C=C4)cc1)[C@H](C(F)(F)F)O2
REMARK SMILES IDX 23 1 22 2 21 3 20 4 19 5 18 6 17 7 16 8 14 9 15 10 13 11
REMARK SMILES IDX 5 12 6 13 10 14 7 15 9 16 11 17 8 18 96 19 12 20 91 21 2 22
REMARK SMILES IDX 1 23 3 24 4 25 92 26 93 27 94 28 95 29 24 30 25 31 26 32
REMARK SMILES IDX 27 33 28 34 29 35 30 36 31 37 32 38 90 39 33 40 89 41 34 42
REMARK SMILES IDX 35 43 36 44 83 45 37 46 88 47 82 48 84 49 38 50 87 51 81 52
REMARK SMILES IDX 80 53 39 55 69 56 50 57 68 58 51 59 54 60 67 61 85 62 52 63
REMARK SMILES IDX 53 64 66 66 86 67 55 68 40 69 41 70 49 71 42 72 48 73 43 74
REMARK SMILES IDX 44 75 45 76 46 77 47 78 70 79 71 80 79 81 72 82 78 83 73 84
REMARK SMILES IDX 74 85 75 86 76 87 77 88 56 89 57 90 65 91 58 92 64 93 59 94
REMARK SMILES IDX 60 95 61 96 62 97 63 98
REMARK H PARENT 84 54 54 65
REMARK Flexibility Score: inf
ROOT
ATOM      1  C   UNL A   1      39.437  24.797  26.848  1.00  0.00     0.188 C 
ENDROOT
BRANCH   1   2
ATOM      2  O   UNL A   1      38.106  24.303  26.681  1.00  0.00    -0.377 OA
BRANCH   2   3
ATOM      3  C   UNL A   1      37.790  23.520  25.545  1.00  0.00     0.188 C 
BRANCH   3   4
ATOM      4  C   UNL A   1      36.551  22.629  25.694  1.00  0.00     0.188 C 
BRANCH   4   5
ATOM      5  O   UNL A   1      35.490  22.788  24.766  1.00  0.00    -0.376 OA
BRANCH   5   6
ATOM      6  C   UNL A   1      34.142  22.711  25.232  1.00  0.00     0.202 C 
BRANCH   6   7
ATOM      7  C   UNL A   1      33.666  23.616  26.383  1.00  0.00     0.261 C 
BRANCH   7   8
ATOM      8  O   UNL A   1      32.592  24.504  26.014  1.00  0.00    -0.460 OA
BRANCH   8   9
ATOM      9  C   UNL A   1      32.019  24.267  24.816  1.00  0.00     0.338 C 
ATOM     10  O   UNL A   1      31.614  23.189  24.407  1.00  0.00    -0.246 OA
BRANCH   9  11
ATOM     11  C   UNL A   1      31.758  25.521  24.091  1.00  0.00     0.087 C 
ATOM     12  C   UNL A   1      29.658  30.060  23.303  1.00  0.00    -0.020 A 
ATOM     13  C   UNL A   1      29.759  28.837  22.586  1.00  0.00     0.053 A 
ATOM     14  C   UNL A   1      30.463  30.160  24.458  1.00  0.00     0.045 A 
ATOM     15  C   UNL A   1      30.489  27.742  23.053  1.00  0.00     0.128 A 
ATOM     16  C   UNL A   1      31.198  29.053  24.927  1.00  0.00     0.032 A 
ATOM     17  Cl  UNL A   1      30.666  31.588  25.409  1.00  0.00    -0.084 Cl
ATOM     18  C   UNL A   1      31.178  27.834  24.252  1.00  0.00     0.019 A 
ATOM     19  O   UNL A   1      30.395  26.585  22.327  1.00  0.00    -0.475 OA
ATOM     20  C   UNL A   1      31.732  26.631  24.845  1.00  0.00     0.027 C 
ATOM     21  C   UNL A   1      31.318  25.499  22.655  1.00  0.00     0.316 C 
BRANCH  12  22
ATOM     22  C   UNL A   1      28.671  31.123  22.754  1.00  0.00    -0.012 C 
ATOM     23  C   UNL A   1      28.190  30.677  21.359  1.00  0.00     0.016 C 
ATOM     24  C   UNL A   1      29.195  32.570  22.627  1.00  0.00     0.016 C 
ATOM     25  C   UNL A   1      27.437  31.243  23.695  1.00  0.00     0.016 C 
ENDBRANCH  12  22
BRANCH  21  26
ATOM     26  C   UNL A   1      32.467  25.488  21.634  1.00  0.00     0.430 C 
ATOM     27  F   UNL A   1      32.044  25.781  20.385  1.00  0.00    -0.167 F 
ATOM     28  F   UNL A   1      33.397  26.428  21.951  1.00  0.00    -0.167 F 
ATOM     29  F   UNL A   1      33.116  24.300  21.596  1.00  0.00    -0.167 F 
ENDBRANCH  21  26
ENDBRANCH   9  11
ENDBRANCH   8   9
ENDBRANCH   7   8
ENDBRANCH   6   7
ENDBRANCH   5   6
ENDBRANCH   4   5
ENDBRANCH   3   4
ENDBRANCH   2   3
ENDBRANCH   1   2
BRANCH   1  30
ATOM     30  C   UNL A   1      40.570  23.788  27.093  1.00  0.00     0.188 C 
BRANCH  30  31
ATOM     31  O   UNL A   1      41.618  23.708  26.119  1.00  0.00    -0.376 OA
BRANCH  31  32
ATOM     32  C   UNL A   1      42.704  22.814  26.350  1.00  0.00     0.202 C 
BRANCH  32  33
ATOM     33  C   UNL A   1      44.088  23.425  26.151  1.00  0.00     0.261 C 
BRANCH  33  34
ATOM     34  O   UNL A   1      44.340  24.462  27.110  1.00  0.00    -0.460 OA
BRANCH  34  35
ATOM     35  C   UNL A   1      44.343  25.722  26.616  1.00  0.00     0.338 C 
ATOM     36  O   UNL A   1      44.722  26.082  25.513  1.00  0.00    -0.246 OA
BRANCH  35  37
ATOM     37  C   UNL A   1      43.643  26.606  27.568  1.00  0.00     0.060 A 
ATOM     38  C   UNL A   1      42.850  26.079  28.591  1.00  0.00     0.016 A 
ATOM     39  C   UNL A   1      43.823  27.989  27.448  1.00  0.00     0.016 A 
ATOM     40  C   UNL A   1      42.280  26.941  29.527  1.00  0.00     0.010 A 
ATOM     41  C   UNL A   1      43.256  28.851  28.386  1.00  0.00     0.010 A 
ATOM     42  C   UNL A   1      42.514  28.326  29.453  1.00  0.00    -0.014 A 
BRANCH  42  43
ATOM     43  C   UNL A   1      42.179  29.184  30.613  1.00  0.00     0.031 A 
ATOM     44  C   UNL A   1      43.052  29.263  31.824  1.00  0.00     0.074 A 
ATOM     45  C   UNL A   1      41.038  29.897  30.541  1.00  0.00     0.049 A 
ATOM     46  N   UNL A   1      42.935  30.052  32.858  1.00  0.00    -0.248 NA
ATOM     47  C   UNL A   1      44.195  28.339  31.893  1.00  0.00     0.031 C 
ATOM     48  C   UNL A   1      40.097  29.853  29.417  1.00  0.00     0.029 A 
ATOM     49  N   UNL A   1      40.480  30.804  31.405  1.00  0.00    -0.354 N 
ATOM     50  C   UNL A   1      43.998  29.746  33.694  1.00  0.00     0.074 A 
ATOM     51  C   UNL A   1      44.723  28.658  33.071  1.00  0.00     0.031 C 
ATOM     52  C   UNL A   1      39.110  30.729  29.637  1.00  0.00     0.029 A 
ATOM     53  C   UNL A   1      39.319  31.370  30.931  1.00  0.00     0.049 A 
ATOM     54  H   UNL A   1      40.872  31.027  32.280  1.00  0.00     0.167 HD
ATOM     55  C   UNL A   1      44.342  30.340  34.861  1.00  0.00     0.031 A 
ATOM     56  C   UNL A   1      38.517  32.311  31.467  1.00  0.00     0.031 A 
ATOM     57  C   UNL A   1      43.590  31.412  35.469  1.00  0.00     0.049 A 
ATOM     58  C   UNL A   1      38.908  32.931  32.777  1.00  0.00     0.074 A 
ATOM     59  C   UNL A   1      43.886  32.112  36.627  1.00  0.00     0.029 A 
ATOM     60  N   UNL A   1      42.398  31.933  34.987  1.00  0.00    -0.354 N 
ATOM     61  N   UNL A   1      39.973  32.700  33.508  1.00  0.00    -0.248 NA
ATOM     62  C   UNL A   1      38.005  33.948  33.329  1.00  0.00     0.031 C 
ATOM     63  C   UNL A   1      42.835  32.992  36.888  1.00  0.00     0.029 A 
ATOM     64  C   UNL A   1      41.924  32.911  35.846  1.00  0.00     0.049 A 
ATOM     65  H   UNL A   1      41.955  31.649  34.154  1.00  0.00     0.167 HD
ATOM     66  C   UNL A   1      39.874  33.550  34.602  1.00  0.00     0.074 A 
ATOM     67  C   UNL A   1      38.663  34.325  34.419  1.00  0.00     0.031 C 
ATOM     68  C   UNL A   1      40.708  33.669  35.665  1.00  0.00     0.031 A 
BRANCH  55  69
ATOM     69  C   UNL A   1      45.596  29.883  35.564  1.00  0.00    -0.014 A 
ATOM     70  C   UNL A   1      46.845  30.417  35.193  1.00  0.00     0.010 A 
ATOM     71  C   UNL A   1      45.557  28.810  36.472  1.00  0.00     0.010 A 
ATOM     72  C   UNL A   1      48.031  29.855  35.676  1.00  0.00     0.020 A 
ATOM     73  C   UNL A   1      46.740  28.266  36.983  1.00  0.00     0.020 A 
ATOM     74  C   UNL A   1      47.970  28.772  36.558  1.00  0.00     0.054 A 
BRANCH  74  75
ATOM     75  S   UNL A   1      49.519  28.016  37.123  1.00  0.00     0.124 S 
ATOM     76  O   UNL A   1      49.053  26.778  37.739  1.00  0.00    -0.237 OA
ATOM     77  O   UNL A   1      50.268  27.861  35.878  1.00  0.00    -0.237 OA
ATOM     78  O   UNL A   1      50.066  29.007  38.048  1.00  0.00    -0.744 OA
ENDBRANCH  74  75
ENDBRANCH  55  69
BRANCH  56  79
ATOM     79  C   UNL A   1      37.308  32.746  30.713  1.00  0.00    -0.014 A 
ATOM     80  C   UNL A   1      37.418  33.695  29.678  1.00  0.00     0.010 A 
ATOM     81  C   UNL A   1      36.032  32.295  31.090  1.00  0.00     0.010 A 
ATOM     82  C   UNL A   1      36.276  34.233  29.081  1.00  0.00     0.020 A 
ATOM     83  C   UNL A   1      34.887  32.804  30.468  1.00  0.00     0.020 A 
ATOM     84  C   UNL A   1      35.016  33.793  29.492  1.00  0.00     0.054 A 
BRANCH  84  85
ATOM     85  S   UNL A   1      33.546  34.553  28.747  1.00  0.00     0.124 S 
ATOM     86  O   UNL A   1      34.108  35.757  28.140  1.00  0.00    -0.237 OA
ATOM     87  O   UNL A   1      33.098  33.526  27.810  1.00  0.00    -0.237 OA
ATOM     88  O   UNL A   1      32.663  34.782  29.888  1.00  0.00    -0.744 OA
ENDBRANCH  84  85
ENDBRANCH  56  79
BRANCH  68  89
ATOM     89  C   UNL A   1      40.339  34.657  36.744  1.00  0.00    -0.014 A 
ATOM     90  C   UNL A   1      40.951  35.926  36.777  1.00  0.00     0.010 A 
ATOM     91  C   UNL A   1      39.481  34.288  37.795  1.00  0.00     0.010 A 
ATOM     92  C   UNL A   1      40.744  36.787  37.858  1.00  0.00     0.020 A 
ATOM     93  C   UNL A   1      39.241  35.162  38.860  1.00  0.00     0.020 A 
ATOM     94  C   UNL A   1      39.897  36.395  38.898  1.00  0.00     0.054 A 
BRANCH  94  95
ATOM     95  S   UNL A   1      39.671  37.511  40.308  1.00  0.00     0.124 S 
ATOM     96  O   UNL A   1      38.224  37.708  40.316  1.00  0.00    -0.237 OA
ATOM     97  O   UNL A   1      40.207  36.732  41.422  1.00  0.00    -0.237 OA
ATOM     98  O   UNL A   1      40.459  38.688  39.945  1.00  0.00    -0.744 OA
ENDBRANCH  94  95
ENDBRANCH  68  89
ENDBRANCH  42  43
ENDBRANCH  35  37
ENDBRANCH  34  35
ENDBRANCH  33  34
ENDBRANCH  32  33
ENDBRANCH  31  32
ENDBRANCH  30  31
ENDBRANCH   1  30
TORSDOF 25
ENDMDL
MODEL 3
REMARK VINA RESULT:      -8.7      4.282      9.786
REMARK SMILES CC(C)(C)c1cc2c(cc1Cl)C=C(C(=O)OCCOCCOCCOCCOC(=O)c1ccc(-c3c4nc(c(-c5ccc(S(=O)(=O)[O-])cc5)c5ccc([nH]5)c(-c5ccc(S(=O)(=O)[O-])cc5)c5nc(c(-c6ccc(S(=O)(=O)[O-])cc6)c6ccc3[nH]6)C=C5)C=C4)cc1)[C@H](C(F)(F)F)O2
REMARK SMILES IDX 23 1 22 2 21 3 20 4 19 5 18 6 17 7 16 8 14 9 15 10 13 11
REMARK SMILES IDX 5 12 6 13 10 14 7 15 9 16 11 17 8 18 96 19 12 20 91 21 2 22
REMARK SMILES IDX 1 23 3 24 4 25 92 26 93 27 94 28 95 29 24 30 25 31 26 32
REMARK SMILES IDX 27 33 28 34 29 35 30 36 31 37 32 38 90 39 33 40 89 41 34 42
REMARK SMILES IDX 35 43 36 44 83 45 37 46 88 47 82 48 84 49 38 50 87 51 81 52
REMARK SMILES IDX 80 53 39 55 69 56 50 57 68 58 51 59 54 60 67 61 85 62 52 63
REMARK SMILES IDX 53 64 66 66 86 67 55 68 40 69 41 70 49 71 42 72 48 73 43 74
REMARK SMILES IDX 44 75 45 76 46 77 47 78 70 79 71 80 79 81 72 82 78 83 73 84
REMARK SMILES IDX 74 85 75 86 76 87 77 88 56 89 57 90 65 91 58 92 64 93 59 94
REMARK SMILES IDX 60 95 61 96 62 97 63 98
REMARK H PARENT 84 54 54 65
REMARK Flexibility Score: inf
ROOT
ATOM      1  C   UNL A   1      33.378  26.847  25.567  1.00  0.00     0.188 C 
ENDROOT
BRANCH   1   2
ATOM      2  O   UNL A   1      33.326  26.858  24.139  1.00  0.00    -0.377 OA
BRANCH   2   3
ATOM      3  C   UNL A   1      33.741  25.715  23.416  1.00  0.00     0.188 C 
BRANCH   3   4
ATOM      4  C   UNL A   1      33.967  24.457  24.263  1.00  0.00     0.188 C 
BRANCH   4   5
ATOM      5  O   UNL A   1      35.301  24.029  24.492  1.00  0.00    -0.376 OA
BRANCH   5   6
ATOM      6  C   UNL A   1      35.838  22.973  23.694  1.00  0.00     0.202 C 
BRANCH   6   7
ATOM      7  C   UNL A   1      37.184  22.327  24.067  1.00  0.00     0.261 C 
BRANCH   7   8
ATOM      8  O   UNL A   1      37.646  22.672  25.389  1.00  0.00    -0.460 OA
BRANCH   8   9
ATOM      9  C   UNL A   1      38.674  21.937  25.861  1.00  0.00     0.338 C 
ATOM     10  O   UNL A   1      38.907  20.765  25.605  1.00  0.00    -0.246 OA
BRANCH   9  11
ATOM     11  C   UNL A   1      39.629  22.774  26.608  1.00  0.00     0.087 C 
ATOM     12  C   UNL A   1      41.786  27.090  28.141  1.00  0.00    -0.020 A 
ATOM     13  C   UNL A   1      42.226  25.878  27.543  1.00  0.00     0.053 A 
ATOM     14  C   UNL A   1      40.453  27.094  28.605  1.00  0.00     0.045 A 
ATOM     15  C   UNL A   1      41.372  24.802  27.291  1.00  0.00     0.128 A 
ATOM     16  C   UNL A   1      39.593  26.008  28.348  1.00  0.00     0.032 A 
ATOM     17  Cl  UNL A   1      39.722  28.363  29.520  1.00  0.00    -0.084 Cl
ATOM     18  C   UNL A   1      40.038  24.883  27.656  1.00  0.00     0.019 A 
ATOM     19  O   UNL A   1      41.899  23.748  26.593  1.00  0.00    -0.475 OA
ATOM     20  C   UNL A   1      39.111  23.871  27.181  1.00  0.00     0.027 C 
ATOM     21  C   UNL A   1      41.106  22.522  26.514  1.00  0.00     0.316 C 
BRANCH  12  22
ATOM     22  C   UNL A   1      42.801  28.261  28.196  1.00  0.00    -0.012 C 
ATOM     23  C   UNL A   1      43.995  27.924  27.280  1.00  0.00     0.016 C 
ATOM     24  C   UNL A   1      43.367  28.637  29.583  1.00  0.00     0.016 C 
ATOM     25  C   UNL A   1      42.133  29.572  27.687  1.00  0.00     0.016 C 
ENDBRANCH  12  22
BRANCH  21  26
ATOM     26  C   UNL A   1      41.648  21.505  27.532  1.00  0.00     0.430 C 
ATOM     27  F   UNL A   1      42.317  22.100  28.543  1.00  0.00    -0.167 F 
ATOM     28  F   UNL A   1      40.627  20.814  28.106  1.00  0.00    -0.167 F 
ATOM     29  F   UNL A   1      42.464  20.586  26.963  1.00  0.00    -0.167 F 
ENDBRANCH  21  26
ENDBRANCH   9  11
ENDBRANCH   8   9
ENDBRANCH   7   8
ENDBRANCH   6   7
ENDBRANCH   5   6
ENDBRANCH   4   5
ENDBRANCH   3   4
ENDBRANCH   2   3
ENDBRANCH   1   2
BRANCH   1  30
ATOM     30  C   UNL A   1      33.791  28.133  26.299  1.00  0.00     0.188 C 
BRANCH  30  31
ATOM     31  O   UNL A   1      33.142  29.355  25.924  1.00  0.00    -0.376 OA
BRANCH  31  32
ATOM     32  C   UNL A   1      32.255  29.975  26.851  1.00  0.00     0.202 C 
BRANCH  32  33
ATOM     33  C   UNL A   1      32.425  31.486  26.985  1.00  0.00     0.261 C 
BRANCH  33  34
ATOM     34  O   UNL A   1      33.524  31.811  27.846  1.00  0.00    -0.460 OA
BRANCH  34  35
ATOM     35  C   UNL A   1      33.499  33.056  28.377  1.00  0.00     0.338 C 
ATOM     36  O   UNL A   1      32.702  33.947  28.131  1.00  0.00    -0.246 OA
BRANCH  35  37
ATOM     37  C   UNL A   1      34.502  33.132  29.456  1.00  0.00     0.060 A 
ATOM     38  C   UNL A   1      35.235  32.006  29.841  1.00  0.00     0.016 A 
ATOM     39  C   UNL A   1      34.734  34.372  30.063  1.00  0.00     0.016 A 
ATOM     40  C   UNL A   1      36.238  32.137  30.799  1.00  0.00     0.010 A 
ATOM     41  C   UNL A   1      35.740  34.505  31.018  1.00  0.00     0.010 A 
ATOM     42  C   UNL A   1      36.524  33.394  31.362  1.00  0.00    -0.014 A 
BRANCH  42  43
ATOM     43  C   UNL A   1      37.780  33.583  32.123  1.00  0.00     0.031 A 
ATOM     44  C   UNL A   1      37.814  33.584  33.617  1.00  0.00     0.074 A 
ATOM     45  C   UNL A   1      38.909  33.764  31.410  1.00  0.00     0.049 A 
ATOM     46  N   UNL A   1      38.855  33.627  34.405  1.00  0.00    -0.248 NA
ATOM     47  C   UNL A   1      36.523  33.538  34.322  1.00  0.00     0.031 C 
ATOM     48  C   UNL A   1      38.970  33.821  29.946  1.00  0.00     0.029 A 
ATOM     49  N   UNL A   1      40.215  33.913  31.802  1.00  0.00    -0.354 N 
ATOM     50  C   UNL A   1      38.357  33.589  35.699  1.00  0.00     0.074 A 
ATOM     51  C   UNL A   1      36.913  33.572  35.593  1.00  0.00     0.031 C 
ATOM     52  C   UNL A   1      40.248  33.941  29.565  1.00  0.00     0.029 A 
ATOM     53  C   UNL A   1      41.095  34.010  30.750  1.00  0.00     0.049 A 
ATOM     54  H   UNL A   1      40.494  33.946  32.746  1.00  0.00     0.167 HD
ATOM     55  C   UNL A   1      39.051  33.549  36.861  1.00  0.00     0.031 A 
ATOM     56  C   UNL A   1      42.438  34.127  30.735  1.00  0.00     0.031 A 
ATOM     57  C   UNL A   1      40.492  33.585  36.939  1.00  0.00     0.049 A 
ATOM     58  C   UNL A   1      43.178  34.110  32.041  1.00  0.00     0.074 A 
ATOM     59  C   UNL A   1      41.288  33.500  38.068  1.00  0.00     0.029 A 
ATOM     60  N   UNL A   1      41.352  33.727  35.859  1.00  0.00    -0.354 N 
ATOM     61  N   UNL A   1      42.698  33.972  33.254  1.00  0.00    -0.248 NA
ATOM     62  C   UNL A   1      44.639  34.246  31.981  1.00  0.00     0.031 C 
ATOM     63  C   UNL A   1      42.618  33.675  37.682  1.00  0.00     0.029 A 
ATOM     64  C   UNL A   1      42.665  33.778  36.300  1.00  0.00     0.049 A 
ATOM     65  H   UNL A   1      41.070  33.782  34.916  1.00  0.00     0.167 HD
ATOM     66  C   UNL A   1      43.797  33.994  34.102  1.00  0.00     0.074 A 
ATOM     67  C   UNL A   1      44.970  34.123  33.261  1.00  0.00     0.031 C 
ATOM     68  C   UNL A   1      43.828  33.922  35.457  1.00  0.00     0.031 A 
BRANCH  55  69
ATOM     69  C   UNL A   1      38.287  33.432  38.157  1.00  0.00    -0.014 A 
ATOM     70  C   UNL A   1      38.431  34.418  39.151  1.00  0.00     0.010 A 
ATOM     71  C   UNL A   1      37.559  32.266  38.455  1.00  0.00     0.010 A 
ATOM     72  C   UNL A   1      37.907  34.220  40.431  1.00  0.00     0.020 A 
ATOM     73  C   UNL A   1      37.005  32.078  39.726  1.00  0.00     0.020 A 
ATOM     74  C   UNL A   1      37.208  33.043  40.714  1.00  0.00     0.054 A 
BRANCH  74  75
ATOM     75  S   UNL A   1      36.592  32.776  42.399  1.00  0.00     0.124 S 
ATOM     76  O   UNL A   1      36.020  31.436  42.311  1.00  0.00    -0.237 OA
ATOM     77  O   UNL A   1      37.805  32.895  43.204  1.00  0.00    -0.237 OA
ATOM     78  O   UNL A   1      35.625  33.857  42.585  1.00  0.00    -0.744 OA
ENDBRANCH  74  75
ENDBRANCH  55  69
BRANCH  56  79
ATOM     79  C   UNL A   1      43.142  34.207  29.425  1.00  0.00    -0.014 A 
ATOM     80  C   UNL A   1      43.694  33.050  28.841  1.00  0.00     0.010 A 
ATOM     81  C   UNL A   1      43.355  35.450  28.804  1.00  0.00     0.010 A 
ATOM     82  C   UNL A   1      44.498  33.140  27.704  1.00  0.00     0.020 A 
ATOM     83  C   UNL A   1      44.130  35.540  27.642  1.00  0.00     0.020 A 
ATOM     84  C   UNL A   1      44.723  34.389  27.120  1.00  0.00     0.054 A 
BRANCH  84  85
ATOM     85  S   UNL A   1      45.822  34.489  25.681  1.00  0.00     0.124 S 
ATOM     86  O   UNL A   1      46.286  35.873  25.755  1.00  0.00    -0.237 OA
ATOM     87  O   UNL A   1      46.828  33.472  25.977  1.00  0.00    -0.237 OA
ATOM     88  O   UNL A   1      44.943  34.185  24.555  1.00  0.00    -0.744 OA
ENDBRANCH  84  85
ENDBRANCH  56  79
BRANCH  68  89
ATOM     89  C   UNL A   1      45.172  34.007  36.137  1.00  0.00    -0.014 A 
ATOM     90  C   UNL A   1      45.917  32.836  36.375  1.00  0.00     0.010 A 
ATOM     91  C   UNL A   1      45.642  35.229  36.651  1.00  0.00     0.010 A 
ATOM     92  C   UNL A   1      47.081  32.878  37.146  1.00  0.00     0.020 A 
ATOM     93  C   UNL A   1      46.827  35.282  37.391  1.00  0.00     0.020 A 
ATOM     94  C   UNL A   1      47.524  34.101  37.658  1.00  0.00     0.054 A 
BRANCH  94  95
ATOM     95  S   UNL A   1      49.017  34.129  38.686  1.00  0.00     0.124 S 
ATOM     96  O   UNL A   1      49.200  32.715  39.001  1.00  0.00    -0.237 OA
ATOM     97  O   UNL A   1      50.013  34.709  37.789  1.00  0.00    -0.237 OA
ATOM     98  O   UNL A   1      48.640  34.975  39.817  1.00  0.00    -0.744 OA
ENDBRANCH  94  95
ENDBRANCH  68  89
ENDBRANCH  42  43
ENDBRANCH  35  37
ENDBRANCH  34  35
ENDBRANCH  33  34
ENDBRANCH  32  33
ENDBRANCH  31  32
ENDBRANCH  30  31
ENDBRANCH   1  30
TORSDOF 25
ENDMDL
