MODEL 1
REMARK VINA RESULT:      -8.0      0.000      0.000
REMARK SMILES CC[C@@H](C(=O)OCCOCCOCCOCCOC(=O)c1ccc(-c2c3nc(c(-c4ccc(S(=O)(=O)[O-])cc4)c4ccc([nH]4)c(-c4ccc(S(=O)(=O)[O-])cc4)c4nc(c(-c5ccc(S(=O)(=O)[O-])cc5)c5ccc2[nH]5)C=C4)C=C3)cc1)N1C(=O)/C(=C/C(C)=C/c2ccccc2)SC1=S
REMARK SMILES IDX 12 1 11 2 10 3 9 4 8 5 7 6 6 7 4 8 5 9 3 10 2 11 1 12 81 13
REMARK SMILES IDX 82 14 96 15 83 16 84 17 95 18 97 19 85 20 86 21 87 22 88 23
REMARK SMILES IDX 89 24 90 25 94 26 91 27 93 28 92 29 13 30 14 31 15 32 16 33
REMARK SMILES IDX 17 34 18 35 19 36 20 37 21 38 22 39 80 40 23 41 79 42 24 43
REMARK SMILES IDX 25 44 26 45 73 46 27 47 78 48 72 49 74 50 28 51 77 52 71 53
REMARK SMILES IDX 70 54 29 56 59 57 40 58 58 59 41 60 44 61 57 62 75 63 42 64
REMARK SMILES IDX 43 65 56 67 76 68 45 69 30 70 31 71 39 72 32 73 38 74 33 75
REMARK SMILES IDX 34 76 35 77 36 78 37 79 60 80 61 81 69 82 62 83 68 84 63 85
REMARK SMILES IDX 64 86 65 87 66 88 67 89 46 90 47 91 55 92 48 93 54 94 49 95
REMARK SMILES IDX 50 96 51 97 52 98 53 99
REMARK H PARENT 74 55 44 66
REMARK Flexibility Score: inf
ROOT
ATOM      1  O   UNL A   1      36.600  30.812  29.227  1.00  0.00    -0.377 OA
ENDROOT
BRANCH   1   2
ATOM      2  C   UNL A   1      35.654  30.056  28.488  1.00  0.00     0.188 C 
BRANCH   2   3
ATOM      3  C   UNL A   1      34.763  30.781  27.461  1.00  0.00     0.188 C 
BRANCH   3   4
ATOM      4  O   UNL A   1      33.379  30.558  27.649  1.00  0.00    -0.376 OA
BRANCH   4   5
ATOM      5  C   UNL A   1      32.691  29.706  26.747  1.00  0.00     0.202 C 
BRANCH   5   6
ATOM      6  C   UNL A   1      33.131  29.562  25.277  1.00  0.00     0.261 C 
BRANCH   6   7
ATOM      7  O   UNL A   1      32.141  28.966  24.427  1.00  0.00    -0.462 OA
BRANCH   7   8
ATOM      8  C   UNL A   1      32.513  28.018  23.536  1.00  0.00     0.329 C 
ATOM      9  O   UNL A   1      33.478  28.106  22.788  1.00  0.00    -0.250 OA
BRANCH   8  10
ATOM     10  C   UNL A   1      31.587  26.774  23.596  1.00  0.00     0.201 C 
BRANCH  10  11
ATOM     11  C   UNL A   1      30.301  27.050  24.443  1.00  0.00     0.034 C 
ATOM     12  C   UNL A   1      28.919  26.862  23.832  1.00  0.00     0.007 C 
ENDBRANCH  10  11
BRANCH  10  13
ATOM     13  N   UNL A   1      32.273  25.469  23.964  1.00  0.00    -0.278 N 
ATOM     14  C   UNL A   1      31.693  24.244  23.634  1.00  0.00     0.266 C 
ATOM     15  C   UNL A   1      33.300  25.336  24.884  1.00  0.00     0.149 C 
ATOM     16  O   UNL A   1      30.666  24.068  22.996  1.00  0.00    -0.268 OA
ATOM     17  C   UNL A   1      32.474  23.091  24.201  1.00  0.00     0.080 C 
ATOM     18  S   UNL A   1      33.937  23.698  24.835  1.00  0.00    -0.054 SA
ATOM     19  S   UNL A   1      33.913  26.405  26.009  1.00  0.00    -0.052 S 
ATOM     20  C   UNL A   1      31.989  21.837  24.239  1.00  0.00     0.024 C 
BRANCH  20  21
ATOM     21  C   UNL A   1      32.523  20.596  24.839  1.00  0.00    -0.049 C 
ATOM     22  C   UNL A   1      33.165  20.783  26.196  1.00  0.00     0.044 C 
ATOM     23  C   UNL A   1      32.590  19.423  24.171  1.00  0.00     0.011 C 
BRANCH  23  24
ATOM     24  C   UNL A   1      33.102  18.098  24.582  1.00  0.00    -0.025 A 
ATOM     25  C   UNL A   1      34.305  17.660  24.001  1.00  0.00     0.008 A 
ATOM     26  C   UNL A   1      32.400  17.206  25.400  1.00  0.00     0.008 A 
ATOM     27  C   UNL A   1      34.799  16.376  24.242  1.00  0.00     0.001 A 
ATOM     28  C   UNL A   1      32.902  15.922  25.652  1.00  0.00     0.001 A 
ATOM     29  C   UNL A   1      34.098  15.506  25.071  1.00  0.00     0.000 A 
ENDBRANCH  23  24
ENDBRANCH  20  21
ENDBRANCH  10  13
ENDBRANCH   8  10
ENDBRANCH   7   8
ENDBRANCH   6   7
ENDBRANCH   5   6
ENDBRANCH   4   5
ENDBRANCH   3   4
ENDBRANCH   2   3
ENDBRANCH   1   2
BRANCH   1  30
ATOM     30  C   UNL A   1      37.852  30.225  29.580  1.00  0.00     0.188 C 
BRANCH  30  31
ATOM     31  C   UNL A   1      38.043  28.690  29.593  1.00  0.00     0.188 C 
BRANCH  31  32
ATOM     32  O   UNL A   1      39.391  28.249  29.551  1.00  0.00    -0.376 OA
BRANCH  32  33
ATOM     33  C   UNL A   1      39.782  27.445  28.449  1.00  0.00     0.202 C 
BRANCH  33  34
ATOM     34  C   UNL A   1      40.100  28.165  27.130  1.00  0.00     0.261 C 
BRANCH  34  35
ATOM     35  O   UNL A   1      40.964  27.469  26.218  1.00  0.00    -0.460 OA
BRANCH  35  36
ATOM     36  C   UNL A   1      42.065  28.123  25.778  1.00  0.00     0.338 C 
ATOM     37  O   UNL A   1      42.124  28.948  24.893  1.00  0.00    -0.246 OA
BRANCH  36  38
ATOM     38  C   UNL A   1      43.172  27.797  26.702  1.00  0.00     0.060 A 
ATOM     39  C   UNL A   1      43.817  28.836  27.387  1.00  0.00     0.016 A 
ATOM     40  C   UNL A   1      43.571  26.473  26.884  1.00  0.00     0.016 A 
ATOM     41  C   UNL A   1      44.892  28.554  28.230  1.00  0.00     0.010 A 
ATOM     42  C   UNL A   1      44.663  26.194  27.710  1.00  0.00     0.010 A 
ATOM     43  C   UNL A   1      45.350  27.237  28.357  1.00  0.00    -0.014 A 
BRANCH  43  44
ATOM     44  C   UNL A   1      46.664  26.972  28.992  1.00  0.00     0.031 A 
ATOM     45  C   UNL A   1      47.907  27.191  28.169  1.00  0.00     0.074 A 
ATOM     46  C   UNL A   1      46.762  26.567  30.271  1.00  0.00     0.049 A 
ATOM     47  N   UNL A   1      49.159  26.983  28.485  1.00  0.00    -0.248 NA
ATOM     48  C   UNL A   1      47.707  27.712  26.806  1.00  0.00     0.031 C 
ATOM     49  C   UNL A   1      45.638  26.372  31.187  1.00  0.00     0.029 A 
ATOM     50  N   UNL A   1      47.867  26.241  31.018  1.00  0.00    -0.354 N 
ATOM     51  C   UNL A   1      49.894  27.336  27.359  1.00  0.00     0.074 A 
ATOM     52  C   UNL A   1      48.947  27.741  26.343  1.00  0.00     0.031 C 
ATOM     53  C   UNL A   1      46.113  25.953  32.373  1.00  0.00     0.029 A 
ATOM     54  C   UNL A   1      47.566  25.811  32.289  1.00  0.00     0.049 A 
ATOM     55  H   UNL A   1      48.787  26.309  30.676  1.00  0.00     0.167 HD
ATOM     56  C   UNL A   1      51.237  27.328  27.186  1.00  0.00     0.031 A 
ATOM     57  C   UNL A   1      48.371  25.337  33.262  1.00  0.00     0.031 A 
ATOM     58  C   UNL A   1      52.173  26.905  28.192  1.00  0.00     0.049 A 
ATOM     59  C   UNL A   1      49.856  25.253  33.016  1.00  0.00     0.074 A 
ATOM     60  C   UNL A   1      53.555  26.868  28.119  1.00  0.00     0.029 A 
ATOM     61  N   UNL A   1      51.826  26.436  29.451  1.00  0.00    -0.354 N 
ATOM     62  N   UNL A   1      50.540  25.609  31.955  1.00  0.00    -0.248 NA
ATOM     63  C   UNL A   1      50.680  24.707  34.106  1.00  0.00     0.031 C 
ATOM     64  C   UNL A   1      54.040  26.312  29.308  1.00  0.00     0.029 A 
ATOM     65  C   UNL A   1      52.965  26.077  30.152  1.00  0.00     0.049 A 
ATOM     66  H   UNL A   1      50.906  26.368  29.795  1.00  0.00     0.167 HD
ATOM     67  C   UNL A   1      51.875  25.363  32.262  1.00  0.00     0.074 A 
ATOM     68  C   UNL A   1      51.903  24.840  33.612  1.00  0.00     0.031 C 
ATOM     69  C   UNL A   1      52.979  25.557  31.497  1.00  0.00     0.031 A 
BRANCH  56  70
ATOM     70  C   UNL A   1      51.767  27.751  25.841  1.00  0.00    -0.014 A 
ATOM     71  C   UNL A   1      51.951  26.822  24.800  1.00  0.00     0.010 A 
ATOM     72  C   UNL A   1      52.059  29.108  25.606  1.00  0.00     0.010 A 
ATOM     73  C   UNL A   1      52.455  27.237  23.564  1.00  0.00     0.020 A 
ATOM     74  C   UNL A   1      52.532  29.531  24.361  1.00  0.00     0.020 A 
ATOM     75  C   UNL A   1      52.743  28.588  23.353  1.00  0.00     0.054 A 
BRANCH  75  76
ATOM     76  S   UNL A   1      53.377  29.099  21.732  1.00  0.00     0.124 S 
ATOM     77  O   UNL A   1      53.622  30.524  21.940  1.00  0.00    -0.237 OA
ATOM     78  O   UNL A   1      54.570  28.271  21.580  1.00  0.00    -0.237 OA
ATOM     79  O   UNL A   1      52.282  28.784  20.816  1.00  0.00    -0.744 OA
ENDBRANCH  75  76
ENDBRANCH  56  70
BRANCH  57  80
ATOM     80  C   UNL A   1      47.787  24.884  34.557  1.00  0.00    -0.014 A 
ATOM     81  C   UNL A   1      47.232  23.598  34.685  1.00  0.00     0.010 A 
ATOM     82  C   UNL A   1      47.779  25.743  35.670  1.00  0.00     0.010 A 
ATOM     83  C   UNL A   1      46.667  23.187  35.898  1.00  0.00     0.020 A 
ATOM     84  C   UNL A   1      47.244  25.325  36.893  1.00  0.00     0.020 A 
ATOM     85  C   UNL A   1      46.683  24.052  36.995  1.00  0.00     0.054 A 
BRANCH  85  86
ATOM     86  S   UNL A   1      45.996  23.475  38.572  1.00  0.00     0.124 S 
ATOM     87  O   UNL A   1      45.916  22.034  38.360  1.00  0.00    -0.237 OA
ATOM     88  O   UNL A   1      47.003  23.919  39.534  1.00  0.00    -0.237 OA
ATOM     89  O   UNL A   1      44.714  24.168  38.661  1.00  0.00    -0.744 OA
ENDBRANCH  85  86
ENDBRANCH  57  80
BRANCH  69  90
ATOM     90  C   UNL A   1      54.322  25.247  32.112  1.00  0.00    -0.014 A 
ATOM     91  C   UNL A   1      54.922  26.112  33.043  1.00  0.00     0.010 A 
ATOM     92  C   UNL A   1      54.962  24.033  31.795  1.00  0.00     0.010 A 
ATOM     93  C   UNL A   1      56.154  25.785  33.619  1.00  0.00     0.020 A 
ATOM     94  C   UNL A   1      56.175  23.687  32.394  1.00  0.00     0.020 A 
ATOM     95  C   UNL A   1      56.771  24.573  33.293  1.00  0.00     0.054 A 
BRANCH  95  96
ATOM     96  S   UNL A   1      58.346  24.154  34.089  1.00  0.00     0.124 S 
ATOM     97  O   UNL A   1      58.096  22.797  34.565  1.00  0.00    -0.237 OA
ATOM     98  O   UNL A   1      59.301  24.269  32.989  1.00  0.00    -0.237 OA
ATOM     99  O   UNL A   1      58.487  25.166  35.135  1.00  0.00    -0.744 OA
ENDBRANCH  95  96
ENDBRANCH  69  90
ENDBRANCH  43  44
ENDBRANCH  36  38
ENDBRANCH  35  36
ENDBRANCH  34  35
ENDBRANCH  33  34
ENDBRANCH  32  33
ENDBRANCH  31  32
ENDBRANCH  30  31
ENDBRANCH   1  30
TORSDOF 27
ENDMDL
MODEL 2
REMARK VINA RESULT:      -7.4      7.953     15.015
REMARK SMILES CC[C@@H](C(=O)OCCOCCOCCOCCOC(=O)c1ccc(-c2c3nc(c(-c4ccc(S(=O)(=O)[O-])cc4)c4ccc([nH]4)c(-c4ccc(S(=O)(=O)[O-])cc4)c4nc(c(-c5ccc(S(=O)(=O)[O-])cc5)c5ccc2[nH]5)C=C4)C=C3)cc1)N1C(=O)/C(=C/C(C)=C/c2ccccc2)SC1=S
REMARK SMILES IDX 12 1 11 2 10 3 9 4 8 5 7 6 6 7 4 8 5 9 3 10 2 11 1 12 81 13
REMARK SMILES IDX 82 14 96 15 83 16 84 17 95 18 97 19 85 20 86 21 87 22 88 23
REMARK SMILES IDX 89 24 90 25 94 26 91 27 93 28 92 29 13 30 14 31 15 32 16 33
REMARK SMILES IDX 17 34 18 35 19 36 20 37 21 38 22 39 80 40 23 41 79 42 24 43
REMARK SMILES IDX 25 44 26 45 73 46 27 47 78 48 72 49 74 50 28 51 77 52 71 53
REMARK SMILES IDX 70 54 29 56 59 57 40 58 58 59 41 60 44 61 57 62 75 63 42 64
REMARK SMILES IDX 43 65 56 67 76 68 45 69 30 70 31 71 39 72 32 73 38 74 33 75
REMARK SMILES IDX 34 76 35 77 36 78 37 79 60 80 61 81 69 82 62 83 68 84 63 85
REMARK SMILES IDX 64 86 65 87 66 88 67 89 46 90 47 91 55 92 48 93 54 94 49 95
REMARK SMILES IDX 50 96 51 97 52 98 53 99
REMARK H PARENT 74 55 44 66
REMARK Flexibility Score: inf
ROOT
ATOM      1  O   UNL A   1      45.291  23.875  24.214  1.00  0.00    -0.377 OA
ENDROOT
BRANCH   1   2
ATOM      2  C   UNL A   1      45.232  22.461  24.312  1.00  0.00     0.188 C 
BRANCH   2   3
ATOM      3  C   UNL A   1      44.354  21.828  25.408  1.00  0.00     0.188 C 
BRANCH   3   4
ATOM      4  O   UNL A   1      42.989  21.718  25.053  1.00  0.00    -0.376 OA
BRANCH   4   5
ATOM      5  C   UNL A   1      42.017  22.383  25.845  1.00  0.00     0.202 C 
BRANCH   5   6
ATOM      6  C   UNL A   1      42.418  23.271  27.038  1.00  0.00     0.261 C 
BRANCH   6   7
ATOM      7  O   UNL A   1      42.209  24.674  26.819  1.00  0.00    -0.462 OA
BRANCH   7   8
ATOM      8  C   UNL A   1      42.125  25.508  27.880  1.00  0.00     0.329 C 
ATOM      9  O   UNL A   1      41.178  25.557  28.654  1.00  0.00    -0.250 OA
BRANCH   8  10
ATOM     10  C   UNL A   1      43.399  26.381  28.030  1.00  0.00     0.201 C 
BRANCH  10  11
ATOM     11  C   UNL A   1      44.241  25.966  29.282  1.00  0.00     0.034 C 
ATOM     12  C   UNL A   1      44.953  24.620  29.322  1.00  0.00     0.007 C 
ENDBRANCH  10  11
BRANCH  10  13
ATOM     13  N   UNL A   1      43.176  27.881  27.935  1.00  0.00    -0.278 N 
ATOM     14  C   UNL A   1      43.705  28.612  26.870  1.00  0.00     0.266 C 
ATOM     15  C   UNL A   1      42.746  28.694  28.971  1.00  0.00     0.149 C 
ATOM     16  O   UNL A   1      44.315  28.168  25.909  1.00  0.00    -0.268 OA
ATOM     17  C   UNL A   1      43.470  30.087  27.041  1.00  0.00     0.080 C 
ATOM     18  S   UNL A   1      42.415  30.311  28.363  1.00  0.00    -0.054 SA
ATOM     19  S   UNL A   1      42.592  28.401  30.606  1.00  0.00    -0.052 S 
ATOM     20  C   UNL A   1      44.097  31.011  26.290  1.00  0.00     0.024 C 
BRANCH  20  21
ATOM     21  C   UNL A   1      44.106  32.487  26.357  1.00  0.00    -0.049 C 
ATOM     22  C   UNL A   1      43.781  33.176  25.049  1.00  0.00     0.044 C 
ATOM     23  C   UNL A   1      44.533  33.174  27.440  1.00  0.00     0.011 C 
BRANCH  23  24
ATOM     24  C   UNL A   1      44.640  34.628  27.689  1.00  0.00    -0.025 A 
ATOM     25  C   UNL A   1      43.585  35.248  28.380  1.00  0.00     0.008 A 
ATOM     26  C   UNL A   1      45.652  35.440  27.163  1.00  0.00     0.008 A 
ATOM     27  C   UNL A   1      43.549  36.633  28.556  1.00  0.00     0.001 A 
ATOM     28  C   UNL A   1      45.623  36.829  27.350  1.00  0.00     0.001 A 
ATOM     29  C   UNL A   1      44.570  37.425  28.042  1.00  0.00     0.000 A 
ENDBRANCH  23  24
ENDBRANCH  20  21
ENDBRANCH  10  13
ENDBRANCH   8  10
ENDBRANCH   7   8
ENDBRANCH   6   7
ENDBRANCH   5   6
ENDBRANCH   4   5
ENDBRANCH   3   4
ENDBRANCH   2   3
ENDBRANCH   1   2
BRANCH   1  30
ATOM     30  C   UNL A   1      45.524  24.655  25.386  1.00  0.00     0.188 C 
BRANCH  30  31
ATOM     31  C   UNL A   1      46.734  25.614  25.482  1.00  0.00     0.188 C 
BRANCH  31  32
ATOM     32  O   UNL A   1      46.808  26.373  26.679  1.00  0.00    -0.376 OA
BRANCH  32  33
ATOM     33  C   UNL A   1      47.734  25.949  27.666  1.00  0.00     0.202 C 
BRANCH  33  34
ATOM     34  C   UNL A   1      49.182  26.447  27.535  1.00  0.00     0.261 C 
BRANCH  34  35
ATOM     35  O   UNL A   1      49.463  27.737  28.100  1.00  0.00    -0.460 OA
BRANCH  35  36
ATOM     36  C   UNL A   1      49.177  28.825  27.347  1.00  0.00     0.338 C 
ATOM     37  O   UNL A   1      49.275  28.933  26.144  1.00  0.00    -0.246 OA
BRANCH  36  38
ATOM     38  C   UNL A   1      48.529  29.817  28.232  1.00  0.00     0.060 A 
ATOM     39  C   UNL A   1      49.202  30.246  29.384  1.00  0.00     0.016 A 
ATOM     40  C   UNL A   1      47.262  30.314  27.923  1.00  0.00     0.016 A 
ATOM     41  C   UNL A   1      48.590  31.149  30.254  1.00  0.00     0.010 A 
ATOM     42  C   UNL A   1      46.641  31.200  28.807  1.00  0.00     0.010 A 
ATOM     43  C   UNL A   1      47.287  31.592  29.993  1.00  0.00    -0.014 A 
BRANCH  43  44
ATOM     44  C   UNL A   1      46.522  32.292  31.054  1.00  0.00     0.031 A 
ATOM     45  C   UNL A   1      45.754  31.456  32.044  1.00  0.00     0.074 A 
ATOM     46  C   UNL A   1      46.519  33.633  31.154  1.00  0.00     0.049 A 
ATOM     47  N   UNL A   1      44.976  31.836  33.025  1.00  0.00    -0.248 NA
ATOM     48  C   UNL A   1      45.880  29.995  31.907  1.00  0.00     0.031 C 
ATOM     49  C   UNL A   1      47.265  34.549  30.292  1.00  0.00     0.029 A 
ATOM     50  N   UNL A   1      45.857  34.458  32.030  1.00  0.00    -0.354 N 
ATOM     51  C   UNL A   1      44.512  30.665  33.612  1.00  0.00     0.074 A 
ATOM     52  C   UNL A   1      45.070  29.562  32.860  1.00  0.00     0.031 C 
ATOM     53  C   UNL A   1      47.012  35.812  30.679  1.00  0.00     0.029 A 
ATOM     54  C   UNL A   1      46.058  35.796  31.787  1.00  0.00     0.049 A 
ATOM     55  H   UNL A   1      45.293  34.122  32.763  1.00  0.00     0.167 HD
ATOM     56  C   UNL A   1      43.699  30.518  34.684  1.00  0.00     0.031 A 
ATOM     57  C   UNL A   1      45.515  36.880  32.377  1.00  0.00     0.031 A 
ATOM     58  C   UNL A   1      43.130  31.618  35.417  1.00  0.00     0.049 A 
ATOM     59  C   UNL A   1      44.541  36.693  33.513  1.00  0.00     0.074 A 
ATOM     60  C   UNL A   1      42.301  31.575  36.524  1.00  0.00     0.029 A 
ATOM     61  N   UNL A   1      43.323  32.958  35.113  1.00  0.00    -0.354 N 
ATOM     62  N   UNL A   1      44.127  35.580  34.072  1.00  0.00    -0.248 NA
ATOM     63  C   UNL A   1      43.965  37.911  34.103  1.00  0.00     0.031 C 
ATOM     64  C   UNL A   1      41.937  32.887  36.847  1.00  0.00     0.029 A 
ATOM     65  C   UNL A   1      42.603  33.750  35.990  1.00  0.00     0.049 A 
ATOM     66  H   UNL A   1      43.889  33.295  34.381  1.00  0.00     0.167 HD
ATOM     67  C   UNL A   1      43.270  35.966  35.099  1.00  0.00     0.074 A 
ATOM     68  C   UNL A   1      43.236  37.414  35.092  1.00  0.00     0.031 C 
ATOM     69  C   UNL A   1      42.578  35.192  35.973  1.00  0.00     0.031 A 
BRANCH  56  70
ATOM     70  C   UNL A   1      43.341  29.115  35.099  1.00  0.00    -0.014 A 
ATOM     71  C   UNL A   1      42.321  28.395  34.451  1.00  0.00     0.010 A 
ATOM     72  C   UNL A   1      44.060  28.495  36.139  1.00  0.00     0.010 A 
ATOM     73  C   UNL A   1      42.000  27.098  34.862  1.00  0.00     0.020 A 
ATOM     74  C   UNL A   1      43.764  27.187  36.530  1.00  0.00     0.020 A 
ATOM     75  C   UNL A   1      42.723  26.503  35.899  1.00  0.00     0.054 A 
BRANCH  75  76
ATOM     76  S   UNL A   1      42.297  24.811  36.396  1.00  0.00     0.124 S 
ATOM     77  O   UNL A   1      43.534  24.364  37.032  1.00  0.00    -0.237 OA
ATOM     78  O   UNL A   1      41.166  25.018  37.297  1.00  0.00    -0.237 OA
ATOM     79  O   UNL A   1      41.973  24.149  35.134  1.00  0.00    -0.744 OA
ENDBRANCH  75  76
ENDBRANCH  56  70
BRANCH  57  80
ATOM     80  C   UNL A   1      45.864  38.246  31.893  1.00  0.00    -0.014 A 
ATOM     81  C   UNL A   1      47.021  38.900  32.354  1.00  0.00     0.010 A 
ATOM     82  C   UNL A   1      45.034  38.904  30.967  1.00  0.00     0.010 A 
ATOM     83  C   UNL A   1      47.332  40.190  31.911  1.00  0.00     0.020 A 
ATOM     84  C   UNL A   1      45.357  40.181  30.497  1.00  0.00     0.020 A 
ATOM     85  C   UNL A   1      46.500  40.819  30.980  1.00  0.00     0.054 A 
BRANCH  85  86
ATOM     86  S   UNL A   1      46.955  42.469  30.377  1.00  0.00     0.124 S 
ATOM     87  O   UNL A   1      46.662  42.364  28.952  1.00  0.00    -0.237 OA
ATOM     88  O   UNL A   1      46.067  43.339  31.146  1.00  0.00    -0.237 OA
ATOM     89  O   UNL A   1      48.371  42.579  30.719  1.00  0.00    -0.744 OA
ENDBRANCH  85  86
ENDBRANCH  57  80
BRANCH  69  90
ATOM     90  C   UNL A   1      41.756  35.889  37.028  1.00  0.00    -0.014 A 
ATOM     91  C   UNL A   1      40.357  35.986  36.926  1.00  0.00     0.010 A 
ATOM     92  C   UNL A   1      42.394  36.399  38.175  1.00  0.00     0.010 A 
ATOM     93  C   UNL A   1      39.616  36.612  37.935  1.00  0.00     0.020 A 
ATOM     94  C   UNL A   1      41.655  36.994  39.200  1.00  0.00     0.020 A 
ATOM     95  C   UNL A   1      40.271  37.109  39.066  1.00  0.00     0.054 A 
BRANCH  95  96
ATOM     96  S   UNL A   1      39.281  37.876  40.379  1.00  0.00     0.124 S 
ATOM     97  O   UNL A   1      38.210  38.515  39.621  1.00  0.00    -0.237 OA
ATOM     98  O   UNL A   1      38.880  36.728  41.189  1.00  0.00    -0.237 OA
ATOM     99  O   UNL A   1      40.217  38.792  41.029  1.00  0.00    -0.744 OA
ENDBRANCH  95  96
ENDBRANCH  69  90
ENDBRANCH  43  44
ENDBRANCH  36  38
ENDBRANCH  35  36
ENDBRANCH  34  35
ENDBRANCH  33  34
ENDBRANCH  32  33
ENDBRANCH  31  32
ENDBRANCH  30  31
ENDBRANCH   1  30
TORSDOF 27
ENDMDL
MODEL 3
REMARK VINA RESULT:      -7.1      6.336     12.862
REMARK SMILES CC[C@@H](C(=O)OCCOCCOCCOCCOC(=O)c1ccc(-c2c3nc(c(-c4ccc(S(=O)(=O)[O-])cc4)c4ccc([nH]4)c(-c4ccc(S(=O)(=O)[O-])cc4)c4nc(c(-c5ccc(S(=O)(=O)[O-])cc5)c5ccc2[nH]5)C=C4)C=C3)cc1)N1C(=O)/C(=C/C(C)=C/c2ccccc2)SC1=S
REMARK SMILES IDX 12 1 11 2 10 3 9 4 8 5 7 6 6 7 4 8 5 9 3 10 2 11 1 12 81 13
REMARK SMILES IDX 82 14 96 15 83 16 84 17 95 18 97 19 85 20 86 21 87 22 88 23
REMARK SMILES IDX 89 24 90 25 94 26 91 27 93 28 92 29 13 30 14 31 15 32 16 33
REMARK SMILES IDX 17 34 18 35 19 36 20 37 21 38 22 39 80 40 23 41 79 42 24 43
REMARK SMILES IDX 25 44 26 45 73 46 27 47 78 48 72 49 74 50 28 51 77 52 71 53
REMARK SMILES IDX 70 54 29 56 59 57 40 58 58 59 41 60 44 61 57 62 75 63 42 64
REMARK SMILES IDX 43 65 56 67 76 68 45 69 30 70 31 71 39 72 32 73 38 74 33 75
REMARK SMILES IDX 34 76 35 77 36 78 37 79 60 80 61 81 69 82 62 83 68 84 63 85
REMARK SMILES IDX 64 86 65 87 66 88 67 89 46 90 47 91 55 92 48 93 54 94 49 95
REMARK SMILES IDX 50 96 51 97 52 98 53 99
REMARK H PARENT 74 55 44 66
REMARK Flexibility Score: inf
ROOT
ATOM      1  O   UNL A   1      45.600  34.501  35.720  1.00  0.00    -0.377 OA
ENDROOT
BRANCH   1   2
ATOM      2  C   UNL A   1      44.241  34.449  35.315  1.00  0.00     0.188 C 
BRANCH   2   3
ATOM      3  C   UNL A   1      43.179  33.997  36.335  1.00  0.00     0.188 C 
BRANCH   3   4
ATOM      4  O   UNL A   1      43.693  33.187  37.375  1.00  0.00    -0.376 OA
BRANCH   4   5
ATOM      5  C   UNL A   1      43.179  31.875  37.542  1.00  0.00     0.202 C 
BRANCH   5   6
ATOM      6  C   UNL A   1      41.669  31.581  37.451  1.00  0.00     0.261 C 
BRANCH   6   7
ATOM      7  O   UNL A   1      41.359  30.232  37.075  1.00  0.00    -0.462 OA
BRANCH   7   8
ATOM      8  C   UNL A   1      42.223  29.544  36.293  1.00  0.00     0.329 C 
ATOM      9  O   UNL A   1      43.178  28.900  36.710  1.00  0.00    -0.250 OA
BRANCH   8  10
ATOM     10  C   UNL A   1      41.840  29.633  34.793  1.00  0.00     0.201 C 
BRANCH  10  11
ATOM     11  C   UNL A   1      41.879  28.230  34.101  1.00  0.00     0.034 C 
ATOM     12  C   UNL A   1      41.328  28.048  32.693  1.00  0.00     0.007 C 
ENDBRANCH  10  11
BRANCH  10  13
ATOM     13  N   UNL A   1      42.563  30.708  33.998  1.00  0.00    -0.278 N 
ATOM     14  C   UNL A   1      41.856  31.765  33.426  1.00  0.00     0.266 C 
ATOM     15  C   UNL A   1      43.852  30.605  33.501  1.00  0.00     0.149 C 
ATOM     16  O   UNL A   1      40.659  31.990  33.534  1.00  0.00    -0.268 OA
ATOM     17  C   UNL A   1      42.747  32.637  32.585  1.00  0.00     0.080 C 
ATOM     18  S   UNL A   1      44.363  32.153  32.841  1.00  0.00    -0.054 SA
ATOM     19  S   UNL A   1      44.878  29.296  33.371  1.00  0.00    -0.052 S 
ATOM     20  C   UNL A   1      42.263  33.561  31.735  1.00  0.00     0.024 C 
BRANCH  20  21
ATOM     21  C   UNL A   1      42.933  34.432  30.748  1.00  0.00    -0.049 C 
ATOM     22  C   UNL A   1      44.435  34.522  30.909  1.00  0.00     0.044 C 
ATOM     23  C   UNL A   1      42.258  35.219  29.881  1.00  0.00     0.011 C 
BRANCH  23  24
ATOM     24  C   UNL A   1      42.739  36.163  28.849  1.00  0.00    -0.025 A 
ATOM     25  C   UNL A   1      42.661  35.753  27.507  1.00  0.00     0.008 A 
ATOM     26  C   UNL A   1      43.385  37.372  29.133  1.00  0.00     0.008 A 
ATOM     27  C   UNL A   1      43.198  36.531  26.479  1.00  0.00     0.001 A 
ATOM     28  C   UNL A   1      43.914  38.159  28.101  1.00  0.00     0.001 A 
ATOM     29  C   UNL A   1      43.823  37.738  26.776  1.00  0.00     0.000 A 
ENDBRANCH  23  24
ENDBRANCH  20  21
ENDBRANCH  10  13
ENDBRANCH   8  10
ENDBRANCH   7   8
ENDBRANCH   6   7
ENDBRANCH   5   6
ENDBRANCH   4   5
ENDBRANCH   3   4
ENDBRANCH   2   3
ENDBRANCH   1   2
BRANCH   1  30
ATOM     30  C   UNL A   1      46.565  35.124  34.873  1.00  0.00     0.188 C 
BRANCH  30  31
ATOM     31  C   UNL A   1      46.663  36.664  34.766  1.00  0.00     0.188 C 
BRANCH  31  32
ATOM     32  O   UNL A   1      47.246  37.149  33.567  1.00  0.00    -0.376 OA
BRANCH  32  33
ATOM     33  C   UNL A   1      46.927  36.471  32.363  1.00  0.00     0.202 C 
BRANCH  33  34
ATOM     34  C   UNL A   1      46.833  37.315  31.082  1.00  0.00     0.261 C 
BRANCH  34  35
ATOM     35  O   UNL A   1      47.857  37.095  30.099  1.00  0.00    -0.460 OA
BRANCH  35  36
ATOM     36  C   UNL A   1      47.471  37.003  28.805  1.00  0.00     0.338 C 
ATOM     37  O   UNL A   1      47.434  37.894  27.984  1.00  0.00    -0.246 OA
BRANCH  36  38
ATOM     38  C   UNL A   1      47.281  35.568  28.501  1.00  0.00     0.060 A 
ATOM     39  C   UNL A   1      46.532  35.203  27.373  1.00  0.00     0.016 A 
ATOM     40  C   UNL A   1      47.836  34.593  29.331  1.00  0.00     0.016 A 
ATOM     41  C   UNL A   1      46.305  33.855  27.094  1.00  0.00     0.010 A 
ATOM     42  C   UNL A   1      47.587  33.245  29.064  1.00  0.00     0.010 A 
ATOM     43  C   UNL A   1      46.791  32.872  27.965  1.00  0.00    -0.014 A 
BRANCH  43  44
ATOM     44  C   UNL A   1      46.296  31.478  27.851  1.00  0.00     0.031 A 
ATOM     45  C   UNL A   1      47.285  30.402  27.489  1.00  0.00     0.074 A 
ATOM     46  C   UNL A   1      45.008  31.166  28.081  1.00  0.00     0.049 A 
ATOM     47  N   UNL A   1      47.085  29.126  27.284  1.00  0.00    -0.248 NA
ATOM     48  C   UNL A   1      48.687  30.824  27.336  1.00  0.00     0.031 C 
ATOM     49  C   UNL A   1      43.967  32.107  28.491  1.00  0.00     0.029 A 
ATOM     50  N   UNL A   1      44.357  29.960  27.994  1.00  0.00    -0.354 N 
ATOM     51  C   UNL A   1      48.330  28.596  26.966  1.00  0.00     0.074 A 
ATOM     52  C   UNL A   1      49.273  29.693  26.976  1.00  0.00     0.031 C 
ATOM     53  C   UNL A   1      42.805  31.443  28.614  1.00  0.00     0.029 A 
ATOM     54  C   UNL A   1      43.010  30.040  28.253  1.00  0.00     0.049 A 
ATOM     55  H   UNL A   1      44.813  29.118  27.769  1.00  0.00     0.167 HD
ATOM     56  C   UNL A   1      48.661  27.311  26.696  1.00  0.00     0.031 A 
ATOM     57  C   UNL A   1      42.051  29.095  28.182  1.00  0.00     0.031 A 
ATOM     58  C   UNL A   1      47.716  26.227  26.668  1.00  0.00     0.049 A 
ATOM     59  C   UNL A   1      42.427  27.688  27.792  1.00  0.00     0.074 A 
ATOM     60  C   UNL A   1      47.953  24.888  26.414  1.00  0.00     0.029 A 
ATOM     61  N   UNL A   1      46.354  26.358  26.893  1.00  0.00    -0.354 N 
ATOM     62  N   UNL A   1      43.612  27.197  27.515  1.00  0.00    -0.248 NA
ATOM     63  C   UNL A   1      41.336  26.705  27.712  1.00  0.00     0.031 C 
ATOM     64  C   UNL A   1      46.724  24.220  26.417  1.00  0.00     0.029 A 
ATOM     65  C   UNL A   1      45.732  25.129  26.751  1.00  0.00     0.049 A 
ATOM     66  H   UNL A   1      45.896  27.200  27.120  1.00  0.00     0.167 HD
ATOM     67  C   UNL A   1      43.412  25.842  27.261  1.00  0.00     0.074 A 
ATOM     68  C   UNL A   1      41.996  25.590  27.430  1.00  0.00     0.031 C 
ATOM     69  C   UNL A   1      44.320  24.892  26.923  1.00  0.00     0.031 A 
BRANCH  56  70
ATOM     70  C   UNL A   1      50.102  27.020  26.365  1.00  0.00    -0.014 A 
ATOM     71  C   UNL A   1      51.042  26.730  27.371  1.00  0.00     0.010 A 
ATOM     72  C   UNL A   1      50.515  27.007  25.020  1.00  0.00     0.010 A 
ATOM     73  C   UNL A   1      52.375  26.473  27.040  1.00  0.00     0.020 A 
ATOM     74  C   UNL A   1      51.840  26.719  24.683  1.00  0.00     0.020 A 
ATOM     75  C   UNL A   1      52.766  26.470  25.699  1.00  0.00     0.054 A 
BRANCH  75  76
ATOM     76  S   UNL A   1      54.499  26.114  25.299  1.00  0.00     0.124 S 
ATOM     77  O   UNL A   1      54.443  24.695  24.956  1.00  0.00    -0.237 OA
ATOM     78  O   UNL A   1      54.762  27.020  24.184  1.00  0.00    -0.237 OA
ATOM     79  O   UNL A   1      55.212  26.426  26.535  1.00  0.00    -0.744 OA
ENDBRANCH  75  76
ENDBRANCH  56  70
BRANCH  57  80
ATOM     80  C   UNL A   1      40.631  29.450  28.470  1.00  0.00    -0.014 A 
ATOM     81  C   UNL A   1      40.265  30.003  29.710  1.00  0.00     0.010 A 
ATOM     82  C   UNL A   1      39.635  29.230  27.502  1.00  0.00     0.010 A 
ATOM     83  C   UNL A   1      38.928  30.314  29.982  1.00  0.00     0.020 A 
ATOM     84  C   UNL A   1      38.302  29.569  27.756  1.00  0.00     0.020 A 
ATOM     85  C   UNL A   1      37.957  30.100  28.999  1.00  0.00     0.054 A 
BRANCH  85  86
ATOM     86  S   UNL A   1      36.239  30.566  29.354  1.00  0.00     0.124 S 
ATOM     87  O   UNL A   1      35.491  29.550  28.622  1.00  0.00    -0.237 OA
ATOM     88  O   UNL A   1      36.183  30.468  30.811  1.00  0.00    -0.237 OA
ATOM     89  O   UNL A   1      36.137  31.923  28.825  1.00  0.00    -0.744 OA
ENDBRANCH  85  86
ENDBRANCH  57  80
BRANCH  69  90
ATOM     90  C   UNL A   1      43.824  23.476  26.756  1.00  0.00    -0.014 A 
ATOM     91  C   UNL A   1      43.054  22.844  27.748  1.00  0.00     0.010 A 
ATOM     92  C   UNL A   1      44.083  22.792  25.553  1.00  0.00     0.010 A 
ATOM     93  C   UNL A   1      42.583  21.542  27.554  1.00  0.00     0.020 A 
ATOM     94  C   UNL A   1      43.586  21.504  25.341  1.00  0.00     0.020 A 
ATOM     95  C   UNL A   1      42.850  20.882  26.350  1.00  0.00     0.054 A 
BRANCH  95  96
ATOM     96  S   UNL A   1      42.188  19.210  26.107  1.00  0.00     0.124 S 
ATOM     97  O   UNL A   1      42.498  18.571  27.383  1.00  0.00    -0.237 OA
ATOM     98  O   UNL A   1      40.771  19.461  25.857  1.00  0.00    -0.237 OA
ATOM     99  O   UNL A   1      42.937  18.703  24.959  1.00  0.00    -0.744 OA
ENDBRANCH  95  96
ENDBRANCH  69  90
ENDBRANCH  43  44
ENDBRANCH  36  38
ENDBRANCH  35  36
ENDBRANCH  34  35
ENDBRANCH  33  34
ENDBRANCH  32  33
ENDBRANCH  31  32
ENDBRANCH  30  31
ENDBRANCH   1  30
TORSDOF 27
ENDMDL
