MODEL 1
REMARK VINA RESULT:      -9.2      0.000      0.000
REMARK SMILES Cc1cc(S(=O)(=O)Nc2ccc(F)c(F)c2)sc1C(=O)OCCOCCOCCOCCOC(=O)c1ccc(-c2c3nc(c(-c4ccc(S(=O)(=O)[O-])cc4)c4ccc([nH]4)c(-c4ccc(S(=O)(=O)[O-])cc4)c4nc(c(-c5ccc(S(=O)(=O)[O-])cc5)c5ccc2[nH]5)C=C4)C=C3)cc1
REMARK SMILES IDX 27 1 26 2 25 3 24 4 23 5 22 6 21 7 19 8 20 9 18 10 1 11 2 12
REMARK SMILES IDX 3 13 4 14 17 15 5 16 6 17 7 18 8 19 9 21 10 22 16 23 11 24
REMARK SMILES IDX 14 25 12 26 15 27 13 28 28 29 29 30 30 31 31 32 32 33 33 34
REMARK SMILES IDX 34 35 35 36 36 37 37 38 95 39 38 40 94 41 39 42 40 43 41 44
REMARK SMILES IDX 88 45 42 46 93 47 87 48 89 49 43 50 92 51 86 52 85 53 44 55
REMARK SMILES IDX 74 56 55 57 73 58 56 59 59 60 72 61 90 62 57 63 58 64 71 66
REMARK SMILES IDX 91 67 60 68 45 69 46 70 54 71 47 72 53 73 48 74 49 75 50 76
REMARK SMILES IDX 51 77 52 78 75 79 76 80 84 81 77 82 83 83 78 84 79 85 80 86
REMARK SMILES IDX 81 87 82 88 61 89 62 90 70 91 63 92 69 93 64 94 65 95 66 96
REMARK SMILES IDX 67 97 68 98
REMARK H PARENT 8 20 89 54 59 65
REMARK Flexibility Score: inf
ROOT
ATOM      1  O   UNL A   1      31.894  24.597  27.339  1.00  0.00    -0.377 OA
ENDROOT
BRANCH   1   2
ATOM      2  C   UNL A   1      31.815  23.185  27.362  1.00  0.00     0.188 C 
BRANCH   2   3
ATOM      3  C   UNL A   1      33.063  22.479  27.916  1.00  0.00     0.188 C 
BRANCH   3   4
ATOM      4  O   UNL A   1      34.228  22.695  27.126  1.00  0.00    -0.376 OA
BRANCH   4   5
ATOM      5  C   UNL A   1      34.977  21.537  26.778  1.00  0.00     0.202 C 
BRANCH   5   6
ATOM      6  C   UNL A   1      34.418  20.712  25.612  1.00  0.00     0.261 C 
BRANCH   6   7
ATOM      7  O   UNL A   1      33.221  19.982  25.912  1.00  0.00    -0.459 OA
BRANCH   7   8
ATOM      8  C   UNL A   1      32.502  19.430  24.903  1.00  0.00     0.348 C 
ATOM      9  O   UNL A   1      31.978  18.322  24.963  1.00  0.00    -0.245 OA
BRANCH   8  10
ATOM     10  C   UNL A   1      32.327  20.426  23.850  1.00  0.00     0.116 A 
ATOM     11  C   UNL A   1      32.194  19.012  21.681  1.00  0.00     0.046 C 
ATOM     12  C   UNL A   1      32.267  20.289  22.465  1.00  0.00    -0.024 A 
ATOM     13  C   UNL A   1      32.331  21.569  21.822  1.00  0.00     0.038 A 
ATOM     14  C   UNL A   1      32.434  22.624  22.704  1.00  0.00     0.141 A 
ATOM     15  S   UNL A   1      32.249  22.087  24.310  1.00  0.00    -0.115 S 
BRANCH  14  16
ATOM     16  S   UNL A   1      32.698  24.356  22.384  1.00  0.00     0.271 S 
ATOM     17  O   UNL A   1      33.351  24.840  23.582  1.00  0.00    -0.200 OA
ATOM     18  O   UNL A   1      33.370  24.392  21.101  1.00  0.00    -0.200 OA
BRANCH  16  19
ATOM     19  N   UNL A   1      31.280  25.224  22.174  1.00  0.00    -0.279 N 
ATOM     20  H   UNL A   1      30.527  24.778  21.723  1.00  0.00     0.180 HD
BRANCH  19  21
ATOM     21  C   UNL A   1      31.100  26.563  22.611  1.00  0.00     0.052 A 
ATOM     22  C   UNL A   1      32.151  27.468  22.798  1.00  0.00     0.030 A 
ATOM     23  C   UNL A   1      29.784  26.984  22.818  1.00  0.00     0.069 A 
ATOM     24  C   UNL A   1      31.891  28.753  23.288  1.00  0.00     0.044 A 
ATOM     25  C   UNL A   1      29.532  28.265  23.298  1.00  0.00     0.160 A 
ATOM     26  C   UNL A   1      30.581  29.139  23.548  1.00  0.00     0.158 A 
ATOM     27  F   UNL A   1      28.267  28.641  23.523  1.00  0.00    -0.204 F 
ATOM     28  F   UNL A   1      30.335  30.364  24.031  1.00  0.00    -0.204 F 
ENDBRANCH  19  21
ENDBRANCH  16  19
ENDBRANCH  14  16
ENDBRANCH   8  10
ENDBRANCH   7   8
ENDBRANCH   6   7
ENDBRANCH   5   6
ENDBRANCH   4   5
ENDBRANCH   3   4
ENDBRANCH   2   3
ENDBRANCH   1   2
BRANCH   1  29
ATOM     29  C   UNL A   1      31.311  25.304  26.245  1.00  0.00     0.188 C 
BRANCH  29  30
ATOM     30  C   UNL A   1      30.756  26.741  26.378  1.00  0.00     0.188 C 
BRANCH  30  31
ATOM     31  O   UNL A   1      31.403  27.544  27.364  1.00  0.00    -0.376 OA
BRANCH  31  32
ATOM     32  C   UNL A   1      32.044  28.721  26.888  1.00  0.00     0.202 C 
BRANCH  32  33
ATOM     33  C   UNL A   1      33.572  28.649  26.973  1.00  0.00     0.261 C 
BRANCH  33  34
ATOM     34  O   UNL A   1      34.245  29.868  26.620  1.00  0.00    -0.460 OA
BRANCH  34  35
ATOM     35  C   UNL A   1      34.560  30.703  27.635  1.00  0.00     0.338 C 
ATOM     36  O   UNL A   1      33.876  31.601  28.088  1.00  0.00    -0.246 OA
BRANCH  35  37
ATOM     37  C   UNL A   1      35.822  30.233  28.233  1.00  0.00     0.060 A 
ATOM     38  C   UNL A   1      35.793  29.661  29.511  1.00  0.00     0.016 A 
ATOM     39  C   UNL A   1      37.025  30.369  27.538  1.00  0.00     0.016 A 
ATOM     40  C   UNL A   1      36.984  29.261  30.116  1.00  0.00     0.010 A 
ATOM     41  C   UNL A   1      38.217  29.980  28.150  1.00  0.00     0.010 A 
ATOM     42  C   UNL A   1      38.204  29.457  29.455  1.00  0.00    -0.014 A 
BRANCH  42  43
ATOM     43  C   UNL A   1      39.481  29.294  30.187  1.00  0.00     0.031 A 
ATOM     44  C   UNL A   1      40.425  28.211  29.741  1.00  0.00     0.074 A 
ATOM     45  C   UNL A   1      39.795  30.084  31.229  1.00  0.00     0.049 A 
ATOM     46  N   UNL A   1      41.575  27.853  30.250  1.00  0.00    -0.248 NA
ATOM     47  C   UNL A   1      40.014  27.424  28.565  1.00  0.00     0.031 C 
ATOM     48  C   UNL A   1      38.978  31.184  31.735  1.00  0.00     0.029 A 
ATOM     49  N   UNL A   1      40.891  30.067  32.054  1.00  0.00    -0.354 N 
ATOM     50  C   UNL A   1      42.024  26.801  29.460  1.00  0.00     0.074 A 
ATOM     51  C   UNL A   1      41.010  26.558  28.457  1.00  0.00     0.031 C 
ATOM     52  C   UNL A   1      39.598  31.732  32.797  1.00  0.00     0.029 A 
ATOM     53  C   UNL A   1      40.838  31.003  33.058  1.00  0.00     0.049 A 
ATOM     54  H   UNL A   1      41.643  29.442  31.938  1.00  0.00     0.167 HD
ATOM     55  C   UNL A   1      43.178  26.101  29.558  1.00  0.00     0.031 A 
ATOM     56  C   UNL A   1      41.685  31.232  34.081  1.00  0.00     0.031 A 
ATOM     57  C   UNL A   1      44.173  26.323  30.571  1.00  0.00     0.049 A 
ATOM     58  C   UNL A   1      42.930  30.391  34.214  1.00  0.00     0.074 A 
ATOM     59  C   UNL A   1      45.379  25.671  30.750  1.00  0.00     0.029 A 
ATOM     60  N   UNL A   1      44.070  27.264  31.584  1.00  0.00    -0.354 N 
ATOM     61  N   UNL A   1      43.357  29.421  33.440  1.00  0.00    -0.248 NA
ATOM     62  C   UNL A   1      43.811  30.684  35.354  1.00  0.00     0.031 C 
ATOM     63  C   UNL A   1      45.985  26.183  31.902  1.00  0.00     0.029 A 
ATOM     64  C   UNL A   1      45.181  27.194  32.407  1.00  0.00     0.049 A 
ATOM     65  H   UNL A   1      43.318  27.889  31.702  1.00  0.00     0.167 HD
ATOM     66  C   UNL A   1      44.569  29.006  33.985  1.00  0.00     0.074 A 
ATOM     67  C   UNL A   1      44.811  29.838  35.146  1.00  0.00     0.031 C 
ATOM     68  C   UNL A   1      45.407  28.029  33.559  1.00  0.00     0.031 A 
BRANCH  55  69
ATOM     69  C   UNL A   1      43.405  25.006  28.553  1.00  0.00    -0.014 A 
ATOM     70  C   UNL A   1      42.838  23.730  28.729  1.00  0.00     0.010 A 
ATOM     71  C   UNL A   1      44.181  25.259  27.408  1.00  0.00     0.010 A 
ATOM     72  C   UNL A   1      43.078  22.717  27.799  1.00  0.00     0.020 A 
ATOM     73  C   UNL A   1      44.402  24.255  26.462  1.00  0.00     0.020 A 
ATOM     74  C   UNL A   1      43.864  22.984  26.674  1.00  0.00     0.054 A 
BRANCH  74  75
ATOM     75  S   UNL A   1      44.150  21.653  25.476  1.00  0.00     0.124 S 
ATOM     76  O   UNL A   1      43.673  22.259  24.235  1.00  0.00    -0.237 OA
ATOM     77  O   UNL A   1      45.594  21.449  25.561  1.00  0.00    -0.237 OA
ATOM     78  O   UNL A   1      43.338  20.550  25.982  1.00  0.00    -0.744 OA
ENDBRANCH  74  75
ENDBRANCH  55  69
BRANCH  56  79
ATOM     79  C   UNL A   1      41.379  32.294  35.076  1.00  0.00    -0.014 A 
ATOM     80  C   UNL A   1      41.800  33.619  34.865  1.00  0.00     0.010 A 
ATOM     81  C   UNL A   1      40.663  31.984  36.247  1.00  0.00     0.010 A 
ATOM     82  C   UNL A   1      41.522  34.610  35.811  1.00  0.00     0.020 A 
ATOM     83  C   UNL A   1      40.362  32.976  37.184  1.00  0.00     0.020 A 
ATOM     84  C   UNL A   1      40.802  34.282  36.964  1.00  0.00     0.054 A 
BRANCH  84  85
ATOM     85  S   UNL A   1      40.403  35.595  38.150  1.00  0.00     0.124 S 
ATOM     86  O   UNL A   1      41.710  35.894  38.724  1.00  0.00    -0.237 OA
ATOM     87  O   UNL A   1      39.833  36.633  37.295  1.00  0.00    -0.237 OA
ATOM     88  O   UNL A   1      39.451  34.957  39.057  1.00  0.00    -0.744 OA
ENDBRANCH  84  85
ENDBRANCH  56  79
BRANCH  68  89
ATOM     89  C   UNL A   1      46.685  27.822  34.330  1.00  0.00    -0.014 A 
ATOM     90  C   UNL A   1      47.855  28.529  34.007  1.00  0.00     0.010 A 
ATOM     91  C   UNL A   1      46.691  26.952  35.437  1.00  0.00     0.010 A 
ATOM     92  C   UNL A   1      49.018  28.349  34.760  1.00  0.00     0.020 A 
ATOM     93  C   UNL A   1      47.845  26.789  36.207  1.00  0.00     0.020 A 
ATOM     94  C   UNL A   1      49.006  27.479  35.855  1.00  0.00     0.054 A 
BRANCH  94  95
ATOM     95  S   UNL A   1      50.515  27.299  36.847  1.00  0.00     0.124 S 
ATOM     96  O   UNL A   1      50.350  28.354  37.844  1.00  0.00    -0.237 OA
ATOM     97  O   UNL A   1      50.407  25.933  37.352  1.00  0.00    -0.237 OA
ATOM     98  O   UNL A   1      51.592  27.518  35.883  1.00  0.00    -0.744 OA
ENDBRANCH  94  95
ENDBRANCH  68  89
ENDBRANCH  42  43
ENDBRANCH  35  37
ENDBRANCH  34  35
ENDBRANCH  33  34
ENDBRANCH  32  33
ENDBRANCH  31  32
ENDBRANCH  30  31
ENDBRANCH  29  30
ENDBRANCH   1  29
TORSDOF 26
ENDMDL
MODEL 2
REMARK VINA RESULT:      -8.9      7.287     11.505
REMARK SMILES Cc1cc(S(=O)(=O)Nc2ccc(F)c(F)c2)sc1C(=O)OCCOCCOCCOCCOC(=O)c1ccc(-c2c3nc(c(-c4ccc(S(=O)(=O)[O-])cc4)c4ccc([nH]4)c(-c4ccc(S(=O)(=O)[O-])cc4)c4nc(c(-c5ccc(S(=O)(=O)[O-])cc5)c5ccc2[nH]5)C=C4)C=C3)cc1
REMARK SMILES IDX 27 1 26 2 25 3 24 4 23 5 22 6 21 7 19 8 20 9 18 10 1 11 2 12
REMARK SMILES IDX 3 13 4 14 17 15 5 16 6 17 7 18 8 19 9 21 10 22 16 23 11 24
REMARK SMILES IDX 14 25 12 26 15 27 13 28 28 29 29 30 30 31 31 32 32 33 33 34
REMARK SMILES IDX 34 35 35 36 36 37 37 38 95 39 38 40 94 41 39 42 40 43 41 44
REMARK SMILES IDX 88 45 42 46 93 47 87 48 89 49 43 50 92 51 86 52 85 53 44 55
REMARK SMILES IDX 74 56 55 57 73 58 56 59 59 60 72 61 90 62 57 63 58 64 71 66
REMARK SMILES IDX 91 67 60 68 45 69 46 70 54 71 47 72 53 73 48 74 49 75 50 76
REMARK SMILES IDX 51 77 52 78 75 79 76 80 84 81 77 82 83 83 78 84 79 85 80 86
REMARK SMILES IDX 81 87 82 88 61 89 62 90 70 91 63 92 69 93 64 94 65 95 66 96
REMARK SMILES IDX 67 97 68 98
REMARK H PARENT 8 20 89 54 59 65
REMARK Flexibility Score: inf
ROOT
ATOM      1  O   UNL A   1      37.230  32.341  35.298  1.00  0.00    -0.377 OA
ENDROOT
BRANCH   1   2
ATOM      2  C   UNL A   1      37.857  32.131  36.548  1.00  0.00     0.188 C 
BRANCH   2   3
ATOM      3  C   UNL A   1      39.389  32.250  36.529  1.00  0.00     0.188 C 
BRANCH   3   4
ATOM      4  O   UNL A   1      39.975  31.769  35.323  1.00  0.00    -0.376 OA
BRANCH   4   5
ATOM      5  C   UNL A   1      41.064  32.525  34.807  1.00  0.00     0.202 C 
BRANCH   5   6
ATOM      6  C   UNL A   1      41.118  32.651  33.280  1.00  0.00     0.261 C 
BRANCH   6   7
ATOM      7  O   UNL A   1      41.563  33.926  32.798  1.00  0.00    -0.459 OA
BRANCH   7   8
ATOM      8  C   UNL A   1      42.651  33.996  31.992  1.00  0.00     0.348 C 
ATOM      9  O   UNL A   1      43.690  33.374  32.189  1.00  0.00    -0.245 OA
BRANCH   8  10
ATOM     10  C   UNL A   1      42.308  34.775  30.806  1.00  0.00     0.116 A 
ATOM     11  C   UNL A   1      40.033  33.785  30.056  1.00  0.00     0.046 C 
ATOM     12  C   UNL A   1      41.241  34.664  29.918  1.00  0.00    -0.024 A 
ATOM     13  C   UNL A   1      41.448  35.490  28.765  1.00  0.00     0.038 A 
ATOM     14  C   UNL A   1      42.632  36.195  28.797  1.00  0.00     0.141 A 
ATOM     15  S   UNL A   1      43.398  36.017  30.309  1.00  0.00    -0.115 S 
BRANCH  14  16
ATOM     16  S   UNL A   1      43.389  37.211  27.546  1.00  0.00     0.271 S 
ATOM     17  O   UNL A   1      44.770  37.320  27.968  1.00  0.00    -0.200 OA
ATOM     18  O   UNL A   1      43.040  36.570  26.295  1.00  0.00    -0.200 OA
BRANCH  16  19
ATOM     19  N   UNL A   1      42.747  38.756  27.456  1.00  0.00    -0.279 N 
ATOM     20  H   UNL A   1      42.548  39.124  26.564  1.00  0.00     0.180 HD
BRANCH  19  21
ATOM     21  C   UNL A   1      42.469  39.565  28.590  1.00  0.00     0.052 A 
ATOM     22  C   UNL A   1      41.245  40.208  28.806  1.00  0.00     0.030 A 
ATOM     23  C   UNL A   1      43.482  39.674  29.546  1.00  0.00     0.069 A 
ATOM     24  C   UNL A   1      41.075  41.036  29.921  1.00  0.00     0.044 A 
ATOM     25  C   UNL A   1      43.304  40.492  30.656  1.00  0.00     0.160 A 
ATOM     26  C   UNL A   1      42.114  41.183  30.835  1.00  0.00     0.158 A 
ATOM     27  F   UNL A   1      44.298  40.611  31.546  1.00  0.00    -0.204 F 
ATOM     28  F   UNL A   1      41.955  41.988  31.893  1.00  0.00    -0.204 F 
ENDBRANCH  19  21
ENDBRANCH  16  19
ENDBRANCH  14  16
ENDBRANCH   8  10
ENDBRANCH   7   8
ENDBRANCH   6   7
ENDBRANCH   5   6
ENDBRANCH   4   5
ENDBRANCH   3   4
ENDBRANCH   2   3
ENDBRANCH   1   2
BRANCH   1  29
ATOM     29  C   UNL A   1      36.961  33.677  34.875  1.00  0.00     0.188 C 
BRANCH  29  30
ATOM     30  C   UNL A   1      37.969  34.515  34.055  1.00  0.00     0.188 C 
BRANCH  30  31
ATOM     31  O   UNL A   1      37.696  34.580  32.657  1.00  0.00    -0.376 OA
BRANCH  31  32
ATOM     32  C   UNL A   1      36.464  34.010  32.234  1.00  0.00     0.202 C 
BRANCH  32  33
ATOM     33  C   UNL A   1      36.644  32.821  31.284  1.00  0.00     0.261 C 
BRANCH  33  34
ATOM     34  O   UNL A   1      37.532  31.801  31.768  1.00  0.00    -0.460 OA
BRANCH  34  35
ATOM     35  C   UNL A   1      37.257  30.532  31.394  1.00  0.00     0.338 C 
ATOM     36  O   UNL A   1      36.183  29.963  31.453  1.00  0.00    -0.246 OA
BRANCH  35  37
ATOM     37  C   UNL A   1      38.454  29.987  30.731  1.00  0.00     0.060 A 
ATOM     38  C   UNL A   1      39.447  29.385  31.516  1.00  0.00     0.016 A 
ATOM     39  C   UNL A   1      38.599  30.082  29.346  1.00  0.00     0.016 A 
ATOM     40  C   UNL A   1      40.613  28.913  30.913  1.00  0.00     0.010 A 
ATOM     41  C   UNL A   1      39.771  29.621  28.747  1.00  0.00     0.010 A 
ATOM     42  C   UNL A   1      40.797  29.066  29.532  1.00  0.00    -0.014 A 
BRANCH  42  43
ATOM     43  C   UNL A   1      42.127  28.824  28.927  1.00  0.00     0.031 A 
ATOM     44  C   UNL A   1      42.444  27.438  28.435  1.00  0.00     0.074 A 
ATOM     45  C   UNL A   1      43.037  29.807  28.824  1.00  0.00     0.049 A 
ATOM     46  N   UNL A   1      43.550  26.978  27.911  1.00  0.00    -0.248 NA
ATOM     47  C   UNL A   1      41.369  26.437  28.553  1.00  0.00     0.031 C 
ATOM     48  C   UNL A   1      42.837  31.194  29.238  1.00  0.00     0.029 A 
ATOM     49  N   UNL A   1      44.322  29.778  28.344  1.00  0.00    -0.354 N 
ATOM     50  C   UNL A   1      43.307  25.637  27.638  1.00  0.00     0.074 A 
ATOM     51  C   UNL A   1      41.960  25.350  28.081  1.00  0.00     0.031 C 
ATOM     52  C   UNL A   1      43.969  31.885  29.004  1.00  0.00     0.029 A 
ATOM     53  C   UNL A   1      44.977  30.981  28.451  1.00  0.00     0.049 A 
ATOM     54  H   UNL A   1      44.735  28.971  27.961  1.00  0.00     0.167 HD
ATOM     55  C   UNL A   1      44.128  24.727  27.066  1.00  0.00     0.031 A 
ATOM     56  C   UNL A   1      46.250  31.309  28.154  1.00  0.00     0.031 A 
ATOM     57  C   UNL A   1      45.476  25.005  26.651  1.00  0.00     0.049 A 
ATOM     58  C   UNL A   1      47.172  30.259  27.586  1.00  0.00     0.074 A 
ATOM     59  C   UNL A   1      46.387  24.150  26.056  1.00  0.00     0.029 A 
ATOM     60  N   UNL A   1      46.110  26.228  26.800  1.00  0.00    -0.354 N 
ATOM     61  N   UNL A   1      46.917  29.003  27.303  1.00  0.00    -0.248 NA
ATOM     62  C   UNL A   1      48.550  30.677  27.289  1.00  0.00     0.031 C 
ATOM     63  C   UNL A   1      47.590  24.844  25.889  1.00  0.00     0.029 A 
ATOM     64  C   UNL A   1      47.410  26.146  26.329  1.00  0.00     0.049 A 
ATOM     65  H   UNL A   1      45.698  27.036  27.184  1.00  0.00     0.167 HD
ATOM     66  C   UNL A   1      48.096  28.488  26.771  1.00  0.00     0.074 A 
ATOM     67  C   UNL A   1      49.058  29.571  26.761  1.00  0.00     0.031 C 
ATOM     68  C   UNL A   1      48.355  27.233  26.326  1.00  0.00     0.031 A 
BRANCH  55  69
ATOM     69  C   UNL A   1      43.592  23.333  26.889  1.00  0.00    -0.014 A 
ATOM     70  C   UNL A   1      43.134  22.586  27.989  1.00  0.00     0.010 A 
ATOM     71  C   UNL A   1      43.530  22.768  25.602  1.00  0.00     0.010 A 
ATOM     72  C   UNL A   1      42.662  21.284  27.811  1.00  0.00     0.020 A 
ATOM     73  C   UNL A   1      43.035  21.475  25.417  1.00  0.00     0.020 A 
ATOM     74  C   UNL A   1      42.620  20.735  26.526  1.00  0.00     0.054 A 
BRANCH  74  75
ATOM     75  S   UNL A   1      41.992  19.046  26.321  1.00  0.00     0.124 S 
ATOM     76  O   UNL A   1      42.004  18.552  27.696  1.00  0.00    -0.237 OA
ATOM     77  O   UNL A   1      40.667  19.264  25.744  1.00  0.00    -0.237 OA
ATOM     78  O   UNL A   1      42.962  18.421  25.426  1.00  0.00    -0.744 OA
ENDBRANCH  74  75
ENDBRANCH  55  69
BRANCH  56  79
ATOM     79  C   UNL A   1      46.739  32.692  28.404  1.00  0.00    -0.014 A 
ATOM     80  C   UNL A   1      46.781  33.637  27.364  1.00  0.00     0.010 A 
ATOM     81  C   UNL A   1      47.168  33.070  29.689  1.00  0.00     0.010 A 
ATOM     82  C   UNL A   1      47.256  34.930  27.601  1.00  0.00     0.020 A 
ATOM     83  C   UNL A   1      47.621  34.369  29.936  1.00  0.00     0.020 A 
ATOM     84  C   UNL A   1      47.670  35.289  28.887  1.00  0.00     0.054 A 
BRANCH  84  85
ATOM     85  S   UNL A   1      48.228  36.989  29.186  1.00  0.00     0.124 S 
ATOM     86  O   UNL A   1      49.605  36.785  29.621  1.00  0.00    -0.237 OA
ATOM     87  O   UNL A   1      48.062  37.611  27.875  1.00  0.00    -0.237 OA
ATOM     88  O   UNL A   1      47.310  37.473  30.215  1.00  0.00    -0.744 OA
ENDBRANCH  84  85
ENDBRANCH  56  79
BRANCH  68  89
ATOM     89  C   UNL A   1      49.724  26.964  25.758  1.00  0.00    -0.014 A 
ATOM     90  C   UNL A   1      50.019  27.230  24.410  1.00  0.00     0.010 A 
ATOM     91  C   UNL A   1      50.746  26.500  26.607  1.00  0.00     0.010 A 
ATOM     92  C   UNL A   1      51.307  27.009  23.913  1.00  0.00     0.020 A 
ATOM     93  C   UNL A   1      52.040  26.302  26.119  1.00  0.00     0.020 A 
ATOM     94  C   UNL A   1      52.309  26.545  24.771  1.00  0.00     0.054 A 
BRANCH  94  95
ATOM     95  S   UNL A   1      53.985  26.312  24.115  1.00  0.00     0.124 S 
ATOM     96  O   UNL A   1      54.666  27.514  24.589  1.00  0.00    -0.237 OA
ATOM     97  O   UNL A   1      54.406  25.062  24.742  1.00  0.00    -0.237 OA
ATOM     98  O   UNL A   1      53.784  26.240  22.669  1.00  0.00    -0.744 OA
ENDBRANCH  94  95
ENDBRANCH  68  89
ENDBRANCH  42  43
ENDBRANCH  35  37
ENDBRANCH  34  35
ENDBRANCH  33  34
ENDBRANCH  32  33
ENDBRANCH  31  32
ENDBRANCH  30  31
ENDBRANCH  29  30
ENDBRANCH   1  29
TORSDOF 26
ENDMDL
MODEL 3
REMARK VINA RESULT:      -8.5      6.235     10.866
REMARK SMILES Cc1cc(S(=O)(=O)Nc2ccc(F)c(F)c2)sc1C(=O)OCCOCCOCCOCCOC(=O)c1ccc(-c2c3nc(c(-c4ccc(S(=O)(=O)[O-])cc4)c4ccc([nH]4)c(-c4ccc(S(=O)(=O)[O-])cc4)c4nc(c(-c5ccc(S(=O)(=O)[O-])cc5)c5ccc2[nH]5)C=C4)C=C3)cc1
REMARK SMILES IDX 27 1 26 2 25 3 24 4 23 5 22 6 21 7 19 8 20 9 18 10 1 11 2 12
REMARK SMILES IDX 3 13 4 14 17 15 5 16 6 17 7 18 8 19 9 21 10 22 16 23 11 24
REMARK SMILES IDX 14 25 12 26 15 27 13 28 28 29 29 30 30 31 31 32 32 33 33 34
REMARK SMILES IDX 34 35 35 36 36 37 37 38 95 39 38 40 94 41 39 42 40 43 41 44
REMARK SMILES IDX 88 45 42 46 93 47 87 48 89 49 43 50 92 51 86 52 85 53 44 55
REMARK SMILES IDX 74 56 55 57 73 58 56 59 59 60 72 61 90 62 57 63 58 64 71 66
REMARK SMILES IDX 91 67 60 68 45 69 46 70 54 71 47 72 53 73 48 74 49 75 50 76
REMARK SMILES IDX 51 77 52 78 75 79 76 80 84 81 77 82 83 83 78 84 79 85 80 86
REMARK SMILES IDX 81 87 82 88 61 89 62 90 70 91 63 92 69 93 64 94 65 95 66 96
REMARK SMILES IDX 67 97 68 98
REMARK H PARENT 8 20 89 54 59 65
REMARK Flexibility Score: inf
ROOT
ATOM      1  O   UNL A   1      39.766  26.072  27.890  1.00  0.00    -0.377 OA
ENDROOT
BRANCH   1   2
ATOM      2  C   UNL A   1      39.911  27.180  28.757  1.00  0.00     0.188 C 
BRANCH   2   3
ATOM      3  C   UNL A   1      39.281  28.485  28.245  1.00  0.00     0.188 C 
BRANCH   3   4
ATOM      4  O   UNL A   1      37.910  28.626  28.604  1.00  0.00    -0.376 OA
BRANCH   4   5
ATOM      5  C   UNL A   1      37.105  29.399  27.722  1.00  0.00     0.202 C 
BRANCH   5   6
ATOM      6  C   UNL A   1      35.690  29.715  28.222  1.00  0.00     0.261 C 
BRANCH   6   7
ATOM      7  O   UNL A   1      34.636  29.106  27.464  1.00  0.00    -0.459 OA
BRANCH   7   8
ATOM      8  C   UNL A   1      33.689  29.887  26.885  1.00  0.00     0.348 C 
ATOM      9  O   UNL A   1      33.703  31.113  26.914  1.00  0.00    -0.245 OA
BRANCH   8  10
ATOM     10  C   UNL A   1      32.791  29.038  26.109  1.00  0.00     0.116 A 
ATOM     11  C   UNL A   1      31.373  27.829  27.912  1.00  0.00     0.046 C 
ATOM     12  C   UNL A   1      31.846  28.098  26.514  1.00  0.00    -0.024 A 
ATOM     13  C   UNL A   1      31.375  27.333  25.396  1.00  0.00     0.038 A 
ATOM     14  C   UNL A   1      31.951  27.696  24.198  1.00  0.00     0.141 A 
ATOM     15  S   UNL A   1      32.908  29.093  24.389  1.00  0.00    -0.115 S 
BRANCH  14  16
ATOM     16  S   UNL A   1      31.807  26.945  22.589  1.00  0.00     0.271 S 
ATOM     17  O   UNL A   1      30.653  27.592  22.001  1.00  0.00    -0.200 OA
ATOM     18  O   UNL A   1      33.123  27.087  22.001  1.00  0.00    -0.200 OA
BRANCH  16  19
ATOM     19  N   UNL A   1      31.513  25.297  22.642  1.00  0.00    -0.279 N 
ATOM     20  H   UNL A   1      30.684  24.961  22.230  1.00  0.00     0.180 HD
BRANCH  19  21
ATOM     21  C   UNL A   1      32.389  24.355  23.245  1.00  0.00     0.052 A 
ATOM     22  C   UNL A   1      33.593  23.933  22.669  1.00  0.00     0.030 A 
ATOM     23  C   UNL A   1      32.020  23.872  24.503  1.00  0.00     0.069 A 
ATOM     24  C   UNL A   1      34.368  22.956  23.304  1.00  0.00     0.044 A 
ATOM     25  C   UNL A   1      32.801  22.908  25.132  1.00  0.00     0.160 A 
ATOM     26  C   UNL A   1      33.959  22.439  24.528  1.00  0.00     0.158 A 
ATOM     27  F   UNL A   1      32.416  22.430  26.323  1.00  0.00    -0.204 F 
ATOM     28  F   UNL A   1      34.695  21.493  25.126  1.00  0.00    -0.204 F 
ENDBRANCH  19  21
ENDBRANCH  16  19
ENDBRANCH  14  16
ENDBRANCH   8  10
ENDBRANCH   7   8
ENDBRANCH   6   7
ENDBRANCH   5   6
ENDBRANCH   4   5
ENDBRANCH   3   4
ENDBRANCH   2   3
ENDBRANCH   1   2
BRANCH   1  29
ATOM     29  C   UNL A   1      40.724  25.015  27.953  1.00  0.00     0.188 C 
BRANCH  29  30
ATOM     30  C   UNL A   1      40.368  23.544  27.636  1.00  0.00     0.188 C 
BRANCH  30  31
ATOM     31  O   UNL A   1      40.964  23.027  26.448  1.00  0.00    -0.376 OA
BRANCH  31  32
ATOM     32  C   UNL A   1      42.161  23.665  26.021  1.00  0.00     0.202 C 
BRANCH  32  33
ATOM     33  C   UNL A   1      43.410  22.802  26.228  1.00  0.00     0.261 C 
BRANCH  33  34
ATOM     34  O   UNL A   1      44.624  23.547  26.412  1.00  0.00    -0.460 OA
BRANCH  34  35
ATOM     35  C   UNL A   1      44.976  23.828  27.687  1.00  0.00     0.338 C 
ATOM     36  O   UNL A   1      45.178  23.035  28.587  1.00  0.00    -0.246 OA
BRANCH  35  37
ATOM     37  C   UNL A   1      45.248  25.274  27.772  1.00  0.00     0.060 A 
ATOM     38  C   UNL A   1      45.800  25.789  28.951  1.00  0.00     0.016 A 
ATOM     39  C   UNL A   1      44.947  26.113  26.697  1.00  0.00     0.016 A 
ATOM     40  C   UNL A   1      46.014  27.163  29.071  1.00  0.00     0.010 A 
ATOM     41  C   UNL A   1      45.149  27.487  26.825  1.00  0.00     0.010 A 
ATOM     42  C   UNL A   1      45.651  28.021  28.025  1.00  0.00    -0.014 A 
BRANCH  42  43
ATOM     43  C   UNL A   1      45.615  29.485  28.241  1.00  0.00     0.031 A 
ATOM     44  C   UNL A   1      44.353  30.094  28.789  1.00  0.00     0.074 A 
ATOM     45  C   UNL A   1      46.674  30.260  27.952  1.00  0.00     0.049 A 
ATOM     46  N   UNL A   1      44.073  31.350  29.022  1.00  0.00    -0.248 NA
ATOM     47  C   UNL A   1      43.261  29.161  29.115  1.00  0.00     0.031 C 
ATOM     48  C   UNL A   1      47.960  29.785  27.444  1.00  0.00     0.029 A 
ATOM     49  N   UNL A   1      46.826  31.621  28.037  1.00  0.00    -0.354 N 
ATOM     50  C   UNL A   1      42.775  31.358  29.518  1.00  0.00     0.074 A 
ATOM     51  C   UNL A   1      42.312  29.988  29.526  1.00  0.00     0.031 C 
ATOM     52  C   UNL A   1      48.769  30.843  27.251  1.00  0.00     0.029 A 
ATOM     53  C   UNL A   1      48.048  32.068  27.595  1.00  0.00     0.049 A 
ATOM     54  H   UNL A   1      46.125  32.220  28.381  1.00  0.00     0.167 HD
ATOM     55  C   UNL A   1      42.035  32.411  29.935  1.00  0.00     0.031 A 
ATOM     56  C   UNL A   1      48.521  33.323  27.465  1.00  0.00     0.031 A 
ATOM     57  C   UNL A   1      42.483  33.776  29.902  1.00  0.00     0.049 A 
ATOM     58  C   UNL A   1      47.652  34.488  27.867  1.00  0.00     0.074 A 
ATOM     59  C   UNL A   1      41.810  34.914  30.308  1.00  0.00     0.029 A 
ATOM     60  N   UNL A   1      43.717  34.189  29.424  1.00  0.00    -0.354 N 
ATOM     61  N   UNL A   1      46.438  34.478  28.366  1.00  0.00    -0.248 NA
ATOM     62  C   UNL A   1      48.222  35.832  27.696  1.00  0.00     0.031 C 
ATOM     63  C   UNL A   1      42.618  36.022  30.030  1.00  0.00     0.029 A 
ATOM     64  C   UNL A   1      43.817  35.568  29.503  1.00  0.00     0.049 A 
ATOM     65  H   UNL A   1      44.419  33.591  29.079  1.00  0.00     0.167 HD
ATOM     66  C   UNL A   1      46.110  35.811  28.592  1.00  0.00     0.074 A 
ATOM     67  C   UNL A   1      47.257  36.599  28.187  1.00  0.00     0.031 C 
ATOM     68  C   UNL A   1      44.965  36.336  29.095  1.00  0.00     0.031 A 
BRANCH  55  69
ATOM     69  C   UNL A   1      40.646  32.121  30.434  1.00  0.00    -0.014 A 
ATOM     70  C   UNL A   1      40.408  31.824  31.788  1.00  0.00     0.010 A 
ATOM     71  C   UNL A   1      39.561  32.163  29.540  1.00  0.00     0.010 A 
ATOM     72  C   UNL A   1      39.116  31.534  32.231  1.00  0.00     0.020 A 
ATOM     73  C   UNL A   1      38.263  31.897  29.983  1.00  0.00     0.020 A 
ATOM     74  C   UNL A   1      38.052  31.566  31.324  1.00  0.00     0.054 A 
BRANCH  74  75
ATOM     75  S   UNL A   1      36.382  31.196  31.927  1.00  0.00     0.124 S 
ATOM     76  O   UNL A   1      36.441  31.696  33.299  1.00  0.00    -0.237 OA
ATOM     77  O   UNL A   1      35.534  31.961  31.016  1.00  0.00    -0.237 OA
ATOM     78  O   UNL A   1      36.280  29.745  31.797  1.00  0.00    -0.744 OA
ENDBRANCH  74  75
ENDBRANCH  55  69
BRANCH  56  79
ATOM     79  C   UNL A   1      49.884  33.549  26.914  1.00  0.00    -0.014 A 
ATOM     80  C   UNL A   1      51.017  33.461  27.741  1.00  0.00     0.010 A 
ATOM     81  C   UNL A   1      50.056  33.859  25.552  1.00  0.00     0.010 A 
ATOM     82  C   UNL A   1      52.294  33.690  27.220  1.00  0.00     0.020 A 
ATOM     83  C   UNL A   1      51.332  34.065  25.022  1.00  0.00     0.020 A 
ATOM     84  C   UNL A   1      52.443  33.988  25.863  1.00  0.00     0.054 A 
BRANCH  84  85
ATOM     85  S   UNL A   1      54.114  34.225  25.196  1.00  0.00     0.124 S 
ATOM     86  O   UNL A   1      54.836  33.099  25.778  1.00  0.00    -0.237 OA
ATOM     87  O   UNL A   1      53.892  34.160  23.754  1.00  0.00    -0.237 OA
ATOM     88  O   UNL A   1      54.497  35.543  25.699  1.00  0.00    -0.744 OA
ENDBRANCH  84  85
ENDBRANCH  56  79
BRANCH  68  89
ATOM     89  C   UNL A   1      44.901  37.831  29.269  1.00  0.00    -0.014 A 
ATOM     90  C   UNL A   1      44.490  38.672  28.221  1.00  0.00     0.010 A 
ATOM     91  C   UNL A   1      45.196  38.393  30.526  1.00  0.00     0.010 A 
ATOM     92  C   UNL A   1      44.401  40.053  28.419  1.00  0.00     0.020 A 
ATOM     93  C   UNL A   1      45.084  39.770  30.733  1.00  0.00     0.020 A 
ATOM     94  C   UNL A   1      44.700  40.593  29.673  1.00  0.00     0.054 A 
BRANCH  94  95
ATOM     95  S   UNL A   1      44.531  42.383  29.918  1.00  0.00     0.124 S 
ATOM     96  O   UNL A   1      43.258  42.473  30.628  1.00  0.00    -0.237 OA
ATOM     97  O   UNL A   1      45.715  42.714  30.706  1.00  0.00    -0.237 OA
ATOM     98  O   UNL A   1      44.524  42.920  28.559  1.00  0.00    -0.744 OA
ENDBRANCH  94  95
ENDBRANCH  68  89
ENDBRANCH  42  43
ENDBRANCH  35  37
ENDBRANCH  34  35
ENDBRANCH  33  34
ENDBRANCH  32  33
ENDBRANCH  31  32
ENDBRANCH  30  31
ENDBRANCH  29  30
ENDBRANCH   1  29
TORSDOF 26
ENDMDL
