MODEL 1
REMARK VINA RESULT:      -7.7      0.000      0.000
REMARK SMILES CC(=O)N[C@@H](CCc1nc2ccccc2[nH]1)C(=O)OCCOCCOCCOCCOC(=O)c1ccc(-c2c3nc(c(-c4ccc(S(=O)(=O)[O-])cc4)c4ccc([nH]4)c(-c4ccc(S(=O)(=O)[O-])cc4)c4nc(c(-c5ccc(S(=O)(=O)[O-])cc5)c5ccc2[nH]5)C=C4)C=C3)cc1
REMARK SMILES IDX 25 1 24 2 23 3 22 4 21 5 20 6 19 7 17 8 18 9 5 10 4 11 1 12
REMARK SMILES IDX 2 13 3 14 6 16 7 17 8 18 9 19 16 20 10 21 15 22 11 24 14 25
REMARK SMILES IDX 12 26 13 27 26 28 27 29 28 30 29 31 30 32 31 33 32 34 33 35
REMARK SMILES IDX 34 36 35 37 93 38 36 39 92 40 37 41 38 42 39 43 86 44 40 45
REMARK SMILES IDX 91 46 85 47 87 48 41 49 90 50 84 51 83 52 42 54 72 55 53 56
REMARK SMILES IDX 71 57 54 58 57 59 70 60 88 61 55 62 56 63 69 65 89 66 58 67
REMARK SMILES IDX 43 68 44 69 52 70 45 71 51 72 46 73 47 74 48 75 49 76 50 77
REMARK SMILES IDX 73 78 74 79 82 80 75 81 81 82 76 83 77 84 78 85 79 86 80 87
REMARK SMILES IDX 59 88 60 89 68 90 61 91 67 92 62 93 63 94 64 95 65 96 66 97
REMARK H PARENT 4 15 16 23 87 53 57 64
REMARK Flexibility Score: inf
ROOT
ATOM      1  O   UNL A   1      32.332  36.485  30.981  1.00  0.00    -0.377 OA
ENDROOT
BRANCH   1   2
ATOM      2  C   UNL A   1      33.351  36.974  31.837  1.00  0.00     0.188 C 
BRANCH   2   3
ATOM      3  C   UNL A   1      33.813  36.011  32.957  1.00  0.00     0.188 C 
BRANCH   3   4
ATOM      4  O   UNL A   1      34.498  34.802  32.655  1.00  0.00    -0.376 OA
BRANCH   4   5
ATOM      5  C   UNL A   1      35.900  34.749  32.842  1.00  0.00     0.202 C 
BRANCH   5   6
ATOM      6  C   UNL A   1      36.584  33.408  33.088  1.00  0.00     0.261 C 
BRANCH   6   7
ATOM      7  O   UNL A   1      37.766  33.390  33.897  1.00  0.00    -0.462 OA
BRANCH   7   8
ATOM      8  C   UNL A   1      37.573  33.189  35.222  1.00  0.00     0.328 C 
ATOM      9  O   UNL A   1      36.513  33.341  35.820  1.00  0.00    -0.250 OA
BRANCH   8  10
ATOM     10  C   UNL A   1      38.881  32.839  35.943  1.00  0.00     0.192 C 
BRANCH  10  11
ATOM     11  N   UNL A   1      38.786  32.197  37.267  1.00  0.00    -0.343 N 
ATOM     12  C   UNL A   1      38.738  34.278  38.614  1.00  0.00     0.114 C 
ATOM     13  C   UNL A   1      38.758  32.778  38.503  1.00  0.00     0.217 C 
ATOM     14  O   UNL A   1      38.696  32.068  39.507  1.00  0.00    -0.275 OA
ATOM     15  H   UNL A   1      38.736  31.214  37.259  1.00  0.00     0.164 HD
ENDBRANCH  10  11
BRANCH  10  16
ATOM     16  C   UNL A   1      39.798  32.037  34.993  1.00  0.00     0.045 C 
BRANCH  16  17
ATOM     17  C   UNL A   1      39.667  30.504  34.985  1.00  0.00     0.078 C 
BRANCH  17  18
ATOM     18  C   UNL A   1      40.923  29.713  35.176  1.00  0.00     0.107 A 
ATOM     19  N   UNL A   1      42.060  30.078  35.735  1.00  0.00    -0.233 NA
ATOM     20  N   UNL A   1      41.022  28.422  34.697  1.00  0.00    -0.342 N 
ATOM     21  C   UNL A   1      42.970  29.091  35.400  1.00  0.00     0.089 A 
ATOM     22  C   UNL A   1      42.345  28.063  34.708  1.00  0.00     0.065 A 
ATOM     23  H   UNL A   1      40.274  27.857  34.400  1.00  0.00     0.168 HD
ATOM     24  C   UNL A   1      44.369  29.065  35.538  1.00  0.00     0.030 A 
ATOM     25  C   UNL A   1      43.029  26.984  34.146  1.00  0.00     0.028 A 
ATOM     26  C   UNL A   1      45.090  28.041  34.904  1.00  0.00     0.002 A 
ATOM     27  C   UNL A   1      44.425  27.015  34.228  1.00  0.00     0.002 A 
ENDBRANCH  17  18
ENDBRANCH  16  17
ENDBRANCH  10  16
ENDBRANCH   8  10
ENDBRANCH   7   8
ENDBRANCH   6   7
ENDBRANCH   5   6
ENDBRANCH   4   5
ENDBRANCH   3   4
ENDBRANCH   2   3
ENDBRANCH   1   2
BRANCH   1  28
ATOM     28  C   UNL A   1      32.709  35.394  30.153  1.00  0.00     0.188 C 
BRANCH  28  29
ATOM     29  C   UNL A   1      33.778  35.704  29.088  1.00  0.00     0.188 C 
BRANCH  29  30
ATOM     30  O   UNL A   1      34.629  34.598  28.810  1.00  0.00    -0.376 OA
BRANCH  30  31
ATOM     31  C   UNL A   1      34.187  33.629  27.872  1.00  0.00     0.202 C 
BRANCH  31  32
ATOM     32  C   UNL A   1      34.144  32.162  28.336  1.00  0.00     0.261 C 
BRANCH  32  33
ATOM     33  O   UNL A   1      34.394  31.162  27.336  1.00  0.00    -0.460 OA
BRANCH  33  34
ATOM     34  C   UNL A   1      34.589  29.890  27.745  1.00  0.00     0.338 C 
ATOM     35  O   UNL A   1      33.838  28.945  27.573  1.00  0.00    -0.246 OA
BRANCH  34  36
ATOM     36  C   UNL A   1      35.978  29.780  28.246  1.00  0.00     0.060 A 
ATOM     37  C   UNL A   1      37.039  30.011  27.360  1.00  0.00     0.016 A 
ATOM     38  C   UNL A   1      36.234  29.463  29.583  1.00  0.00     0.016 A 
ATOM     39  C   UNL A   1      38.359  29.884  27.796  1.00  0.00     0.010 A 
ATOM     40  C   UNL A   1      37.556  29.306  30.011  1.00  0.00     0.010 A 
ATOM     41  C   UNL A   1      38.623  29.479  29.110  1.00  0.00    -0.014 A 
BRANCH  41  42
ATOM     42  C   UNL A   1      39.983  29.016  29.479  1.00  0.00     0.031 A 
ATOM     43  C   UNL A   1      40.867  29.965  30.243  1.00  0.00     0.074 A 
ATOM     44  C   UNL A   1      40.425  27.785  29.165  1.00  0.00     0.049 A 
ATOM     45  N   UNL A   1      42.109  29.819  30.626  1.00  0.00    -0.248 NA
ATOM     46  C   UNL A   1      40.268  31.256  30.624  1.00  0.00     0.031 C 
ATOM     47  C   UNL A   1      39.648  26.752  28.482  1.00  0.00     0.029 A 
ATOM     48  N   UNL A   1      41.648  27.200  29.378  1.00  0.00    -0.354 N 
ATOM     49  C   UNL A   1      42.442  30.999  31.280  1.00  0.00     0.074 A 
ATOM     50  C   UNL A   1      41.283  31.861  31.221  1.00  0.00     0.031 C 
ATOM     51  C   UNL A   1      40.421  25.665  28.318  1.00  0.00     0.029 A 
ATOM     52  C   UNL A   1      41.756  25.936  28.849  1.00  0.00     0.049 A 
ATOM     53  H   UNL A   1      42.380  27.644  29.864  1.00  0.00     0.167 HD
ATOM     54  C   UNL A   1      43.609  31.336  31.880  1.00  0.00     0.031 A 
ATOM     55  C   UNL A   1      42.819  25.107  28.778  1.00  0.00     0.031 A 
ATOM     56  C   UNL A   1      44.768  30.486  31.919  1.00  0.00     0.049 A 
ATOM     57  C   UNL A   1      44.136  25.540  29.371  1.00  0.00     0.074 A 
ATOM     58  C   UNL A   1      45.995  30.731  32.509  1.00  0.00     0.029 A 
ATOM     59  N   UNL A   1      44.848  29.232  31.335  1.00  0.00    -0.354 N 
ATOM     60  N   UNL A   1      44.431  26.650  30.006  1.00  0.00    -0.248 NA
ATOM     61  C   UNL A   1      45.262  24.603  29.244  1.00  0.00     0.031 C 
ATOM     62  C   UNL A   1      46.839  29.655  32.224  1.00  0.00     0.029 A 
ATOM     63  C   UNL A   1      46.115  28.704  31.520  1.00  0.00     0.049 A 
ATOM     64  H   UNL A   1      44.114  28.782  30.858  1.00  0.00     0.167 HD
ATOM     65  C   UNL A   1      45.768  26.531  30.378  1.00  0.00     0.074 A 
ATOM     66  C   UNL A   1      46.217  25.236  29.912  1.00  0.00     0.031 C 
ATOM     67  C   UNL A   1      46.551  27.414  31.048  1.00  0.00     0.031 A 
BRANCH  54  68
ATOM     68  C   UNL A   1      43.701  32.705  32.502  1.00  0.00    -0.014 A 
ATOM     69  C   UNL A   1      42.840  33.098  33.543  1.00  0.00     0.010 A 
ATOM     70  C   UNL A   1      44.690  33.603  32.058  1.00  0.00     0.010 A 
ATOM     71  C   UNL A   1      42.943  34.374  34.102  1.00  0.00     0.020 A 
ATOM     72  C   UNL A   1      44.817  34.869  32.636  1.00  0.00     0.020 A 
ATOM     73  C   UNL A   1      43.931  35.252  33.645  1.00  0.00     0.054 A 
BRANCH  73  74
ATOM     74  S   UNL A   1      44.058  36.892  34.409  1.00  0.00     0.124 S 
ATOM     75  O   UNL A   1      42.764  37.481  34.074  1.00  0.00    -0.237 OA
ATOM     76  O   UNL A   1      44.255  36.571  35.820  1.00  0.00    -0.237 OA
ATOM     77  O   UNL A   1      45.208  37.497  33.743  1.00  0.00    -0.744 OA
ENDBRANCH  73  74
ENDBRANCH  54  68
BRANCH  55  78
ATOM     78  C   UNL A   1      42.692  23.793  28.088  1.00  0.00    -0.014 A 
ATOM     79  C   UNL A   1      42.280  22.646  28.789  1.00  0.00     0.010 A 
ATOM     80  C   UNL A   1      42.994  23.682  26.717  1.00  0.00     0.010 A 
ATOM     81  C   UNL A   1      42.183  21.412  28.138  1.00  0.00     0.020 A 
ATOM     82  C   UNL A   1      42.869  22.458  26.056  1.00  0.00     0.020 A 
ATOM     83  C   UNL A   1      42.472  21.329  26.772  1.00  0.00     0.054 A 
BRANCH  83  84
ATOM     84  S   UNL A   1      42.271  19.734  25.930  1.00  0.00     0.124 S 
ATOM     85  O   UNL A   1      42.679  18.790  26.964  1.00  0.00    -0.237 OA
ATOM     86  O   UNL A   1      40.850  19.736  25.594  1.00  0.00    -0.237 OA
ATOM     87  O   UNL A   1      43.173  19.841  24.785  1.00  0.00    -0.744 OA
ENDBRANCH  83  84
ENDBRANCH  55  78
BRANCH  67  88
ATOM     88  C   UNL A   1      47.967  26.998  31.356  1.00  0.00    -0.014 A 
ATOM     89  C   UNL A   1      48.302  26.381  32.574  1.00  0.00     0.010 A 
ATOM     90  C   UNL A   1      48.967  27.175  30.382  1.00  0.00     0.010 A 
ATOM     91  C   UNL A   1      49.619  25.980  32.825  1.00  0.00     0.020 A 
ATOM     92  C   UNL A   1      50.276  26.746  30.616  1.00  0.00     0.020 A 
ATOM     93  C   UNL A   1      50.597  26.163  31.843  1.00  0.00     0.054 A 
BRANCH  93  94
ATOM     94  S   UNL A   1      52.286  25.596  32.178  1.00  0.00     0.124 S 
ATOM     95  O   UNL A   1      52.081  24.181  32.470  1.00  0.00    -0.237 OA
ATOM     96  O   UNL A   1      52.975  25.885  30.922  1.00  0.00    -0.237 OA
ATOM     97  O   UNL A   1      52.708  26.412  33.313  1.00  0.00    -0.744 OA
ENDBRANCH  93  94
ENDBRANCH  67  88
ENDBRANCH  41  42
ENDBRANCH  34  36
ENDBRANCH  33  34
ENDBRANCH  32  33
ENDBRANCH  31  32
ENDBRANCH  30  31
ENDBRANCH  29  30
ENDBRANCH  28  29
ENDBRANCH   1  28
TORSDOF 27
ENDMDL
MODEL 2
REMARK VINA RESULT:      -7.5      1.784      8.068
REMARK SMILES CC(=O)N[C@@H](CCc1nc2ccccc2[nH]1)C(=O)OCCOCCOCCOCCOC(=O)c1ccc(-c2c3nc(c(-c4ccc(S(=O)(=O)[O-])cc4)c4ccc([nH]4)c(-c4ccc(S(=O)(=O)[O-])cc4)c4nc(c(-c5ccc(S(=O)(=O)[O-])cc5)c5ccc2[nH]5)C=C4)C=C3)cc1
REMARK SMILES IDX 25 1 24 2 23 3 22 4 21 5 20 6 19 7 17 8 18 9 5 10 4 11 1 12
REMARK SMILES IDX 2 13 3 14 6 16 7 17 8 18 9 19 16 20 10 21 15 22 11 24 14 25
REMARK SMILES IDX 12 26 13 27 26 28 27 29 28 30 29 31 30 32 31 33 32 34 33 35
REMARK SMILES IDX 34 36 35 37 93 38 36 39 92 40 37 41 38 42 39 43 86 44 40 45
REMARK SMILES IDX 91 46 85 47 87 48 41 49 90 50 84 51 83 52 42 54 72 55 53 56
REMARK SMILES IDX 71 57 54 58 57 59 70 60 88 61 55 62 56 63 69 65 89 66 58 67
REMARK SMILES IDX 43 68 44 69 52 70 45 71 51 72 46 73 47 74 48 75 49 76 50 77
REMARK SMILES IDX 73 78 74 79 82 80 75 81 81 82 76 83 77 84 78 85 79 86 80 87
REMARK SMILES IDX 59 88 60 89 68 90 61 91 67 92 62 93 63 94 64 95 65 96 66 97
REMARK H PARENT 4 15 16 23 87 53 57 64
REMARK Flexibility Score: inf
ROOT
ATOM      1  O   UNL A   1      32.417  36.861  31.840  1.00  0.00    -0.377 OA
ENDROOT
BRANCH   1   2
ATOM      2  C   UNL A   1      33.648  37.266  32.415  1.00  0.00     0.188 C 
BRANCH   2   3
ATOM      3  C   UNL A   1      34.306  36.256  33.384  1.00  0.00     0.188 C 
BRANCH   3   4
ATOM      4  O   UNL A   1      34.795  35.002  32.925  1.00  0.00    -0.376 OA
BRANCH   4   5
ATOM      5  C   UNL A   1      36.183  34.855  32.692  1.00  0.00     0.202 C 
BRANCH   5   6
ATOM      6  C   UNL A   1      36.895  33.576  33.118  1.00  0.00     0.261 C 
BRANCH   6   7
ATOM      7  O   UNL A   1      37.691  33.609  34.308  1.00  0.00    -0.462 OA
BRANCH   7   8
ATOM      8  C   UNL A   1      37.025  33.409  35.470  1.00  0.00     0.328 C 
ATOM      9  O   UNL A   1      35.806  33.403  35.602  1.00  0.00    -0.250 OA
BRANCH   8  10
ATOM     10  C   UNL A   1      37.982  33.289  36.663  1.00  0.00     0.192 C 
BRANCH  10  11
ATOM     11  N   UNL A   1      37.414  32.885  37.963  1.00  0.00    -0.343 N 
ATOM     12  C   UNL A   1      39.031  34.102  39.395  1.00  0.00     0.114 C 
ATOM     13  C   UNL A   1      37.856  33.180  39.222  1.00  0.00     0.217 C 
ATOM     14  O   UNL A   1      37.255  32.730  40.197  1.00  0.00    -0.275 OA
ATOM     15  H   UNL A   1      36.606  32.326  37.917  1.00  0.00     0.164 HD
ENDBRANCH  10  11
BRANCH  10  16
ATOM     16  C   UNL A   1      39.186  32.403  36.275  1.00  0.00     0.045 C 
BRANCH  16  17
ATOM     17  C   UNL A   1      38.933  30.905  36.032  1.00  0.00     0.078 C 
BRANCH  17  18
ATOM     18  C   UNL A   1      40.102  30.080  35.591  1.00  0.00     0.107 A 
ATOM     19  N   UNL A   1      40.233  29.330  34.514  1.00  0.00    -0.233 NA
ATOM     20  N   UNL A   1      41.235  29.990  36.373  1.00  0.00    -0.342 N 
ATOM     21  C   UNL A   1      41.369  28.571  34.729  1.00  0.00     0.089 A 
ATOM     22  C   UNL A   1      41.988  28.941  35.915  1.00  0.00     0.065 A 
ATOM     23  H   UNL A   1      41.464  30.578  37.128  1.00  0.00     0.168 HD
ATOM     24  C   UNL A   1      41.863  27.460  34.022  1.00  0.00     0.030 A 
ATOM     25  C   UNL A   1      43.094  28.276  36.448  1.00  0.00     0.028 A 
ATOM     26  C   UNL A   1      42.914  26.718  34.582  1.00  0.00     0.002 A 
ATOM     27  C   UNL A   1      43.523  27.129  35.771  1.00  0.00     0.002 A 
ENDBRANCH  17  18
ENDBRANCH  16  17
ENDBRANCH  10  16
ENDBRANCH   8  10
ENDBRANCH   7   8
ENDBRANCH   6   7
ENDBRANCH   5   6
ENDBRANCH   4   5
ENDBRANCH   3   4
ENDBRANCH   2   3
ENDBRANCH   1   2
BRANCH   1  28
ATOM     28  C   UNL A   1      32.506  35.788  30.913  1.00  0.00     0.188 C 
BRANCH  28  29
ATOM     29  C   UNL A   1      32.840  36.186  29.463  1.00  0.00     0.188 C 
BRANCH  29  30
ATOM     30  O   UNL A   1      33.973  35.503  28.941  1.00  0.00    -0.376 OA
BRANCH  30  31
ATOM     31  C   UNL A   1      33.754  34.435  28.032  1.00  0.00     0.202 C 
BRANCH  31  32
ATOM     32  C   UNL A   1      34.149  33.021  28.492  1.00  0.00     0.261 C 
BRANCH  32  33
ATOM     33  O   UNL A   1      35.005  32.272  27.615  1.00  0.00    -0.460 OA
BRANCH  33  34
ATOM     34  C   UNL A   1      35.200  30.963  27.881  1.00  0.00     0.338 C 
ATOM     35  O   UNL A   1      34.603  30.021  27.389  1.00  0.00    -0.246 OA
BRANCH  34  36
ATOM     36  C   UNL A   1      36.421  30.845  28.711  1.00  0.00     0.060 A 
ATOM     37  C   UNL A   1      37.469  31.753  28.509  1.00  0.00     0.016 A 
ATOM     38  C   UNL A   1      36.530  29.851  29.687  1.00  0.00     0.016 A 
ATOM     39  C   UNL A   1      38.645  31.647  29.254  1.00  0.00     0.010 A 
ATOM     40  C   UNL A   1      37.720  29.726  30.411  1.00  0.00     0.010 A 
ATOM     41  C   UNL A   1      38.797  30.600  30.170  1.00  0.00    -0.014 A 
BRANCH  41  42
ATOM     42  C   UNL A   1      40.142  30.278  30.706  1.00  0.00     0.031 A 
ATOM     43  C   UNL A   1      40.852  29.072  30.151  1.00  0.00     0.074 A 
ATOM     44  C   UNL A   1      40.733  31.038  31.645  1.00  0.00     0.049 A 
ATOM     45  N   UNL A   1      42.002  28.553  30.495  1.00  0.00    -0.248 NA
ATOM     46  C   UNL A   1      40.169  28.354  29.060  1.00  0.00     0.031 C 
ATOM     47  C   UNL A   1      40.179  32.263  32.220  1.00  0.00     0.029 A 
ATOM     48  N   UNL A   1      41.937  30.880  32.287  1.00  0.00    -0.354 N 
ATOM     49  C   UNL A   1      42.174  27.444  29.675  1.00  0.00     0.074 A 
ATOM     50  C   UNL A   1      41.002  27.350  28.833  1.00  0.00     0.031 C 
ATOM     51  C   UNL A   1      41.035  32.736  33.142  1.00  0.00     0.029 A 
ATOM     52  C   UNL A   1      42.178  31.830  33.250  1.00  0.00     0.049 A 
ATOM     53  H   UNL A   1      42.567  30.154  32.076  1.00  0.00     0.167 HD
ATOM     54  C   UNL A   1      43.217  26.581  29.623  1.00  0.00     0.031 A 
ATOM     55  C   UNL A   1      43.192  31.937  34.135  1.00  0.00     0.031 A 
ATOM     56  C   UNL A   1      44.372  26.664  30.475  1.00  0.00     0.049 A 
ATOM     57  C   UNL A   1      44.297  30.912  34.122  1.00  0.00     0.074 A 
ATOM     58  C   UNL A   1      45.486  25.843  30.496  1.00  0.00     0.029 A 
ATOM     59  N   UNL A   1      44.557  27.616  31.465  1.00  0.00    -0.354 N 
ATOM     60  N   UNL A   1      44.459  29.881  33.327  1.00  0.00    -0.248 NA
ATOM     61  C   UNL A   1      45.363  31.070  35.123  1.00  0.00     0.031 C 
ATOM     62  C   UNL A   1      46.313  26.258  31.543  1.00  0.00     0.029 A 
ATOM     63  C   UNL A   1      45.752  27.383  32.127  1.00  0.00     0.049 A 
ATOM     64  H   UNL A   1      43.933  28.349  31.669  1.00  0.00     0.167 HD
ATOM     65  C   UNL A   1      45.657  29.286  33.714  1.00  0.00     0.074 A 
ATOM     66  C   UNL A   1      46.185  30.082  34.802  1.00  0.00     0.031 C 
ATOM     67  C   UNL A   1      46.266  28.182  33.211  1.00  0.00     0.031 A 
BRANCH  54  68
ATOM     68  C   UNL A   1      43.129  25.443  28.640  1.00  0.00    -0.014 A 
ATOM     69  C   UNL A   1      42.419  24.266  28.941  1.00  0.00     0.010 A 
ATOM     70  C   UNL A   1      43.743  25.568  27.380  1.00  0.00     0.010 A 
ATOM     71  C   UNL A   1      42.355  23.223  28.014  1.00  0.00     0.020 A 
ATOM     72  C   UNL A   1      43.654  24.539  26.437  1.00  0.00     0.020 A 
ATOM     73  C   UNL A   1      42.973  23.366  26.768  1.00  0.00     0.054 A 
BRANCH  73  74
ATOM     74  S   UNL A   1      42.849  22.005  25.575  1.00  0.00     0.124 S 
ATOM     75  O   UNL A   1      43.268  22.652  24.335  1.00  0.00    -0.237 OA
ATOM     76  O   UNL A   1      43.782  21.021  26.116  1.00  0.00    -0.237 OA
ATOM     77  O   UNL A   1      41.440  21.622  25.630  1.00  0.00    -0.744 OA
ENDBRANCH  73  74
ENDBRANCH  54  68
BRANCH  55  78
ATOM     78  C   UNL A   1      43.192  33.043  35.134  1.00  0.00    -0.014 A 
ATOM     79  C   UNL A   1      42.999  34.377  34.734  1.00  0.00     0.010 A 
ATOM     80  C   UNL A   1      43.398  32.762  36.498  1.00  0.00     0.010 A 
ATOM     81  C   UNL A   1      43.022  35.410  35.677  1.00  0.00     0.020 A 
ATOM     82  C   UNL A   1      43.390  33.788  37.446  1.00  0.00     0.020 A 
ATOM     83  C   UNL A   1      43.211  35.107  37.029  1.00  0.00     0.054 A 
BRANCH  83  84
ATOM     84  S   UNL A   1      43.165  36.454  38.244  1.00  0.00     0.124 S 
ATOM     85  O   UNL A   1      43.305  37.633  37.396  1.00  0.00    -0.237 OA
ATOM     86  O   UNL A   1      41.857  36.268  38.866  1.00  0.00    -0.237 OA
ATOM     87  O   UNL A   1      44.305  36.165  39.112  1.00  0.00    -0.744 OA
ENDBRANCH  83  84
ENDBRANCH  55  78
BRANCH  67  88
ATOM     88  C   UNL A   1      47.594  27.786  33.803  1.00  0.00    -0.014 A 
ATOM     89  C   UNL A   1      48.801  28.326  33.324  1.00  0.00     0.010 A 
ATOM     90  C   UNL A   1      47.628  26.903  34.898  1.00  0.00     0.010 A 
ATOM     91  C   UNL A   1      50.019  27.963  33.908  1.00  0.00     0.020 A 
ATOM     92  C   UNL A   1      48.840  26.563  35.505  1.00  0.00     0.020 A 
ATOM     93  C   UNL A   1      50.030  27.085  34.997  1.00  0.00     0.054 A 
BRANCH  93  94
ATOM     94  S   UNL A   1      51.620  26.664  35.761  1.00  0.00     0.124 S 
ATOM     95  O   UNL A   1      52.242  27.975  35.915  1.00  0.00    -0.237 OA
ATOM     96  O   UNL A   1      51.213  26.012  37.004  1.00  0.00    -0.237 OA
ATOM     97  O   UNL A   1      52.254  25.784  34.783  1.00  0.00    -0.744 OA
ENDBRANCH  93  94
ENDBRANCH  67  88
ENDBRANCH  41  42
ENDBRANCH  34  36
ENDBRANCH  33  34
ENDBRANCH  32  33
ENDBRANCH  31  32
ENDBRANCH  30  31
ENDBRANCH  29  30
ENDBRANCH  28  29
ENDBRANCH   1  28
TORSDOF 27
ENDMDL
MODEL 3
REMARK VINA RESULT:      -6.5      5.335     13.149
REMARK SMILES CC(=O)N[C@@H](CCc1nc2ccccc2[nH]1)C(=O)OCCOCCOCCOCCOC(=O)c1ccc(-c2c3nc(c(-c4ccc(S(=O)(=O)[O-])cc4)c4ccc([nH]4)c(-c4ccc(S(=O)(=O)[O-])cc4)c4nc(c(-c5ccc(S(=O)(=O)[O-])cc5)c5ccc2[nH]5)C=C4)C=C3)cc1
REMARK SMILES IDX 25 1 24 2 23 3 22 4 21 5 20 6 19 7 17 8 18 9 5 10 4 11 1 12
REMARK SMILES IDX 2 13 3 14 6 16 7 17 8 18 9 19 16 20 10 21 15 22 11 24 14 25
REMARK SMILES IDX 12 26 13 27 26 28 27 29 28 30 29 31 30 32 31 33 32 34 33 35
REMARK SMILES IDX 34 36 35 37 93 38 36 39 92 40 37 41 38 42 39 43 86 44 40 45
REMARK SMILES IDX 91 46 85 47 87 48 41 49 90 50 84 51 83 52 42 54 72 55 53 56
REMARK SMILES IDX 71 57 54 58 57 59 70 60 88 61 55 62 56 63 69 65 89 66 58 67
REMARK SMILES IDX 43 68 44 69 52 70 45 71 51 72 46 73 47 74 48 75 49 76 50 77
REMARK SMILES IDX 73 78 74 79 82 80 75 81 81 82 76 83 77 84 78 85 79 86 80 87
REMARK SMILES IDX 59 88 60 89 68 90 61 91 67 92 62 93 63 94 64 95 65 96 66 97
REMARK H PARENT 4 15 16 23 87 53 57 64
REMARK Flexibility Score: inf
ROOT
ATOM      1  O   UNL A   1      38.773  28.489  29.493  1.00  0.00    -0.377 OA
ENDROOT
BRANCH   1   2
ATOM      2  C   UNL A   1      37.614  29.277  29.277  1.00  0.00     0.188 C 
BRANCH   2   3
ATOM      3  C   UNL A   1      37.098  29.335  27.820  1.00  0.00     0.188 C 
BRANCH   3   4
ATOM      4  O   UNL A   1      35.991  30.151  27.460  1.00  0.00    -0.376 OA
BRANCH   4   5
ATOM      5  C   UNL A   1      34.696  29.580  27.454  1.00  0.00     0.202 C 
BRANCH   5   6
ATOM      6  C   UNL A   1      34.174  28.891  26.199  1.00  0.00     0.261 C 
BRANCH   6   7
ATOM      7  O   UNL A   1      32.794  29.066  25.854  1.00  0.00    -0.462 OA
BRANCH   7   8
ATOM      8  C   UNL A   1      31.914  28.281  26.520  1.00  0.00     0.328 C 
ATOM      9  O   UNL A   1      31.308  28.595  27.539  1.00  0.00    -0.250 OA
BRANCH   8  10
ATOM     10  C   UNL A   1      31.824  26.878  25.909  1.00  0.00     0.192 C 
BRANCH  10  11
ATOM     11  N   UNL A   1      31.539  25.750  26.815  1.00  0.00    -0.343 N 
ATOM     12  C   UNL A   1      32.288  23.939  25.297  1.00  0.00     0.114 C 
ATOM     13  C   UNL A   1      31.686  24.409  26.591  1.00  0.00     0.217 C 
ATOM     14  O   UNL A   1      31.372  23.609  27.472  1.00  0.00    -0.275 OA
ATOM     15  H   UNL A   1      31.196  25.996  27.704  1.00  0.00     0.164 HD
ENDBRANCH  10  11
BRANCH  10  16
ATOM     16  C   UNL A   1      30.853  26.895  24.709  1.00  0.00     0.045 C 
BRANCH  16  17
ATOM     17  C   UNL A   1      31.197  27.801  23.513  1.00  0.00     0.078 C 
BRANCH  17  18
ATOM     18  C   UNL A   1      30.199  28.856  23.149  1.00  0.00     0.107 A 
ATOM     19  N   UNL A   1      29.410  28.927  22.095  1.00  0.00    -0.233 NA
ATOM     20  N   UNL A   1      30.037  29.975  23.941  1.00  0.00    -0.342 N 
ATOM     21  C   UNL A   1      28.909  30.217  22.096  1.00  0.00     0.089 A 
ATOM     22  C   UNL A   1      29.330  30.905  23.225  1.00  0.00     0.065 A 
ATOM     23  H   UNL A   1      30.371  30.086  24.860  1.00  0.00     0.168 HD
ATOM     24  C   UNL A   1      28.198  30.912  21.101  1.00  0.00     0.030 A 
ATOM     25  C   UNL A   1      29.073  32.260  23.443  1.00  0.00     0.028 A 
ATOM     26  C   UNL A   1      28.007  32.294  21.251  1.00  0.00     0.002 A 
ATOM     27  C   UNL A   1      28.431  32.951  22.409  1.00  0.00     0.002 A 
ENDBRANCH  17  18
ENDBRANCH  16  17
ENDBRANCH  10  16
ENDBRANCH   8  10
ENDBRANCH   7   8
ENDBRANCH   6   7
ENDBRANCH   5   6
ENDBRANCH   4   5
ENDBRANCH   3   4
ENDBRANCH   2   3
ENDBRANCH   1   2
BRANCH   1  28
ATOM     28  C   UNL A   1      39.065  27.549  28.468  1.00  0.00     0.188 C 
BRANCH  28  29
ATOM     29  C   UNL A   1      40.440  27.709  27.789  1.00  0.00     0.188 C 
BRANCH  29  30
ATOM     30  O   UNL A   1      40.806  26.585  26.997  1.00  0.00    -0.376 OA
BRANCH  30  31
ATOM     31  C   UNL A   1      41.963  25.851  27.368  1.00  0.00     0.202 C 
BRANCH  31  32
ATOM     32  C   UNL A   1      42.575  26.143  28.749  1.00  0.00     0.261 C 
BRANCH  32  33
ATOM     33  O   UNL A   1      43.714  25.356  29.131  1.00  0.00    -0.460 OA
BRANCH  33  34
ATOM     34  C   UNL A   1      44.882  25.994  29.356  1.00  0.00     0.338 C 
ATOM     35  O   UNL A   1      45.800  26.135  28.566  1.00  0.00    -0.246 OA
BRANCH  34  36
ATOM     36  C   UNL A   1      44.776  26.694  30.656  1.00  0.00     0.060 A 
ATOM     37  C   UNL A   1      44.221  26.014  31.749  1.00  0.00     0.016 A 
ATOM     38  C   UNL A   1      45.228  28.007  30.801  1.00  0.00     0.016 A 
ATOM     39  C   UNL A   1      44.079  26.658  32.979  1.00  0.00     0.010 A 
ATOM     40  C   UNL A   1      45.057  28.662  32.026  1.00  0.00     0.010 A 
ATOM     41  C   UNL A   1      44.447  28.002  33.108  1.00  0.00    -0.014 A 
BRANCH  41  42
ATOM     42  C   UNL A   1      43.993  28.781  34.286  1.00  0.00     0.031 A 
ATOM     43  C   UNL A   1      42.686  29.522  34.180  1.00  0.00     0.074 A 
ATOM     44  C   UNL A   1      44.702  28.822  35.428  1.00  0.00     0.049 A 
ATOM     45  N   UNL A   1      42.108  30.315  35.043  1.00  0.00    -0.248 NA
ATOM     46  C   UNL A   1      41.933  29.344  32.926  1.00  0.00     0.031 C 
ATOM     47  C   UNL A   1      45.950  28.102  35.680  1.00  0.00     0.029 A 
ATOM     48  N   UNL A   1      44.471  29.511  36.592  1.00  0.00    -0.354 N 
ATOM     49  C   UNL A   1      40.932  30.739  34.435  1.00  0.00     0.074 A 
ATOM     50  C   UNL A   1      40.891  30.137  33.121  1.00  0.00     0.031 C 
ATOM     51  C   UNL A   1      46.382  28.402  36.917  1.00  0.00     0.029 A 
ATOM     52  C   UNL A   1      45.465  29.362  37.530  1.00  0.00     0.049 A 
ATOM     53  H   UNL A   1      43.668  30.062  36.742  1.00  0.00     0.167 HD
ATOM     54  C   UNL A   1      39.970  31.556  34.927  1.00  0.00     0.031 A 
ATOM     55  C   UNL A   1      45.627  29.954  38.732  1.00  0.00     0.031 A 
ATOM     56  C   UNL A   1      40.023  32.170  36.226  1.00  0.00     0.049 A 
ATOM     57  C   UNL A   1      44.589  30.931  39.222  1.00  0.00     0.074 A 
ATOM     58  C   UNL A   1      39.095  33.006  36.821  1.00  0.00     0.029 A 
ATOM     59  N   UNL A   1      41.067  32.026  37.127  1.00  0.00    -0.354 N 
ATOM     60  N   UNL A   1      43.471  31.308  38.646  1.00  0.00    -0.248 NA
ATOM     61  C   UNL A   1      44.832  31.560  40.528  1.00  0.00     0.031 C 
ATOM     62  C   UNL A   1      39.608  33.421  38.052  1.00  0.00     0.029 A 
ATOM     63  C   UNL A   1      40.822  32.784  38.259  1.00  0.00     0.049 A 
ATOM     64  H   UNL A   1      41.864  31.467  36.983  1.00  0.00     0.167 HD
ATOM     65  C   UNL A   1      42.865  32.193  39.533  1.00  0.00     0.074 A 
ATOM     66  C   UNL A   1      43.733  32.283  40.689  1.00  0.00     0.031 C 
ATOM     67  C   UNL A   1      41.695  32.868  39.403  1.00  0.00     0.031 A 
BRANCH  54  68
ATOM     68  C   UNL A   1      38.798  31.867  34.033  1.00  0.00    -0.014 A 
ATOM     69  C   UNL A   1      37.712  30.981  33.911  1.00  0.00     0.010 A 
ATOM     70  C   UNL A   1      38.770  33.084  33.327  1.00  0.00     0.010 A 
ATOM     71  C   UNL A   1      36.638  31.292  33.073  1.00  0.00     0.020 A 
ATOM     72  C   UNL A   1      37.683  33.412  32.512  1.00  0.00     0.020 A 
ATOM     73  C   UNL A   1      36.630  32.505  32.378  1.00  0.00     0.054 A 
BRANCH  73  74
ATOM     74  S   UNL A   1      35.210  32.892  31.319  1.00  0.00     0.124 S 
ATOM     75  O   UNL A   1      35.442  34.299  31.005  1.00  0.00    -0.237 OA
ATOM     76  O   UNL A   1      35.381  31.963  30.205  1.00  0.00    -0.237 OA
ATOM     77  O   UNL A   1      34.056  32.628  32.176  1.00  0.00    -0.744 OA
ENDBRANCH  73  74
ENDBRANCH  54  68
BRANCH  55  78
ATOM     78  C   UNL A   1      46.841  29.664  39.545  1.00  0.00    -0.014 A 
ATOM     79  C   UNL A   1      48.019  30.413  39.378  1.00  0.00     0.010 A 
ATOM     80  C   UNL A   1      46.825  28.621  40.491  1.00  0.00     0.010 A 
ATOM     81  C   UNL A   1      49.160  30.120  40.133  1.00  0.00     0.020 A 
ATOM     82  C   UNL A   1      47.952  28.345  41.269  1.00  0.00     0.020 A 
ATOM     83  C   UNL A   1      49.116  29.091  41.078  1.00  0.00     0.054 A 
BRANCH  83  84
ATOM     84  S   UNL A   1      50.584  28.774  42.097  1.00  0.00     0.124 S 
ATOM     85  O   UNL A   1      50.559  29.899  43.024  1.00  0.00    -0.237 OA
ATOM     86  O   UNL A   1      50.285  27.466  42.674  1.00  0.00    -0.237 OA
ATOM     87  O   UNL A   1      51.676  28.782  41.127  1.00  0.00    -0.744 OA
ENDBRANCH  83  84
ENDBRANCH  55  78
BRANCH  67  88
ATOM     88  C   UNL A   1      41.257  33.737  40.555  1.00  0.00    -0.014 A 
ATOM     89  C   UNL A   1      40.431  33.238  41.577  1.00  0.00     0.010 A 
ATOM     90  C   UNL A   1      41.733  35.058  40.644  1.00  0.00     0.010 A 
ATOM     91  C   UNL A   1      40.061  34.056  42.650  1.00  0.00     0.020 A 
ATOM     92  C   UNL A   1      41.392  35.868  41.731  1.00  0.00     0.020 A 
ATOM     93  C   UNL A   1      40.546  35.366  42.720  1.00  0.00     0.054 A 
BRANCH  93  94
ATOM     94  S   UNL A   1      40.084  36.392  44.143  1.00  0.00     0.124 S 
ATOM     95  O   UNL A   1      39.297  35.462  44.947  1.00  0.00    -0.237 OA
ATOM     96  O   UNL A   1      41.381  36.763  44.703  1.00  0.00    -0.237 OA
ATOM     97  O   UNL A   1      39.331  37.493  43.548  1.00  0.00    -0.744 OA
ENDBRANCH  93  94
ENDBRANCH  67  88
ENDBRANCH  41  42
ENDBRANCH  34  36
ENDBRANCH  33  34
ENDBRANCH  32  33
ENDBRANCH  31  32
ENDBRANCH  30  31
ENDBRANCH  29  30
ENDBRANCH  28  29
ENDBRANCH   1  28
TORSDOF 27
ENDMDL
