MODEL 1
REMARK VINA RESULT:     -10.3      0.000      0.000
REMARK SMILES O=C(OCCOCCOCCOCCOC(=O)c1ccc(-c2c3nc(c(-c4ccc(S(=O)(=O)[O-])cc4)c4ccc([nH]4)c(-c4ccc(S(=O)(=O)[O-])cc4)c4nc(c(-c5ccc(S(=O)(=O)[O-])cc5)c5ccc2[nH]5)C=C4)C=C3)cc1)C1=Cc2cc(S(F)(F)(F)(F)F)cc(Br)c2O[C@H]1C(F)(F)F
REMARK SMILES IDX 10 1 9 2 8 3 7 4 6 5 5 6 4 7 3 8 2 9 1 10 78 11 79 12 94 13
REMARK SMILES IDX 80 14 93 15 81 16 92 17 82 18 90 19 89 20 91 21 95 22 96 23
REMARK SMILES IDX 97 24 98 25 83 26 84 27 85 28 86 29 87 30 88 31 11 32 12 33
REMARK SMILES IDX 13 34 14 35 15 36 16 37 17 38 18 39 19 40 77 41 20 42 76 43
REMARK SMILES IDX 21 44 22 45 23 46 70 47 24 48 75 49 69 50 71 51 25 52 74 53
REMARK SMILES IDX 68 54 67 55 26 57 56 58 37 59 55 60 38 61 41 62 54 63 72 64
REMARK SMILES IDX 39 65 40 66 53 68 73 69 42 70 27 71 28 72 36 73 29 74 35 75
REMARK SMILES IDX 30 76 31 77 32 78 33 79 34 80 57 81 58 82 66 83 59 84 65 85
REMARK SMILES IDX 60 86 61 87 62 88 63 89 64 90 43 91 44 92 52 93 45 94 51 95
REMARK SMILES IDX 46 96 47 97 48 98 49 99 50 100
REMARK H PARENT 71 56 41 67
REMARK Flexibility Score: inf
ROOT
ATOM      1  C   UNL A   1      35.454  22.331  25.561  1.00  0.00     0.188 C 
ENDROOT
BRANCH   1   2
ATOM      2  O   UNL A   1      34.853  22.395  26.846  1.00  0.00    -0.377 OA
BRANCH   2   3
ATOM      3  C   UNL A   1      33.506  21.952  26.761  1.00  0.00     0.188 C 
BRANCH   3   4
ATOM      4  C   UNL A   1      32.572  23.111  27.072  1.00  0.00     0.188 C 
BRANCH   4   5
ATOM      5  O   UNL A   1      31.235  22.732  26.782  1.00  0.00    -0.376 OA
BRANCH   5   6
ATOM      6  C   UNL A   1      30.460  23.894  26.522  1.00  0.00     0.202 C 
BRANCH   6   7
ATOM      7  C   UNL A   1      31.383  25.055  26.192  1.00  0.00     0.261 C 
BRANCH   7   8
ATOM      8  O   UNL A   1      31.263  25.377  24.814  1.00  0.00    -0.460 OA
BRANCH   8   9
ATOM      9  C   UNL A   1      32.427  25.632  24.040  1.00  0.00     0.338 C 
ATOM     10  O   UNL A   1      33.572  25.614  24.591  1.00  0.00    -0.246 OA
BRANCH   9  11
ATOM     11  C   UNL A   1      32.303  25.925  22.554  1.00  0.00     0.087 C 
ATOM     12  C   UNL A   1      31.824  27.127  22.135  1.00  0.00     0.027 C 
ATOM     13  C   UNL A   1      32.714  24.875  21.535  1.00  0.00     0.316 C 
ATOM     14  C   UNL A   1      31.413  28.178  23.154  1.00  0.00     0.020 A 
ATOM     15  O   UNL A   1      33.358  27.666  24.421  1.00  0.00    -0.474 OA
ATOM     16  C   UNL A   1      30.187  28.802  22.993  1.00  0.00     0.036 A 
ATOM     17  C   UNL A   1      32.186  28.438  24.202  1.00  0.00     0.142 A 
ATOM     18  C   UNL A   1      29.991  29.910  23.851  1.00  0.00     0.109 A 
ATOM     19  C   UNL A   1      31.861  29.446  25.077  1.00  0.00     0.062 A 
ATOM     20  C   UNL A   1      30.694  30.145  24.943  1.00  0.00     0.044 A 
ATOM     21  Br  UNL A   1      33.091  29.891  26.538  1.00  0.00    -0.047 Br
BRANCH  13  22
ATOM     22  C   UNL A   1      33.210  23.633  22.260  1.00  0.00     0.430 C 
ATOM     23  F   UNL A   1      33.209  22.601  21.421  1.00  0.00    -0.167 F 
ATOM     24  F   UNL A   1      34.445  23.842  22.704  1.00  0.00    -0.167 F 
ATOM     25  F   UNL A   1      32.407  23.369  23.287  1.00  0.00    -0.167 F 
ENDBRANCH  13  22
BRANCH  18  26
ATOM     26  S   UNL A   1      28.684  31.086  23.420  1.00  0.00     0.310 S 
ATOM     27  F   UNL A   1      29.356  31.416  22.021  1.00  0.00    -0.094 F 
ATOM     28  F   UNL A   1      29.559  32.244  24.034  1.00  0.00    -0.094 F 
ATOM     29  F   UNL A   1      27.560  32.095  23.049  1.00  0.00    -0.094 F 
ATOM     30  F   UNL A   1      27.887  29.938  22.686  1.00  0.00    -0.094 F 
ATOM     31  F   UNL A   1      29.866  30.072  23.691  1.00  0.00    -0.094 F 
ENDBRANCH  18  26
ENDBRANCH   9  11
ENDBRANCH   8   9
ENDBRANCH   7   8
ENDBRANCH   6   7
ENDBRANCH   5   6
ENDBRANCH   4   5
ENDBRANCH   3   4
ENDBRANCH   2   3
ENDBRANCH   1   2
BRANCH   1  32
ATOM     32  C   UNL A   1      35.940  20.914  25.300  1.00  0.00     0.188 C 
BRANCH  32  33
ATOM     33  O   UNL A   1      37.106  20.955  24.491  1.00  0.00    -0.376 OA
BRANCH  33  34
ATOM     34  C   UNL A   1      38.034  19.983  24.949  1.00  0.00     0.202 C 
BRANCH  34  35
ATOM     35  C   UNL A   1      39.117  20.663  25.770  1.00  0.00     0.261 C 
BRANCH  35  36
ATOM     36  O   UNL A   1      40.111  19.712  26.120  1.00  0.00    -0.460 OA
BRANCH  36  37
ATOM     37  C   UNL A   1      41.485  20.018  25.930  1.00  0.00     0.338 C 
ATOM     38  O   UNL A   1      42.253  19.171  25.376  1.00  0.00    -0.246 OA
BRANCH  37  39
ATOM     39  C   UNL A   1      42.036  21.357  26.392  1.00  0.00     0.060 A 
ATOM     40  C   UNL A   1      42.385  21.482  27.726  1.00  0.00     0.016 A 
ATOM     41  C   UNL A   1      42.263  22.338  25.526  1.00  0.00     0.016 A 
ATOM     42  C   UNL A   1      42.710  22.804  28.113  1.00  0.00     0.010 A 
ATOM     43  C   UNL A   1      42.710  23.563  25.958  1.00  0.00     0.010 A 
ATOM     44  C   UNL A   1      43.019  23.775  27.273  1.00  0.00    -0.014 A 
BRANCH  44  45
ATOM     45  C   UNL A   1      43.681  25.060  27.743  1.00  0.00     0.031 A 
ATOM     46  C   UNL A   1      42.902  26.048  28.346  1.00  0.00     0.074 A 
ATOM     47  C   UNL A   1      45.018  25.218  27.420  1.00  0.00     0.049 A 
ATOM     48  N   UNL A   1      43.289  27.263  28.738  1.00  0.00    -0.248 NA
ATOM     49  C   UNL A   1      41.474  25.894  28.660  1.00  0.00     0.031 C 
ATOM     50  C   UNL A   1      45.814  24.222  26.820  1.00  0.00     0.029 A 
ATOM     51  N   UNL A   1      45.808  26.330  27.610  1.00  0.00    -0.354 N 
ATOM     52  C   UNL A   1      42.265  27.917  29.291  1.00  0.00     0.074 A 
ATOM     53  C   UNL A   1      41.081  27.049  29.243  1.00  0.00     0.031 C 
ATOM     54  C   UNL A   1      47.061  24.731  26.640  1.00  0.00     0.029 A 
ATOM     55  C   UNL A   1      47.066  26.053  27.124  1.00  0.00     0.049 A 
ATOM     56  H   UNL A   1      45.521  27.178  28.021  1.00  0.00     0.167 HD
ATOM     57  C   UNL A   1      42.273  29.203  29.835  1.00  0.00     0.031 A 
ATOM     58  C   UNL A   1      48.169  26.891  27.096  1.00  0.00     0.031 A 
ATOM     59  C   UNL A   1      43.388  30.026  29.846  1.00  0.00     0.049 A 
ATOM     60  C   UNL A   1      48.162  28.199  27.588  1.00  0.00     0.074 A 
ATOM     61  C   UNL A   1      43.415  31.321  30.397  1.00  0.00     0.029 A 
ATOM     62  N   UNL A   1      44.640  29.757  29.338  1.00  0.00    -0.354 N 
ATOM     63  N   UNL A   1      47.149  28.838  28.176  1.00  0.00    -0.248 NA
ATOM     64  C   UNL A   1      49.314  29.108  27.533  1.00  0.00     0.031 C 
ATOM     65  C   UNL A   1      44.663  31.830  30.217  1.00  0.00     0.029 A 
ATOM     66  C   UNL A   1      45.435  30.861  29.548  1.00  0.00     0.049 A 
ATOM     67  H   UNL A   1      44.918  28.919  28.901  1.00  0.00     0.167 HD
ATOM     68  C   UNL A   1      47.525  30.068  28.530  1.00  0.00     0.074 A 
ATOM     69  C   UNL A   1      48.921  30.262  28.115  1.00  0.00     0.031 C 
ATOM     70  C   UNL A   1      46.762  31.036  29.185  1.00  0.00     0.031 A 
BRANCH  57  71
ATOM     71  C   UNL A   1      40.986  29.729  30.450  1.00  0.00    -0.014 A 
ATOM     72  C   UNL A   1      40.711  29.648  31.805  1.00  0.00     0.010 A 
ATOM     73  C   UNL A   1      40.149  30.328  29.612  1.00  0.00     0.010 A 
ATOM     74  C   UNL A   1      39.377  29.979  32.140  1.00  0.00     0.020 A 
ATOM     75  C   UNL A   1      38.913  30.749  30.039  1.00  0.00     0.020 A 
ATOM     76  C   UNL A   1      38.550  30.644  31.354  1.00  0.00     0.054 A 
BRANCH  76  77
ATOM     77  S   UNL A   1      37.021  31.382  31.983  1.00  0.00     0.124 S 
ATOM     78  O   UNL A   1      35.886  30.361  31.883  1.00  0.00    -0.237 OA
ATOM     79  O   UNL A   1      37.215  31.788  33.444  1.00  0.00    -0.237 OA
ATOM     80  O   UNL A   1      36.631  32.763  31.053  1.00  0.00    -0.744 OA
ENDBRANCH  76  77
ENDBRANCH  57  71
BRANCH  58  81
ATOM     81  C   UNL A   1      49.460  26.359  26.496  1.00  0.00    -0.014 A 
ATOM     82  C   UNL A   1      50.363  25.636  27.257  1.00  0.00     0.010 A 
ATOM     83  C   UNL A   1      49.728  26.690  25.238  1.00  0.00     0.010 A 
ATOM     84  C   UNL A   1      51.657  25.555  26.687  1.00  0.00     0.020 A 
ATOM     85  C   UNL A   1      50.972  26.459  24.704  1.00  0.00     0.020 A 
ATOM     86  C   UNL A   1      51.934  25.802  25.420  1.00  0.00     0.054 A 
BRANCH  86  87
ATOM     87  S   UNL A   1      53.503  25.295  24.671  1.00  0.00     0.124 S 
ATOM     88  O   UNL A   1      54.659  25.998  25.387  1.00  0.00    -0.237 OA
ATOM     89  O   UNL A   1      53.665  23.779  24.804  1.00  0.00    -0.237 OA
ATOM     90  O   UNL A   1      53.509  25.727  23.017  1.00  0.00    -0.744 OA
ENDBRANCH  86  87
ENDBRANCH  58  81
BRANCH  70  91
ATOM     91  C   UNL A   1      47.425  32.361  29.522  1.00  0.00    -0.014 A 
ATOM     92  C   UNL A   1      47.389  33.345  28.547  1.00  0.00     0.010 A 
ATOM     93  C   UNL A   1      47.911  32.608  30.732  1.00  0.00     0.010 A 
ATOM     94  C   UNL A   1      48.161  34.489  28.858  1.00  0.00     0.020 A 
ATOM     95  C   UNL A   1      48.534  33.803  31.005  1.00  0.00     0.020 A 
ATOM     96  C   UNL A   1      48.587  34.799  30.069  1.00  0.00     0.054 A 
BRANCH  96  97
ATOM     97  S   UNL A   1      49.209  36.451  30.469  1.00  0.00     0.124 S 
ATOM     98  O   UNL A   1      49.216  37.313  29.205  1.00  0.00    -0.237 OA
ATOM     99  O   UNL A   1      48.303  37.096  31.521  1.00  0.00    -0.237 OA
ATOM    100  O   UNL A   1      50.799  36.328  31.085  1.00  0.00    -0.744 OA
ENDBRANCH  96  97
ENDBRANCH  70  91
ENDBRANCH  44  45
ENDBRANCH  37  39
ENDBRANCH  36  37
ENDBRANCH  35  36
ENDBRANCH  34  35
ENDBRANCH  33  34
ENDBRANCH  32  33
ENDBRANCH   1  32
TORSDOF 25
ENDMDL
MODEL 2
REMARK VINA RESULT:     -10.3      1.994      2.958
REMARK SMILES O=C(OCCOCCOCCOCCOC(=O)c1ccc(-c2c3nc(c(-c4ccc(S(=O)(=O)[O-])cc4)c4ccc([nH]4)c(-c4ccc(S(=O)(=O)[O-])cc4)c4nc(c(-c5ccc(S(=O)(=O)[O-])cc5)c5ccc2[nH]5)C=C4)C=C3)cc1)C1=Cc2cc(S(F)(F)(F)(F)F)cc(Br)c2O[C@H]1C(F)(F)F
REMARK SMILES IDX 10 1 9 2 8 3 7 4 6 5 5 6 4 7 3 8 2 9 1 10 78 11 79 12 94 13
REMARK SMILES IDX 80 14 93 15 81 16 92 17 82 18 90 19 89 20 91 21 95 22 96 23
REMARK SMILES IDX 97 24 98 25 83 26 84 27 85 28 86 29 87 30 88 31 11 32 12 33
REMARK SMILES IDX 13 34 14 35 15 36 16 37 17 38 18 39 19 40 77 41 20 42 76 43
REMARK SMILES IDX 21 44 22 45 23 46 70 47 24 48 75 49 69 50 71 51 25 52 74 53
REMARK SMILES IDX 68 54 67 55 26 57 56 58 37 59 55 60 38 61 41 62 54 63 72 64
REMARK SMILES IDX 39 65 40 66 53 68 73 69 42 70 27 71 28 72 36 73 29 74 35 75
REMARK SMILES IDX 30 76 31 77 32 78 33 79 34 80 57 81 58 82 66 83 59 84 65 85
REMARK SMILES IDX 60 86 61 87 62 88 63 89 64 90 43 91 44 92 52 93 45 94 51 95
REMARK SMILES IDX 46 96 47 97 48 98 49 99 50 100
REMARK H PARENT 71 56 41 67
REMARK Flexibility Score: inf
ROOT
ATOM      1  C   UNL A   1      35.028  22.894  23.294  1.00  0.00     0.188 C 
ENDROOT
BRANCH   1   2
ATOM      2  O   UNL A   1      34.481  24.151  22.920  1.00  0.00    -0.377 OA
BRANCH   2   3
ATOM      3  C   UNL A   1      33.205  23.955  22.328  1.00  0.00     0.188 C 
BRANCH   3   4
ATOM      4  C   UNL A   1      32.710  25.269  21.746  1.00  0.00     0.188 C 
BRANCH   4   5
ATOM      5  O   UNL A   1      33.778  26.204  21.712  1.00  0.00    -0.376 OA
BRANCH   5   6
ATOM      6  C   UNL A   1      33.383  27.397  22.374  1.00  0.00     0.202 C 
BRANCH   6   7
ATOM      7  C   UNL A   1      34.362  27.702  23.496  1.00  0.00     0.261 C 
BRANCH   7   8
ATOM      8  O   UNL A   1      33.919  28.847  24.211  1.00  0.00    -0.460 OA
BRANCH   8   9
ATOM      9  C   UNL A   1      33.721  28.774  25.615  1.00  0.00     0.338 C 
ATOM     10  O   UNL A   1      34.022  27.712  26.245  1.00  0.00    -0.246 OA
BRANCH   9  11
ATOM     11  C   UNL A   1      33.150  29.966  26.365  1.00  0.00     0.087 C 
ATOM     12  C   UNL A   1      31.887  30.395  26.101  1.00  0.00     0.027 C 
ATOM     13  C   UNL A   1      33.991  30.679  27.412  1.00  0.00     0.316 C 
ATOM     14  C   UNL A   1      31.046  29.681  25.055  1.00  0.00     0.020 A 
ATOM     15  O   UNL A   1      31.803  27.597  25.911  1.00  0.00    -0.474 OA
ATOM     16  C   UNL A   1      30.393  30.448  24.104  1.00  0.00     0.036 A 
ATOM     17  C   UNL A   1      30.995  28.355  25.022  1.00  0.00     0.142 A 
ATOM     18  C   UNL A   1      29.467  29.722  23.318  1.00  0.00     0.109 A 
ATOM     19  C   UNL A   1      30.170  27.708  24.135  1.00  0.00     0.062 A 
ATOM     20  C   UNL A   1      29.449  28.407  23.206  1.00  0.00     0.044 A 
ATOM     21  Br  UNL A   1      30.019  25.754  24.202  1.00  0.00    -0.047 Br
BRANCH  13  22
ATOM     22  C   UNL A   1      35.351  30.008  27.513  1.00  0.00     0.430 C 
ATOM     23  F   UNL A   1      35.281  28.991  28.368  1.00  0.00    -0.167 F 
ATOM     24  F   UNL A   1      35.713  29.556  26.316  1.00  0.00    -0.167 F 
ATOM     25  F   UNL A   1      36.249  30.889  27.945  1.00  0.00    -0.167 F 
ENDBRANCH  13  22
BRANCH  18  26
ATOM     26  S   UNL A   1      28.221  30.663  22.403  1.00  0.00     0.310 S 
ATOM     27  F   UNL A   1      27.982  29.473  21.382  1.00  0.00    -0.094 F 
ATOM     28  F   UNL A   1      29.354  31.174  21.435  1.00  0.00    -0.094 F 
ATOM     29  F   UNL A   1      27.148  31.470  21.619  1.00  0.00    -0.094 F 
ATOM     30  F   UNL A   1      27.081  30.030  23.296  1.00  0.00    -0.094 F 
ATOM     31  F   UNL A   1      29.282  29.751  23.138  1.00  0.00    -0.094 F 
ENDBRANCH  18  26
ENDBRANCH   9  11
ENDBRANCH   8   9
ENDBRANCH   7   8
ENDBRANCH   6   7
ENDBRANCH   5   6
ENDBRANCH   4   5
ENDBRANCH   3   4
ENDBRANCH   2   3
ENDBRANCH   1   2
BRANCH   1  32
ATOM     32  C   UNL A   1      36.545  22.967  23.241  1.00  0.00     0.188 C 
BRANCH  32  33
ATOM     33  O   UNL A   1      37.061  23.064  24.560  1.00  0.00    -0.376 OA
BRANCH  33  34
ATOM     34  C   UNL A   1      37.375  21.766  25.042  1.00  0.00     0.202 C 
BRANCH  34  35
ATOM     35  C   UNL A   1      38.635  21.831  25.890  1.00  0.00     0.261 C 
BRANCH  35  36
ATOM     36  O   UNL A   1      39.314  20.587  25.823  1.00  0.00    -0.460 OA
BRANCH  36  37
ATOM     37  C   UNL A   1      40.632  20.468  26.336  1.00  0.00     0.338 C 
ATOM     38  O   UNL A   1      41.169  19.323  26.447  1.00  0.00    -0.246 OA
BRANCH  37  39
ATOM     39  C   UNL A   1      41.400  21.712  26.754  1.00  0.00     0.060 A 
ATOM     40  C   UNL A   1      41.755  22.610  25.762  1.00  0.00     0.016 A 
ATOM     41  C   UNL A   1      41.637  21.971  28.034  1.00  0.00     0.016 A 
ATOM     42  C   UNL A   1      42.622  23.638  26.202  1.00  0.00     0.010 A 
ATOM     43  C   UNL A   1      42.378  23.069  28.401  1.00  0.00     0.010 A 
ATOM     44  C   UNL A   1      42.811  23.968  27.467  1.00  0.00    -0.014 A 
BRANCH  44  45
ATOM     45  C   UNL A   1      43.475  25.277  27.862  1.00  0.00     0.031 A 
ATOM     46  C   UNL A   1      42.689  26.321  28.350  1.00  0.00     0.074 A 
ATOM     47  C   UNL A   1      44.827  25.390  27.584  1.00  0.00     0.049 A 
ATOM     48  N   UNL A   1      43.080  27.558  28.660  1.00  0.00    -0.248 NA
ATOM     49  C   UNL A   1      41.246  26.213  28.614  1.00  0.00     0.031 C 
ATOM     50  C   UNL A   1      45.629  24.338  27.099  1.00  0.00     0.029 A 
ATOM     51  N   UNL A   1      45.627  26.503  27.719  1.00  0.00    -0.354 N 
ATOM     52  C   UNL A   1      42.045  28.268  29.116  1.00  0.00     0.074 A 
ATOM     53  C   UNL A   1      40.850  27.416  29.086  1.00  0.00     0.031 C 
ATOM     54  C   UNL A   1      46.891  24.814  26.933  1.00  0.00     0.029 A 
ATOM     55  C   UNL A   1      46.899  26.170  27.311  1.00  0.00     0.049 A 
ATOM     56  H   UNL A   1      45.338  27.385  28.049  1.00  0.00     0.167 HD
ATOM     57  C   UNL A   1      42.053  29.593  29.556  1.00  0.00     0.031 A 
ATOM     58  C   UNL A   1      48.017  26.988  27.264  1.00  0.00     0.031 A 
ATOM     59  C   UNL A   1      43.181  30.398  29.549  1.00  0.00     0.049 A 
ATOM     60  C   UNL A   1      48.012  28.331  27.649  1.00  0.00     0.074 A 
ATOM     61  C   UNL A   1      43.207  31.733  29.997  1.00  0.00     0.029 A 
ATOM     62  N   UNL A   1      44.448  30.072  29.119  1.00  0.00    -0.354 N 
ATOM     63  N   UNL A   1      46.987  29.029  28.141  1.00  0.00    -0.248 NA
ATOM     64  C   UNL A   1      49.181  29.216  27.573  1.00  0.00     0.031 C 
ATOM     65  C   UNL A   1      44.470  32.209  29.830  1.00  0.00     0.029 A 
ATOM     66  C   UNL A   1      45.253  31.179  29.275  1.00  0.00     0.049 A 
ATOM     67  H   UNL A   1      44.729  29.199  28.762  1.00  0.00     0.167 HD
ATOM     68  C   UNL A   1      47.369  30.278  28.412  1.00  0.00     0.074 A 
ATOM     69  C   UNL A   1      48.784  30.418  28.043  1.00  0.00     0.031 C 
ATOM     70  C   UNL A   1      46.597  31.306  28.956  1.00  0.00     0.031 A 
BRANCH  57  71
ATOM     71  C   UNL A   1      40.751  30.185  30.072  1.00  0.00    -0.014 A 
ATOM     72  C   UNL A   1      39.759  30.668  29.235  1.00  0.00     0.010 A 
ATOM     73  C   UNL A   1      40.593  30.168  31.391  1.00  0.00     0.010 A 
ATOM     74  C   UNL A   1      38.741  31.384  29.907  1.00  0.00     0.020 A 
ATOM     75  C   UNL A   1      39.503  30.769  31.972  1.00  0.00     0.020 A 
ATOM     76  C   UNL A   1      38.512  31.320  31.207  1.00  0.00     0.054 A 
BRANCH  76  77
ATOM     77  S   UNL A   1      36.970  31.926  31.935  1.00  0.00     0.124 S 
ATOM     78  O   UNL A   1      36.546  30.996  33.074  1.00  0.00    -0.237 OA
ATOM     79  O   UNL A   1      37.185  33.338  32.483  1.00  0.00    -0.237 OA
ATOM     80  O   UNL A   1      35.749  31.957  30.739  1.00  0.00    -0.744 OA
ENDBRANCH  76  77
ENDBRANCH  57  71
BRANCH  58  81
ATOM     81  C   UNL A   1      49.322  26.391  26.763  1.00  0.00    -0.014 A 
ATOM     82  C   UNL A   1      50.179  25.716  27.616  1.00  0.00     0.010 A 
ATOM     83  C   UNL A   1      49.649  26.619  25.496  1.00  0.00     0.010 A 
ATOM     84  C   UNL A   1      51.494  25.572  27.112  1.00  0.00     0.020 A 
ATOM     85  C   UNL A   1      50.911  26.328  25.037  1.00  0.00     0.020 A 
ATOM     86  C   UNL A   1      51.829  25.715  25.843  1.00  0.00     0.054 A 
BRANCH  86  87
ATOM     87  S   UNL A   1      53.418  25.129  25.204  1.00  0.00     0.124 S 
ATOM     88  O   UNL A   1      54.553  25.715  26.047  1.00  0.00    -0.237 OA
ATOM     89  O   UNL A   1      53.465  23.600  25.277  1.00  0.00    -0.237 OA
ATOM     90  O   UNL A   1      53.598  25.628  23.579  1.00  0.00    -0.744 OA
ENDBRANCH  86  87
ENDBRANCH  58  81
BRANCH  70  91
ATOM     91  C   UNL A   1      47.268  32.644  29.214  1.00  0.00    -0.014 A 
ATOM     92  C   UNL A   1      47.086  33.631  28.259  1.00  0.00     0.010 A 
ATOM     93  C   UNL A   1      47.899  32.897  30.354  1.00  0.00     0.010 A 
ATOM     94  C   UNL A   1      47.866  34.791  28.477  1.00  0.00     0.020 A 
ATOM     95  C   UNL A   1      48.526  34.104  30.554  1.00  0.00     0.020 A 
ATOM     96  C   UNL A   1      48.437  35.105  29.626  1.00  0.00     0.054 A 
BRANCH  96  97
ATOM     97  S   UNL A   1      49.069  36.769  29.955  1.00  0.00     0.124 S 
ATOM     98  O   UNL A   1      50.218  36.688  30.961  1.00  0.00    -0.237 OA
ATOM     99  O   UNL A   1      49.576  37.388  28.650  1.00  0.00    -0.237 OA
ATOM    100  O   UNL A   1      47.815  37.738  30.596  1.00  0.00    -0.744 OA
ENDBRANCH  96  97
ENDBRANCH  70  91
ENDBRANCH  44  45
ENDBRANCH  37  39
ENDBRANCH  36  37
ENDBRANCH  35  36
ENDBRANCH  34  35
ENDBRANCH  33  34
ENDBRANCH  32  33
ENDBRANCH   1  32
TORSDOF 25
ENDMDL
MODEL 3
REMARK VINA RESULT:     -10.2      5.877      8.411
REMARK SMILES O=C(OCCOCCOCCOCCOC(=O)c1ccc(-c2c3nc(c(-c4ccc(S(=O)(=O)[O-])cc4)c4ccc([nH]4)c(-c4ccc(S(=O)(=O)[O-])cc4)c4nc(c(-c5ccc(S(=O)(=O)[O-])cc5)c5ccc2[nH]5)C=C4)C=C3)cc1)C1=Cc2cc(S(F)(F)(F)(F)F)cc(Br)c2O[C@H]1C(F)(F)F
REMARK SMILES IDX 10 1 9 2 8 3 7 4 6 5 5 6 4 7 3 8 2 9 1 10 78 11 79 12 94 13
REMARK SMILES IDX 80 14 93 15 81 16 92 17 82 18 90 19 89 20 91 21 95 22 96 23
REMARK SMILES IDX 97 24 98 25 83 26 84 27 85 28 86 29 87 30 88 31 11 32 12 33
REMARK SMILES IDX 13 34 14 35 15 36 16 37 17 38 18 39 19 40 77 41 20 42 76 43
REMARK SMILES IDX 21 44 22 45 23 46 70 47 24 48 75 49 69 50 71 51 25 52 74 53
REMARK SMILES IDX 68 54 67 55 26 57 56 58 37 59 55 60 38 61 41 62 54 63 72 64
REMARK SMILES IDX 39 65 40 66 53 68 73 69 42 70 27 71 28 72 36 73 29 74 35 75
REMARK SMILES IDX 30 76 31 77 32 78 33 79 34 80 57 81 58 82 66 83 59 84 65 85
REMARK SMILES IDX 60 86 61 87 62 88 63 89 64 90 43 91 44 92 52 93 45 94 51 95
REMARK SMILES IDX 46 96 47 97 48 98 49 99 50 100
REMARK H PARENT 71 56 41 67
REMARK Flexibility Score: inf
ROOT
ATOM      1  C   UNL A   1      39.642  20.752  25.588  1.00  0.00     0.188 C 
ENDROOT
BRANCH   1   2
ATOM      2  O   UNL A   1      38.743  21.615  26.269  1.00  0.00    -0.377 OA
BRANCH   2   3
ATOM      3  C   UNL A   1      37.738  22.059  25.369  1.00  0.00     0.188 C 
BRANCH   3   4
ATOM      4  C   UNL A   1      37.194  23.399  25.838  1.00  0.00     0.188 C 
BRANCH   4   5
ATOM      5  O   UNL A   1      36.197  23.848  24.932  1.00  0.00    -0.376 OA
BRANCH   5   6
ATOM      6  C   UNL A   1      36.240  23.060  23.752  1.00  0.00     0.202 C 
BRANCH   6   7
ATOM      7  C   UNL A   1      34.974  23.289  22.942  1.00  0.00     0.261 C 
BRANCH   7   8
ATOM      8  O   UNL A   1      34.055  24.054  23.708  1.00  0.00    -0.460 OA
BRANCH   8   9
ATOM      9  C   UNL A   1      32.869  23.451  24.204  1.00  0.00     0.338 C 
ATOM     10  O   UNL A   1      32.007  22.986  23.394  1.00  0.00    -0.246 OA
BRANCH   9  11
ATOM     11  C   UNL A   1      32.631  23.361  25.703  1.00  0.00     0.087 C 
ATOM     12  C   UNL A   1      32.450  24.494  26.432  1.00  0.00     0.027 C 
ATOM     13  C   UNL A   1      32.593  22.004  26.386  1.00  0.00     0.316 C 
ATOM     14  C   UNL A   1      32.487  25.852  25.748  1.00  0.00     0.020 A 
ATOM     15  O   UNL A   1      31.188  24.958  23.970  1.00  0.00    -0.474 OA
ATOM     16  C   UNL A   1      33.262  26.849  26.315  1.00  0.00     0.036 A 
ATOM     17  C   UNL A   1      31.841  26.047  24.605  1.00  0.00     0.142 A 
ATOM     18  C   UNL A   1      33.060  28.128  25.742  1.00  0.00     0.109 A 
ATOM     19  C   UNL A   1      31.800  27.294  24.029  1.00  0.00     0.062 A 
ATOM     20  C   UNL A   1      32.494  28.341  24.569  1.00  0.00     0.044 A 
ATOM     21  Br  UNL A   1      30.728  27.578  22.413  1.00  0.00    -0.047 Br
BRANCH  13  22
ATOM     22  C   UNL A   1      32.821  20.910  25.354  1.00  0.00     0.430 C 
ATOM     23  F   UNL A   1      31.785  20.864  24.521  1.00  0.00    -0.167 F 
ATOM     24  F   UNL A   1      33.930  21.171  24.669  1.00  0.00    -0.167 F 
ATOM     25  F   UNL A   1      32.946  19.738  25.971  1.00  0.00    -0.167 F 
ENDBRANCH  13  22
BRANCH  18  26
ATOM     26  S   UNL A   1      33.619  29.569  26.683  1.00  0.00     0.310 S 
ATOM     27  F   UNL A   1      33.716  28.732  28.027  1.00  0.00    -0.094 F 
ATOM     28  F   UNL A   1      32.120  29.872  27.061  1.00  0.00    -0.094 F 
ATOM     29  F   UNL A   1      34.102  30.807  27.491  1.00  0.00    -0.094 F 
ATOM     30  F   UNL A   1      35.123  29.170  26.410  1.00  0.00    -0.094 F 
ATOM     31  F   UNL A   1      33.151  28.247  25.953  1.00  0.00    -0.094 F 
ENDBRANCH  18  26
ENDBRANCH   9  11
ENDBRANCH   8   9
ENDBRANCH   7   8
ENDBRANCH   6   7
ENDBRANCH   5   6
ENDBRANCH   4   5
ENDBRANCH   3   4
ENDBRANCH   2   3
ENDBRANCH   1   2
BRANCH   1  32
ATOM     32  C   UNL A   1      40.999  20.795  26.269  1.00  0.00     0.188 C 
BRANCH  32  33
ATOM     33  O   UNL A   1      40.977  21.760  27.310  1.00  0.00    -0.376 OA
BRANCH  33  34
ATOM     34  C   UNL A   1      41.365  23.023  26.792  1.00  0.00     0.202 C 
BRANCH  34  35
ATOM     35  C   UNL A   1      40.640  24.125  27.547  1.00  0.00     0.261 C 
BRANCH  35  36
ATOM     36  O   UNL A   1      40.127  25.073  26.623  1.00  0.00    -0.460 OA
BRANCH  36  37
ATOM     37  C   UNL A   1      40.575  26.420  26.663  1.00  0.00     0.338 C 
ATOM     38  O   UNL A   1      41.078  26.952  25.626  1.00  0.00    -0.246 OA
BRANCH  37  39
ATOM     39  C   UNL A   1      40.451  27.223  27.947  1.00  0.00     0.060 A 
ATOM     40  C   UNL A   1      39.665  26.698  28.959  1.00  0.00     0.016 A 
ATOM     41  C   UNL A   1      41.148  28.339  28.125  1.00  0.00     0.016 A 
ATOM     42  C   UNL A   1      39.451  27.587  30.040  1.00  0.00     0.010 A 
ATOM     43  C   UNL A   1      40.990  29.088  29.266  1.00  0.00     0.010 A 
ATOM     44  C   UNL A   1      40.184  28.659  30.284  1.00  0.00    -0.014 A 
BRANCH  44  45
ATOM     45  C   UNL A   1      40.131  29.377  31.622  1.00  0.00     0.031 A 
ATOM     46  C   UNL A   1      39.137  30.330  31.847  1.00  0.00     0.074 A 
ATOM     47  C   UNL A   1      41.173  29.123  32.498  1.00  0.00     0.049 A 
ATOM     48  N   UNL A   1      38.989  31.115  32.915  1.00  0.00    -0.248 NA
ATOM     49  C   UNL A   1      38.049  30.624  30.903  1.00  0.00     0.031 C 
ATOM     50  C   UNL A   1      42.176  28.157  32.282  1.00  0.00     0.029 A 
ATOM     51  N   UNL A   1      41.431  29.735  33.705  1.00  0.00    -0.354 N 
ATOM     52  C   UNL A   1      37.906  31.883  32.777  1.00  0.00     0.074 A 
ATOM     53  C   UNL A   1      37.290  31.584  31.477  1.00  0.00     0.031 C 
ATOM     54  C   UNL A   1      43.031  28.196  33.337  1.00  0.00     0.029 A 
ATOM     55  C   UNL A   1      42.579  29.185  34.230  1.00  0.00     0.049 A 
ATOM     56  H   UNL A   1      40.888  30.445  34.120  1.00  0.00     0.167 HD
ATOM     57  C   UNL A   1      37.409  32.821  33.683  1.00  0.00     0.031 A 
ATOM     58  C   UNL A   1      43.210  29.514  35.419  1.00  0.00     0.031 A 
ATOM     59  C   UNL A   1      38.017  33.119  34.892  1.00  0.00     0.049 A 
ATOM     60  C   UNL A   1      42.745  30.493  36.299  1.00  0.00     0.074 A 
ATOM     61  C   UNL A   1      37.525  34.056  35.820  1.00  0.00     0.029 A 
ATOM     62  N   UNL A   1      39.178  32.586  35.406  1.00  0.00    -0.354 N 
ATOM     63  N   UNL A   1      41.641  31.233  36.178  1.00  0.00    -0.248 NA
ATOM     64  C   UNL A   1      43.423  30.873  37.545  1.00  0.00     0.031 C 
ATOM     65  C   UNL A   1      38.381  34.094  36.876  1.00  0.00     0.029 A 
ATOM     66  C   UNL A   1      39.423  33.182  36.623  1.00  0.00     0.049 A 
ATOM     67  H   UNL A   1      39.736  31.897  34.978  1.00  0.00     0.167 HD
ATOM     68  C   UNL A   1      41.517  32.048  37.228  1.00  0.00     0.074 A 
ATOM     69  C   UNL A   1      42.666  31.834  38.118  1.00  0.00     0.031 C 
ATOM     70  C   UNL A   1      40.490  32.960  37.481  1.00  0.00     0.031 A 
BRANCH  57  71
ATOM     71  C   UNL A   1      36.128  33.556  33.324  1.00  0.00    -0.014 A 
ATOM     72  C   UNL A   1      34.868  33.017  33.525  1.00  0.00     0.010 A 
ATOM     73  C   UNL A   1      36.282  34.786  32.846  1.00  0.00     0.010 A 
ATOM     74  C   UNL A   1      33.825  33.753  32.916  1.00  0.00     0.020 A 
ATOM     75  C   UNL A   1      35.201  35.501  32.394  1.00  0.00     0.020 A 
ATOM     76  C   UNL A   1      33.932  35.004  32.506  1.00  0.00     0.054 A 
BRANCH  76  77
ATOM     77  S   UNL A   1      32.477  36.008  32.117  1.00  0.00     0.124 S 
ATOM     78  O   UNL A   1      32.567  37.344  32.858  1.00  0.00    -0.237 OA
ATOM     79  O   UNL A   1      32.422  36.264  30.610  1.00  0.00    -0.237 OA
ATOM     80  O   UNL A   1      31.064  35.178  32.607  1.00  0.00    -0.744 OA
ENDBRANCH  76  77
ENDBRANCH  57  71
BRANCH  58  81
ATOM     81  C   UNL A   1      44.482  28.766  35.786  1.00  0.00    -0.014 A 
ATOM     82  C   UNL A   1      45.725  29.213  35.371  1.00  0.00     0.010 A 
ATOM     83  C   UNL A   1      44.346  27.620  36.443  1.00  0.00     0.010 A 
ATOM     84  C   UNL A   1      46.742  28.231  35.446  1.00  0.00     0.020 A 
ATOM     85  C   UNL A   1      45.415  26.771  36.597  1.00  0.00     0.020 A 
ATOM     86  C   UNL A   1      46.661  27.123  36.158  1.00  0.00     0.054 A 
BRANCH  86  87
ATOM     87  S   UNL A   1      48.122  26.122  36.535  1.00  0.00     0.124 S 
ATOM     88  O   UNL A   1      48.524  25.321  35.295  1.00  0.00    -0.237 OA
ATOM     89  O   UNL A   1      49.276  27.041  36.946  1.00  0.00    -0.237 OA
ATOM     90  O   UNL A   1      47.763  25.050  37.817  1.00  0.00    -0.744 OA
ENDBRANCH  86  87
ENDBRANCH  58  81
BRANCH  70  91
ATOM     91  C   UNL A   1      40.545  33.756  38.773  1.00  0.00    -0.014 A 
ATOM     92  C   UNL A   1      41.127  35.011  38.712  1.00  0.00     0.010 A 
ATOM     93  C   UNL A   1      39.958  33.323  39.883  1.00  0.00     0.010 A 
ATOM     94  C   UNL A   1      41.293  35.629  39.974  1.00  0.00     0.020 A 
ATOM     95  C   UNL A   1      40.046  34.045  41.048  1.00  0.00     0.020 A 
ATOM     96  C   UNL A   1      40.658  35.268  41.074  1.00  0.00     0.054 A 
BRANCH  96  97
ATOM     97  S   UNL A   1      40.603  36.332  42.537  1.00  0.00     0.124 S 
ATOM     98  O   UNL A   1      39.147  36.563  42.945  1.00  0.00    -0.237 OA
ATOM     99  O   UNL A   1      41.354  35.655  43.688  1.00  0.00    -0.237 OA
ATOM    100  O   UNL A   1      41.341  37.832  42.180  1.00  0.00    -0.744 OA
ENDBRANCH  96  97
ENDBRANCH  70  91
ENDBRANCH  44  45
ENDBRANCH  37  39
ENDBRANCH  36  37
ENDBRANCH  35  36
ENDBRANCH  34  35
ENDBRANCH  33  34
ENDBRANCH  32  33
ENDBRANCH   1  32
TORSDOF 25
ENDMDL
