MODEL 1
REMARK VINA RESULT:      -8.8      0.000      0.000
REMARK SMILES C[C@H]1CCC[C@@H]([NH2+]Cc2ccc(C(=O)OCCOCCOCCOCCOC(=O)c3ccc(-c4c5nc(c(-c6ccc(S(=O)(=O)[O-])cc6)c6ccc([nH]6)c(-c6ccc(S(=O)(=O)[O-])cc6)c6nc(c(-c7ccc(S(=O)(=O)[O-])cc7)c7ccc4[nH]7)C=C6)C=C5)cc3)cn2)C1
REMARK SMILES IDX 21 1 20 2 19 3 18 4 17 5 16 6 15 7 13 8 14 9 12 10 9 11
REMARK SMILES IDX 10 12 91 13 11 14 90 15 8 16 7 17 6 20 1 21 2 22 3 23 92 24
REMARK SMILES IDX 4 25 5 26 22 27 23 28 24 29 25 30 26 31 27 32 28 33 29 34
REMARK SMILES IDX 30 35 31 36 89 37 32 38 88 39 33 40 34 41 35 42 82 43 36 44
REMARK SMILES IDX 87 45 81 46 83 47 37 48 86 49 80 50 79 51 38 53 68 54 49 55
REMARK SMILES IDX 67 56 50 57 53 58 66 59 84 60 51 61 52 62 65 64 85 65 54 66
REMARK SMILES IDX 39 67 40 68 48 69 41 70 47 71 42 72 43 73 44 74 45 75 46 76
REMARK SMILES IDX 69 77 70 78 78 79 71 80 77 81 72 82 73 83 74 84 75 85 76 86
REMARK SMILES IDX 55 87 56 88 64 89 57 90 63 91 58 92 59 93 60 94 61 95 62 96
REMARK H PARENT 7 18 7 19 83 52 53 63
REMARK Flexibility Score: inf
ROOT
ATOM      1  O   UNL A   1      41.387  22.771  27.052  1.00  0.00    -0.377 OA
ENDROOT
BRANCH   1   2
ATOM      2  C   UNL A   1      39.979  22.614  27.056  1.00  0.00     0.188 C 
BRANCH   2   3
ATOM      3  C   UNL A   1      39.396  21.524  26.134  1.00  0.00     0.188 C 
BRANCH   3   4
ATOM      4  O   UNL A   1      38.284  21.962  25.374  1.00  0.00    -0.376 OA
BRANCH   4   5
ATOM      5  C   UNL A   1      37.293  21.045  24.952  1.00  0.00     0.202 C 
BRANCH   5   6
ATOM      6  C   UNL A   1      35.825  21.181  25.390  1.00  0.00     0.261 C 
BRANCH   6   7
ATOM      7  O   UNL A   1      34.837  20.737  24.460  1.00  0.00    -0.460 OA
BRANCH   7   8
ATOM      8  C   UNL A   1      33.577  21.188  24.629  1.00  0.00     0.339 C 
ATOM      9  O   UNL A   1      32.660  20.611  25.183  1.00  0.00    -0.246 OA
BRANCH   8  10
ATOM     10  C   UNL A   1      33.555  22.605  24.225  1.00  0.00     0.078 A 
ATOM     11  C   UNL A   1      33.473  25.184  23.277  1.00  0.00     0.094 A 
ATOM     12  C   UNL A   1      33.264  24.951  24.641  1.00  0.00     0.031 A 
ATOM     13  N   UNL A   1      33.633  24.173  22.384  1.00  0.00    -0.254 NA
ATOM     14  C   UNL A   1      33.319  23.646  25.122  1.00  0.00     0.019 A 
ATOM     15  C   UNL A   1      33.676  22.913  22.878  1.00  0.00     0.127 A 
BRANCH  11  16
ATOM     16  C   UNL A   1      33.638  26.607  22.761  1.00  0.00     0.318 C 
BRANCH  16  17
ATOM     17  N   UNL A   1      32.403  27.052  22.109  1.00  0.00    -0.339 N 
ATOM     18  H   UNL A   1      32.654  27.752  21.412  1.00  0.00     0.346 HD
ATOM     19  H   UNL A   1      31.978  26.209  21.724  1.00  0.00     0.346 HD
BRANCH  17  20
ATOM     20  C   UNL A   1      31.389  27.636  22.982  1.00  0.00     0.182 C 
ATOM     21  C   UNL A   1      32.037  30.260  25.786  1.00  0.00     0.008 C 
ATOM     22  C   UNL A   1      31.223  29.323  24.895  1.00  0.00    -0.008 C 
ATOM     23  C   UNL A   1      30.172  30.103  24.099  1.00  0.00     0.004 C 
ATOM     24  C   UNL A   1      32.154  28.555  23.953  1.00  0.00     0.068 C 
ATOM     25  C   UNL A   1      29.402  29.196  23.146  1.00  0.00     0.006 C 
ATOM     26  C   UNL A   1      30.338  28.440  22.205  1.00  0.00     0.065 C 
ENDBRANCH  17  20
ENDBRANCH  16  17
ENDBRANCH  11  16
ENDBRANCH   8  10
ENDBRANCH   7   8
ENDBRANCH   6   7
ENDBRANCH   5   6
ENDBRANCH   4   5
ENDBRANCH   3   4
ENDBRANCH   2   3
ENDBRANCH   1   2
BRANCH   1  27
ATOM     27  C   UNL A   1      42.229  21.618  26.996  1.00  0.00     0.188 C 
BRANCH  27  28
ATOM     28  C   UNL A   1      43.135  21.292  25.781  1.00  0.00     0.188 C 
BRANCH  28  29
ATOM     29  O   UNL A   1      43.047  22.207  24.701  1.00  0.00    -0.376 OA
BRANCH  29  30
ATOM     30  C   UNL A   1      43.917  23.323  24.703  1.00  0.00     0.202 C 
BRANCH  30  31
ATOM     31  C   UNL A   1      43.312  24.662  25.144  1.00  0.00     0.261 C 
BRANCH  31  32
ATOM     32  O   UNL A   1      44.245  25.666  25.566  1.00  0.00    -0.460 OA
BRANCH  32  33
ATOM     33  C   UNL A   1      44.798  25.512  26.794  1.00  0.00     0.338 C 
ATOM     34  O   UNL A   1      45.775  24.859  27.079  1.00  0.00    -0.246 OA
BRANCH  33  35
ATOM     35  C   UNL A   1      44.102  26.447  27.706  1.00  0.00     0.060 A 
ATOM     36  C   UNL A   1      44.510  27.786  27.755  1.00  0.00     0.016 A 
ATOM     37  C   UNL A   1      43.045  25.997  28.499  1.00  0.00     0.016 A 
ATOM     38  C   UNL A   1      43.881  28.676  28.628  1.00  0.00     0.010 A 
ATOM     39  C   UNL A   1      42.430  26.883  29.386  1.00  0.00     0.010 A 
ATOM     40  C   UNL A   1      42.869  28.215  29.481  1.00  0.00    -0.014 A 
BRANCH  40  41
ATOM     41  C   UNL A   1      42.412  29.060  30.612  1.00  0.00     0.031 A 
ATOM     42  C   UNL A   1      43.203  29.016  31.892  1.00  0.00     0.074 A 
ATOM     43  C   UNL A   1      41.330  29.851  30.510  1.00  0.00     0.049 A 
ATOM     44  N   UNL A   1      42.970  29.609  33.032  1.00  0.00    -0.248 NA
ATOM     45  C   UNL A   1      44.421  28.186  31.881  1.00  0.00     0.031 C 
ATOM     46  C   UNL A   1      40.511  30.018  29.311  1.00  0.00     0.029 A 
ATOM     47  N   UNL A   1      40.730  30.658  31.444  1.00  0.00    -0.354 N 
ATOM     48  C   UNL A   1      44.000  29.214  33.879  1.00  0.00     0.074 A 
ATOM     49  C   UNL A   1      44.843  28.308  33.131  1.00  0.00     0.031 C 
ATOM     50  C   UNL A   1      39.507  30.870  29.587  1.00  0.00     0.029 A 
ATOM     51  C   UNL A   1      39.589  31.277  30.989  1.00  0.00     0.049 A 
ATOM     52  H   UNL A   1      41.084  30.784  32.355  1.00  0.00     0.167 HD
ATOM     53  C   UNL A   1      44.228  29.576  35.164  1.00  0.00     0.031 A 
ATOM     54  C   UNL A   1      38.701  32.057  31.638  1.00  0.00     0.031 A 
ATOM     55  C   UNL A   1      43.377  30.464  35.910  1.00  0.00     0.049 A 
ATOM     56  C   UNL A   1      38.929  32.380  33.094  1.00  0.00     0.074 A 
ATOM     57  C   UNL A   1      43.527  30.904  37.213  1.00  0.00     0.029 A 
ATOM     58  N   UNL A   1      42.212  31.039  35.424  1.00  0.00    -0.354 N 
ATOM     59  N   UNL A   1      39.920  32.019  33.876  1.00  0.00    -0.248 NA
ATOM     60  C   UNL A   1      37.919  33.222  33.753  1.00  0.00     0.031 C 
ATOM     61  C   UNL A   1      42.417  31.690  37.537  1.00  0.00     0.029 A 
ATOM     62  C   UNL A   1      41.616  31.805  36.412  1.00  0.00     0.049 A 
ATOM     63  H   UNL A   1      41.861  30.922  34.512  1.00  0.00     0.167 HD
ATOM     64  C   UNL A   1      39.671  32.618  35.108  1.00  0.00     0.074 A 
ATOM     65  C   UNL A   1      38.443  33.375  34.963  1.00  0.00     0.031 C 
ATOM     66  C   UNL A   1      40.393  32.553  36.254  1.00  0.00     0.031 A 
BRANCH  53  67
ATOM     67  C   UNL A   1      45.424  28.975  35.855  1.00  0.00    -0.014 A 
ATOM     68  C   UNL A   1      45.334  27.754  36.548  1.00  0.00     0.010 A 
ATOM     69  C   UNL A   1      46.667  29.628  35.781  1.00  0.00     0.010 A 
ATOM     70  C   UNL A   1      46.456  27.220  37.188  1.00  0.00     0.020 A 
ATOM     71  C   UNL A   1      47.799  29.081  36.390  1.00  0.00     0.020 A 
ATOM     72  C   UNL A   1      47.681  27.887  37.106  1.00  0.00     0.054 A 
BRANCH  72  73
ATOM     73  S   UNL A   1      49.125  27.157  37.924  1.00  0.00     0.124 S 
ATOM     74  O   UNL A   1      48.531  26.019  38.623  1.00  0.00    -0.237 OA
ATOM     75  O   UNL A   1      49.993  26.820  36.799  1.00  0.00    -0.237 OA
ATOM     76  O   UNL A   1      49.615  28.229  38.787  1.00  0.00    -0.744 OA
ENDBRANCH  72  73
ENDBRANCH  53  67
BRANCH  54  77
ATOM     77  C   UNL A   1      37.499  32.573  30.924  1.00  0.00    -0.014 A 
ATOM     78  C   UNL A   1      37.517  33.835  30.303  1.00  0.00     0.010 A 
ATOM     79  C   UNL A   1      36.323  31.803  30.869  1.00  0.00     0.010 A 
ATOM     80  C   UNL A   1      36.377  34.322  29.655  1.00  0.00     0.020 A 
ATOM     81  C   UNL A   1      35.192  32.273  30.195  1.00  0.00     0.020 A 
ATOM     82  C   UNL A   1      35.223  33.535  29.600  1.00  0.00     0.054 A 
BRANCH  82  83
ATOM     83  S   UNL A   1      33.776  34.166  28.706  1.00  0.00     0.124 S 
ATOM     84  O   UNL A   1      34.361  35.221  27.885  1.00  0.00    -0.237 OA
ATOM     85  O   UNL A   1      33.315  32.983  27.983  1.00  0.00    -0.237 OA
ATOM     86  O   UNL A   1      32.887  34.620  29.772  1.00  0.00    -0.744 OA
ENDBRANCH  82  83
ENDBRANCH  54  77
BRANCH  66  87
ATOM     87  C   UNL A   1      39.907  33.353  37.437  1.00  0.00    -0.014 A 
ATOM     88  C   UNL A   1      39.020  32.806  38.381  1.00  0.00     0.010 A 
ATOM     89  C   UNL A   1      40.401  34.655  37.639  1.00  0.00     0.010 A 
ATOM     90  C   UNL A   1      38.610  33.558  39.485  1.00  0.00     0.020 A 
ATOM     91  C   UNL A   1      40.020  35.399  38.758  1.00  0.00     0.020 A 
ATOM     92  C   UNL A   1      39.114  34.851  39.668  1.00  0.00     0.054 A 
BRANCH  92  93
ATOM     93  S   UNL A   1      38.601  35.788  41.132  1.00  0.00     0.124 S 
ATOM     94  O   UNL A   1      39.726  35.577  42.039  1.00  0.00    -0.237 OA
ATOM     95  O   UNL A   1      38.460  37.145  40.611  1.00  0.00    -0.237 OA
ATOM     96  O   UNL A   1      37.350  35.148  41.534  1.00  0.00    -0.744 OA
ENDBRANCH  92  93
ENDBRANCH  66  87
ENDBRANCH  40  41
ENDBRANCH  33  35
ENDBRANCH  32  33
ENDBRANCH  31  32
ENDBRANCH  30  31
ENDBRANCH  29  30
ENDBRANCH  28  29
ENDBRANCH  27  28
ENDBRANCH   1  27
TORSDOF 26
ENDMDL
MODEL 2
REMARK VINA RESULT:      -8.3      6.367      8.766
REMARK SMILES C[C@H]1CCC[C@@H]([NH2+]Cc2ccc(C(=O)OCCOCCOCCOCCOC(=O)c3ccc(-c4c5nc(c(-c6ccc(S(=O)(=O)[O-])cc6)c6ccc([nH]6)c(-c6ccc(S(=O)(=O)[O-])cc6)c6nc(c(-c7ccc(S(=O)(=O)[O-])cc7)c7ccc4[nH]7)C=C6)C=C5)cc3)cn2)C1
REMARK SMILES IDX 21 1 20 2 19 3 18 4 17 5 16 6 15 7 13 8 14 9 12 10 9 11
REMARK SMILES IDX 10 12 91 13 11 14 90 15 8 16 7 17 6 20 1 21 2 22 3 23 92 24
REMARK SMILES IDX 4 25 5 26 22 27 23 28 24 29 25 30 26 31 27 32 28 33 29 34
REMARK SMILES IDX 30 35 31 36 89 37 32 38 88 39 33 40 34 41 35 42 82 43 36 44
REMARK SMILES IDX 87 45 81 46 83 47 37 48 86 49 80 50 79 51 38 53 68 54 49 55
REMARK SMILES IDX 67 56 50 57 53 58 66 59 84 60 51 61 52 62 65 64 85 65 54 66
REMARK SMILES IDX 39 67 40 68 48 69 41 70 47 71 42 72 43 73 44 74 45 75 46 76
REMARK SMILES IDX 69 77 70 78 78 79 71 80 77 81 72 82 73 83 74 84 75 85 76 86
REMARK SMILES IDX 55 87 56 88 64 89 57 90 63 91 58 92 59 93 60 94 61 95 62 96
REMARK H PARENT 7 18 7 19 83 52 53 63
REMARK Flexibility Score: inf
ROOT
ATOM      1  O   UNL A   1      42.141  23.125  26.525  1.00  0.00    -0.377 OA
ENDROOT
BRANCH   1   2
ATOM      2  C   UNL A   1      40.742  23.198  26.739  1.00  0.00     0.188 C 
BRANCH   2   3
ATOM      3  C   UNL A   1      39.994  21.863  26.925  1.00  0.00     0.188 C 
BRANCH   3   4
ATOM      4  O   UNL A   1      39.279  21.451  25.774  1.00  0.00    -0.376 OA
BRANCH   4   5
ATOM      5  C   UNL A   1      37.870  21.574  25.718  1.00  0.00     0.202 C 
BRANCH   5   6
ATOM      6  C   UNL A   1      37.185  22.655  24.866  1.00  0.00     0.261 C 
BRANCH   6   7
ATOM      7  O   UNL A   1      36.096  22.228  24.047  1.00  0.00    -0.460 OA
BRANCH   7   8
ATOM      8  C   UNL A   1      35.138  21.477  24.628  1.00  0.00     0.339 C 
ATOM      9  O   UNL A   1      35.217  20.305  24.946  1.00  0.00    -0.246 OA
BRANCH   8  10
ATOM     10  C   UNL A   1      34.043  22.381  25.024  1.00  0.00     0.078 A 
ATOM     11  C   UNL A   1      31.905  24.015  25.586  1.00  0.00     0.094 A 
ATOM     12  C   UNL A   1      32.723  23.577  26.633  1.00  0.00     0.031 A 
ATOM     13  N   UNL A   1      32.078  23.595  24.306  1.00  0.00    -0.254 NA
ATOM     14  C   UNL A   1      33.813  22.760  26.346  1.00  0.00     0.019 A 
ATOM     15  C   UNL A   1      33.142  22.797  24.055  1.00  0.00     0.127 A 
BRANCH  11  16
ATOM     16  C   UNL A   1      30.846  25.079  25.837  1.00  0.00     0.318 C 
BRANCH  16  17
ATOM     17  N   UNL A   1      31.292  25.995  26.891  1.00  0.00    -0.339 N 
ATOM     18  H   UNL A   1      30.681  25.864  27.697  1.00  0.00     0.346 HD
ATOM     19  H   UNL A   1      32.269  25.758  27.062  1.00  0.00     0.346 HD
BRANCH  17  20
ATOM     20  C   UNL A   1      31.288  27.414  26.554  1.00  0.00     0.182 C 
ATOM     21  C   UNL A   1      34.155  29.941  27.307  1.00  0.00     0.008 C 
ATOM     22  C   UNL A   1      32.806  29.459  26.776  1.00  0.00    -0.008 C 
ATOM     23  C   UNL A   1      32.705  29.683  25.264  1.00  0.00     0.004 C 
ATOM     24  C   UNL A   1      32.605  27.980  27.118  1.00  0.00     0.068 C 
ATOM     25  C   UNL A   1      31.396  29.137  24.702  1.00  0.00     0.006 C 
ATOM     26  C   UNL A   1      31.208  27.660  25.041  1.00  0.00     0.065 C 
ENDBRANCH  17  20
ENDBRANCH  16  17
ENDBRANCH  11  16
ENDBRANCH   8  10
ENDBRANCH   7   8
ENDBRANCH   6   7
ENDBRANCH   5   6
ENDBRANCH   4   5
ENDBRANCH   3   4
ENDBRANCH   2   3
ENDBRANCH   1   2
BRANCH   1  27
ATOM     27  C   UNL A   1      42.799  21.858  26.571  1.00  0.00     0.188 C 
BRANCH  27  28
ATOM     28  C   UNL A   1      43.456  21.201  25.330  1.00  0.00     0.188 C 
BRANCH  28  29
ATOM     29  O   UNL A   1      43.786  22.095  24.280  1.00  0.00    -0.376 OA
BRANCH  29  30
ATOM     30  C   UNL A   1      45.030  22.766  24.344  1.00  0.00     0.202 C 
BRANCH  30  31
ATOM     31  C   UNL A   1      45.014  24.185  24.924  1.00  0.00     0.261 C 
BRANCH  31  32
ATOM     32  O   UNL A   1      46.209  24.956  24.738  1.00  0.00    -0.460 OA
BRANCH  32  33
ATOM     33  C   UNL A   1      47.049  25.051  25.797  1.00  0.00     0.338 C 
ATOM     34  O   UNL A   1      47.801  24.199  26.213  1.00  0.00    -0.246 OA
BRANCH  33  35
ATOM     35  C   UNL A   1      47.025  26.460  26.248  1.00  0.00     0.060 A 
ATOM     36  C   UNL A   1      47.536  26.783  27.512  1.00  0.00     0.016 A 
ATOM     37  C   UNL A   1      46.509  27.455  25.416  1.00  0.00     0.016 A 
ATOM     38  C   UNL A   1      47.499  28.103  27.963  1.00  0.00     0.010 A 
ATOM     39  C   UNL A   1      46.453  28.772  25.877  1.00  0.00     0.010 A 
ATOM     40  C   UNL A   1      46.914  29.096  27.165  1.00  0.00    -0.014 A 
BRANCH  40  41
ATOM     41  C   UNL A   1      46.592  30.421  27.748  1.00  0.00     0.031 A 
ATOM     42  C   UNL A   1      45.324  30.553  28.548  1.00  0.00     0.074 A 
ATOM     43  C   UNL A   1      47.402  31.481  27.582  1.00  0.00     0.049 A 
ATOM     44  N   UNL A   1      44.797  31.613  29.100  1.00  0.00    -0.248 NA
ATOM     45  C   UNL A   1      44.544  29.318  28.748  1.00  0.00     0.031 C 
ATOM     46  C   UNL A   1      48.679  31.470  26.871  1.00  0.00     0.029 A 
ATOM     47  N   UNL A   1      47.258  32.782  27.996  1.00  0.00    -0.354 N 
ATOM     48  C   UNL A   1      43.619  31.180  29.699  1.00  0.00     0.074 A 
ATOM     49  C   UNL A   1      43.494  29.767  29.418  1.00  0.00     0.031 C 
ATOM     50  C   UNL A   1      49.199  32.711  26.892  1.00  0.00     0.029 A 
ATOM     51  C   UNL A   1      48.274  33.610  27.580  1.00  0.00     0.049 A 
ATOM     52  H   UNL A   1      46.498  33.093  28.540  1.00  0.00     0.167 HD
ATOM     53  C   UNL A   1      42.723  31.892  30.422  1.00  0.00     0.031 A 
ATOM     54  C   UNL A   1      48.425  34.943  27.717  1.00  0.00     0.031 A 
ATOM     55  C   UNL A   1      42.843  33.301  30.684  1.00  0.00     0.049 A 
ATOM     56  C   UNL A   1      47.371  35.733  28.454  1.00  0.00     0.074 A 
ATOM     57  C   UNL A   1      41.996  34.114  31.416  1.00  0.00     0.029 A 
ATOM     58  N   UNL A   1      43.867  34.110  30.214  1.00  0.00    -0.354 N 
ATOM     59  N   UNL A   1      46.275  35.306  29.036  1.00  0.00    -0.248 NA
ATOM     60  C   UNL A   1      47.581  37.185  28.559  1.00  0.00     0.031 C 
ATOM     61  C   UNL A   1      42.472  35.426  31.332  1.00  0.00     0.029 A 
ATOM     62  C   UNL A   1      43.657  35.419  30.614  1.00  0.00     0.049 A 
ATOM     63  H   UNL A   1      44.631  33.800  29.677  1.00  0.00     0.167 HD
ATOM     64  C   UNL A   1      45.682  36.431  29.605  1.00  0.00     0.074 A 
ATOM     65  C   UNL A   1      46.549  37.554  29.307  1.00  0.00     0.031 C 
ATOM     66  C   UNL A   1      44.529  36.527  30.311  1.00  0.00     0.031 A 
BRANCH  53  67
ATOM     67  C   UNL A   1      41.513  31.163  30.944  1.00  0.00    -0.014 A 
ATOM     68  C   UNL A   1      40.347  31.029  30.168  1.00  0.00     0.010 A 
ATOM     69  C   UNL A   1      41.555  30.575  32.221  1.00  0.00     0.010 A 
ATOM     70  C   UNL A   1      39.233  30.355  30.677  1.00  0.00     0.020 A 
ATOM     71  C   UNL A   1      40.456  29.871  32.720  1.00  0.00     0.020 A 
ATOM     72  C   UNL A   1      39.295  29.781  31.950  1.00  0.00     0.054 A 
BRANCH  72  73
ATOM     73  S   UNL A   1      37.844  28.890  32.573  1.00  0.00     0.124 S 
ATOM     74  O   UNL A   1      38.274  27.498  32.463  1.00  0.00    -0.237 OA
ATOM     75  O   UNL A   1      37.715  29.402  33.935  1.00  0.00    -0.237 OA
ATOM     76  O   UNL A   1      36.774  29.284  31.659  1.00  0.00    -0.744 OA
ENDBRANCH  72  73
ENDBRANCH  53  67
BRANCH  54  77
ATOM     77  C   UNL A   1      49.610  35.625  27.125  1.00  0.00    -0.014 A 
ATOM     78  C   UNL A   1      49.589  36.078  25.794  1.00  0.00     0.010 A 
ATOM     79  C   UNL A   1      50.774  35.818  27.892  1.00  0.00     0.010 A 
ATOM     80  C   UNL A   1      50.714  36.697  25.238  1.00  0.00     0.020 A 
ATOM     81  C   UNL A   1      51.889  36.464  27.350  1.00  0.00     0.020 A 
ATOM     82  C   UNL A   1      51.855  36.890  26.022  1.00  0.00     0.054 A 
BRANCH  82  83
ATOM     83  S   UNL A   1      53.282  37.744  25.295  1.00  0.00     0.124 S 
ATOM     84  O   UNL A   1      54.402  36.978  25.831  1.00  0.00    -0.237 OA
ATOM     85  O   UNL A   1      53.039  37.593  23.862  1.00  0.00    -0.237 OA
ATOM     86  O   UNL A   1      53.157  39.109  25.800  1.00  0.00    -0.744 OA
ENDBRANCH  82  83
ENDBRANCH  54  77
BRANCH  66  87
ATOM     87  C   UNL A   1      44.150  37.882  30.856  1.00  0.00    -0.014 A 
ATOM     88  C   UNL A   1      43.539  38.856  30.047  1.00  0.00     0.010 A 
ATOM     89  C   UNL A   1      44.353  38.158  32.221  1.00  0.00     0.010 A 
ATOM     90  C   UNL A   1      43.169  40.092  30.585  1.00  0.00     0.020 A 
ATOM     91  C   UNL A   1      43.956  39.379  32.771  1.00  0.00     0.020 A 
ATOM     92  C   UNL A   1      43.379  40.345  31.945  1.00  0.00     0.054 A 
BRANCH  92  93
ATOM     93  S   UNL A   1      42.849  41.939  32.627  1.00  0.00     0.124 S 
ATOM     94  O   UNL A   1      44.112  42.508  33.090  1.00  0.00    -0.237 OA
ATOM     95  O   UNL A   1      42.250  42.600  31.470  1.00  0.00    -0.237 OA
ATOM     96  O   UNL A   1      41.909  41.571  33.683  1.00  0.00    -0.744 OA
ENDBRANCH  92  93
ENDBRANCH  66  87
ENDBRANCH  40  41
ENDBRANCH  33  35
ENDBRANCH  32  33
ENDBRANCH  31  32
ENDBRANCH  30  31
ENDBRANCH  29  30
ENDBRANCH  28  29
ENDBRANCH  27  28
ENDBRANCH   1  27
TORSDOF 26
ENDMDL
MODEL 3
REMARK VINA RESULT:      -7.6      5.986      7.463
REMARK SMILES C[C@H]1CCC[C@@H]([NH2+]Cc2ccc(C(=O)OCCOCCOCCOCCOC(=O)c3ccc(-c4c5nc(c(-c6ccc(S(=O)(=O)[O-])cc6)c6ccc([nH]6)c(-c6ccc(S(=O)(=O)[O-])cc6)c6nc(c(-c7ccc(S(=O)(=O)[O-])cc7)c7ccc4[nH]7)C=C6)C=C5)cc3)cn2)C1
REMARK SMILES IDX 21 1 20 2 19 3 18 4 17 5 16 6 15 7 13 8 14 9 12 10 9 11
REMARK SMILES IDX 10 12 91 13 11 14 90 15 8 16 7 17 6 20 1 21 2 22 3 23 92 24
REMARK SMILES IDX 4 25 5 26 22 27 23 28 24 29 25 30 26 31 27 32 28 33 29 34
REMARK SMILES IDX 30 35 31 36 89 37 32 38 88 39 33 40 34 41 35 42 82 43 36 44
REMARK SMILES IDX 87 45 81 46 83 47 37 48 86 49 80 50 79 51 38 53 68 54 49 55
REMARK SMILES IDX 67 56 50 57 53 58 66 59 84 60 51 61 52 62 65 64 85 65 54 66
REMARK SMILES IDX 39 67 40 68 48 69 41 70 47 71 42 72 43 73 44 74 45 75 46 76
REMARK SMILES IDX 69 77 70 78 78 79 71 80 77 81 72 82 73 83 74 84 75 85 76 86
REMARK SMILES IDX 55 87 56 88 64 89 57 90 63 91 58 92 59 93 60 94 61 95 62 96
REMARK H PARENT 7 18 7 19 83 52 53 63
REMARK Flexibility Score: inf
ROOT
ATOM      1  O   UNL A   1      42.384  23.577  27.223  1.00  0.00    -0.377 OA
ENDROOT
BRANCH   1   2
ATOM      2  C   UNL A   1      41.053  23.248  27.580  1.00  0.00     0.188 C 
BRANCH   2   3
ATOM      3  C   UNL A   1      40.607  21.791  27.344  1.00  0.00     0.188 C 
BRANCH   3   4
ATOM      4  O   UNL A   1      40.196  21.534  26.013  1.00  0.00    -0.376 OA
BRANCH   4   5
ATOM      5  C   UNL A   1      38.834  21.295  25.713  1.00  0.00     0.202 C 
BRANCH   5   6
ATOM      6  C   UNL A   1      37.807  22.437  25.641  1.00  0.00     0.261 C 
BRANCH   6   7
ATOM      7  O   UNL A   1      36.765  22.300  24.674  1.00  0.00    -0.460 OA
BRANCH   7   8
ATOM      8  C   UNL A   1      35.839  21.344  24.891  1.00  0.00     0.339 C 
ATOM      9  O   UNL A   1      36.023  20.141  24.940  1.00  0.00    -0.246 OA
BRANCH   8  10
ATOM     10  C   UNL A   1      34.588  22.017  25.285  1.00  0.00     0.078 A 
ATOM     11  C   UNL A   1      32.157  23.151  25.885  1.00  0.00     0.094 A 
ATOM     12  C   UNL A   1      33.203  23.250  26.809  1.00  0.00     0.031 A 
ATOM     13  N   UNL A   1      32.272  22.441  24.732  1.00  0.00    -0.254 NA
ATOM     14  C   UNL A   1      34.438  22.686  26.498  1.00  0.00     0.019 A 
ATOM     15  C   UNL A   1      33.482  21.899  24.457  1.00  0.00     0.127 A 
BRANCH  11  16
ATOM     16  C   UNL A   1      30.873  23.940  26.096  1.00  0.00     0.318 C 
BRANCH  16  17
ATOM     17  N   UNL A   1      31.172  25.230  26.725  1.00  0.00    -0.339 N 
ATOM     18  H   UNL A   1      30.769  25.221  27.662  1.00  0.00     0.346 HD
ATOM     19  H   UNL A   1      32.189  25.313  26.706  1.00  0.00     0.346 HD
BRANCH  17  20
ATOM     20  C   UNL A   1      30.670  26.414  26.036  1.00  0.00     0.182 C 
ATOM     21  C   UNL A   1      32.765  29.562  25.102  1.00  0.00     0.008 C 
ATOM     22  C   UNL A   1      31.530  28.668  25.189  1.00  0.00    -0.008 C 
ATOM     23  C   UNL A   1      31.002  28.329  23.791  1.00  0.00     0.004 C 
ATOM     24  C   UNL A   1      31.860  27.390  25.966  1.00  0.00     0.068 C 
ATOM     25  C   UNL A   1      29.815  27.374  23.855  1.00  0.00     0.006 C 
ATOM     26  C   UNL A   1      30.156  26.100  24.625  1.00  0.00     0.065 C 
ENDBRANCH  17  20
ENDBRANCH  16  17
ENDBRANCH  11  16
ENDBRANCH   8  10
ENDBRANCH   7   8
ENDBRANCH   6   7
ENDBRANCH   5   6
ENDBRANCH   4   5
ENDBRANCH   3   4
ENDBRANCH   2   3
ENDBRANCH   1   2
BRANCH   1  27
ATOM     27  C   UNL A   1      43.356  22.540  27.080  1.00  0.00     0.188 C 
BRANCH  27  28
ATOM     28  C   UNL A   1      44.000  22.166  25.720  1.00  0.00     0.188 C 
BRANCH  28  29
ATOM     29  O   UNL A   1      44.390  23.267  24.916  1.00  0.00    -0.376 OA
BRANCH  29  30
ATOM     30  C   UNL A   1      45.705  23.767  25.064  1.00  0.00     0.202 C 
BRANCH  30  31
ATOM     31  C   UNL A   1      45.836  25.231  25.499  1.00  0.00     0.261 C 
BRANCH  31  32
ATOM     32  O   UNL A   1      44.844  25.707  26.418  1.00  0.00    -0.460 OA
BRANCH  32  33
ATOM     33  C   UNL A   1      43.876  26.511  25.915  1.00  0.00     0.338 C 
ATOM     34  O   UNL A   1      43.092  26.246  25.032  1.00  0.00    -0.246 OA
BRANCH  33  35
ATOM     35  C   UNL A   1      43.820  27.716  26.771  1.00  0.00     0.060 A 
ATOM     36  C   UNL A   1      42.946  28.757  26.432  1.00  0.00     0.016 A 
ATOM     37  C   UNL A   1      44.623  27.807  27.909  1.00  0.00     0.016 A 
ATOM     38  C   UNL A   1      42.898  29.912  27.215  1.00  0.00     0.010 A 
ATOM     39  C   UNL A   1      44.590  28.971  28.680  1.00  0.00     0.010 A 
ATOM     40  C   UNL A   1      43.755  30.042  28.316  1.00  0.00    -0.014 A 
BRANCH  40  41
ATOM     41  C   UNL A   1      43.934  31.365  28.963  1.00  0.00     0.031 A 
ATOM     42  C   UNL A   1      45.073  32.232  28.496  1.00  0.00     0.074 A 
ATOM     43  C   UNL A   1      43.109  31.794  29.933  1.00  0.00     0.049 A 
ATOM     44  N   UNL A   1      45.472  33.391  28.946  1.00  0.00    -0.248 NA
ATOM     45  C   UNL A   1      45.871  31.714  27.371  1.00  0.00     0.031 C 
ATOM     46  C   UNL A   1      41.943  31.070  30.437  1.00  0.00     0.029 A 
ATOM     47  N   UNL A   1      43.136  32.948  30.675  1.00  0.00    -0.354 N 
ATOM     48  C   UNL A   1      46.573  33.737  28.171  1.00  0.00     0.074 A 
ATOM     49  C   UNL A   1      46.799  32.651  27.244  1.00  0.00     0.031 C 
ATOM     50  C   UNL A   1      41.371  31.796  31.415  1.00  0.00     0.029 A 
ATOM     51  C   UNL A   1      42.151  33.013  31.633  1.00  0.00     0.049 A 
ATOM     52  H   UNL A   1      43.799  33.663  30.535  1.00  0.00     0.167 HD
ATOM     53  C   UNL A   1      47.329  34.860  28.224  1.00  0.00     0.031 A 
ATOM     54  C   UNL A   1      41.924  33.936  32.590  1.00  0.00     0.031 A 
ATOM     55  C   UNL A   1      47.111  35.929  29.160  1.00  0.00     0.049 A 
ATOM     56  C   UNL A   1      42.830  35.139  32.686  1.00  0.00     0.074 A 
ATOM     57  C   UNL A   1      47.813  37.115  29.287  1.00  0.00     0.029 A 
ATOM     58  N   UNL A   1      46.127  35.939  30.137  1.00  0.00    -0.354 N 
ATOM     59  N   UNL A   1      43.854  35.464  31.932  1.00  0.00    -0.248 NA
ATOM     60  C   UNL A   1      42.543  36.102  33.759  1.00  0.00     0.031 C 
ATOM     61  C   UNL A   1      47.295  37.811  30.384  1.00  0.00     0.029 A 
ATOM     62  C   UNL A   1      46.222  37.097  30.892  1.00  0.00     0.049 A 
ATOM     63  H   UNL A   1      45.459  35.230  30.273  1.00  0.00     0.167 HD
ATOM     64  C   UNL A   1      44.312  36.686  32.418  1.00  0.00     0.074 A 
ATOM     65  C   UNL A   1      43.445  37.047  33.521  1.00  0.00     0.031 C 
ATOM     66  C   UNL A   1      45.352  37.443  31.988  1.00  0.00     0.031 A 
BRANCH  53  67
ATOM     67  C   UNL A   1      48.487  34.964  27.267  1.00  0.00    -0.014 A 
ATOM     68  C   UNL A   1      49.817  34.830  27.706  1.00  0.00     0.010 A 
ATOM     69  C   UNL A   1      48.238  35.169  25.898  1.00  0.00     0.010 A 
ATOM     70  C   UNL A   1      50.876  34.939  26.800  1.00  0.00     0.020 A 
ATOM     71  C   UNL A   1      49.292  35.245  24.983  1.00  0.00     0.020 A 
ATOM     72  C   UNL A   1      50.606  35.146  25.445  1.00  0.00     0.054 A 
BRANCH  72  73
ATOM     73  S   UNL A   1      51.999  35.258  24.290  1.00  0.00     0.124 S 
ATOM     74  O   UNL A   1      51.699  36.496  23.575  1.00  0.00    -0.237 OA
ATOM     75  O   UNL A   1      53.153  35.312  25.184  1.00  0.00    -0.237 OA
ATOM     76  O   UNL A   1      51.890  34.038  23.493  1.00  0.00    -0.744 OA
ENDBRANCH  72  73
ENDBRANCH  53  67
BRANCH  54  77
ATOM     77  C   UNL A   1      40.802  33.751  33.554  1.00  0.00    -0.014 A 
ATOM     78  C   UNL A   1      40.959  32.942  34.694  1.00  0.00     0.010 A 
ATOM     79  C   UNL A   1      39.564  34.379  33.329  1.00  0.00     0.010 A 
ATOM     80  C   UNL A   1      39.894  32.755  35.581  1.00  0.00     0.020 A 
ATOM     81  C   UNL A   1      38.507  34.220  34.231  1.00  0.00     0.020 A 
ATOM     82  C   UNL A   1      38.676  33.399  35.347  1.00  0.00     0.054 A 
BRANCH  82  83
ATOM     83  S   UNL A   1      37.328  33.185  36.542  1.00  0.00     0.124 S 
ATOM     84  O   UNL A   1      37.750  34.052  37.637  1.00  0.00    -0.237 OA
ATOM     85  O   UNL A   1      36.164  33.641  35.785  1.00  0.00    -0.237 OA
ATOM     86  O   UNL A   1      37.351  31.753  36.830  1.00  0.00    -0.744 OA
ENDBRANCH  82  83
ENDBRANCH  54  77
BRANCH  66  87
ATOM     87  C   UNL A   1      45.591  38.763  32.678  1.00  0.00    -0.014 A 
ATOM     88  C   UNL A   1      44.918  39.933  32.282  1.00  0.00     0.010 A 
ATOM     89  C   UNL A   1      46.459  38.816  33.785  1.00  0.00     0.010 A 
ATOM     90  C   UNL A   1      45.135  41.136  32.960  1.00  0.00     0.020 A 
ATOM     91  C   UNL A   1      46.653  40.009  34.485  1.00  0.00     0.020 A 
ATOM     92  C   UNL A   1      46.000  41.167  34.058  1.00  0.00     0.054 A 
BRANCH  92  93
ATOM     93  S   UNL A   1      46.229  42.731  34.946  1.00  0.00     0.124 S 
ATOM     94  O   UNL A   1      44.915  42.933  35.551  1.00  0.00    -0.237 OA
ATOM     95  O   UNL A   1      47.308  42.416  35.878  1.00  0.00    -0.237 OA
ATOM     96  O   UNL A   1      46.580  43.681  33.892  1.00  0.00    -0.744 OA
ENDBRANCH  92  93
ENDBRANCH  66  87
ENDBRANCH  40  41
ENDBRANCH  33  35
ENDBRANCH  32  33
ENDBRANCH  31  32
ENDBRANCH  30  31
ENDBRANCH  29  30
ENDBRANCH  28  29
ENDBRANCH  27  28
ENDBRANCH   1  27
TORSDOF 26
ENDMDL
