MODEL 1
REMARK VINA RESULT:      -9.8      0.000      0.000
REMARK SMILES Cc1cc2c(=O)c3ccccc3oc2c(C(=O)OCCOCCOCCOCCOC(=O)c2ccc(-c3c4nc(c(-c5ccc(S(=O)(=O)[O-])cc5)c5ccc([nH]5)c(-c5ccc(S(=O)(=O)[O-])cc5)c5nc(c(-c6ccc(S(=O)(=O)[O-])cc6)c6ccc3[nH]6)C=C5)C=C4)cc2)c1C
REMARK SMILES IDX 25 1 24 2 23 3 22 4 21 5 20 6 19 7 18 8 16 9 17 10 15 11
REMARK SMILES IDX 1 12 2 13 3 14 93 15 4 16 94 17 5 18 14 19 6 20 7 21 13 22
REMARK SMILES IDX 8 23 12 24 9 25 11 26 10 27 26 28 27 29 28 30 29 31 30 32
REMARK SMILES IDX 31 33 32 34 33 35 34 36 92 37 35 38 91 39 36 40 37 41 38 42
REMARK SMILES IDX 85 43 39 44 90 45 84 46 86 47 40 48 89 49 83 50 82 51 41 53
REMARK SMILES IDX 71 54 52 55 70 56 53 57 56 58 69 59 87 60 54 61 55 62 68 64
REMARK SMILES IDX 88 65 57 66 42 67 43 68 51 69 44 70 50 71 45 72 46 73 47 74
REMARK SMILES IDX 48 75 49 76 72 77 73 78 81 79 74 80 80 81 75 82 76 83 77 84
REMARK SMILES IDX 78 85 79 86 58 87 59 88 67 89 60 90 66 91 61 92 62 93 63 94
REMARK SMILES IDX 64 95 65 96
REMARK H PARENT 86 52 56 63
REMARK Flexibility Score: inf
ROOT
ATOM      1  C   UNL A   1      39.742  23.127  27.006  1.00  0.00     0.188 C 
ENDROOT
BRANCH   1   2
ATOM      2  O   UNL A   1      38.738  23.844  26.308  1.00  0.00    -0.377 OA
BRANCH   2   3
ATOM      3  C   UNL A   1      37.537  23.180  25.931  1.00  0.00     0.188 C 
BRANCH   3   4
ATOM      4  C   UNL A   1      37.499  21.859  25.123  1.00  0.00     0.188 C 
BRANCH   4   5
ATOM      5  O   UNL A   1      36.463  21.749  24.154  1.00  0.00    -0.376 OA
BRANCH   5   6
ATOM      6  C   UNL A   1      36.450  22.715  23.116  1.00  0.00     0.202 C 
BRANCH   6   7
ATOM      7  C   UNL A   1      35.215  23.614  23.133  1.00  0.00     0.261 C 
BRANCH   7   8
ATOM      8  O   UNL A   1      34.205  23.187  22.211  1.00  0.00    -0.460 OA
BRANCH   8   9
ATOM      9  C   UNL A   1      33.053  22.716  22.734  1.00  0.00     0.342 C 
ATOM     10  O   UNL A   1      32.276  21.953  22.184  1.00  0.00    -0.246 OA
BRANCH   9  11
ATOM     11  C   UNL A   1      32.930  23.182  24.144  1.00  0.00     0.106 A 
ATOM     12  C   UNL A   1      33.457  22.053  27.789  1.00  0.00     0.044 C 
ATOM     13  C   UNL A   1      33.142  22.865  26.559  1.00  0.00    -0.046 A 
ATOM     14  C   UNL A   1      32.821  24.219  26.737  1.00  0.00     0.019 A 
ATOM     15  C   UNL A   1      33.213  22.332  25.250  1.00  0.00    -0.030 A 
ATOM     16  C   UNL A   1      32.490  25.023  25.645  1.00  0.00     0.067 A 
ATOM     17  C   UNL A   1      33.485  20.857  25.044  1.00  0.00     0.046 C 
ATOM     18  C   UNL A   1      32.086  26.420  25.861  1.00  0.00     0.200 A 
ATOM     19  C   UNL A   1      32.512  24.511  24.351  1.00  0.00     0.153 A 
ATOM     20  O   UNL A   1      32.154  26.951  26.963  1.00  0.00    -0.288 OA
ATOM     21  C   UNL A   1      31.565  27.143  24.696  1.00  0.00     0.065 A 
ATOM     22  O   UNL A   1      32.068  25.236  23.265  1.00  0.00    -0.455 OA
ATOM     23  C   UNL A   1      31.070  28.446  24.823  1.00  0.00     0.016 A 
ATOM     24  C   UNL A   1      31.543  26.488  23.470  1.00  0.00     0.138 A 
ATOM     25  C   UNL A   1      30.522  29.084  23.711  1.00  0.00     0.001 A 
ATOM     26  C   UNL A   1      30.977  27.123  22.364  1.00  0.00     0.048 A 
ATOM     27  C   UNL A   1      30.462  28.418  22.485  1.00  0.00     0.004 A 
ENDBRANCH   9  11
ENDBRANCH   8   9
ENDBRANCH   7   8
ENDBRANCH   6   7
ENDBRANCH   5   6
ENDBRANCH   4   5
ENDBRANCH   3   4
ENDBRANCH   2   3
ENDBRANCH   1   2
BRANCH   1  28
ATOM     28  C   UNL A   1      40.634  23.959  27.945  1.00  0.00     0.188 C 
BRANCH  28  29
ATOM     29  O   UNL A   1      41.967  24.112  27.463  1.00  0.00    -0.376 OA
BRANCH  29  30
ATOM     30  C   UNL A   1      42.139  24.096  26.054  1.00  0.00     0.202 C 
BRANCH  30  31
ATOM     31  C   UNL A   1      42.444  25.436  25.370  1.00  0.00     0.261 C 
BRANCH  31  32
ATOM     32  O   UNL A   1      41.522  26.507  25.617  1.00  0.00    -0.460 OA
BRANCH  32  33
ATOM     33  C   UNL A   1      41.982  27.776  25.609  1.00  0.00     0.338 C 
ATOM     34  O   UNL A   1      42.434  28.391  24.659  1.00  0.00    -0.246 OA
BRANCH  33  35
ATOM     35  C   UNL A   1      41.648  28.354  26.930  1.00  0.00     0.060 A 
ATOM     36  C   UNL A   1      40.748  27.693  27.769  1.00  0.00     0.016 A 
ATOM     37  C   UNL A   1      42.191  29.590  27.304  1.00  0.00     0.016 A 
ATOM     38  C   UNL A   1      40.412  28.257  28.998  1.00  0.00     0.010 A 
ATOM     39  C   UNL A   1      41.848  30.157  28.537  1.00  0.00     0.010 A 
ATOM     40  C   UNL A   1      40.976  29.480  29.402  1.00  0.00    -0.014 A 
BRANCH  40  41
ATOM     41  C   UNL A   1      40.822  29.906  30.815  1.00  0.00     0.031 A 
ATOM     42  C   UNL A   1      41.815  29.556  31.878  1.00  0.00     0.074 A 
ATOM     43  C   UNL A   1      39.753  30.670  31.108  1.00  0.00     0.049 A 
ATOM     44  N   UNL A   1      41.886  30.011  33.104  1.00  0.00    -0.248 NA
ATOM     45  C   UNL A   1      42.853  28.574  31.538  1.00  0.00     0.031 C 
ATOM     46  C   UNL A   1      38.712  31.046  30.148  1.00  0.00     0.029 A 
ATOM     47  N   UNL A   1      39.376  31.291  32.271  1.00  0.00    -0.354 N 
ATOM     48  C   UNL A   1      42.991  29.397  33.677  1.00  0.00     0.074 A 
ATOM     49  C   UNL A   1      43.530  28.495  32.680  1.00  0.00     0.031 C 
ATOM     50  C   UNL A   1      37.842  31.870  30.746  1.00  0.00     0.029 A 
ATOM     51  C   UNL A   1      38.246  32.063  32.136  1.00  0.00     0.049 A 
ATOM     52  H   UNL A   1      39.866  31.194  33.119  1.00  0.00     0.167 HD
ATOM     53  C   UNL A   1      43.510  29.589  34.914  1.00  0.00     0.031 A 
ATOM     54  C   UNL A   1      37.613  32.860  33.018  1.00  0.00     0.031 A 
ATOM     55  C   UNL A   1      42.940  30.476  35.901  1.00  0.00     0.049 A 
ATOM     56  C   UNL A   1      38.192  33.032  34.392  1.00  0.00     0.074 A 
ATOM     57  C   UNL A   1      43.426  30.775  37.165  1.00  0.00     0.029 A 
ATOM     58  N   UNL A   1      41.762  31.194  35.752  1.00  0.00    -0.354 N 
ATOM     59  N   UNL A   1      39.293  32.518  34.887  1.00  0.00    -0.248 NA
ATOM     60  C   UNL A   1      37.458  33.900  35.320  1.00  0.00     0.031 C 
ATOM     61  C   UNL A   1      42.504  31.607  37.804  1.00  0.00     0.029 A 
ATOM     62  C   UNL A   1      41.482  31.897  36.915  1.00  0.00     0.049 A 
ATOM     63  H   UNL A   1      41.205  31.202  34.940  1.00  0.00     0.167 HD
ATOM     64  C   UNL A   1      39.388  33.006  36.184  1.00  0.00     0.074 A 
ATOM     65  C   UNL A   1      38.250  33.881  36.385  1.00  0.00     0.031 C 
ATOM     66  C   UNL A   1      40.332  32.745  37.121  1.00  0.00     0.031 A 
BRANCH  53  67
ATOM     67  C   UNL A   1      44.776  28.858  35.288  1.00  0.00    -0.014 A 
ATOM     68  C   UNL A   1      46.031  29.412  34.972  1.00  0.00     0.010 A 
ATOM     69  C   UNL A   1      44.721  27.553  35.810  1.00  0.00     0.010 A 
ATOM     70  C   UNL A   1      47.202  28.665  35.137  1.00  0.00     0.020 A 
ATOM     71  C   UNL A   1      45.891  26.812  36.001  1.00  0.00     0.020 A 
ATOM     72  C   UNL A   1      47.122  27.364  35.640  1.00  0.00     0.054 A 
BRANCH  72  73
ATOM     73  S   UNL A   1      48.647  26.394  35.811  1.00  0.00     0.124 S 
ATOM     74  O   UNL A   1      48.880  26.435  37.251  1.00  0.00    -0.237 OA
ATOM     75  O   UNL A   1      48.258  25.093  35.270  1.00  0.00    -0.237 OA
ATOM     76  O   UNL A   1      49.613  27.131  34.998  1.00  0.00    -0.744 OA
ENDBRANCH  72  73
ENDBRANCH  53  67
BRANCH  54  77
ATOM     77  C   UNL A   1      36.397  33.594  32.576  1.00  0.00    -0.014 A 
ATOM     78  C   UNL A   1      36.395  35.002  32.529  1.00  0.00     0.010 A 
ATOM     79  C   UNL A   1      35.205  32.899  32.310  1.00  0.00     0.010 A 
ATOM     80  C   UNL A   1      35.211  35.701  32.287  1.00  0.00     0.020 A 
ATOM     81  C   UNL A   1      34.024  33.596  32.035  1.00  0.00     0.020 A 
ATOM     82  C   UNL A   1      34.029  34.993  32.059  1.00  0.00     0.054 A 
BRANCH  82  83
ATOM     83  S   UNL A   1      32.492  35.923  31.814  1.00  0.00     0.124 S 
ATOM     84  O   UNL A   1      31.543  35.145  32.606  1.00  0.00    -0.237 OA
ATOM     85  O   UNL A   1      32.827  37.240  32.349  1.00  0.00    -0.237 OA
ATOM     86  O   UNL A   1      32.288  35.873  30.368  1.00  0.00    -0.744 OA
ENDBRANCH  82  83
ENDBRANCH  54  77
BRANCH  66  87
ATOM     87  C   UNL A   1      40.169  33.380  38.480  1.00  0.00    -0.014 A 
ATOM     88  C   UNL A   1      39.298  32.810  39.426  1.00  0.00     0.010 A 
ATOM     89  C   UNL A   1      40.797  34.603  38.782  1.00  0.00     0.010 A 
ATOM     90  C   UNL A   1      39.030  33.464  40.632  1.00  0.00     0.020 A 
ATOM     91  C   UNL A   1      40.559  35.244  40.001  1.00  0.00     0.020 A 
ATOM     92  C   UNL A   1      39.657  34.681  40.908  1.00  0.00     0.054 A 
BRANCH  92  93
ATOM     93  S   UNL A   1      39.280  35.529  42.467  1.00  0.00     0.124 S 
ATOM     94  O   UNL A   1      39.026  36.896  42.021  1.00  0.00    -0.237 OA
ATOM     95  O   UNL A   1      38.113  34.799  42.955  1.00  0.00    -0.237 OA
ATOM     96  O   UNL A   1      40.494  35.346  43.259  1.00  0.00    -0.744 OA
ENDBRANCH  92  93
ENDBRANCH  66  87
ENDBRANCH  40  41
ENDBRANCH  33  35
ENDBRANCH  32  33
ENDBRANCH  31  32
ENDBRANCH  30  31
ENDBRANCH  29  30
ENDBRANCH  28  29
ENDBRANCH   1  28
TORSDOF 23
ENDMDL
MODEL 2
REMARK VINA RESULT:      -9.5      4.870      9.859
REMARK SMILES Cc1cc2c(=O)c3ccccc3oc2c(C(=O)OCCOCCOCCOCCOC(=O)c2ccc(-c3c4nc(c(-c5ccc(S(=O)(=O)[O-])cc5)c5ccc([nH]5)c(-c5ccc(S(=O)(=O)[O-])cc5)c5nc(c(-c6ccc(S(=O)(=O)[O-])cc6)c6ccc3[nH]6)C=C5)C=C4)cc2)c1C
REMARK SMILES IDX 25 1 24 2 23 3 22 4 21 5 20 6 19 7 18 8 16 9 17 10 15 11
REMARK SMILES IDX 1 12 2 13 3 14 93 15 4 16 94 17 5 18 14 19 6 20 7 21 13 22
REMARK SMILES IDX 8 23 12 24 9 25 11 26 10 27 26 28 27 29 28 30 29 31 30 32
REMARK SMILES IDX 31 33 32 34 33 35 34 36 92 37 35 38 91 39 36 40 37 41 38 42
REMARK SMILES IDX 85 43 39 44 90 45 84 46 86 47 40 48 89 49 83 50 82 51 41 53
REMARK SMILES IDX 71 54 52 55 70 56 53 57 56 58 69 59 87 60 54 61 55 62 68 64
REMARK SMILES IDX 88 65 57 66 42 67 43 68 51 69 44 70 50 71 45 72 46 73 47 74
REMARK SMILES IDX 48 75 49 76 72 77 73 78 81 79 74 80 80 81 75 82 76 83 77 84
REMARK SMILES IDX 78 85 79 86 58 87 59 88 67 89 60 90 66 91 61 92 62 93 63 94
REMARK SMILES IDX 64 95 65 96
REMARK H PARENT 86 52 56 63
REMARK Flexibility Score: inf
ROOT
ATOM      1  C   UNL A   1      34.792  32.186  29.391  1.00  0.00     0.188 C 
ENDROOT
BRANCH   1   2
ATOM      2  O   UNL A   1      35.129  30.910  28.874  1.00  0.00    -0.377 OA
BRANCH   2   3
ATOM      3  C   UNL A   1      35.757  30.813  27.601  1.00  0.00     0.188 C 
BRANCH   3   4
ATOM      4  C   UNL A   1      37.241  30.418  27.401  1.00  0.00     0.188 C 
BRANCH   4   5
ATOM      5  O   UNL A   1      37.792  29.540  28.375  1.00  0.00    -0.376 OA
BRANCH   5   6
ATOM      6  C   UNL A   1      39.198  29.587  28.560  1.00  0.00     0.202 C 
BRANCH   6   7
ATOM      7  C   UNL A   1      39.983  28.867  27.464  1.00  0.00     0.261 C 
BRANCH   7   8
ATOM      8  O   UNL A   1      41.242  28.363  27.925  1.00  0.00    -0.460 OA
BRANCH   8   9
ATOM      9  C   UNL A   1      41.227  27.206  28.621  1.00  0.00     0.342 C 
ATOM     10  O   UNL A   1      40.626  26.191  28.312  1.00  0.00    -0.246 OA
BRANCH   9  11
ATOM     11  C   UNL A   1      42.158  27.323  29.779  1.00  0.00     0.106 A 
ATOM     12  C   UNL A   1      45.744  26.480  30.908  1.00  0.00     0.044 C 
ATOM     13  C   UNL A   1      44.325  26.989  30.861  1.00  0.00    -0.046 A 
ATOM     14  C   UNL A   1      43.869  27.746  31.949  1.00  0.00     0.019 A 
ATOM     15  C   UNL A   1      43.474  26.778  29.750  1.00  0.00    -0.030 A 
ATOM     16  C   UNL A   1      42.557  28.223  31.985  1.00  0.00     0.067 A 
ATOM     17  C   UNL A   1      43.925  25.902  28.602  1.00  0.00     0.046 C 
ATOM     18  C   UNL A   1      42.076  28.953  33.167  1.00  0.00     0.200 A 
ATOM     19  C   UNL A   1      41.686  27.994  30.924  1.00  0.00     0.153 A 
ATOM     20  O   UNL A   1      42.828  29.276  34.079  1.00  0.00    -0.288 OA
ATOM     21  C   UNL A   1      40.641  29.250  33.220  1.00  0.00     0.065 A 
ATOM     22  O   UNL A   1      40.352  28.337  30.980  1.00  0.00    -0.455 OA
ATOM     23  C   UNL A   1      40.075  29.858  34.346  1.00  0.00     0.016 A 
ATOM     24  C   UNL A   1      39.851  28.880  32.137  1.00  0.00     0.138 A 
ATOM     25  C   UNL A   1      38.698  30.070  34.394  1.00  0.00     0.001 A 
ATOM     26  C   UNL A   1      38.471  29.076  32.196  1.00  0.00     0.048 A 
ATOM     27  C   UNL A   1      37.895  29.666  33.326  1.00  0.00     0.004 A 
ENDBRANCH   9  11
ENDBRANCH   8   9
ENDBRANCH   7   8
ENDBRANCH   6   7
ENDBRANCH   5   6
ENDBRANCH   4   5
ENDBRANCH   3   4
ENDBRANCH   2   3
ENDBRANCH   1   2
BRANCH   1  28
ATOM     28  C   UNL A   1      35.088  33.385  28.471  1.00  0.00     0.188 C 
BRANCH  28  29
ATOM     29  O   UNL A   1      34.799  34.642  29.077  1.00  0.00    -0.376 OA
BRANCH  29  30
ATOM     30  C   UNL A   1      33.538  35.219  28.772  1.00  0.00     0.202 C 
BRANCH  30  31
ATOM     31  C   UNL A   1      32.841  36.010  29.887  1.00  0.00     0.261 C 
BRANCH  31  32
ATOM     32  O   UNL A   1      32.155  35.242  30.886  1.00  0.00    -0.460 OA
BRANCH  32  33
ATOM     33  C   UNL A   1      32.379  35.519  32.188  1.00  0.00     0.338 C 
ATOM     34  O   UNL A   1      31.578  35.950  32.999  1.00  0.00    -0.246 OA
BRANCH  33  35
ATOM     35  C   UNL A   1      33.734  35.013  32.500  1.00  0.00     0.060 A 
ATOM     36  C   UNL A   1      34.800  35.908  32.616  1.00  0.00     0.016 A 
ATOM     37  C   UNL A   1      33.949  33.633  32.617  1.00  0.00     0.016 A 
ATOM     38  C   UNL A   1      36.080  35.423  32.878  1.00  0.00     0.010 A 
ATOM     39  C   UNL A   1      35.236  33.148  32.875  1.00  0.00     0.010 A 
ATOM     40  C   UNL A   1      36.305  34.044  33.032  1.00  0.00    -0.014 A 
BRANCH  40  41
ATOM     41  C   UNL A   1      37.604  33.589  33.586  1.00  0.00     0.031 A 
ATOM     42  C   UNL A   1      38.783  33.268  32.723  1.00  0.00     0.074 A 
ATOM     43  C   UNL A   1      37.701  33.512  34.927  1.00  0.00     0.049 A 
ATOM     44  N   UNL A   1      40.017  33.030  33.091  1.00  0.00    -0.248 NA
ATOM     45  C   UNL A   1      38.560  33.193  31.273  1.00  0.00     0.031 C 
ATOM     46  C   UNL A   1      36.601  33.780  35.857  1.00  0.00     0.029 A 
ATOM     47  N   UNL A   1      38.765  33.221  35.741  1.00  0.00    -0.354 N 
ATOM     48  C   UNL A   1      40.730  32.808  31.920  1.00  0.00     0.074 A 
ATOM     49  C   UNL A   1      39.776  32.884  30.832  1.00  0.00     0.031 C 
ATOM     50  C   UNL A   1      37.057  33.690  37.112  1.00  0.00     0.029 A 
ATOM     51  C   UNL A   1      38.474  33.334  37.081  1.00  0.00     0.049 A 
ATOM     52  H   UNL A   1      39.651  32.958  35.401  1.00  0.00     0.167 HD
ATOM     53  C   UNL A   1      42.058  32.579  31.777  1.00  0.00     0.031 A 
ATOM     54  C   UNL A   1      39.256  33.192  38.168  1.00  0.00     0.031 A 
ATOM     55  C   UNL A   1      42.985  32.482  32.880  1.00  0.00     0.049 A 
ATOM     56  C   UNL A   1      40.718  32.909  37.981  1.00  0.00     0.074 A 
ATOM     57  C   UNL A   1      44.359  32.303  32.829  1.00  0.00     0.029 A 
ATOM     58  N   UNL A   1      42.644  32.538  34.224  1.00  0.00    -0.354 N 
ATOM     59  N   UNL A   1      41.394  32.797  36.863  1.00  0.00    -0.248 NA
ATOM     60  C   UNL A   1      41.525  32.751  39.197  1.00  0.00     0.031 C 
ATOM     61  C   UNL A   1      44.833  32.174  34.136  1.00  0.00     0.029 A 
ATOM     62  C   UNL A   1      43.773  32.352  35.009  1.00  0.00     0.049 A 
ATOM     63  H   UNL A   1      41.735  32.687  34.569  1.00  0.00     0.167 HD
ATOM     64  C   UNL A   1      42.710  32.560  37.241  1.00  0.00     0.074 A 
ATOM     65  C   UNL A   1      42.739  32.578  38.689  1.00  0.00     0.031 C 
ATOM     66  C   UNL A   1      43.793  32.343  36.453  1.00  0.00     0.031 A 
BRANCH  53  67
ATOM     67  C   UNL A   1      42.621  32.442  30.384  1.00  0.00    -0.014 A 
ATOM     68  C   UNL A   1      42.790  31.167  29.812  1.00  0.00     0.010 A 
ATOM     69  C   UNL A   1      43.127  33.565  29.704  1.00  0.00     0.010 A 
ATOM     70  C   UNL A   1      43.482  31.012  28.607  1.00  0.00     0.020 A 
ATOM     71  C   UNL A   1      43.797  33.417  28.486  1.00  0.00     0.020 A 
ATOM     72  C   UNL A   1      43.992  32.139  27.957  1.00  0.00     0.054 A 
BRANCH  72  73
ATOM     73  S   UNL A   1      44.924  31.917  26.416  1.00  0.00     0.124 S 
ATOM     74  O   UNL A   1      46.052  32.824  26.603  1.00  0.00    -0.237 OA
ATOM     75  O   UNL A   1      45.247  30.493  26.441  1.00  0.00    -0.237 OA
ATOM     76  O   UNL A   1      43.970  32.311  25.380  1.00  0.00    -0.744 OA
ENDBRANCH  72  73
ENDBRANCH  53  67
BRANCH  54  77
ATOM     77  C   UNL A   1      38.654  33.388  39.514  1.00  0.00    -0.014 A 
ATOM     78  C   UNL A   1      38.629  34.667  40.102  1.00  0.00     0.010 A 
ATOM     79  C   UNL A   1      38.207  32.284  40.260  1.00  0.00     0.010 A 
ATOM     80  C   UNL A   1      38.230  34.830  41.430  1.00  0.00     0.020 A 
ATOM     81  C   UNL A   1      37.776  32.447  41.580  1.00  0.00     0.020 A 
ATOM     82  C   UNL A   1      37.822  33.715  42.166  1.00  0.00     0.054 A 
BRANCH  82  83
ATOM     83  S   UNL A   1      37.373  33.940  43.908  1.00  0.00     0.124 S 
ATOM     84  O   UNL A   1      37.069  35.368  43.956  1.00  0.00    -0.237 OA
ATOM     85  O   UNL A   1      36.227  33.047  44.060  1.00  0.00    -0.237 OA
ATOM     86  O   UNL A   1      38.577  33.532  44.628  1.00  0.00    -0.744 OA
ENDBRANCH  82  83
ENDBRANCH  54  77
BRANCH  66  87
ATOM     87  C   UNL A   1      45.112  32.065  37.130  1.00  0.00    -0.014 A 
ATOM     88  C   UNL A   1      45.457  30.750  37.491  1.00  0.00     0.010 A 
ATOM     89  C   UNL A   1      45.962  33.121  37.507  1.00  0.00     0.010 A 
ATOM     90  C   UNL A   1      46.607  30.497  38.243  1.00  0.00     0.020 A 
ATOM     91  C   UNL A   1      47.132  32.869  38.230  1.00  0.00     0.020 A 
ATOM     92  C   UNL A   1      47.433  31.561  38.615  1.00  0.00     0.054 A 
BRANCH  92  93
ATOM     93  S   UNL A   1      48.910  31.218  39.611  1.00  0.00     0.124 S 
ATOM     94  O   UNL A   1      48.540  31.772  40.910  1.00  0.00    -0.237 OA
ATOM     95  O   UNL A   1      49.005  29.761  39.553  1.00  0.00    -0.237 OA
ATOM     96  O   UNL A   1      49.973  31.932  38.908  1.00  0.00    -0.744 OA
ENDBRANCH  92  93
ENDBRANCH  66  87
ENDBRANCH  40  41
ENDBRANCH  33  35
ENDBRANCH  32  33
ENDBRANCH  31  32
ENDBRANCH  30  31
ENDBRANCH  29  30
ENDBRANCH  28  29
ENDBRANCH   1  28
TORSDOF 23
ENDMDL
MODEL 3
REMARK VINA RESULT:      -9.1      8.428     11.479
REMARK SMILES Cc1cc2c(=O)c3ccccc3oc2c(C(=O)OCCOCCOCCOCCOC(=O)c2ccc(-c3c4nc(c(-c5ccc(S(=O)(=O)[O-])cc5)c5ccc([nH]5)c(-c5ccc(S(=O)(=O)[O-])cc5)c5nc(c(-c6ccc(S(=O)(=O)[O-])cc6)c6ccc3[nH]6)C=C5)C=C4)cc2)c1C
REMARK SMILES IDX 25 1 24 2 23 3 22 4 21 5 20 6 19 7 18 8 16 9 17 10 15 11
REMARK SMILES IDX 1 12 2 13 3 14 93 15 4 16 94 17 5 18 14 19 6 20 7 21 13 22
REMARK SMILES IDX 8 23 12 24 9 25 11 26 10 27 26 28 27 29 28 30 29 31 30 32
REMARK SMILES IDX 31 33 32 34 33 35 34 36 92 37 35 38 91 39 36 40 37 41 38 42
REMARK SMILES IDX 85 43 39 44 90 45 84 46 86 47 40 48 89 49 83 50 82 51 41 53
REMARK SMILES IDX 71 54 52 55 70 56 53 57 56 58 69 59 87 60 54 61 55 62 68 64
REMARK SMILES IDX 88 65 57 66 42 67 43 68 51 69 44 70 50 71 45 72 46 73 47 74
REMARK SMILES IDX 48 75 49 76 72 77 73 78 81 79 74 80 80 81 75 82 76 83 77 84
REMARK SMILES IDX 78 85 79 86 58 87 59 88 67 89 60 90 66 91 61 92 62 93 63 94
REMARK SMILES IDX 64 95 65 96
REMARK H PARENT 86 52 56 63
REMARK Flexibility Score: inf
ROOT
ATOM      1  C   UNL A   1      40.121  24.161  27.084  1.00  0.00     0.188 C 
ENDROOT
BRANCH   1   2
ATOM      2  O   UNL A   1      39.067  24.341  26.153  1.00  0.00    -0.377 OA
BRANCH   2   3
ATOM      3  C   UNL A   1      37.962  23.446  26.165  1.00  0.00     0.188 C 
BRANCH   3   4
ATOM      4  C   UNL A   1      37.922  22.117  25.370  1.00  0.00     0.188 C 
BRANCH   4   5
ATOM      5  O   UNL A   1      36.749  21.885  24.599  1.00  0.00    -0.376 OA
BRANCH   5   6
ATOM      6  C   UNL A   1      36.573  22.685  23.441  1.00  0.00     0.202 C 
BRANCH   6   7
ATOM      7  C   UNL A   1      35.355  23.605  23.511  1.00  0.00     0.261 C 
BRANCH   7   8
ATOM      8  O   UNL A   1      34.389  23.324  22.491  1.00  0.00    -0.460 OA
BRANCH   8   9
ATOM      9  C   UNL A   1      33.210  22.798  22.886  1.00  0.00     0.342 C 
ATOM     10  O   UNL A   1      32.533  22.003  22.256  1.00  0.00    -0.246 OA
BRANCH   9  11
ATOM     11  C   UNL A   1      32.915  23.253  24.274  1.00  0.00     0.106 A 
ATOM     12  C   UNL A   1      33.082  22.127  27.955  1.00  0.00     0.044 C 
ATOM     13  C   UNL A   1      32.872  22.933  26.698  1.00  0.00    -0.046 A 
ATOM     14  C   UNL A   1      32.480  24.272  26.841  1.00  0.00     0.019 A 
ATOM     15  C   UNL A   1      33.108  22.408  25.405  1.00  0.00    -0.030 A 
ATOM     16  C   UNL A   1      32.240  25.067  25.719  1.00  0.00     0.067 A 
ATOM     17  C   UNL A   1      33.459  20.947  25.229  1.00  0.00     0.046 C 
ATOM     18  C   UNL A   1      31.760  26.447  25.890  1.00  0.00     0.200 A 
ATOM     19  C   UNL A   1      32.424  24.563  24.435  1.00  0.00     0.153 A 
ATOM     20  O   UNL A   1      31.685  26.974  26.993  1.00  0.00    -0.288 OA
ATOM     21  C   UNL A   1      31.342  27.154  24.675  1.00  0.00     0.065 A 
ATOM     22  O   UNL A   1      32.075  25.275  23.307  1.00  0.00    -0.455 OA
ATOM     23  C   UNL A   1      30.785  28.436  24.747  1.00  0.00     0.016 A 
ATOM     24  C   UNL A   1      31.481  26.505  23.453  1.00  0.00     0.138 A 
ATOM     25  C   UNL A   1      30.338  29.058  23.582  1.00  0.00     0.001 A 
ATOM     26  C   UNL A   1      31.016  27.122  22.292  1.00  0.00     0.048 A 
ATOM     27  C   UNL A   1      30.440  28.395  22.357  1.00  0.00     0.004 A 
ENDBRANCH   9  11
ENDBRANCH   8   9
ENDBRANCH   7   8
ENDBRANCH   6   7
ENDBRANCH   5   6
ENDBRANCH   4   5
ENDBRANCH   3   4
ENDBRANCH   2   3
ENDBRANCH   1   2
BRANCH   1  28
ATOM     28  C   UNL A   1      40.995  25.398  27.359  1.00  0.00     0.188 C 
BRANCH  28  29
ATOM     29  O   UNL A   1      42.301  25.070  27.827  1.00  0.00    -0.376 OA
BRANCH  29  30
ATOM     30  C   UNL A   1      42.518  23.720  28.210  1.00  0.00     0.202 C 
BRANCH  30  31
ATOM     31  C   UNL A   1      43.907  23.128  27.939  1.00  0.00     0.261 C 
BRANCH  31  32
ATOM     32  O   UNL A   1      44.275  22.960  26.563  1.00  0.00    -0.460 OA
BRANCH  32  33
ATOM     33  C   UNL A   1      45.580  22.806  26.253  1.00  0.00     0.338 C 
ATOM     34  O   UNL A   1      46.131  21.792  25.862  1.00  0.00    -0.246 OA
BRANCH  33  35
ATOM     35  C   UNL A   1      46.183  24.157  26.284  1.00  0.00     0.060 A 
ATOM     36  C   UNL A   1      46.780  24.624  27.458  1.00  0.00     0.016 A 
ATOM     37  C   UNL A   1      46.099  24.982  25.153  1.00  0.00     0.016 A 
ATOM     38  C   UNL A   1      47.318  25.909  27.492  1.00  0.00     0.010 A 
ATOM     39  C   UNL A   1      46.635  26.273  25.192  1.00  0.00     0.010 A 
ATOM     40  C   UNL A   1      47.271  26.735  26.355  1.00  0.00    -0.014 A 
BRANCH  40  41
ATOM     41  C   UNL A   1      48.093  27.970  26.334  1.00  0.00     0.031 A 
ATOM     42  C   UNL A   1      49.545  27.970  25.976  1.00  0.00     0.074 A 
ATOM     43  C   UNL A   1      47.462  29.126  26.617  1.00  0.00     0.049 A 
ATOM     44  N   UNL A   1      50.326  28.996  25.753  1.00  0.00    -0.248 NA
ATOM     45  C   UNL A   1      50.213  26.667  25.860  1.00  0.00     0.031 C 
ATOM     46  C   UNL A   1      46.053  29.231  27.003  1.00  0.00     0.029 A 
ATOM     47  N   UNL A   1      47.901  30.425  26.595  1.00  0.00    -0.354 N 
ATOM     48  C   UNL A   1      51.572  28.469  25.440  1.00  0.00     0.074 A 
ATOM     49  C   UNL A   1      51.455  27.029  25.555  1.00  0.00     0.031 C 
ATOM     50  C   UNL A   1      45.730  30.524  27.134  1.00  0.00     0.029 A 
ATOM     51  C   UNL A   1      46.912  31.340  26.868  1.00  0.00     0.049 A 
ATOM     52  H   UNL A   1      48.833  30.677  26.404  1.00  0.00     0.167 HD
ATOM     53  C   UNL A   1      52.695  29.133  25.074  1.00  0.00     0.031 A 
ATOM     54  C   UNL A   1      46.936  32.687  26.880  1.00  0.00     0.031 A 
ATOM     55  C   UNL A   1      52.795  30.571  24.990  1.00  0.00     0.049 A 
ATOM     56  C   UNL A   1      48.203  33.396  26.500  1.00  0.00     0.074 A 
ATOM     57  C   UNL A   1      53.878  31.331  24.578  1.00  0.00     0.029 A 
ATOM     58  N   UNL A   1      51.792  31.467  25.333  1.00  0.00    -0.354 N 
ATOM     59  N   UNL A   1      49.345  32.881  26.112  1.00  0.00    -0.248 NA
ATOM     60  C   UNL A   1      48.181  34.863  26.540  1.00  0.00     0.031 C 
ATOM     61  C   UNL A   1      53.558  32.680  24.747  1.00  0.00     0.029 A 
ATOM     62  C   UNL A   1      52.247  32.769  25.186  1.00  0.00     0.049 A 
ATOM     63  H   UNL A   1      50.891  31.215  25.638  1.00  0.00     0.167 HD
ATOM     64  C   UNL A   1      50.179  33.963  25.857  1.00  0.00     0.074 A 
ATOM     65  C   UNL A   1      49.399  35.159  26.103  1.00  0.00     0.031 C 
ATOM     66  C   UNL A   1      51.475  33.958  25.459  1.00  0.00     0.031 A 
BRANCH  53  67
ATOM     67  C   UNL A   1      53.918  28.330  24.702  1.00  0.00    -0.014 A 
ATOM     68  C   UNL A   1      54.897  28.043  25.674  1.00  0.00     0.010 A 
ATOM     69  C   UNL A   1      54.174  27.997  23.360  1.00  0.00     0.010 A 
ATOM     70  C   UNL A   1      56.118  27.470  25.306  1.00  0.00     0.020 A 
ATOM     71  C   UNL A   1      55.384  27.400  22.992  1.00  0.00     0.020 A 
ATOM     72  C   UNL A   1      56.359  27.164  23.964  1.00  0.00     0.054 A 
BRANCH  72  73
ATOM     73  S   UNL A   1      57.965  26.458  23.499  1.00  0.00     0.124 S 
ATOM     74  O   UNL A   1      57.743  26.074  22.109  1.00  0.00    -0.237 OA
ATOM     75  O   UNL A   1      58.878  27.580  23.707  1.00  0.00    -0.237 OA
ATOM     76  O   UNL A   1      58.135  25.348  24.435  1.00  0.00    -0.744 OA
ENDBRANCH  72  73
ENDBRANCH  53  67
BRANCH  54  77
ATOM     77  C   UNL A   1      45.685  33.423  27.206  1.00  0.00    -0.014 A 
ATOM     78  C   UNL A   1      44.814  33.834  26.178  1.00  0.00     0.010 A 
ATOM     79  C   UNL A   1      45.415  33.815  28.528  1.00  0.00     0.010 A 
ATOM     80  C   UNL A   1      43.735  34.674  26.457  1.00  0.00     0.020 A 
ATOM     81  C   UNL A   1      44.317  34.630  28.816  1.00  0.00     0.020 A 
ATOM     82  C   UNL A   1      43.503  35.081  27.773  1.00  0.00     0.054 A 
BRANCH  82  83
ATOM     83  S   UNL A   1      42.136  36.226  28.101  1.00  0.00     0.124 S 
ATOM     84  O   UNL A   1      41.937  36.836  26.789  1.00  0.00    -0.237 OA
ATOM     85  O   UNL A   1      41.071  35.332  28.548  1.00  0.00    -0.237 OA
ATOM     86  O   UNL A   1      42.673  37.114  29.129  1.00  0.00    -0.744 OA
ENDBRANCH  82  83
ENDBRANCH  54  77
BRANCH  66  87
ATOM     87  C   UNL A   1      52.166  35.290  25.297  1.00  0.00    -0.014 A 
ATOM     88  C   UNL A   1      52.216  35.910  24.034  1.00  0.00     0.010 A 
ATOM     89  C   UNL A   1      52.859  35.876  26.372  1.00  0.00     0.010 A 
ATOM     90  C   UNL A   1      52.971  37.070  23.841  1.00  0.00     0.020 A 
ATOM     91  C   UNL A   1      53.588  37.055  26.191  1.00  0.00     0.020 A 
ATOM     92  C   UNL A   1      53.659  37.630  24.920  1.00  0.00     0.054 A 
BRANCH  92  93
ATOM     93  S   UNL A   1      54.654  39.122  24.646  1.00  0.00     0.124 S 
ATOM     94  O   UNL A   1      56.006  38.577  24.549  1.00  0.00    -0.237 OA
ATOM     95  O   UNL A   1      54.099  39.655  23.405  1.00  0.00    -0.237 OA
ATOM     96  O   UNL A   1      54.393  39.932  25.834  1.00  0.00    -0.744 OA
ENDBRANCH  92  93
ENDBRANCH  66  87
ENDBRANCH  40  41
ENDBRANCH  33  35
ENDBRANCH  32  33
ENDBRANCH  31  32
ENDBRANCH  30  31
ENDBRANCH  29  30
ENDBRANCH  28  29
ENDBRANCH   1  28
TORSDOF 23
ENDMDL
