MODEL 1
REMARK VINA RESULT:      -9.0      0.000      0.000
REMARK SMILES CCOc1cccc2c(SCC(=O)OCCOCCOCCOCCOC(=O)c3ccc(-c4c5nc(c(-c6ccc(S(=O)(=O)[O-])cc6)c6ccc([nH]6)c(-c6ccc(S(=O)(=O)[O-])cc6)c6nc(c(-c7ccc(S(=O)(=O)[O-])cc7)c7ccc4[nH]7)C=C6)C=C5)cc3)cc(C)nc12
REMARK SMILES IDX 19 1 18 2 17 3 16 4 15 5 14 6 12 7 13 8 11 9 10 10 9 11 4 12
REMARK SMILES IDX 5 13 93 14 6 15 8 16 92 17 7 18 90 19 89 20 91 21 3 22 2 23
REMARK SMILES IDX 1 24 20 25 21 26 22 27 23 28 24 29 25 30 26 31 27 32 28 33
REMARK SMILES IDX 29 34 30 35 88 36 31 37 87 38 32 39 33 40 34 41 81 42 35 43
REMARK SMILES IDX 86 44 80 45 82 46 36 47 85 48 79 49 78 50 37 52 67 53 48 54
REMARK SMILES IDX 66 55 49 56 52 57 65 58 83 59 50 60 51 61 64 63 84 64 53 65
REMARK SMILES IDX 38 66 39 67 47 68 40 69 46 70 41 71 42 72 43 73 44 74 45 75
REMARK SMILES IDX 68 76 69 77 77 78 70 79 76 80 71 81 72 82 73 83 74 84 75 85
REMARK SMILES IDX 54 86 55 87 63 88 56 89 62 90 57 91 58 92 59 93 60 94 61 95
REMARK H PARENT 82 51 52 62
REMARK Flexibility Score: inf
ROOT
ATOM      1  C   UNL A   1      31.061  26.628  26.515  1.00  0.00     0.188 C 
ENDROOT
BRANCH   1   2
ATOM      2  C   UNL A   1      32.069  26.016  25.520  1.00  0.00     0.188 C 
BRANCH   2   3
ATOM      3  O   UNL A   1      33.399  26.476  25.440  1.00  0.00    -0.376 OA
BRANCH   3   4
ATOM      4  C   UNL A   1      33.915  27.110  24.290  1.00  0.00     0.202 C 
BRANCH   4   5
ATOM      5  C   UNL A   1      33.125  27.357  22.990  1.00  0.00     0.261 C 
BRANCH   5   6
ATOM      6  O   UNL A   1      33.560  26.721  21.772  1.00  0.00    -0.463 OA
BRANCH   6   7
ATOM      7  C   UNL A   1      32.859  25.642  21.353  1.00  0.00     0.316 C 
ATOM      8  O   UNL A   1      31.978  25.707  20.497  1.00  0.00    -0.251 OA
BRANCH   7   9
ATOM      9  C   UNL A   1      33.163  24.324  22.056  1.00  0.00     0.197 C 
BRANCH   9  10
ATOM     10  S   UNL A   1      31.874  23.485  23.053  1.00  0.00    -0.114 SA
BRANCH  10  11
ATOM     11  C   UNL A   1      32.662  22.179  24.069  1.00  0.00     0.019 A 
ATOM     12  C   UNL A   1      33.100  18.459  24.129  1.00  0.00     0.145 A 
ATOM     13  C   UNL A   1      32.593  18.047  22.897  1.00  0.00     0.049 A 
ATOM     14  C   UNL A   1      33.127  19.813  24.509  1.00  0.00     0.114 A 
ATOM     15  C   UNL A   1      32.101  19.000  22.018  1.00  0.00     0.005 A 
ATOM     16  C   UNL A   1      32.642  20.806  23.619  1.00  0.00     0.018 A 
ATOM     17  N   UNL A   1      33.551  20.123  25.745  1.00  0.00    -0.249 NA
ATOM     18  C   UNL A   1      32.137  20.357  22.367  1.00  0.00     0.012 A 
ATOM     19  C   UNL A   1      33.505  21.397  26.173  1.00  0.00     0.039 A 
ATOM     20  C   UNL A   1      33.128  22.453  25.357  1.00  0.00     0.039 A 
ATOM     21  C   UNL A   1      33.769  21.587  27.636  1.00  0.00     0.067 C 
BRANCH  12  22
ATOM     22  O   UNL A   1      33.696  17.506  24.936  1.00  0.00    -0.492 OA
BRANCH  22  23
ATOM     23  C   UNL A   1      33.476  16.163  24.491  1.00  0.00     0.226 C 
ATOM     24  C   UNL A   1      32.644  15.398  25.513  1.00  0.00     0.049 C 
ENDBRANCH  22  23
ENDBRANCH  12  22
ENDBRANCH  10  11
ENDBRANCH   9  10
ENDBRANCH   7   9
ENDBRANCH   6   7
ENDBRANCH   5   6
ENDBRANCH   4   5
ENDBRANCH   3   4
ENDBRANCH   2   3
ENDBRANCH   1   2
BRANCH   1  25
ATOM     25  O   UNL A   1      31.328  27.519  27.572  1.00  0.00    -0.377 OA
BRANCH  25  26
ATOM     26  C   UNL A   1      32.174  28.608  27.337  1.00  0.00     0.188 C 
BRANCH  26  27
ATOM     27  C   UNL A   1      31.723  29.433  26.132  1.00  0.00     0.188 C 
BRANCH  27  28
ATOM     28  O   UNL A   1      32.454  30.643  25.977  1.00  0.00    -0.376 OA
BRANCH  28  29
ATOM     29  C   UNL A   1      33.034  31.212  27.147  1.00  0.00     0.202 C 
BRANCH  29  30
ATOM     30  C   UNL A   1      32.768  32.682  27.503  1.00  0.00     0.261 C 
BRANCH  30  31
ATOM     31  O   UNL A   1      33.861  33.424  28.030  1.00  0.00    -0.460 OA
BRANCH  31  32
ATOM     32  C   UNL A   1      33.680  34.049  29.205  1.00  0.00     0.338 C 
ATOM     33  O   UNL A   1      32.717  34.690  29.577  1.00  0.00    -0.246 OA
BRANCH  32  34
ATOM     34  C   UNL A   1      34.817  33.608  30.018  1.00  0.00     0.060 A 
ATOM     35  C   UNL A   1      35.831  34.532  30.288  1.00  0.00     0.016 A 
ATOM     36  C   UNL A   1      34.797  32.345  30.618  1.00  0.00     0.016 A 
ATOM     37  C   UNL A   1      36.836  34.195  31.182  1.00  0.00     0.010 A 
ATOM     38  C   UNL A   1      35.825  31.994  31.485  1.00  0.00     0.010 A 
ATOM     39  C   UNL A   1      36.852  32.915  31.751  1.00  0.00    -0.014 A 
BRANCH  39  40
ATOM     40  C   UNL A   1      38.077  32.460  32.427  1.00  0.00     0.031 A 
ATOM     41  C   UNL A   1      39.004  31.587  31.634  1.00  0.00     0.074 A 
ATOM     42  C   UNL A   1      38.354  32.843  33.683  1.00  0.00     0.049 A 
ATOM     43  N   UNL A   1      40.136  31.049  31.989  1.00  0.00    -0.248 NA
ATOM     44  C   UNL A   1      38.597  31.284  30.249  1.00  0.00     0.031 C 
ATOM     45  C   UNL A   1      37.523  33.728  34.502  1.00  0.00     0.029 A 
ATOM     46  N   UNL A   1      39.414  32.532  34.491  1.00  0.00    -0.354 N 
ATOM     47  C   UNL A   1      40.575  30.343  30.876  1.00  0.00     0.074 A 
ATOM     48  C   UNL A   1      39.579  30.497  29.842  1.00  0.00     0.031 C 
ATOM     49  C   UNL A   1      38.105  33.881  35.705  1.00  0.00     0.029 A 
ATOM     50  C   UNL A   1      39.327  33.080  35.747  1.00  0.00     0.049 A 
ATOM     51  H   UNL A   1      40.167  31.970  34.198  1.00  0.00     0.167 HD
ATOM     52  C   UNL A   1      41.713  29.629  30.734  1.00  0.00     0.031 A 
ATOM     53  C   UNL A   1      40.138  32.923  36.812  1.00  0.00     0.031 A 
ATOM     54  C   UNL A   1      42.669  29.464  31.792  1.00  0.00     0.049 A 
ATOM     55  C   UNL A   1      41.358  32.052  36.656  1.00  0.00     0.074 A 
ATOM     56  C   UNL A   1      43.859  28.762  31.776  1.00  0.00     0.029 A 
ATOM     57  N   UNL A   1      42.530  29.998  33.066  1.00  0.00    -0.354 N 
ATOM     58  N   UNL A   1      41.784  31.415  35.588  1.00  0.00    -0.248 NA
ATOM     59  C   UNL A   1      42.209  31.880  37.839  1.00  0.00     0.031 C 
ATOM     60  C   UNL A   1      44.409  28.822  33.060  1.00  0.00     0.029 A 
ATOM     61  C   UNL A   1      43.596  29.617  33.856  1.00  0.00     0.049 A 
ATOM     62  H   UNL A   1      41.781  30.567  33.361  1.00  0.00     0.167 HD
ATOM     63  C   UNL A   1      42.962  30.782  35.966  1.00  0.00     0.074 A 
ATOM     64  C   UNL A   1      43.191  31.130  37.355  1.00  0.00     0.031 C 
ATOM     65  C   UNL A   1      43.785  29.986  35.237  1.00  0.00     0.031 A 
BRANCH  52  66
ATOM     66  C   UNL A   1      41.944  28.945  29.415  1.00  0.00    -0.014 A 
ATOM     67  C   UNL A   1      41.574  27.603  29.214  1.00  0.00     0.010 A 
ATOM     68  C   UNL A   1      42.534  29.658  28.357  1.00  0.00     0.010 A 
ATOM     69  C   UNL A   1      41.819  26.977  27.988  1.00  0.00     0.020 A 
ATOM     70  C   UNL A   1      42.756  29.045  27.121  1.00  0.00     0.020 A 
ATOM     71  C   UNL A   1      42.408  27.704  26.949  1.00  0.00     0.054 A 
BRANCH  71  72
ATOM     72  S   UNL A   1      42.685  26.877  25.358  1.00  0.00     0.124 S 
ATOM     73  O   UNL A   1      42.578  27.989  24.417  1.00  0.00    -0.237 OA
ATOM     74  O   UNL A   1      44.024  26.317  25.520  1.00  0.00    -0.237 OA
ATOM     75  O   UNL A   1      41.606  25.895  25.286  1.00  0.00    -0.744 OA
ENDBRANCH  71  72
ENDBRANCH  52  66
BRANCH  53  76
ATOM     76  C   UNL A   1      39.807  33.575  38.110  1.00  0.00    -0.014 A 
ATOM     77  C   UNL A   1      38.927  32.967  39.022  1.00  0.00     0.010 A 
ATOM     78  C   UNL A   1      40.382  34.815  38.446  1.00  0.00     0.010 A 
ATOM     79  C   UNL A   1      38.620  33.591  40.236  1.00  0.00     0.020 A 
ATOM     80  C   UNL A   1      40.101  35.429  39.669  1.00  0.00     0.020 A 
ATOM     81  C   UNL A   1      39.212  34.816  40.553  1.00  0.00     0.054 A 
BRANCH  81  82
ATOM     82  S   UNL A   1      38.839  35.581  42.157  1.00  0.00     0.124 S 
ATOM     83  O   UNL A   1      39.044  36.998  41.875  1.00  0.00    -0.237 OA
ATOM     84  O   UNL A   1      37.455  35.173  42.385  1.00  0.00    -0.237 OA
ATOM     85  O   UNL A   1      39.815  34.973  43.060  1.00  0.00    -0.744 OA
ENDBRANCH  81  82
ENDBRANCH  53  76
BRANCH  65  86
ATOM     86  C   UNL A   1      45.016  29.457  35.920  1.00  0.00    -0.014 A 
ATOM     87  C   UNL A   1      45.003  28.218  36.581  1.00  0.00     0.010 A 
ATOM     88  C   UNL A   1      46.223  30.172  35.815  1.00  0.00     0.010 A 
ATOM     89  C   UNL A   1      46.176  27.711  37.145  1.00  0.00     0.020 A 
ATOM     90  C   UNL A   1      47.403  29.654  36.350  1.00  0.00     0.020 A 
ATOM     91  C   UNL A   1      47.369  28.430  37.020  1.00  0.00     0.054 A 
BRANCH  91  92
ATOM     92  S   UNL A   1      48.890  27.716  37.702  1.00  0.00     0.124 S 
ATOM     93  O   UNL A   1      49.272  26.767  36.660  1.00  0.00    -0.237 OA
ATOM     94  O   UNL A   1      49.758  28.884  37.838  1.00  0.00    -0.237 OA
ATOM     95  O   UNL A   1      48.457  27.118  38.962  1.00  0.00    -0.744 OA
ENDBRANCH  91  92
ENDBRANCH  65  86
ENDBRANCH  39  40
ENDBRANCH  32  34
ENDBRANCH  31  32
ENDBRANCH  30  31
ENDBRANCH  29  30
ENDBRANCH  28  29
ENDBRANCH  27  28
ENDBRANCH  26  27
ENDBRANCH  25  26
ENDBRANCH   1  25
TORSDOF 27
ENDMDL
MODEL 2
REMARK VINA RESULT:      -8.5      1.843      2.635
REMARK SMILES CCOc1cccc2c(SCC(=O)OCCOCCOCCOCCOC(=O)c3ccc(-c4c5nc(c(-c6ccc(S(=O)(=O)[O-])cc6)c6ccc([nH]6)c(-c6ccc(S(=O)(=O)[O-])cc6)c6nc(c(-c7ccc(S(=O)(=O)[O-])cc7)c7ccc4[nH]7)C=C6)C=C5)cc3)cc(C)nc12
REMARK SMILES IDX 19 1 18 2 17 3 16 4 15 5 14 6 12 7 13 8 11 9 10 10 9 11 4 12
REMARK SMILES IDX 5 13 93 14 6 15 8 16 92 17 7 18 90 19 89 20 91 21 3 22 2 23
REMARK SMILES IDX 1 24 20 25 21 26 22 27 23 28 24 29 25 30 26 31 27 32 28 33
REMARK SMILES IDX 29 34 30 35 88 36 31 37 87 38 32 39 33 40 34 41 81 42 35 43
REMARK SMILES IDX 86 44 80 45 82 46 36 47 85 48 79 49 78 50 37 52 67 53 48 54
REMARK SMILES IDX 66 55 49 56 52 57 65 58 83 59 50 60 51 61 64 63 84 64 53 65
REMARK SMILES IDX 38 66 39 67 47 68 40 69 46 70 41 71 42 72 43 73 44 74 45 75
REMARK SMILES IDX 68 76 69 77 77 78 70 79 76 80 71 81 72 82 73 83 74 84 75 85
REMARK SMILES IDX 54 86 55 87 63 88 56 89 62 90 57 91 58 92 59 93 60 94 61 95
REMARK H PARENT 82 51 52 62
REMARK Flexibility Score: inf
ROOT
ATOM      1  C   UNL A   1      31.059  26.915  25.841  1.00  0.00     0.188 C 
ENDROOT
BRANCH   1   2
ATOM      2  C   UNL A   1      32.038  26.212  24.879  1.00  0.00     0.188 C 
BRANCH   2   3
ATOM      3  O   UNL A   1      32.949  26.942  24.089  1.00  0.00    -0.376 OA
BRANCH   3   4
ATOM      4  C   UNL A   1      33.435  26.464  22.854  1.00  0.00     0.202 C 
BRANCH   4   5
ATOM      5  C   UNL A   1      32.708  25.445  21.955  1.00  0.00     0.261 C 
BRANCH   5   6
ATOM      6  O   UNL A   1      32.856  24.038  22.226  1.00  0.00    -0.463 OA
BRANCH   6   7
ATOM      7  C   UNL A   1      31.776  23.384  22.715  1.00  0.00     0.316 C 
ATOM      8  O   UNL A   1      30.722  23.951  22.996  1.00  0.00    -0.251 OA
BRANCH   7   9
ATOM      9  C   UNL A   1      31.951  21.893  22.977  1.00  0.00     0.197 C 
BRANCH   9  10
ATOM     10  S   UNL A   1      32.058  21.260  24.694  1.00  0.00    -0.114 SA
BRANCH  10  11
ATOM     11  C   UNL A   1      33.611  20.306  24.882  1.00  0.00     0.019 A 
ATOM     12  C   UNL A   1      37.317  20.842  24.994  1.00  0.00     0.145 A 
ATOM     13  C   UNL A   1      37.449  22.229  25.031  1.00  0.00     0.049 A 
ATOM     14  C   UNL A   1      36.059  20.213  24.950  1.00  0.00     0.114 A 
ATOM     15  C   UNL A   1      36.306  23.015  25.028  1.00  0.00     0.005 A 
ATOM     16  C   UNL A   1      34.877  20.998  24.960  1.00  0.00     0.018 A 
ATOM     17  N   UNL A   1      36.016  18.877  24.827  1.00  0.00    -0.249 NA
ATOM     18  C   UNL A   1      35.042  22.410  25.006  1.00  0.00     0.012 A 
ATOM     19  C   UNL A   1      34.833  18.251  24.692  1.00  0.00     0.039 A 
ATOM     20  C   UNL A   1      33.617  18.913  24.773  1.00  0.00     0.039 A 
ATOM     21  C   UNL A   1      34.918  16.802  24.322  1.00  0.00     0.067 C 
BRANCH  12  22
ATOM     22  O   UNL A   1      38.463  20.078  25.121  1.00  0.00    -0.492 OA
BRANCH  22  23
ATOM     23  C   UNL A   1      39.571  20.799  25.672  1.00  0.00     0.226 C 
ATOM     24  C   UNL A   1      40.593  19.831  26.254  1.00  0.00     0.049 C 
ENDBRANCH  22  23
ENDBRANCH  12  22
ENDBRANCH  10  11
ENDBRANCH   9  10
ENDBRANCH   7   9
ENDBRANCH   6   7
ENDBRANCH   5   6
ENDBRANCH   4   5
ENDBRANCH   3   4
ENDBRANCH   2   3
ENDBRANCH   1   2
BRANCH   1  25
ATOM     25  O   UNL A   1      31.329  27.415  27.130  1.00  0.00    -0.377 OA
BRANCH  25  26
ATOM     26  C   UNL A   1      31.860  28.703  27.255  1.00  0.00     0.188 C 
BRANCH  26  27
ATOM     27  C   UNL A   1      31.685  29.522  25.977  1.00  0.00     0.188 C 
BRANCH  27  28
ATOM     28  O   UNL A   1      31.838  30.919  26.182  1.00  0.00    -0.376 OA
BRANCH  28  29
ATOM     29  C   UNL A   1      32.618  31.336  27.298  1.00  0.00     0.202 C 
BRANCH  29  30
ATOM     30  C   UNL A   1      32.587  32.802  27.757  1.00  0.00     0.261 C 
BRANCH  30  31
ATOM     31  O   UNL A   1      33.834  33.484  27.813  1.00  0.00    -0.460 OA
BRANCH  31  32
ATOM     32  C   UNL A   1      33.967  34.462  28.724  1.00  0.00     0.338 C 
ATOM     33  O   UNL A   1      33.268  35.442  28.887  1.00  0.00    -0.246 OA
BRANCH  32  34
ATOM     34  C   UNL A   1      35.025  33.972  29.614  1.00  0.00     0.060 A 
ATOM     35  C   UNL A   1      36.332  34.416  29.390  1.00  0.00     0.016 A 
ATOM     36  C   UNL A   1      34.693  33.205  30.735  1.00  0.00     0.016 A 
ATOM     37  C   UNL A   1      37.323  34.098  30.307  1.00  0.00     0.010 A 
ATOM     38  C   UNL A   1      35.694  32.855  31.633  1.00  0.00     0.010 A 
ATOM     39  C   UNL A   1      37.010  33.289  31.407  1.00  0.00    -0.014 A 
BRANCH  39  40
ATOM     40  C   UNL A   1      38.113  32.696  32.180  1.00  0.00     0.031 A 
ATOM     41  C   UNL A   1      38.808  31.515  31.569  1.00  0.00     0.074 A 
ATOM     42  C   UNL A   1      38.488  33.217  33.359  1.00  0.00     0.049 A 
ATOM     43  N   UNL A   1      39.797  30.806  32.038  1.00  0.00    -0.248 NA
ATOM     44  C   UNL A   1      38.322  31.077  30.247  1.00  0.00     0.031 C 
ATOM     45  C   UNL A   1      37.889  34.392  33.994  1.00  0.00     0.029 A 
ATOM     46  N   UNL A   1      39.464  32.821  34.232  1.00  0.00    -0.354 N 
ATOM     47  C   UNL A   1      40.049  29.840  31.072  1.00  0.00     0.074 A 
ATOM     48  C   UNL A   1      39.097  30.033  30.004  1.00  0.00     0.031 C 
ATOM     49  C   UNL A   1      38.510  34.615  35.167  1.00  0.00     0.029 A 
ATOM     50  C   UNL A   1      39.521  33.582  35.374  1.00  0.00     0.049 A 
ATOM     51  H   UNL A   1      40.068  32.063  34.057  1.00  0.00     0.167 HD
ATOM     52  C   UNL A   1      40.996  28.877  31.081  1.00  0.00     0.031 A 
ATOM     53  C   UNL A   1      40.294  33.433  36.468  1.00  0.00     0.031 A 
ATOM     54  C   UNL A   1      41.907  28.686  32.174  1.00  0.00     0.049 A 
ATOM     55  C   UNL A   1      41.285  32.297  36.492  1.00  0.00     0.074 A 
ATOM     56  C   UNL A   1      42.909  27.745  32.306  1.00  0.00     0.029 A 
ATOM     57  N   UNL A   1      41.911  29.449  33.334  1.00  0.00    -0.354 N 
ATOM     58  N   UNL A   1      41.540  31.408  35.559  1.00  0.00    -0.248 NA
ATOM     59  C   UNL A   1      42.094  32.146  37.707  1.00  0.00     0.031 C 
ATOM     60  C   UNL A   1      43.478  27.900  33.574  1.00  0.00     0.029 A 
ATOM     61  C   UNL A   1      42.877  28.981  34.203  1.00  0.00     0.049 A 
ATOM     62  H   UNL A   1      41.313  30.212  33.510  1.00  0.00     0.167 HD
ATOM     63  C   UNL A   1      42.553  30.602  36.068  1.00  0.00     0.074 A 
ATOM     64  C   UNL A   1      42.876  31.124  37.381  1.00  0.00     0.031 C 
ATOM     65  C   UNL A   1      43.165  29.530  35.504  1.00  0.00     0.031 A 
BRANCH  52  66
ATOM     66  C   UNL A   1      41.047  27.942  29.904  1.00  0.00    -0.014 A 
ATOM     67  C   UNL A   1      40.037  26.988  29.685  1.00  0.00     0.010 A 
ATOM     68  C   UNL A   1      42.119  28.025  28.998  1.00  0.00     0.010 A 
ATOM     69  C   UNL A   1      40.115  26.112  28.598  1.00  0.00     0.020 A 
ATOM     70  C   UNL A   1      42.187  27.170  27.895  1.00  0.00     0.020 A 
ATOM     71  C   UNL A   1      41.191  26.210  27.710  1.00  0.00     0.054 A 
BRANCH  71  72
ATOM     72  S   UNL A   1      41.250  25.082  26.291  1.00  0.00     0.124 S 
ATOM     73  O   UNL A   1      41.420  26.009  25.175  1.00  0.00    -0.237 OA
ATOM     74  O   UNL A   1      42.409  24.247  26.596  1.00  0.00    -0.237 OA
ATOM     75  O   UNL A   1      39.961  24.396  26.339  1.00  0.00    -0.744 OA
ENDBRANCH  71  72
ENDBRANCH  52  66
BRANCH  53  76
ATOM     76  C   UNL A   1      40.137  34.355  37.628  1.00  0.00    -0.014 A 
ATOM     77  C   UNL A   1      39.345  33.999  38.734  1.00  0.00     0.010 A 
ATOM     78  C   UNL A   1      40.791  35.600  37.634  1.00  0.00     0.010 A 
ATOM     79  C   UNL A   1      39.202  34.876  39.815  1.00  0.00     0.020 A 
ATOM     80  C   UNL A   1      40.675  36.467  38.724  1.00  0.00     0.020 A 
ATOM     81  C   UNL A   1      39.871  36.103  39.805  1.00  0.00     0.054 A 
BRANCH  81  82
ATOM     82  S   UNL A   1      39.712  37.200  41.242  1.00  0.00     0.124 S 
ATOM     83  O   UNL A   1      38.913  36.390  42.156  1.00  0.00    -0.237 OA
ATOM     84  O   UNL A   1      41.104  37.410  41.633  1.00  0.00    -0.237 OA
ATOM     85  O   UNL A   1      39.041  38.380  40.699  1.00  0.00    -0.744 OA
ENDBRANCH  81  82
ENDBRANCH  53  76
BRANCH  65  86
ATOM     86  C   UNL A   1      44.257  28.865  36.296  1.00  0.00    -0.014 A 
ATOM     87  C   UNL A   1      45.587  29.308  36.210  1.00  0.00     0.010 A 
ATOM     88  C   UNL A   1      43.925  27.844  37.206  1.00  0.00     0.010 A 
ATOM     89  C   UNL A   1      46.574  28.726  37.009  1.00  0.00     0.020 A 
ATOM     90  C   UNL A   1      44.903  27.283  38.028  1.00  0.00     0.020 A 
ATOM     91  C   UNL A   1      46.223  27.721  37.917  1.00  0.00     0.054 A 
BRANCH  91  92
ATOM     92  S   UNL A   1      47.512  27.031  38.989  1.00  0.00     0.124 S 
ATOM     93  O   UNL A   1      47.132  27.558  40.296  1.00  0.00    -0.237 OA
ATOM     94  O   UNL A   1      47.334  25.590  38.816  1.00  0.00    -0.237 OA
ATOM     95  O   UNL A   1      48.751  27.571  38.434  1.00  0.00    -0.744 OA
ENDBRANCH  91  92
ENDBRANCH  65  86
ENDBRANCH  39  40
ENDBRANCH  32  34
ENDBRANCH  31  32
ENDBRANCH  30  31
ENDBRANCH  29  30
ENDBRANCH  28  29
ENDBRANCH  27  28
ENDBRANCH  26  27
ENDBRANCH  25  26
ENDBRANCH   1  25
TORSDOF 27
ENDMDL
MODEL 3
REMARK VINA RESULT:      -8.1      2.228      8.334
REMARK SMILES CCOc1cccc2c(SCC(=O)OCCOCCOCCOCCOC(=O)c3ccc(-c4c5nc(c(-c6ccc(S(=O)(=O)[O-])cc6)c6ccc([nH]6)c(-c6ccc(S(=O)(=O)[O-])cc6)c6nc(c(-c7ccc(S(=O)(=O)[O-])cc7)c7ccc4[nH]7)C=C6)C=C5)cc3)cc(C)nc12
REMARK SMILES IDX 19 1 18 2 17 3 16 4 15 5 14 6 12 7 13 8 11 9 10 10 9 11 4 12
REMARK SMILES IDX 5 13 93 14 6 15 8 16 92 17 7 18 90 19 89 20 91 21 3 22 2 23
REMARK SMILES IDX 1 24 20 25 21 26 22 27 23 28 24 29 25 30 26 31 27 32 28 33
REMARK SMILES IDX 29 34 30 35 88 36 31 37 87 38 32 39 33 40 34 41 81 42 35 43
REMARK SMILES IDX 86 44 80 45 82 46 36 47 85 48 79 49 78 50 37 52 67 53 48 54
REMARK SMILES IDX 66 55 49 56 52 57 65 58 83 59 50 60 51 61 64 63 84 64 53 65
REMARK SMILES IDX 38 66 39 67 47 68 40 69 46 70 41 71 42 72 43 73 44 74 45 75
REMARK SMILES IDX 68 76 69 77 77 78 70 79 76 80 71 81 72 82 73 83 74 84 75 85
REMARK SMILES IDX 54 86 55 87 63 88 56 89 62 90 57 91 58 92 59 93 60 94 61 95
REMARK H PARENT 82 51 52 62
REMARK Flexibility Score: inf
ROOT
ATOM      1  C   UNL A   1      31.847  26.672  25.561  1.00  0.00     0.188 C 
ENDROOT
BRANCH   1   2
ATOM      2  C   UNL A   1      33.140  25.946  25.138  1.00  0.00     0.188 C 
BRANCH   2   3
ATOM      3  O   UNL A   1      33.853  26.320  23.981  1.00  0.00    -0.376 OA
BRANCH   3   4
ATOM      4  C   UNL A   1      33.876  25.527  22.814  1.00  0.00     0.202 C 
BRANCH   4   5
ATOM      5  C   UNL A   1      32.938  24.335  22.540  1.00  0.00     0.261 C 
BRANCH   5   6
ATOM      6  O   UNL A   1      33.489  23.004  22.494  1.00  0.00    -0.463 OA
BRANCH   6   7
ATOM      7  C   UNL A   1      32.776  22.018  23.086  1.00  0.00     0.316 C 
ATOM      8  O   UNL A   1      31.690  21.628  22.659  1.00  0.00    -0.251 OA
BRANCH   7   9
ATOM      9  C   UNL A   1      33.353  21.448  24.377  1.00  0.00     0.197 C 
BRANCH   9  10
ATOM     10  S   UNL A   1      33.890  22.568  25.725  1.00  0.00    -0.114 SA
BRANCH  10  11
ATOM     11  C   UNL A   1      35.720  22.684  25.711  1.00  0.00     0.019 A 
ATOM     12  C   UNL A   1      38.735  20.493  25.336  1.00  0.00     0.145 A 
ATOM     13  C   UNL A   1      38.202  19.259  24.966  1.00  0.00     0.049 A 
ATOM     14  C   UNL A   1      37.920  21.615  25.575  1.00  0.00     0.114 A 
ATOM     15  C   UNL A   1      36.828  19.133  24.825  1.00  0.00     0.005 A 
ATOM     16  C   UNL A   1      36.513  21.512  25.423  1.00  0.00     0.018 A 
ATOM     17  N   UNL A   1      38.500  22.745  26.012  1.00  0.00    -0.249 NA
ATOM     18  C   UNL A   1      35.999  20.243  25.038  1.00  0.00     0.012 A 
ATOM     19  C   UNL A   1      37.743  23.809  26.336  1.00  0.00     0.039 A 
ATOM     20  C   UNL A   1      36.370  23.842  26.146  1.00  0.00     0.039 A 
ATOM     21  C   UNL A   1      38.468  24.917  27.036  1.00  0.00     0.067 C 
BRANCH  12  22
ATOM     22  O   UNL A   1      40.111  20.627  25.350  1.00  0.00    -0.492 OA
BRANCH  22  23
ATOM     23  C   UNL A   1      40.728  20.067  26.515  1.00  0.00     0.226 C 
ATOM     24  C   UNL A   1      42.184  20.505  26.604  1.00  0.00     0.049 C 
ENDBRANCH  22  23
ENDBRANCH  12  22
ENDBRANCH  10  11
ENDBRANCH   9  10
ENDBRANCH   7   9
ENDBRANCH   6   7
ENDBRANCH   5   6
ENDBRANCH   4   5
ENDBRANCH   3   4
ENDBRANCH   2   3
ENDBRANCH   1   2
BRANCH   1  25
ATOM     25  O   UNL A   1      31.512  27.159  26.839  1.00  0.00    -0.377 OA
BRANCH  25  26
ATOM     26  C   UNL A   1      31.565  28.538  27.069  1.00  0.00     0.188 C 
BRANCH  26  27
ATOM     27  C   UNL A   1      31.527  29.338  25.769  1.00  0.00     0.188 C 
BRANCH  27  28
ATOM     28  O   UNL A   1      31.606  30.742  25.973  1.00  0.00    -0.376 OA
BRANCH  28  29
ATOM     29  C   UNL A   1      32.383  31.201  27.075  1.00  0.00     0.202 C 
BRANCH  29  30
ATOM     30  C   UNL A   1      32.322  32.676  27.500  1.00  0.00     0.261 C 
BRANCH  30  31
ATOM     31  O   UNL A   1      33.561  33.364  27.612  1.00  0.00    -0.460 OA
BRANCH  31  32
ATOM     32  C   UNL A   1      33.697  34.241  28.621  1.00  0.00     0.338 C 
ATOM     33  O   UNL A   1      32.945  35.138  28.947  1.00  0.00    -0.246 OA
BRANCH  32  34
ATOM     34  C   UNL A   1      34.855  33.741  29.369  1.00  0.00     0.060 A 
ATOM     35  C   UNL A   1      36.105  34.309  29.105  1.00  0.00     0.016 A 
ATOM     36  C   UNL A   1      34.669  32.831  30.414  1.00  0.00     0.016 A 
ATOM     37  C   UNL A   1      37.187  33.971  29.904  1.00  0.00     0.010 A 
ATOM     38  C   UNL A   1      35.761  32.465  31.192  1.00  0.00     0.010 A 
ATOM     39  C   UNL A   1      37.021  33.023  30.923  1.00  0.00    -0.014 A 
BRANCH  39  40
ATOM     40  C   UNL A   1      38.221  32.437  31.540  1.00  0.00     0.031 A 
ATOM     41  C   UNL A   1      38.644  32.998  32.865  1.00  0.00     0.074 A 
ATOM     42  C   UNL A   1      38.878  31.427  30.948  1.00  0.00     0.049 A 
ATOM     43  N   UNL A   1      39.659  32.670  33.614  1.00  0.00    -0.248 NA
ATOM     44  C   UNL A   1      37.803  34.075  33.421  1.00  0.00     0.031 C 
ATOM     45  C   UNL A   1      38.500  30.797  29.681  1.00  0.00     0.029 A 
ATOM     46  N   UNL A   1      40.004  30.753  31.337  1.00  0.00    -0.354 N 
ATOM     47  C   UNL A   1      39.580  33.500  34.726  1.00  0.00     0.074 A 
ATOM     48  C   UNL A   1      38.438  34.363  34.546  1.00  0.00     0.031 C 
ATOM     49  C   UNL A   1      39.390  29.831  29.393  1.00  0.00     0.029 A 
ATOM     50  C   UNL A   1      40.413  29.800  30.436  1.00  0.00     0.049 A 
ATOM     51  H   UNL A   1      40.475  30.935  32.182  1.00  0.00     0.167 HD
ATOM     52  C   UNL A   1      40.395  33.533  35.804  1.00  0.00     0.031 A 
ATOM     53  C   UNL A   1      41.508  29.015  30.454  1.00  0.00     0.031 A 
ATOM     54  C   UNL A   1      41.546  32.686  35.939  1.00  0.00     0.049 A 
ATOM     55  C   UNL A   1      42.449  29.130  31.625  1.00  0.00     0.074 A 
ATOM     56  C   UNL A   1      42.453  32.625  36.979  1.00  0.00     0.029 A 
ATOM     57  N   UNL A   1      41.955  31.760  34.989  1.00  0.00    -0.354 N 
ATOM     58  N   UNL A   1      42.349  29.894  32.690  1.00  0.00    -0.248 NA
ATOM     59  C   UNL A   1      43.645  28.280  31.604  1.00  0.00     0.031 C 
ATOM     60  C   UNL A   1      43.446  31.705  36.629  1.00  0.00     0.029 A 
ATOM     61  C   UNL A   1      43.120  31.143  35.403  1.00  0.00     0.049 A 
ATOM     62  H   UNL A   1      41.482  31.570  34.146  1.00  0.00     0.167 HD
ATOM     63  C   UNL A   1      43.459  29.602  33.474  1.00  0.00     0.074 A 
ATOM     64  C   UNL A   1      44.205  28.578  32.770  1.00  0.00     0.031 C 
ATOM     65  C   UNL A   1      43.832  30.128  34.668  1.00  0.00     0.031 A 
BRANCH  52  66
ATOM     66  C   UNL A   1      40.091  34.545  36.873  1.00  0.00    -0.014 A 
ATOM     67  C   UNL A   1      40.554  35.870  36.777  1.00  0.00     0.010 A 
ATOM     68  C   UNL A   1      39.324  34.167  37.988  1.00  0.00     0.010 A 
ATOM     69  C   UNL A   1      40.281  36.790  37.794  1.00  0.00     0.020 A 
ATOM     70  C   UNL A   1      39.026  35.091  38.994  1.00  0.00     0.020 A 
ATOM     71  C   UNL A   1      39.518  36.394  38.896  1.00  0.00     0.054 A 
BRANCH  71  72
ATOM     72  S   UNL A   1      39.152  37.616  40.184  1.00  0.00     0.124 S 
ATOM     73  O   UNL A   1      40.428  38.316  40.307  1.00  0.00    -0.237 OA
ATOM     74  O   UNL A   1      38.065  38.390  39.590  1.00  0.00    -0.237 OA
ATOM     75  O   UNL A   1      38.775  36.803  41.338  1.00  0.00    -0.744 OA
ENDBRANCH  71  72
ENDBRANCH  52  66
BRANCH  53  76
ATOM     76  C   UNL A   1      41.782  28.085  29.323  1.00  0.00    -0.014 A 
ATOM     77  C   UNL A   1      42.505  28.511  28.194  1.00  0.00     0.010 A 
ATOM     78  C   UNL A   1      41.323  26.756  29.372  1.00  0.00     0.010 A 
ATOM     79  C   UNL A   1      42.752  27.630  27.136  1.00  0.00     0.020 A 
ATOM     80  C   UNL A   1      41.592  25.864  28.331  1.00  0.00     0.020 A 
ATOM     81  C   UNL A   1      42.297  26.310  27.213  1.00  0.00     0.054 A 
BRANCH  81  82
ATOM     82  S   UNL A   1      42.676  25.172  25.850  1.00  0.00     0.124 S 
ATOM     83  O   UNL A   1      41.602  24.191  25.965  1.00  0.00    -0.237 OA
ATOM     84  O   UNL A   1      42.613  26.047  24.683  1.00  0.00    -0.237 OA
ATOM     85  O   UNL A   1      44.013  24.679  26.178  1.00  0.00    -0.744 OA
ENDBRANCH  81  82
ENDBRANCH  53  76
BRANCH  65  86
ATOM     86  C   UNL A   1      45.088  29.590  35.296  1.00  0.00    -0.014 A 
ATOM     87  C   UNL A   1      46.333  30.198  35.064  1.00  0.00     0.010 A 
ATOM     88  C   UNL A   1      45.000  28.518  36.203  1.00  0.00     0.010 A 
ATOM     89  C   UNL A   1      47.476  29.728  35.715  1.00  0.00     0.020 A 
ATOM     90  C   UNL A   1      46.135  28.066  36.879  1.00  0.00     0.020 A 
ATOM     91  C   UNL A   1      47.367  28.669  36.623  1.00  0.00     0.054 A 
BRANCH  91  92
ATOM     92  S   UNL A   1      48.855  28.125  37.505  1.00  0.00     0.124 S 
ATOM     93  O   UNL A   1      48.320  27.786  38.820  1.00  0.00    -0.237 OA
ATOM     94  O   UNL A   1      49.307  26.992  36.699  1.00  0.00    -0.237 OA
ATOM     95  O   UNL A   1      49.728  29.296  37.468  1.00  0.00    -0.744 OA
ENDBRANCH  91  92
ENDBRANCH  65  86
ENDBRANCH  39  40
ENDBRANCH  32  34
ENDBRANCH  31  32
ENDBRANCH  30  31
ENDBRANCH  29  30
ENDBRANCH  28  29
ENDBRANCH  27  28
ENDBRANCH  26  27
ENDBRANCH  25  26
ENDBRANCH   1  25
TORSDOF 27
ENDMDL
