MODEL 1
REMARK VINA RESULT:      -6.4      0.000      0.000
REMARK SMILES CCSC(=S)N1[C@@H](C(=O)OCCOCCOCCOCCOC(=O)c2ccc(-c3c4nc(c(-c5ccc(S(=O)(=O)[O-])cc5)c5ccc([nH]5)c(-c5ccc(S(=O)(=O)[O-])cc5)c5nc(c(-c6ccc(S(=O)(=O)[O-])cc6)c6ccc3[nH]6)C=C5)C=C4)cc2)CS[C@@H]1c1ccc(C)cc1
REMARK SMILES IDX 16 1 15 2 14 3 13 4 12 5 11 6 10 7 8 8 9 9 7 10 6 11 87 12
REMARK SMILES IDX 85 13 86 14 4 15 5 16 3 17 2 18 1 19 88 20 89 21 94 22 90 23
REMARK SMILES IDX 93 24 91 25 92 26 17 27 18 28 19 29 20 30 21 31 22 32 23 33
REMARK SMILES IDX 24 34 25 35 26 36 84 37 27 38 83 39 28 40 29 41 30 42 77 43
REMARK SMILES IDX 31 44 82 45 76 46 78 47 32 48 81 49 75 50 74 51 33 53 63 54
REMARK SMILES IDX 44 55 62 56 45 57 48 58 61 59 79 60 46 61 47 62 60 64 80 65
REMARK SMILES IDX 49 66 34 67 35 68 43 69 36 70 42 71 37 72 38 73 39 74 40 75
REMARK SMILES IDX 41 76 64 77 65 78 73 79 66 80 72 81 67 82 68 83 69 84 70 85
REMARK SMILES IDX 71 86 50 87 51 88 59 89 52 90 58 91 53 92 54 93 55 94 56 95
REMARK SMILES IDX 57 96
REMARK H PARENT 78 52 48 63
REMARK Flexibility Score: inf
ROOT
ATOM      1  O   UNL A   1      53.047  23.295  36.149  1.00  0.00    -0.377 OA
ENDROOT
BRANCH   1   2
ATOM      2  C   UNL A   1      51.986  22.486  35.673  1.00  0.00     0.188 C 
BRANCH   2   3
ATOM      3  C   UNL A   1      52.351  21.001  35.445  1.00  0.00     0.188 C 
BRANCH   3   4
ATOM      4  O   UNL A   1      51.485  20.097  34.766  1.00  0.00    -0.376 OA
BRANCH   4   5
ATOM      5  C   UNL A   1      50.343  19.579  35.419  1.00  0.00     0.202 C 
BRANCH   5   6
ATOM      6  C   UNL A   1      49.067  20.433  35.373  1.00  0.00     0.261 C 
BRANCH   6   7
ATOM      7  O   UNL A   1      48.268  20.512  36.564  1.00  0.00    -0.462 OA
BRANCH   7   8
ATOM      8  C   UNL A   1      46.940  20.741  36.386  1.00  0.00     0.329 C 
ATOM      9  O   UNL A   1      46.038  20.091  36.906  1.00  0.00    -0.250 OA
BRANCH   8  10
ATOM     10  C   UNL A   1      46.641  21.961  35.499  1.00  0.00     0.205 C 
ATOM     11  N   UNL A   1      46.009  23.140  36.152  1.00  0.00    -0.327 N 
ATOM     12  C   UNL A   1      45.008  23.808  35.301  1.00  0.00     0.173 C 
ATOM     13  C   UNL A   1      45.776  21.531  34.298  1.00  0.00     0.109 C 
ATOM     14  S   UNL A   1      44.185  22.374  34.504  1.00  0.00    -0.129 SA
BRANCH  11  15
ATOM     15  C   UNL A   1      46.556  23.747  37.286  1.00  0.00     0.138 C 
ATOM     16  S   UNL A   1      45.626  24.210  38.611  1.00  0.00    -0.053 S 
BRANCH  15  17
ATOM     17  S   UNL A   1      48.294  24.015  37.138  1.00  0.00    -0.097 SA
BRANCH  17  18
ATOM     18  C   UNL A   1      49.046  23.095  38.521  1.00  0.00     0.074 C 
ATOM     19  C   UNL A   1      49.100  23.867  39.832  1.00  0.00     0.016 C 
ENDBRANCH  17  18
ENDBRANCH  15  17
ENDBRANCH  11  15
BRANCH  12  20
ATOM     20  C   UNL A   1      45.620  24.660  34.167  1.00  0.00    -0.015 A 
ATOM     21  C   UNL A   1      45.022  24.657  32.892  1.00  0.00     0.007 A 
ATOM     22  C   UNL A   1      46.859  25.309  34.292  1.00  0.00     0.007 A 
ATOM     23  C   UNL A   1      45.712  25.142  31.773  1.00  0.00     0.004 A 
ATOM     24  C   UNL A   1      47.554  25.777  33.177  1.00  0.00     0.004 A 
ATOM     25  C   UNL A   1      47.006  25.655  31.902  1.00  0.00    -0.051 A 
ATOM     26  C   UNL A   1      47.797  26.060  30.696  1.00  0.00     0.044 C 
ENDBRANCH  12  20
ENDBRANCH   8  10
ENDBRANCH   7   8
ENDBRANCH   6   7
ENDBRANCH   5   6
ENDBRANCH   4   5
ENDBRANCH   3   4
ENDBRANCH   2   3
ENDBRANCH   1   2
BRANCH   1  27
ATOM     27  C   UNL A   1      53.683  24.102  35.172  1.00  0.00     0.188 C 
BRANCH  27  28
ATOM     28  C   UNL A   1      53.787  25.586  35.541  1.00  0.00     0.188 C 
BRANCH  28  29
ATOM     29  O   UNL A   1      53.085  26.407  34.608  1.00  0.00    -0.376 OA
BRANCH  29  30
ATOM     30  C   UNL A   1      52.217  27.402  35.123  1.00  0.00     0.202 C 
BRANCH  30  31
ATOM     31  C   UNL A   1      50.787  26.927  35.411  1.00  0.00     0.261 C 
BRANCH  31  32
ATOM     32  O   UNL A   1      49.803  27.957  35.598  1.00  0.00    -0.460 OA
BRANCH  32  33
ATOM     33  C   UNL A   1      48.948  27.853  36.638  1.00  0.00     0.338 C 
ATOM     34  O   UNL A   1      49.220  27.560  37.788  1.00  0.00    -0.246 OA
BRANCH  33  35
ATOM     35  C   UNL A   1      47.644  28.389  36.180  1.00  0.00     0.060 A 
ATOM     36  C   UNL A   1      46.464  27.812  36.667  1.00  0.00     0.016 A 
ATOM     37  C   UNL A   1      47.592  29.505  35.341  1.00  0.00     0.016 A 
ATOM     38  C   UNL A   1      45.226  28.359  36.322  1.00  0.00     0.010 A 
ATOM     39  C   UNL A   1      46.351  30.027  34.968  1.00  0.00     0.010 A 
ATOM     40  C   UNL A   1      45.162  29.451  35.447  1.00  0.00    -0.014 A 
BRANCH  40  41
ATOM     41  C   UNL A   1      43.863  29.884  34.882  1.00  0.00     0.031 A 
ATOM     42  C   UNL A   1      43.459  29.336  33.541  1.00  0.00     0.074 A 
ATOM     43  C   UNL A   1      43.065  30.752  35.530  1.00  0.00     0.049 A 
ATOM     44  N   UNL A   1      42.428  29.641  32.798  1.00  0.00    -0.248 NA
ATOM     45  C   UNL A   1      44.338  28.305  32.963  1.00  0.00     0.031 C 
ATOM     46  C   UNL A   1      43.317  31.312  36.857  1.00  0.00     0.029 A 
ATOM     47  N   UNL A   1      41.879  31.327  35.144  1.00  0.00    -0.354 N 
ATOM     48  C   UNL A   1      42.532  28.840  31.668  1.00  0.00     0.074 A 
ATOM     49  C   UNL A   1      43.738  28.053  31.809  1.00  0.00     0.031 C 
ATOM     50  C   UNL A   1      42.325  32.169  37.165  1.00  0.00     0.029 A 
ATOM     51  C   UNL A   1      41.391  32.249  36.042  1.00  0.00     0.049 A 
ATOM     52  H   UNL A   1      41.419  31.102  34.302  1.00  0.00     0.167 HD
ATOM     53  C   UNL A   1      41.698  28.765  30.605  1.00  0.00     0.031 A 
ATOM     54  C   UNL A   1      40.336  33.084  35.949  1.00  0.00     0.031 A 
ATOM     55  C   UNL A   1      40.517  29.571  30.450  1.00  0.00     0.049 A 
ATOM     56  C   UNL A   1      39.487  33.064  34.700  1.00  0.00     0.074 A 
ATOM     57  C   UNL A   1      39.611  29.574  29.405  1.00  0.00     0.029 A 
ATOM     58  N   UNL A   1      40.084  30.522  31.360  1.00  0.00    -0.354 N 
ATOM     59  N   UNL A   1      39.585  32.288  33.646  1.00  0.00    -0.248 NA
ATOM     60  C   UNL A   1      38.386  34.038  34.627  1.00  0.00     0.031 C 
ATOM     61  C   UNL A   1      38.662  30.569  29.656  1.00  0.00     0.029 A 
ATOM     62  C   UNL A   1      38.941  31.142  30.885  1.00  0.00     0.049 A 
ATOM     63  H   UNL A   1      40.524  30.727  32.217  1.00  0.00     0.167 HD
ATOM     64  C   UNL A   1      38.548  32.667  32.797  1.00  0.00     0.074 A 
ATOM     65  C   UNL A   1      37.822  33.724  33.470  1.00  0.00     0.031 C 
ATOM     66  C   UNL A   1      38.228  32.189  31.569  1.00  0.00     0.031 A 
BRANCH  53  67
ATOM     67  C   UNL A   1      42.048  27.797  29.510  1.00  0.00    -0.014 A 
ATOM     68  C   UNL A   1      41.239  26.676  29.252  1.00  0.00     0.010 A 
ATOM     69  C   UNL A   1      43.163  28.044  28.690  1.00  0.00     0.010 A 
ATOM     70  C   UNL A   1      41.549  25.810  28.201  1.00  0.00     0.020 A 
ATOM     71  C   UNL A   1      43.463  27.193  27.624  1.00  0.00     0.020 A 
ATOM     72  C   UNL A   1      42.657  26.076  27.390  1.00  0.00     0.054 A 
BRANCH  72  73
ATOM     73  S   UNL A   1      43.001  24.965  26.000  1.00  0.00     0.124 S 
ATOM     74  O   UNL A   1      42.999  25.888  24.868  1.00  0.00    -0.237 OA
ATOM     75  O   UNL A   1      44.304  24.407  26.353  1.00  0.00    -0.237 OA
ATOM     76  O   UNL A   1      41.890  24.017  26.029  1.00  0.00    -0.744 OA
ENDBRANCH  72  73
ENDBRANCH  53  67
BRANCH  54  77
ATOM     77  C   UNL A   1      40.048  34.062  37.037  1.00  0.00    -0.014 A 
ATOM     78  C   UNL A   1      39.340  33.674  38.188  1.00  0.00     0.010 A 
ATOM     79  C   UNL A   1      40.437  35.408  36.900  1.00  0.00     0.010 A 
ATOM     80  C   UNL A   1      39.000  34.616  39.165  1.00  0.00     0.020 A 
ATOM     81  C   UNL A   1      40.128  36.347  37.888  1.00  0.00     0.020 A 
ATOM     82  C   UNL A   1      39.396  35.947  39.007  1.00  0.00     0.054 A 
BRANCH  82  83
ATOM     83  S   UNL A   1      38.969  37.151  40.296  1.00  0.00     0.124 S 
ATOM     84  O   UNL A   1      40.262  37.390  40.928  1.00  0.00    -0.237 OA
ATOM     85  O   UNL A   1      38.425  38.264  39.522  1.00  0.00    -0.237 OA
ATOM     86  O   UNL A   1      37.991  36.439  41.115  1.00  0.00    -0.744 OA
ENDBRANCH  82  83
ENDBRANCH  54  77
BRANCH  66  87
ATOM     87  C   UNL A   1      37.028  32.782  30.879  1.00  0.00    -0.014 A 
ATOM     88  C   UNL A   1      35.728  32.333  31.171  1.00  0.00     0.010 A 
ATOM     89  C   UNL A   1      37.199  33.853  29.982  1.00  0.00     0.010 A 
ATOM     90  C   UNL A   1      34.621  32.927  30.557  1.00  0.00     0.020 A 
ATOM     91  C   UNL A   1      36.093  34.469  29.389  1.00  0.00     0.020 A 
ATOM     92  C   UNL A   1      34.811  33.994  29.672  1.00  0.00     0.054 A 
BRANCH  92  93
ATOM     93  S   UNL A   1      33.354  34.782  28.932  1.00  0.00     0.124 S 
ATOM     94  O   UNL A   1      32.845  33.726  28.061  1.00  0.00    -0.237 OA
ATOM     95  O   UNL A   1      32.529  35.087  30.099  1.00  0.00    -0.237 OA
ATOM     96  O   UNL A   1      33.903  35.947  28.243  1.00  0.00    -0.744 OA
ENDBRANCH  92  93
ENDBRANCH  66  87
ENDBRANCH  40  41
ENDBRANCH  33  35
ENDBRANCH  32  33
ENDBRANCH  31  32
ENDBRANCH  30  31
ENDBRANCH  29  30
ENDBRANCH  28  29
ENDBRANCH  27  28
ENDBRANCH   1  27
TORSDOF 27
ENDMDL
MODEL 2
REMARK VINA RESULT:      -6.0      3.920     11.412
REMARK SMILES CCSC(=S)N1[C@@H](C(=O)OCCOCCOCCOCCOC(=O)c2ccc(-c3c4nc(c(-c5ccc(S(=O)(=O)[O-])cc5)c5ccc([nH]5)c(-c5ccc(S(=O)(=O)[O-])cc5)c5nc(c(-c6ccc(S(=O)(=O)[O-])cc6)c6ccc3[nH]6)C=C5)C=C4)cc2)CS[C@@H]1c1ccc(C)cc1
REMARK SMILES IDX 16 1 15 2 14 3 13 4 12 5 11 6 10 7 8 8 9 9 7 10 6 11 87 12
REMARK SMILES IDX 85 13 86 14 4 15 5 16 3 17 2 18 1 19 88 20 89 21 94 22 90 23
REMARK SMILES IDX 93 24 91 25 92 26 17 27 18 28 19 29 20 30 21 31 22 32 23 33
REMARK SMILES IDX 24 34 25 35 26 36 84 37 27 38 83 39 28 40 29 41 30 42 77 43
REMARK SMILES IDX 31 44 82 45 76 46 78 47 32 48 81 49 75 50 74 51 33 53 63 54
REMARK SMILES IDX 44 55 62 56 45 57 48 58 61 59 79 60 46 61 47 62 60 64 80 65
REMARK SMILES IDX 49 66 34 67 35 68 43 69 36 70 42 71 37 72 38 73 39 74 40 75
REMARK SMILES IDX 41 76 64 77 65 78 73 79 66 80 72 81 67 82 68 83 69 84 70 85
REMARK SMILES IDX 71 86 50 87 51 88 59 89 52 90 58 91 53 92 54 93 55 94 56 95
REMARK SMILES IDX 57 96
REMARK H PARENT 78 52 48 63
REMARK Flexibility Score: inf
ROOT
ATOM      1  O   UNL A   1      41.755  22.251  27.072  1.00  0.00    -0.377 OA
ENDROOT
BRANCH   1   2
ATOM      2  C   UNL A   1      41.184  23.517  26.790  1.00  0.00     0.188 C 
BRANCH   2   3
ATOM      3  C   UNL A   1      40.942  24.411  28.028  1.00  0.00     0.188 C 
BRANCH   3   4
ATOM      4  O   UNL A   1      40.303  25.681  27.940  1.00  0.00    -0.376 OA
BRANCH   4   5
ATOM      5  C   UNL A   1      40.694  26.735  28.797  1.00  0.00     0.202 C 
BRANCH   5   6
ATOM      6  C   UNL A   1      41.006  28.088  28.141  1.00  0.00     0.261 C 
BRANCH   6   7
ATOM      7  O   UNL A   1      40.995  29.258  28.975  1.00  0.00    -0.462 OA
BRANCH   7   8
ATOM      8  C   UNL A   1      39.791  29.862  29.152  1.00  0.00     0.329 C 
ATOM      9  O   UNL A   1      38.792  29.654  28.469  1.00  0.00    -0.250 OA
BRANCH   8  10
ATOM     10  C   UNL A   1      39.756  30.818  30.356  1.00  0.00     0.205 C 
ATOM     11  N   UNL A   1      39.090  30.329  31.595  1.00  0.00    -0.327 N 
ATOM     12  C   UNL A   1      38.323  31.375  32.293  1.00  0.00     0.173 C 
ATOM     13  C   UNL A   1      39.114  32.156  29.939  1.00  0.00     0.109 C 
ATOM     14  S   UNL A   1      37.575  32.287  30.887  1.00  0.00    -0.129 SA
BRANCH  11  15
ATOM     15  C   UNL A   1      39.445  29.123  32.206  1.00  0.00     0.138 C 
ATOM     16  S   UNL A   1      38.451  27.765  32.191  1.00  0.00    -0.053 S 
BRANCH  15  17
ATOM     17  S   UNL A   1      41.005  29.215  33.027  1.00  0.00    -0.097 SA
BRANCH  17  18
ATOM     18  C   UNL A   1      40.612  29.470  34.789  1.00  0.00     0.074 C 
ATOM     19  C   UNL A   1      41.778  29.216  35.735  1.00  0.00     0.016 C 
ENDBRANCH  17  18
ENDBRANCH  15  17
ENDBRANCH  11  15
BRANCH  12  20
ATOM     20  C   UNL A   1      39.201  32.385  33.065  1.00  0.00    -0.015 A 
ATOM     21  C   UNL A   1      39.030  32.539  34.454  1.00  0.00     0.007 A 
ATOM     22  C   UNL A   1      40.049  33.299  32.419  1.00  0.00     0.007 A 
ATOM     23  C   UNL A   1      39.560  33.649  35.126  1.00  0.00     0.004 A 
ATOM     24  C   UNL A   1      40.563  34.413  33.083  1.00  0.00     0.004 A 
ATOM     25  C   UNL A   1      40.283  34.622  34.431  1.00  0.00    -0.051 A 
ATOM     26  C   UNL A   1      40.746  35.872  35.115  1.00  0.00     0.044 C 
ENDBRANCH  12  20
ENDBRANCH   8  10
ENDBRANCH   7   8
ENDBRANCH   6   7
ENDBRANCH   5   6
ENDBRANCH   4   5
ENDBRANCH   3   4
ENDBRANCH   2   3
ENDBRANCH   1   2
BRANCH   1  27
ATOM     27  C   UNL A   1      41.311  21.188  26.246  1.00  0.00     0.188 C 
BRANCH  27  28
ATOM     28  C   UNL A   1      42.254  19.979  26.203  1.00  0.00     0.188 C 
BRANCH  28  29
ATOM     29  O   UNL A   1      43.066  19.991  25.029  1.00  0.00    -0.376 OA
BRANCH  29  30
ATOM     30  C   UNL A   1      44.441  20.305  25.179  1.00  0.00     0.202 C 
BRANCH  30  31
ATOM     31  C   UNL A   1      44.767  21.804  25.158  1.00  0.00     0.261 C 
BRANCH  31  32
ATOM     32  O   UNL A   1      45.314  22.349  26.369  1.00  0.00    -0.460 OA
BRANCH  32  33
ATOM     33  C   UNL A   1      46.225  23.342  26.277  1.00  0.00     0.338 C 
ATOM     34  O   UNL A   1      46.984  23.561  25.350  1.00  0.00    -0.246 OA
BRANCH  33  35
ATOM     35  C   UNL A   1      45.975  24.264  27.410  1.00  0.00     0.060 A 
ATOM     36  C   UNL A   1      47.047  24.987  27.948  1.00  0.00     0.016 A 
ATOM     37  C   UNL A   1      44.676  24.471  27.883  1.00  0.00     0.016 A 
ATOM     38  C   UNL A   1      46.820  25.929  28.954  1.00  0.00     0.010 A 
ATOM     39  C   UNL A   1      44.457  25.386  28.914  1.00  0.00     0.010 A 
ATOM     40  C   UNL A   1      45.528  26.112  29.463  1.00  0.00    -0.014 A 
BRANCH  40  41
ATOM     41  C   UNL A   1      45.311  26.919  30.685  1.00  0.00     0.031 A 
ATOM     42  C   UNL A   1      44.994  28.380  30.519  1.00  0.00     0.074 A 
ATOM     43  C   UNL A   1      45.404  26.380  31.915  1.00  0.00     0.049 A 
ATOM     44  N   UNL A   1      44.866  29.308  31.430  1.00  0.00    -0.248 NA
ATOM     45  C   UNL A   1      44.796  28.855  29.138  1.00  0.00     0.031 C 
ATOM     46  C   UNL A   1      45.651  24.969  32.208  1.00  0.00     0.029 A 
ATOM     47  N   UNL A   1      45.317  26.969  33.153  1.00  0.00    -0.354 N 
ATOM     48  C   UNL A   1      44.571  30.475  30.735  1.00  0.00     0.074 A 
ATOM     49  C   UNL A   1      44.562  30.145  29.326  1.00  0.00     0.031 C 
ATOM     50  C   UNL A   1      45.717  24.805  33.542  1.00  0.00     0.029 A 
ATOM     51  C   UNL A   1      45.559  26.105  34.196  1.00  0.00     0.049 A 
ATOM     52  H   UNL A   1      45.101  27.921  33.282  1.00  0.00     0.167 HD
ATOM     53  C   UNL A   1      44.327  31.712  31.225  1.00  0.00     0.031 A 
ATOM     54  C   UNL A   1      45.676  26.344  35.518  1.00  0.00     0.031 A 
ATOM     55  C   UNL A   1      44.368  32.047  32.623  1.00  0.00     0.049 A 
ATOM     56  C   UNL A   1      45.516  27.757  36.029  1.00  0.00     0.074 A 
ATOM     57  C   UNL A   1      44.143  33.275  33.219  1.00  0.00     0.029 A 
ATOM     58  N   UNL A   1      44.661  31.154  33.641  1.00  0.00    -0.354 N 
ATOM     59  N   UNL A   1      45.218  28.848  35.363  1.00  0.00    -0.248 NA
ATOM     60  C   UNL A   1      45.713  27.969  37.471  1.00  0.00     0.031 C 
ATOM     61  C   UNL A   1      44.358  33.137  34.593  1.00  0.00     0.029 A 
ATOM     62  C   UNL A   1      44.654  31.811  34.860  1.00  0.00     0.049 A 
ATOM     63  H   UNL A   1      44.845  30.195  33.517  1.00  0.00     0.167 HD
ATOM     64  C   UNL A   1      45.172  29.869  36.309  1.00  0.00     0.074 A 
ATOM     65  C   UNL A   1      45.450  29.262  37.594  1.00  0.00     0.031 C 
ATOM     66  C   UNL A   1      44.928  31.191  36.130  1.00  0.00     0.031 A 
BRANCH  53  67
ATOM     67  C   UNL A   1      44.023  32.806  30.240  1.00  0.00    -0.014 A 
ATOM     68  C   UNL A   1      45.050  33.420  29.502  1.00  0.00     0.010 A 
ATOM     69  C   UNL A   1      42.688  33.181  30.004  1.00  0.00     0.010 A 
ATOM     70  C   UNL A   1      44.748  34.402  28.556  1.00  0.00     0.020 A 
ATOM     71  C   UNL A   1      42.381  34.145  29.042  1.00  0.00     0.020 A 
ATOM     72  C   UNL A   1      43.415  34.756  28.328  1.00  0.00     0.054 A 
BRANCH  72  73
ATOM     73  S   UNL A   1      43.051  35.993  27.054  1.00  0.00     0.124 S 
ATOM     74  O   UNL A   1      44.144  36.945  27.237  1.00  0.00    -0.237 OA
ATOM     75  O   UNL A   1      43.102  35.207  25.824  1.00  0.00    -0.237 OA
ATOM     76  O   UNL A   1      41.727  36.490  27.419  1.00  0.00    -0.744 OA
ENDBRANCH  72  73
ENDBRANCH  53  67
BRANCH  54  77
ATOM     77  C   UNL A   1      46.023  25.241  36.459  1.00  0.00    -0.014 A 
ATOM     78  C   UNL A   1      47.352  24.802  36.599  1.00  0.00     0.010 A 
ATOM     79  C   UNL A   1      45.011  24.585  37.184  1.00  0.00     0.010 A 
ATOM     80  C   UNL A   1      47.657  23.712  37.420  1.00  0.00     0.020 A 
ATOM     81  C   UNL A   1      45.316  23.515  38.031  1.00  0.00     0.020 A 
ATOM     82  C   UNL A   1      46.636  23.075  38.130  1.00  0.00     0.054 A 
BRANCH  82  83
ATOM     83  S   UNL A   1      47.055  21.679  39.211  1.00  0.00     0.124 S 
ATOM     84  O   UNL A   1      45.771  21.386  39.840  1.00  0.00    -0.237 OA
ATOM     85  O   UNL A   1      47.539  20.679  38.262  1.00  0.00    -0.237 OA
ATOM     86  O   UNL A   1      48.079  22.229  40.096  1.00  0.00    -0.744 OA
ENDBRANCH  82  83
ENDBRANCH  54  77
BRANCH  66  87
ATOM     87  C   UNL A   1      44.924  32.073  37.351  1.00  0.00    -0.014 A 
ATOM     88  C   UNL A   1      43.758  32.248  38.116  1.00  0.00     0.010 A 
ATOM     89  C   UNL A   1      46.123  32.673  37.781  1.00  0.00     0.010 A 
ATOM     90  C   UNL A   1      43.783  33.031  39.274  1.00  0.00     0.020 A 
ATOM     91  C   UNL A   1      46.159  33.432  38.954  1.00  0.00     0.020 A 
ATOM     92  C   UNL A   1      44.985  33.615  39.688  1.00  0.00     0.054 A 
BRANCH  92  93
ATOM     93  S   UNL A   1      45.002  34.580  41.224  1.00  0.00     0.124 S 
ATOM     94  O   UNL A   1      45.167  33.540  42.235  1.00  0.00    -0.237 OA
ATOM     95  O   UNL A   1      46.151  35.462  41.035  1.00  0.00    -0.237 OA
ATOM     96  O   UNL A   1      43.703  35.250  41.226  1.00  0.00    -0.744 OA
ENDBRANCH  92  93
ENDBRANCH  66  87
ENDBRANCH  40  41
ENDBRANCH  33  35
ENDBRANCH  32  33
ENDBRANCH  31  32
ENDBRANCH  30  31
ENDBRANCH  29  30
ENDBRANCH  28  29
ENDBRANCH  27  28
ENDBRANCH   1  27
TORSDOF 27
ENDMDL
MODEL 3
REMARK VINA RESULT:      -5.8      7.174     13.887
REMARK SMILES CCSC(=S)N1[C@@H](C(=O)OCCOCCOCCOCCOC(=O)c2ccc(-c3c4nc(c(-c5ccc(S(=O)(=O)[O-])cc5)c5ccc([nH]5)c(-c5ccc(S(=O)(=O)[O-])cc5)c5nc(c(-c6ccc(S(=O)(=O)[O-])cc6)c6ccc3[nH]6)C=C5)C=C4)cc2)CS[C@@H]1c1ccc(C)cc1
REMARK SMILES IDX 16 1 15 2 14 3 13 4 12 5 11 6 10 7 8 8 9 9 7 10 6 11 87 12
REMARK SMILES IDX 85 13 86 14 4 15 5 16 3 17 2 18 1 19 88 20 89 21 94 22 90 23
REMARK SMILES IDX 93 24 91 25 92 26 17 27 18 28 19 29 20 30 21 31 22 32 23 33
REMARK SMILES IDX 24 34 25 35 26 36 84 37 27 38 83 39 28 40 29 41 30 42 77 43
REMARK SMILES IDX 31 44 82 45 76 46 78 47 32 48 81 49 75 50 74 51 33 53 63 54
REMARK SMILES IDX 44 55 62 56 45 57 48 58 61 59 79 60 46 61 47 62 60 64 80 65
REMARK SMILES IDX 49 66 34 67 35 68 43 69 36 70 42 71 37 72 38 73 39 74 40 75
REMARK SMILES IDX 41 76 64 77 65 78 73 79 66 80 72 81 67 82 68 83 69 84 70 85
REMARK SMILES IDX 71 86 50 87 51 88 59 89 52 90 58 91 53 92 54 93 55 94 56 95
REMARK SMILES IDX 57 96
REMARK H PARENT 78 52 48 63
REMARK Flexibility Score: inf
ROOT
ATOM      1  O   UNL A   1      40.907  29.000  28.051  1.00  0.00    -0.377 OA
ENDROOT
BRANCH   1   2
ATOM      2  C   UNL A   1      40.687  28.355  29.293  1.00  0.00     0.188 C 
BRANCH   2   3
ATOM      3  C   UNL A   1      39.403  27.497  29.362  1.00  0.00     0.188 C 
BRANCH   3   4
ATOM      4  O   UNL A   1      38.834  27.071  30.597  1.00  0.00    -0.376 OA
BRANCH   4   5
ATOM      5  C   UNL A   1      38.196  28.005  31.446  1.00  0.00     0.202 C 
BRANCH   5   6
ATOM      6  C   UNL A   1      39.039  28.602  32.583  1.00  0.00     0.261 C 
BRANCH   6   7
ATOM      7  O   UNL A   1      38.387  29.483  33.511  1.00  0.00    -0.462 OA
BRANCH   7   8
ATOM      8  C   UNL A   1      38.910  30.733  33.625  1.00  0.00     0.329 C 
ATOM      9  O   UNL A   1      40.093  30.984  33.835  1.00  0.00    -0.250 OA
BRANCH   8  10
ATOM     10  C   UNL A   1      37.879  31.852  33.402  1.00  0.00     0.205 C 
ATOM     11  N   UNL A   1      38.286  32.992  32.535  1.00  0.00    -0.327 N 
ATOM     12  C   UNL A   1      37.782  34.292  33.011  1.00  0.00     0.173 C 
ATOM     13  C   UNL A   1      37.406  32.402  34.762  1.00  0.00     0.109 C 
ATOM     14  S   UNL A   1      37.976  34.121  34.828  1.00  0.00    -0.129 SA
BRANCH  11  15
ATOM     15  C   UNL A   1      38.779  32.805  31.241  1.00  0.00     0.138 C 
ATOM     16  S   UNL A   1      38.204  31.605  30.210  1.00  0.00    -0.053 S 
BRANCH  15  17
ATOM     17  S   UNL A   1      40.090  33.920  30.849  1.00  0.00    -0.097 SA
BRANCH  17  18
ATOM     18  C   UNL A   1      41.608  33.122  31.468  1.00  0.00     0.074 C 
ATOM     19  C   UNL A   1      41.864  31.734  30.899  1.00  0.00     0.016 C 
ENDBRANCH  17  18
ENDBRANCH  15  17
ENDBRANCH  11  15
BRANCH  12  20
ATOM     20  C   UNL A   1      36.278  34.517  32.740  1.00  0.00    -0.015 A 
ATOM     21  C   UNL A   1      35.715  34.082  31.525  1.00  0.00     0.007 A 
ATOM     22  C   UNL A   1      35.468  35.301  33.577  1.00  0.00     0.007 A 
ATOM     23  C   UNL A   1      34.460  34.545  31.106  1.00  0.00     0.004 A 
ATOM     24  C   UNL A   1      34.227  35.778  33.154  1.00  0.00     0.004 A 
ATOM     25  C   UNL A   1      33.734  35.441  31.896  1.00  0.00    -0.051 A 
ATOM     26  C   UNL A   1      32.451  36.038  31.401  1.00  0.00     0.044 C 
ENDBRANCH  12  20
ENDBRANCH   8  10
ENDBRANCH   7   8
ENDBRANCH   6   7
ENDBRANCH   5   6
ENDBRANCH   4   5
ENDBRANCH   3   4
ENDBRANCH   2   3
ENDBRANCH   1   2
BRANCH   1  27
ATOM     27  C   UNL A   1      41.959  28.464  27.266  1.00  0.00     0.188 C 
BRANCH  27  28
ATOM     28  C   UNL A   1      41.519  27.913  25.904  1.00  0.00     0.188 C 
BRANCH  28  29
ATOM     29  O   UNL A   1      40.877  26.646  26.037  1.00  0.00    -0.376 OA
BRANCH  29  30
ATOM     30  C   UNL A   1      41.644  25.483  25.771  1.00  0.00     0.202 C 
BRANCH  30  31
ATOM     31  C   UNL A   1      41.513  24.370  26.819  1.00  0.00     0.261 C 
BRANCH  31  32
ATOM     32  O   UNL A   1      42.741  23.758  27.247  1.00  0.00    -0.460 OA
BRANCH  32  33
ATOM     33  C   UNL A   1      43.683  23.481  26.319  1.00  0.00     0.338 C 
ATOM     34  O   UNL A   1      43.646  22.607  25.472  1.00  0.00    -0.246 OA
BRANCH  33  35
ATOM     35  C   UNL A   1      44.672  24.583  26.365  1.00  0.00     0.060 A 
ATOM     36  C   UNL A   1      45.129  25.035  27.609  1.00  0.00     0.016 A 
ATOM     37  C   UNL A   1      45.202  25.110  25.184  1.00  0.00     0.016 A 
ATOM     38  C   UNL A   1      46.128  26.010  27.675  1.00  0.00     0.010 A 
ATOM     39  C   UNL A   1      46.174  26.110  25.253  1.00  0.00     0.010 A 
ATOM     40  C   UNL A   1      46.634  26.573  26.497  1.00  0.00    -0.014 A 
BRANCH  40  41
ATOM     41  C   UNL A   1      47.507  27.769  26.553  1.00  0.00     0.031 A 
ATOM     42  C   UNL A   1      48.995  27.556  26.559  1.00  0.00     0.074 A 
ATOM     43  C   UNL A   1      46.997  29.013  26.612  1.00  0.00     0.049 A 
ATOM     44  N   UNL A   1      49.956  28.429  26.706  1.00  0.00    -0.248 NA
ATOM     45  C   UNL A   1      49.460  26.170  26.373  1.00  0.00     0.031 C 
ATOM     46  C   UNL A   1      45.577  29.354  26.558  1.00  0.00     0.029 A 
ATOM     47  N   UNL A   1      47.628  30.226  26.746  1.00  0.00    -0.354 N 
ATOM     48  C   UNL A   1      51.137  27.702  26.629  1.00  0.00     0.074 A 
ATOM     49  C   UNL A   1      50.775  26.313  26.446  1.00  0.00     0.031 C 
ATOM     50  C   UNL A   1      45.444  30.688  26.681  1.00  0.00     0.029 A 
ATOM     51  C   UNL A   1      46.764  31.290  26.863  1.00  0.00     0.049 A 
ATOM     52  H   UNL A   1      48.608  30.325  26.757  1.00  0.00     0.167 HD
ATOM     53  C   UNL A   1      52.412  28.150  26.703  1.00  0.00     0.031 A 
ATOM     54  C   UNL A   1      47.012  32.590  27.125  1.00  0.00     0.031 A 
ATOM     55  C   UNL A   1      52.772  29.525  26.916  1.00  0.00     0.049 A 
ATOM     56  C   UNL A   1      48.439  33.045  27.320  1.00  0.00     0.074 A 
ATOM     57  C   UNL A   1      54.036  30.077  27.014  1.00  0.00     0.029 A 
ATOM     58  N   UNL A   1      51.867  30.563  27.074  1.00  0.00    -0.354 N 
ATOM     59  N   UNL A   1      49.548  32.350  27.225  1.00  0.00    -0.248 NA
ATOM     60  C   UNL A   1      48.645  34.461  27.662  1.00  0.00     0.031 C 
ATOM     61  C   UNL A   1      53.895  31.440  27.289  1.00  0.00     0.029 A 
ATOM     62  C   UNL A   1      52.545  31.748  27.301  1.00  0.00     0.049 A 
ATOM     63  H   UNL A   1      50.887  30.471  27.032  1.00  0.00     0.167 HD
ATOM     64  C   UNL A   1      50.582  33.249  27.476  1.00  0.00     0.074 A 
ATOM     65  C   UNL A   1      49.968  34.541  27.702  1.00  0.00     0.031 C 
ATOM     66  C   UNL A   1      51.919  33.026  27.521  1.00  0.00     0.031 A 
BRANCH  53  67
ATOM     67  C   UNL A   1      53.515  27.136  26.580  1.00  0.00    -0.014 A 
ATOM     68  C   UNL A   1      53.957  26.410  27.700  1.00  0.00     0.010 A 
ATOM     69  C   UNL A   1      54.074  26.863  25.318  1.00  0.00     0.010 A 
ATOM     70  C   UNL A   1      54.951  25.438  27.562  1.00  0.00     0.020 A 
ATOM     71  C   UNL A   1      55.051  25.875  25.173  1.00  0.00     0.020 A 
ATOM     72  C   UNL A   1      55.489  25.173  26.299  1.00  0.00     0.054 A 
BRANCH  72  73
ATOM     73  S   UNL A   1      56.736  23.867  26.144  1.00  0.00     0.124 S 
ATOM     74  O   UNL A   1      57.043  23.910  24.716  1.00  0.00    -0.237 OA
ATOM     75  O   UNL A   1      57.800  24.336  27.029  1.00  0.00    -0.237 OA
ATOM     76  O   UNL A   1      56.039  22.665  26.594  1.00  0.00    -0.744 OA
ENDBRANCH  72  73
ENDBRANCH  53  67
BRANCH  54  77
ATOM     77  C   UNL A   1      45.888  33.557  27.284  1.00  0.00    -0.014 A 
ATOM     78  C   UNL A   1      45.455  34.347  26.203  1.00  0.00     0.010 A 
ATOM     79  C   UNL A   1      45.276  33.730  28.539  1.00  0.00     0.010 A 
ATOM     80  C   UNL A   1      44.458  35.311  26.382  1.00  0.00     0.020 A 
ATOM     81  C   UNL A   1      44.256  34.670  28.715  1.00  0.00     0.020 A 
ATOM     82  C   UNL A   1      43.866  35.466  27.638  1.00  0.00     0.054 A 
BRANCH  82  83
ATOM     83  S   UNL A   1      42.554  36.704  27.846  1.00  0.00     0.124 S 
ATOM     84  O   UNL A   1      41.419  35.879  28.245  1.00  0.00    -0.237 OA
ATOM     85  O   UNL A   1      43.103  37.574  28.883  1.00  0.00    -0.237 OA
ATOM     86  O   UNL A   1      42.453  37.316  26.523  1.00  0.00    -0.744 OA
ENDBRANCH  82  83
ENDBRANCH  54  77
BRANCH  66  87
ATOM     87  C   UNL A   1      52.815  34.203  27.800  1.00  0.00    -0.014 A 
ATOM     88  C   UNL A   1      53.228  35.063  26.767  1.00  0.00     0.010 A 
ATOM     89  C   UNL A   1      53.188  34.496  29.126  1.00  0.00     0.010 A 
ATOM     90  C   UNL A   1      54.020  36.179  27.051  1.00  0.00     0.020 A 
ATOM     91  C   UNL A   1      53.956  35.628  29.416  1.00  0.00     0.020 A 
ATOM     92  C   UNL A   1      54.376  36.456  28.374  1.00  0.00     0.054 A 
BRANCH  92  93
ATOM     93  S   UNL A   1      55.359  37.941  28.720  1.00  0.00     0.124 S 
ATOM     94  O   UNL A   1      54.734  38.442  29.941  1.00  0.00    -0.237 OA
ATOM     95  O   UNL A   1      56.707  37.402  28.879  1.00  0.00    -0.237 OA
ATOM     96  O   UNL A   1      55.162  38.771  27.534  1.00  0.00    -0.744 OA
ENDBRANCH  92  93
ENDBRANCH  66  87
ENDBRANCH  40  41
ENDBRANCH  33  35
ENDBRANCH  32  33
ENDBRANCH  31  32
ENDBRANCH  30  31
ENDBRANCH  29  30
ENDBRANCH  28  29
ENDBRANCH  27  28
ENDBRANCH   1  27
TORSDOF 27
ENDMDL
