MODEL 1
REMARK VINA RESULT:      -8.9      0.000      0.000
REMARK SMILES Cc1ccc(C(=O)OCCOCCOCCOCCOC(=O)c2ccc(-c3c4nc(c(-c5ccc(S(=O)(=O)[O-])cc5)c5ccc([nH]5)c(-c5ccc(S(=O)(=O)[O-])cc5)c5nc(c(-c6ccc(S(=O)(=O)[O-])cc6)c6ccc3[nH]6)C=C5)C=C4)cc2)c(Oc2cccc(F)c2C(N)=O)c1
REMARK SMILES IDX 14 1 13 2 12 3 11 4 10 5 9 6 8 7 6 8 7 9 5 10 1 11 2 12 3 13
REMARK SMILES IDX 95 14 4 15 83 16 84 17 85 18 86 19 91 20 87 21 89 22 88 23
REMARK SMILES IDX 90 24 92 25 93 26 94 27 15 30 16 31 17 32 18 33 19 34 20 35
REMARK SMILES IDX 21 36 22 37 23 38 24 39 82 40 25 41 81 42 26 43 27 44 28 45
REMARK SMILES IDX 75 46 29 47 80 48 74 49 76 50 30 51 79 52 73 53 72 54 31 56
REMARK SMILES IDX 61 57 42 58 60 59 43 60 46 61 59 62 77 63 44 64 45 65 58 67
REMARK SMILES IDX 78 68 47 69 32 70 33 71 41 72 34 73 40 74 35 75 36 76 37 77
REMARK SMILES IDX 38 78 39 79 62 80 63 81 71 82 64 83 70 84 65 85 66 86 67 87
REMARK SMILES IDX 68 88 69 89 48 90 49 91 57 92 50 93 56 94 51 95 52 96 53 97
REMARK SMILES IDX 54 98 55 99
REMARK H PARENT 93 28 93 29 76 55 46 66
REMARK Flexibility Score: inf
ROOT
ATOM      1  O   UNL A   1      37.384  29.447  29.747  1.00  0.00    -0.377 OA
ENDROOT
BRANCH   1   2
ATOM      2  C   UNL A   1      36.607  29.827  28.621  1.00  0.00     0.188 C 
BRANCH   2   3
ATOM      3  C   UNL A   1      35.744  31.099  28.666  1.00  0.00     0.188 C 
BRANCH   3   4
ATOM      4  O   UNL A   1      34.421  31.082  28.162  1.00  0.00    -0.376 OA
BRANCH   4   5
ATOM      5  C   UNL A   1      34.235  30.332  26.964  1.00  0.00     0.202 C 
BRANCH   5   6
ATOM      6  C   UNL A   1      32.949  29.537  26.837  1.00  0.00     0.261 C 
BRANCH   6   7
ATOM      7  O   UNL A   1      33.291  28.149  26.930  1.00  0.00    -0.460 OA
BRANCH   7   8
ATOM      8  C   UNL A   1      32.239  27.322  26.860  1.00  0.00     0.342 C 
ATOM      9  O   UNL A   1      31.116  27.490  27.283  1.00  0.00    -0.246 OA
BRANCH   8  10
ATOM     10  C   UNL A   1      32.501  26.400  25.752  1.00  0.00     0.102 A 
ATOM     11  C   UNL A   1      34.307  23.736  22.982  1.00  0.00     0.044 C 
ATOM     12  C   UNL A   1      33.583  24.629  23.939  1.00  0.00    -0.047 A 
ATOM     13  C   UNL A   1      33.524  24.268  25.283  1.00  0.00     0.004 A 
ATOM     14  C   UNL A   1      32.997  25.831  23.500  1.00  0.00     0.051 A 
ATOM     15  C   UNL A   1      33.022  25.173  26.194  1.00  0.00     0.020 A 
ATOM     16  C   UNL A   1      32.366  26.702  24.393  1.00  0.00     0.142 A 
BRANCH  16  17
ATOM     17  O   UNL A   1      31.626  27.804  24.024  1.00  0.00    -0.455 OA
BRANCH  17  18
ATOM     18  C   UNL A   1      30.260  27.717  23.832  1.00  0.00     0.143 A 
ATOM     19  C   UNL A   1      29.701  26.492  24.230  1.00  0.00     0.048 A 
ATOM     20  C   UNL A   1      29.424  28.682  23.242  1.00  0.00     0.117 A 
ATOM     21  C   UNL A   1      28.327  26.258  24.121  1.00  0.00     0.007 A 
ATOM     22  C   UNL A   1      28.048  28.440  23.156  1.00  0.00     0.139 A 
ATOM     23  C   UNL A   1      27.496  27.243  23.598  1.00  0.00     0.040 A 
ATOM     24  F   UNL A   1      27.214  29.345  22.619  1.00  0.00    -0.206 F 
BRANCH  20  25
ATOM     25  C   UNL A   1      29.864  29.973  22.684  1.00  0.00     0.255 C 
ATOM     26  N   UNL A   1      30.778  29.916  21.688  1.00  0.00    -0.365 N 
ATOM     27  O   UNL A   1      29.404  31.039  23.073  1.00  0.00    -0.269 OA
ATOM     28  H   UNL A   1      31.132  29.045  21.393  1.00  0.00     0.159 HD
ATOM     29  H   UNL A   1      31.089  30.745  21.257  1.00  0.00     0.159 HD
ENDBRANCH  20  25
ENDBRANCH  17  18
ENDBRANCH  16  17
ENDBRANCH   8  10
ENDBRANCH   7   8
ENDBRANCH   6   7
ENDBRANCH   5   6
ENDBRANCH   4   5
ENDBRANCH   3   4
ENDBRANCH   2   3
ENDBRANCH   1   2
BRANCH   1  30
ATOM     30  C   UNL A   1      36.763  29.389  31.040  1.00  0.00     0.188 C 
BRANCH  30  31
ATOM     31  C   UNL A   1      37.637  29.303  32.278  1.00  0.00     0.188 C 
BRANCH  31  32
ATOM     32  O   UNL A   1      37.373  30.479  33.043  1.00  0.00    -0.376 OA
BRANCH  32  33
ATOM     33  C   UNL A   1      36.267  31.252  32.623  1.00  0.00     0.202 C 
BRANCH  33  34
ATOM     34  C   UNL A   1      36.451  32.756  32.833  1.00  0.00     0.261 C 
BRANCH  34  35
ATOM     35  O   UNL A   1      37.305  33.335  31.817  1.00  0.00    -0.460 OA
BRANCH  35  36
ATOM     36  C   UNL A   1      38.511  33.843  32.214  1.00  0.00     0.338 C 
ATOM     37  O   UNL A   1      38.614  34.811  32.948  1.00  0.00    -0.246 OA
BRANCH  36  38
ATOM     38  C   UNL A   1      39.646  32.945  31.862  1.00  0.00     0.060 A 
ATOM     39  C   UNL A   1      40.893  33.015  32.502  1.00  0.00     0.016 A 
ATOM     40  C   UNL A   1      39.479  32.035  30.834  1.00  0.00     0.016 A 
ATOM     41  C   UNL A   1      42.006  32.310  31.995  1.00  0.00     0.010 A 
ATOM     42  C   UNL A   1      40.583  31.394  30.307  1.00  0.00     0.010 A 
ATOM     43  C   UNL A   1      41.874  31.544  30.840  1.00  0.00    -0.014 A 
BRANCH  43  44
ATOM     44  C   UNL A   1      42.973  30.962  30.029  1.00  0.00     0.031 A 
ATOM     45  C   UNL A   1      43.244  29.478  30.127  1.00  0.00     0.074 A 
ATOM     46  C   UNL A   1      43.417  31.645  28.936  1.00  0.00     0.049 A 
ATOM     47  N   UNL A   1      44.030  28.811  29.350  1.00  0.00    -0.248 NA
ATOM     48  C   UNL A   1      42.578  28.586  31.080  1.00  0.00     0.031 C 
ATOM     49  C   UNL A   1      43.986  31.067  27.717  1.00  0.00     0.029 A 
ATOM     50  N   UNL A   1      43.386  32.985  28.592  1.00  0.00    -0.354 N 
ATOM     51  C   UNL A   1      43.675  27.478  29.396  1.00  0.00     0.074 A 
ATOM     52  C   UNL A   1      42.836  27.377  30.564  1.00  0.00     0.031 C 
ATOM     53  C   UNL A   1      44.349  32.015  26.841  1.00  0.00     0.029 A 
ATOM     54  C   UNL A   1      44.317  33.247  27.583  1.00  0.00     0.049 A 
ATOM     55  H   UNL A   1      42.793  33.657  29.000  1.00  0.00     0.167 HD
ATOM     56  C   UNL A   1      44.012  26.665  28.346  1.00  0.00     0.031 A 
ATOM     57  C   UNL A   1      45.453  33.971  27.823  1.00  0.00     0.031 A 
ATOM     58  C   UNL A   1      44.941  27.340  27.410  1.00  0.00     0.049 A 
ATOM     59  C   UNL A   1      46.667  33.038  27.739  1.00  0.00     0.074 A 
ATOM     60  C   UNL A   1      44.941  27.564  26.045  1.00  0.00     0.029 A 
ATOM     61  N   UNL A   1      46.009  28.101  27.908  1.00  0.00    -0.354 N 
ATOM     62  N   UNL A   1      46.631  31.768  28.085  1.00  0.00    -0.248 NA
ATOM     63  C   UNL A   1      47.891  33.364  27.001  1.00  0.00     0.031 C 
ATOM     64  C   UNL A   1      45.862  28.617  25.768  1.00  0.00     0.029 A 
ATOM     65  C   UNL A   1      46.508  28.962  26.948  1.00  0.00     0.049 A 
ATOM     66  H   UNL A   1      46.359  28.031  28.826  1.00  0.00     0.167 HD
ATOM     67  C   UNL A   1      47.642  31.095  27.444  1.00  0.00     0.074 A 
ATOM     68  C   UNL A   1      48.461  32.151  26.861  1.00  0.00     0.031 C 
ATOM     69  C   UNL A   1      47.710  29.750  27.193  1.00  0.00     0.031 A 
BRANCH  56  70
ATOM     70  C   UNL A   1      43.337  25.320  28.014  1.00  0.00    -0.014 A 
ATOM     71  C   UNL A   1      43.940  24.109  28.429  1.00  0.00     0.010 A 
ATOM     72  C   UNL A   1      42.170  25.158  27.236  1.00  0.00     0.010 A 
ATOM     73  C   UNL A   1      43.439  22.838  28.079  1.00  0.00     0.020 A 
ATOM     74  C   UNL A   1      41.633  23.892  26.906  1.00  0.00     0.020 A 
ATOM     75  C   UNL A   1      42.279  22.735  27.322  1.00  0.00     0.054 A 
BRANCH  75  76
ATOM     76  S   UNL A   1      41.618  21.089  26.927  1.00  0.00     0.124 S 
ATOM     77  O   UNL A   1      42.369  20.220  27.830  1.00  0.00    -0.237 OA
ATOM     78  O   UNL A   1      40.197  21.233  27.231  1.00  0.00    -0.237 OA
ATOM     79  O   UNL A   1      41.929  20.921  25.508  1.00  0.00    -0.744 OA
ENDBRANCH  75  76
ENDBRANCH  56  70
BRANCH  57  80
ATOM     80  C   UNL A   1      45.141  35.177  28.659  1.00  0.00    -0.014 A 
ATOM     81  C   UNL A   1      46.019  36.270  28.429  1.00  0.00     0.010 A 
ATOM     82  C   UNL A   1      43.813  35.469  29.033  1.00  0.00     0.010 A 
ATOM     83  C   UNL A   1      45.530  37.577  28.310  1.00  0.00     0.020 A 
ATOM     84  C   UNL A   1      43.326  36.791  28.939  1.00  0.00     0.020 A 
ATOM     85  C   UNL A   1      44.171  37.818  28.500  1.00  0.00     0.054 A 
BRANCH  85  86
ATOM     86  S   UNL A   1      43.508  39.415  27.921  1.00  0.00     0.124 S 
ATOM     87  O   UNL A   1      44.566  40.348  28.288  1.00  0.00    -0.237 OA
ATOM     88  O   UNL A   1      43.345  39.170  26.488  1.00  0.00    -0.237 OA
ATOM     89  O   UNL A   1      42.262  39.554  28.667  1.00  0.00    -0.744 OA
ENDBRANCH  85  86
ENDBRANCH  57  80
BRANCH  69  90
ATOM     90  C   UNL A   1      49.019  29.009  27.063  1.00  0.00    -0.014 A 
ATOM     91  C   UNL A   1      50.005  29.056  28.056  1.00  0.00     0.010 A 
ATOM     92  C   UNL A   1      49.169  28.038  26.039  1.00  0.00     0.010 A 
ATOM     93  C   UNL A   1      51.103  28.197  28.014  1.00  0.00     0.020 A 
ATOM     94  C   UNL A   1      50.237  27.146  26.014  1.00  0.00     0.020 A 
ATOM     95  C   UNL A   1      51.207  27.242  27.000  1.00  0.00     0.054 A 
BRANCH  95  96
ATOM     96  S   UNL A   1      52.591  26.086  27.031  1.00  0.00     0.124 S 
ATOM     97  O   UNL A   1      51.974  24.872  26.501  1.00  0.00    -0.237 OA
ATOM     98  O   UNL A   1      53.566  26.731  26.153  1.00  0.00    -0.237 OA
ATOM     99  O   UNL A   1      52.970  26.032  28.440  1.00  0.00    -0.744 OA
ENDBRANCH  95  96
ENDBRANCH  69  90
ENDBRANCH  43  44
ENDBRANCH  36  38
ENDBRANCH  35  36
ENDBRANCH  34  35
ENDBRANCH  33  34
ENDBRANCH  32  33
ENDBRANCH  31  32
ENDBRANCH  30  31
ENDBRANCH   1  30
TORSDOF 26
ENDMDL
MODEL 2
REMARK VINA RESULT:      -8.7      3.510      5.391
REMARK SMILES Cc1ccc(C(=O)OCCOCCOCCOCCOC(=O)c2ccc(-c3c4nc(c(-c5ccc(S(=O)(=O)[O-])cc5)c5ccc([nH]5)c(-c5ccc(S(=O)(=O)[O-])cc5)c5nc(c(-c6ccc(S(=O)(=O)[O-])cc6)c6ccc3[nH]6)C=C5)C=C4)cc2)c(Oc2cccc(F)c2C(N)=O)c1
REMARK SMILES IDX 14 1 13 2 12 3 11 4 10 5 9 6 8 7 6 8 7 9 5 10 1 11 2 12 3 13
REMARK SMILES IDX 95 14 4 15 83 16 84 17 85 18 86 19 91 20 87 21 89 22 88 23
REMARK SMILES IDX 90 24 92 25 93 26 94 27 15 30 16 31 17 32 18 33 19 34 20 35
REMARK SMILES IDX 21 36 22 37 23 38 24 39 82 40 25 41 81 42 26 43 27 44 28 45
REMARK SMILES IDX 75 46 29 47 80 48 74 49 76 50 30 51 79 52 73 53 72 54 31 56
REMARK SMILES IDX 61 57 42 58 60 59 43 60 46 61 59 62 77 63 44 64 45 65 58 67
REMARK SMILES IDX 78 68 47 69 32 70 33 71 41 72 34 73 40 74 35 75 36 76 37 77
REMARK SMILES IDX 38 78 39 79 62 80 63 81 71 82 64 83 70 84 65 85 66 86 67 87
REMARK SMILES IDX 68 88 69 89 48 90 49 91 57 92 50 93 56 94 51 95 52 96 53 97
REMARK SMILES IDX 54 98 55 99
REMARK H PARENT 93 28 93 29 76 55 46 66
REMARK Flexibility Score: inf
ROOT
ATOM      1  O   UNL A   1      36.471  29.727  31.569  1.00  0.00    -0.377 OA
ENDROOT
BRANCH   1   2
ATOM      2  C   UNL A   1      36.726  29.311  30.235  1.00  0.00     0.188 C 
BRANCH   2   3
ATOM      3  C   UNL A   1      36.201  30.137  29.050  1.00  0.00     0.188 C 
BRANCH   3   4
ATOM      4  O   UNL A   1      34.868  29.975  28.602  1.00  0.00    -0.376 OA
BRANCH   4   5
ATOM      5  C   UNL A   1      34.701  29.928  27.187  1.00  0.00     0.202 C 
BRANCH   5   6
ATOM      6  C   UNL A   1      34.413  28.573  26.568  1.00  0.00     0.261 C 
BRANCH   6   7
ATOM      7  O   UNL A   1      33.284  28.729  25.700  1.00  0.00    -0.460 OA
BRANCH   7   8
ATOM      8  C   UNL A   1      33.362  28.011  24.571  1.00  0.00     0.342 C 
ATOM      9  O   UNL A   1      34.240  27.258  24.213  1.00  0.00    -0.246 OA
BRANCH   8  10
ATOM     10  C   UNL A   1      31.994  27.877  24.063  1.00  0.00     0.102 A 
ATOM     11  C   UNL A   1      27.947  28.553  22.969  1.00  0.00     0.044 C 
ATOM     12  C   UNL A   1      29.378  28.248  23.280  1.00  0.00    -0.047 A 
ATOM     13  C   UNL A   1      30.374  29.029  22.698  1.00  0.00     0.004 A 
ATOM     14  C   UNL A   1      29.717  27.210  24.168  1.00  0.00     0.051 A 
ATOM     15  C   UNL A   1      31.677  28.872  23.123  1.00  0.00     0.020 A 
ATOM     16  C   UNL A   1      31.047  26.950  24.509  1.00  0.00     0.142 A 
BRANCH  16  17
ATOM     17  O   UNL A   1      31.473  25.856  25.231  1.00  0.00    -0.455 OA
BRANCH  17  18
ATOM     18  C   UNL A   1      31.759  24.656  24.608  1.00  0.00     0.143 A 
ATOM     19  C   UNL A   1      30.811  24.266  23.648  1.00  0.00     0.048 A 
ATOM     20  C   UNL A   1      32.840  23.796  24.880  1.00  0.00     0.117 A 
ATOM     21  C   UNL A   1      30.972  23.087  22.914  1.00  0.00     0.007 A 
ATOM     22  C   UNL A   1      32.997  22.628  24.124  1.00  0.00     0.139 A 
ATOM     23  C   UNL A   1      32.078  22.275  23.142  1.00  0.00     0.040 A 
ATOM     24  F   UNL A   1      34.025  21.793  24.339  1.00  0.00    -0.206 F 
BRANCH  20  25
ATOM     25  C   UNL A   1      33.863  24.007  25.918  1.00  0.00     0.255 C 
ATOM     26  N   UNL A   1      34.875  24.846  25.602  1.00  0.00    -0.365 N 
ATOM     27  O   UNL A   1      33.785  23.482  27.022  1.00  0.00    -0.269 OA
ATOM     28  H   UNL A   1      34.915  25.255  24.708  1.00  0.00     0.159 HD
ATOM     29  H   UNL A   1      35.574  25.047  26.267  1.00  0.00     0.159 HD
ENDBRANCH  20  25
ENDBRANCH  17  18
ENDBRANCH  16  17
ENDBRANCH   8  10
ENDBRANCH   7   8
ENDBRANCH   6   7
ENDBRANCH   5   6
ENDBRANCH   4   5
ENDBRANCH   3   4
ENDBRANCH   2   3
ENDBRANCH   1   2
BRANCH   1  30
ATOM     30  C   UNL A   1      37.574  29.900  32.472  1.00  0.00     0.188 C 
BRANCH  30  31
ATOM     31  C   UNL A   1      38.210  31.272  32.609  1.00  0.00     0.188 C 
BRANCH  31  32
ATOM     32  O   UNL A   1      37.664  31.856  33.792  1.00  0.00    -0.376 OA
BRANCH  32  33
ATOM     33  C   UNL A   1      36.944  33.058  33.609  1.00  0.00     0.202 C 
BRANCH  33  34
ATOM     34  C   UNL A   1      37.291  34.145  34.628  1.00  0.00     0.261 C 
BRANCH  34  35
ATOM     35  O   UNL A   1      38.674  34.057  35.050  1.00  0.00    -0.460 OA
BRANCH  35  36
ATOM     36  C   UNL A   1      39.475  35.144  34.837  1.00  0.00     0.338 C 
ATOM     37  O   UNL A   1      39.376  36.178  35.478  1.00  0.00    -0.246 OA
BRANCH  36  38
ATOM     38  C   UNL A   1      40.617  34.837  33.932  1.00  0.00     0.060 A 
ATOM     39  C   UNL A   1      41.908  35.345  34.143  1.00  0.00     0.016 A 
ATOM     40  C   UNL A   1      40.386  34.056  32.815  1.00  0.00     0.016 A 
ATOM     41  C   UNL A   1      42.905  35.219  33.152  1.00  0.00     0.010 A 
ATOM     42  C   UNL A   1      41.346  33.987  31.823  1.00  0.00     0.010 A 
ATOM     43  C   UNL A   1      42.607  34.596  31.943  1.00  0.00    -0.014 A 
BRANCH  43  44
ATOM     44  C   UNL A   1      43.431  34.609  30.709  1.00  0.00     0.031 A 
ATOM     45  C   UNL A   1      44.159  33.348  30.305  1.00  0.00     0.074 A 
ATOM     46  C   UNL A   1      43.189  35.563  29.766  1.00  0.00     0.049 A 
ATOM     47  N   UNL A   1      44.751  33.158  29.174  1.00  0.00    -0.248 NA
ATOM     48  C   UNL A   1      44.218  32.137  31.131  1.00  0.00     0.031 C 
ATOM     49  C   UNL A   1      43.395  35.437  28.321  1.00  0.00     0.029 A 
ATOM     50  N   UNL A   1      42.620  36.822  29.832  1.00  0.00    -0.354 N 
ATOM     51  C   UNL A   1      44.868  31.800  28.955  1.00  0.00     0.074 A 
ATOM     52  C   UNL A   1      44.616  31.212  30.247  1.00  0.00     0.031 C 
ATOM     53  C   UNL A   1      43.085  36.569  27.675  1.00  0.00     0.029 A 
ATOM     54  C   UNL A   1      42.963  37.569  28.701  1.00  0.00     0.049 A 
ATOM     55  H   UNL A   1      42.053  37.146  30.569  1.00  0.00     0.167 HD
ATOM     56  C   UNL A   1      45.008  31.343  27.671  1.00  0.00     0.031 A 
ATOM     57  C   UNL A   1      43.823  38.631  28.775  1.00  0.00     0.031 A 
ATOM     58  C   UNL A   1      45.251  32.455  26.722  1.00  0.00     0.049 A 
ATOM     59  C   UNL A   1      45.135  38.262  28.071  1.00  0.00     0.074 A 
ATOM     60  C   UNL A   1      44.659  32.861  25.539  1.00  0.00     0.029 A 
ATOM     61  N   UNL A   1      46.139  33.486  27.061  1.00  0.00    -0.354 N 
ATOM     62  N   UNL A   1      45.625  37.040  28.046  1.00  0.00    -0.248 NA
ATOM     63  C   UNL A   1      45.818  39.140  27.116  1.00  0.00     0.031 C 
ATOM     64  C   UNL A   1      45.032  34.216  25.297  1.00  0.00     0.029 A 
ATOM     65  C   UNL A   1      45.942  34.605  26.272  1.00  0.00     0.049 A 
ATOM     66  H   UNL A   1      46.818  33.422  27.772  1.00  0.00     0.167 HD
ATOM     67  C   UNL A   1      46.466  36.911  26.968  1.00  0.00     0.074 A 
ATOM     68  C   UNL A   1      46.632  38.275  26.479  1.00  0.00     0.031 C 
ATOM     69  C   UNL A   1      46.842  35.749  26.347  1.00  0.00     0.031 A 
BRANCH  56  70
ATOM     70  C   UNL A   1      44.705  29.907  27.202  1.00  0.00    -0.014 A 
ATOM     71  C   UNL A   1      45.727  29.132  26.604  1.00  0.00     0.010 A 
ATOM     72  C   UNL A   1      43.438  29.285  27.234  1.00  0.00     0.010 A 
ATOM     73  C   UNL A   1      45.504  27.850  26.060  1.00  0.00     0.020 A 
ATOM     74  C   UNL A   1      43.205  27.986  26.726  1.00  0.00     0.020 A 
ATOM     75  C   UNL A   1      44.241  27.277  26.130  1.00  0.00     0.054 A 
BRANCH  75  76
ATOM     76  S   UNL A   1      43.986  25.603  25.473  1.00  0.00     0.124 S 
ATOM     77  O   UNL A   1      42.767  25.755  24.681  1.00  0.00    -0.237 OA
ATOM     78  O   UNL A   1      45.207  25.369  24.708  1.00  0.00    -0.237 OA
ATOM     79  O   UNL A   1      43.844  24.777  26.671  1.00  0.00    -0.744 OA
ENDBRANCH  75  76
ENDBRANCH  56  70
BRANCH  57  80
ATOM     80  C   UNL A   1      43.502  39.486  29.965  1.00  0.00    -0.014 A 
ATOM     81  C   UNL A   1      44.590  39.634  30.867  1.00  0.00     0.010 A 
ATOM     82  C   UNL A   1      42.587  40.554  29.858  1.00  0.00     0.010 A 
ATOM     83  C   UNL A   1      44.901  40.881  31.424  1.00  0.00     0.020 A 
ATOM     84  C   UNL A   1      42.888  41.804  30.442  1.00  0.00     0.020 A 
ATOM     85  C   UNL A   1      44.083  41.975  31.152  1.00  0.00     0.054 A 
BRANCH  85  86
ATOM     86  S   UNL A   1      44.741  43.635  31.522  1.00  0.00     0.124 S 
ATOM     87  O   UNL A   1      46.116  43.350  31.911  1.00  0.00    -0.237 OA
ATOM     88  O   UNL A   1      44.571  44.318  30.238  1.00  0.00    -0.237 OA
ATOM     89  O   UNL A   1      43.872  44.113  32.591  1.00  0.00    -0.744 OA
ENDBRANCH  85  86
ENDBRANCH  57  80
BRANCH  69  90
ATOM     90  C   UNL A   1      48.159  35.598  25.626  1.00  0.00    -0.014 A 
ATOM     91  C   UNL A   1      48.796  36.676  25.000  1.00  0.00     0.010 A 
ATOM     92  C   UNL A   1      48.908  34.403  25.791  1.00  0.00     0.010 A 
ATOM     93  C   UNL A   1      50.106  36.560  24.534  1.00  0.00     0.020 A 
ATOM     94  C   UNL A   1      50.230  34.293  25.370  1.00  0.00     0.020 A 
ATOM     95  C   UNL A   1      50.816  35.374  24.730  1.00  0.00     0.054 A 
BRANCH  95  96
ATOM     96  S   UNL A   1      52.537  35.292  24.198  1.00  0.00     0.124 S 
ATOM     97  O   UNL A   1      52.571  34.008  23.502  1.00  0.00    -0.237 OA
ATOM     98  O   UNL A   1      52.666  36.473  23.347  1.00  0.00    -0.237 OA
ATOM     99  O   UNL A   1      53.292  35.346  25.448  1.00  0.00    -0.744 OA
ENDBRANCH  95  96
ENDBRANCH  69  90
ENDBRANCH  43  44
ENDBRANCH  36  38
ENDBRANCH  35  36
ENDBRANCH  34  35
ENDBRANCH  33  34
ENDBRANCH  32  33
ENDBRANCH  31  32
ENDBRANCH  30  31
ENDBRANCH   1  30
TORSDOF 26
ENDMDL
MODEL 3
REMARK VINA RESULT:      -8.5      5.072      8.424
REMARK SMILES Cc1ccc(C(=O)OCCOCCOCCOCCOC(=O)c2ccc(-c3c4nc(c(-c5ccc(S(=O)(=O)[O-])cc5)c5ccc([nH]5)c(-c5ccc(S(=O)(=O)[O-])cc5)c5nc(c(-c6ccc(S(=O)(=O)[O-])cc6)c6ccc3[nH]6)C=C5)C=C4)cc2)c(Oc2cccc(F)c2C(N)=O)c1
REMARK SMILES IDX 14 1 13 2 12 3 11 4 10 5 9 6 8 7 6 8 7 9 5 10 1 11 2 12 3 13
REMARK SMILES IDX 95 14 4 15 83 16 84 17 85 18 86 19 91 20 87 21 89 22 88 23
REMARK SMILES IDX 90 24 92 25 93 26 94 27 15 30 16 31 17 32 18 33 19 34 20 35
REMARK SMILES IDX 21 36 22 37 23 38 24 39 82 40 25 41 81 42 26 43 27 44 28 45
REMARK SMILES IDX 75 46 29 47 80 48 74 49 76 50 30 51 79 52 73 53 72 54 31 56
REMARK SMILES IDX 61 57 42 58 60 59 43 60 46 61 59 62 77 63 44 64 45 65 58 67
REMARK SMILES IDX 78 68 47 69 32 70 33 71 41 72 34 73 40 74 35 75 36 76 37 77
REMARK SMILES IDX 38 78 39 79 62 80 63 81 71 82 64 83 70 84 65 85 66 86 67 87
REMARK SMILES IDX 68 88 69 89 48 90 49 91 57 92 50 93 56 94 51 95 52 96 53 97
REMARK SMILES IDX 54 98 55 99
REMARK H PARENT 93 28 93 29 76 55 46 66
REMARK Flexibility Score: inf
ROOT
ATOM      1  O   UNL A   1      35.331  31.372  27.821  1.00  0.00    -0.377 OA
ENDROOT
BRANCH   1   2
ATOM      2  C   UNL A   1      33.954  31.080  27.637  1.00  0.00     0.188 C 
BRANCH   2   3
ATOM      3  C   UNL A   1      33.522  29.777  26.946  1.00  0.00     0.188 C 
BRANCH   3   4
ATOM      4  O   UNL A   1      32.222  29.257  27.152  1.00  0.00    -0.376 OA
BRANCH   4   5
ATOM      5  C   UNL A   1      32.166  27.875  27.499  1.00  0.00     0.202 C 
BRANCH   5   6
ATOM      6  C   UNL A   1      32.155  26.874  26.358  1.00  0.00     0.261 C 
BRANCH   6   7
ATOM      7  O   UNL A   1      31.675  25.631  26.881  1.00  0.00    -0.460 OA
BRANCH   7   8
ATOM      8  C   UNL A   1      30.529  25.212  26.325  1.00  0.00     0.342 C 
ATOM      9  O   UNL A   1      29.515  25.842  26.119  1.00  0.00    -0.246 OA
BRANCH   8  10
ATOM     10  C   UNL A   1      30.854  24.019  25.540  1.00  0.00     0.102 A 
ATOM     11  C   UNL A   1      32.798  20.682  23.775  1.00  0.00     0.044 C 
ATOM     12  C   UNL A   1      32.026  21.809  24.383  1.00  0.00    -0.047 A 
ATOM     13  C   UNL A   1      31.844  21.832  25.764  1.00  0.00     0.004 A 
ATOM     14  C   UNL A   1      31.517  22.848  23.582  1.00  0.00     0.051 A 
ATOM     15  C   UNL A   1      31.297  22.957  26.345  1.00  0.00     0.020 A 
ATOM     16  C   UNL A   1      30.841  23.936  24.143  1.00  0.00     0.142 A 
BRANCH  16  17
ATOM     17  O   UNL A   1      30.169  24.900  23.423  1.00  0.00    -0.455 OA
BRANCH  17  18
ATOM     18  C   UNL A   1      30.733  26.139  23.188  1.00  0.00     0.143 A 
ATOM     19  C   UNL A   1      32.130  26.117  23.043  1.00  0.00     0.048 A 
ATOM     20  C   UNL A   1      30.069  27.379  23.145  1.00  0.00     0.117 A 
ATOM     21  C   UNL A   1      32.846  27.288  22.777  1.00  0.00     0.007 A 
ATOM     22  C   UNL A   1      30.797  28.540  22.861  1.00  0.00     0.139 A 
ATOM     23  C   UNL A   1      32.173  28.500  22.669  1.00  0.00     0.040 A 
ATOM     24  F   UNL A   1      30.196  29.738  22.789  1.00  0.00    -0.206 F 
BRANCH  20  25
ATOM     25  C   UNL A   1      28.629  27.588  23.376  1.00  0.00     0.255 C 
ATOM     26  N   UNL A   1      27.956  26.560  23.941  1.00  0.00    -0.365 N 
ATOM     27  O   UNL A   1      28.076  28.647  23.106  1.00  0.00    -0.269 OA
ATOM     28  H   UNL A   1      28.424  25.719  24.148  1.00  0.00     0.159 HD
ATOM     29  H   UNL A   1      26.996  26.653  24.144  1.00  0.00     0.159 HD
ENDBRANCH  20  25
ENDBRANCH  17  18
ENDBRANCH  16  17
ENDBRANCH   8  10
ENDBRANCH   7   8
ENDBRANCH   6   7
ENDBRANCH   5   6
ENDBRANCH   4   5
ENDBRANCH   3   4
ENDBRANCH   2   3
ENDBRANCH   1   2
BRANCH   1  30
ATOM     30  C   UNL A   1      36.293  30.313  27.708  1.00  0.00     0.188 C 
BRANCH  30  31
ATOM     31  C   UNL A   1      36.667  29.517  28.945  1.00  0.00     0.188 C 
BRANCH  31  32
ATOM     32  O   UNL A   1      37.735  28.651  28.564  1.00  0.00    -0.376 OA
BRANCH  32  33
ATOM     33  C   UNL A   1      38.781  29.251  27.826  1.00  0.00     0.202 C 
BRANCH  33  34
ATOM     34  C   UNL A   1      40.175  28.753  28.216  1.00  0.00     0.261 C 
BRANCH  34  35
ATOM     35  O   UNL A   1      40.472  27.473  27.607  1.00  0.00    -0.460 OA
BRANCH  35  36
ATOM     36  C   UNL A   1      41.389  27.450  26.593  1.00  0.00     0.338 C 
ATOM     37  O   UNL A   1      41.209  28.003  25.521  1.00  0.00    -0.246 OA
BRANCH  36  38
ATOM     38  C   UNL A   1      42.704  26.903  27.033  1.00  0.00     0.060 A 
ATOM     39  C   UNL A   1      42.824  25.692  27.731  1.00  0.00     0.016 A 
ATOM     40  C   UNL A   1      43.846  27.640  26.782  1.00  0.00     0.016 A 
ATOM     41  C   UNL A   1      44.049  25.318  28.324  1.00  0.00     0.010 A 
ATOM     42  C   UNL A   1      45.027  27.300  27.414  1.00  0.00     0.010 A 
ATOM     43  C   UNL A   1      45.151  26.163  28.230  1.00  0.00    -0.014 A 
BRANCH  43  44
ATOM     44  C   UNL A   1      46.416  26.064  29.001  1.00  0.00     0.031 A 
ATOM     45  C   UNL A   1      47.646  25.516  28.316  1.00  0.00     0.074 A 
ATOM     46  C   UNL A   1      46.568  26.830  30.118  1.00  0.00     0.049 A 
ATOM     47  N   UNL A   1      48.844  25.548  28.796  1.00  0.00    -0.248 NA
ATOM     48  C   UNL A   1      47.643  24.942  26.967  1.00  0.00     0.031 C 
ATOM     49  C   UNL A   1      47.825  27.357  30.653  1.00  0.00     0.029 A 
ATOM     50  N   UNL A   1      45.660  27.408  30.988  1.00  0.00    -0.354 N 
ATOM     51  C   UNL A   1      49.744  25.427  27.756  1.00  0.00     0.074 A 
ATOM     52  C   UNL A   1      48.946  24.949  26.655  1.00  0.00     0.031 C 
ATOM     53  C   UNL A   1      47.632  28.052  31.783  1.00  0.00     0.029 A 
ATOM     54  C   UNL A   1      46.288  27.742  32.191  1.00  0.00     0.049 A 
ATOM     55  H   UNL A   1      44.708  27.563  30.789  1.00  0.00     0.167 HD
ATOM     56  C   UNL A   1      51.019  25.899  27.923  1.00  0.00     0.031 A 
ATOM     57  C   UNL A   1      46.028  27.064  33.351  1.00  0.00     0.031 A 
ATOM     58  C   UNL A   1      51.284  26.264  29.334  1.00  0.00     0.049 A 
ATOM     59  C   UNL A   1      47.266  26.245  33.739  1.00  0.00     0.074 A 
ATOM     60  C   UNL A   1      51.762  27.400  29.963  1.00  0.00     0.029 A 
ATOM     61  N   UNL A   1      50.846  25.426  30.370  1.00  0.00    -0.354 N 
ATOM     62  N   UNL A   1      48.092  25.718  32.859  1.00  0.00    -0.248 NA
ATOM     63  C   UNL A   1      47.824  26.211  35.094  1.00  0.00     0.031 C 
ATOM     64  C   UNL A   1      51.409  27.325  31.343  1.00  0.00     0.029 A 
ATOM     65  C   UNL A   1      50.813  26.093  31.581  1.00  0.00     0.049 A 
ATOM     66  H   UNL A   1      50.592  24.482  30.250  1.00  0.00     0.167 HD
ATOM     67  C   UNL A   1      49.314  25.514  33.451  1.00  0.00     0.074 A 
ATOM     68  C   UNL A   1      49.067  25.741  34.870  1.00  0.00     0.031 C 
ATOM     69  C   UNL A   1      50.525  25.387  32.824  1.00  0.00     0.031 A 
BRANCH  56  70
ATOM     70  C   UNL A   1      51.988  26.257  26.780  1.00  0.00    -0.014 A 
ATOM     71  C   UNL A   1      51.485  26.812  25.579  1.00  0.00     0.010 A 
ATOM     72  C   UNL A   1      53.378  26.004  26.774  1.00  0.00     0.010 A 
ATOM     73  C   UNL A   1      52.293  27.072  24.452  1.00  0.00     0.020 A 
ATOM     74  C   UNL A   1      54.208  26.293  25.666  1.00  0.00     0.020 A 
ATOM     75  C   UNL A   1      53.657  26.817  24.503  1.00  0.00     0.054 A 
BRANCH  75  76
ATOM     76  S   UNL A   1      54.690  27.210  23.061  1.00  0.00     0.124 S 
ATOM     77  O   UNL A   1      54.522  28.656  22.935  1.00  0.00    -0.237 OA
ATOM     78  O   UNL A   1      56.015  26.767  23.486  1.00  0.00    -0.237 OA
ATOM     79  O   UNL A   1      54.095  26.423  21.982  1.00  0.00    -0.744 OA
ENDBRANCH  75  76
ENDBRANCH  56  70
BRANCH  57  80
ATOM     80  C   UNL A   1      44.555  26.832  33.506  1.00  0.00    -0.014 A 
ATOM     81  C   UNL A   1      44.232  25.541  34.003  1.00  0.00     0.010 A 
ATOM     82  C   UNL A   1      43.689  27.896  33.832  1.00  0.00     0.010 A 
ATOM     83  C   UNL A   1      43.257  25.371  34.994  1.00  0.00     0.020 A 
ATOM     84  C   UNL A   1      42.688  27.720  34.813  1.00  0.00     0.020 A 
ATOM     85  C   UNL A   1      42.537  26.477  35.441  1.00  0.00     0.054 A 
BRANCH  85  86
ATOM     86  S   UNL A   1      41.609  26.306  37.002  1.00  0.00     0.124 S 
ATOM     87  O   UNL A   1      42.673  26.210  37.993  1.00  0.00    -0.237 OA
ATOM     88  O   UNL A   1      40.829  27.545  37.023  1.00  0.00    -0.237 OA
ATOM     89  O   UNL A   1      40.828  25.091  36.799  1.00  0.00    -0.744 OA
ENDBRANCH  85  86
ENDBRANCH  57  80
BRANCH  69  90
ATOM     90  C   UNL A   1      51.668  24.592  33.408  1.00  0.00    -0.014 A 
ATOM     91  C   UNL A   1      52.416  23.689  32.643  1.00  0.00     0.010 A 
ATOM     92  C   UNL A   1      52.171  24.938  34.689  1.00  0.00     0.010 A 
ATOM     93  C   UNL A   1      53.595  23.135  33.143  1.00  0.00     0.020 A 
ATOM     94  C   UNL A   1      53.369  24.424  35.178  1.00  0.00     0.020 A 
ATOM     95  C   UNL A   1      54.068  23.512  34.402  1.00  0.00     0.054 A 
BRANCH  95  96
ATOM     96  S   UNL A   1      55.642  22.847  34.976  1.00  0.00     0.124 S 
ATOM     97  O   UNL A   1      55.257  21.505  35.406  1.00  0.00    -0.237 OA
ATOM     98  O   UNL A   1      56.473  22.909  33.775  1.00  0.00    -0.237 OA
ATOM     99  O   UNL A   1      56.037  23.758  36.047  1.00  0.00    -0.744 OA
ENDBRANCH  95  96
ENDBRANCH  69  90
ENDBRANCH  43  44
ENDBRANCH  36  38
ENDBRANCH  35  36
ENDBRANCH  34  35
ENDBRANCH  33  34
ENDBRANCH  32  33
ENDBRANCH  31  32
ENDBRANCH  30  31
ENDBRANCH   1  30
TORSDOF 26
ENDMDL
