MODEL 1
REMARK VINA RESULT:      -9.2      0.000      0.000
REMARK SMILES CCc1cc(N2CCC[C@H](C(=O)OCCOCCOCCOCCOC(=O)c3ccc(-c4c5nc(c(-c6ccc(S(=O)(=O)[O-])cc6)c6ccc([nH]6)c(-c6ccc(S(=O)(=O)[O-])cc6)c6nc(c(-c7ccc(S(=O)(=O)[O-])cc7)c7ccc4[nH]7)C=C6)C=C5)cc3)C2)nc(-c2ccc(Cl)cc2)n1
REMARK SMILES IDX 20 1 19 2 18 3 17 4 16 5 15 6 14 7 13 8 11 9 12 10 10 11
REMARK SMILES IDX 6 12 7 13 88 14 8 15 9 16 5 17 3 18 4 19 98 20 90 21 89 22
REMARK SMILES IDX 2 23 1 24 91 25 92 26 97 27 93 28 96 29 94 30 95 31 21 32
REMARK SMILES IDX 22 33 23 34 24 35 25 36 26 37 27 38 28 39 29 40 87 41 30 42
REMARK SMILES IDX 86 43 31 44 32 45 33 46 80 47 34 48 85 49 79 50 81 51 35 52
REMARK SMILES IDX 84 53 78 54 77 55 36 57 66 58 47 59 65 60 48 61 51 62 64 63
REMARK SMILES IDX 82 64 49 65 50 66 63 68 83 69 52 70 37 71 38 72 46 73 39 74
REMARK SMILES IDX 45 75 40 76 41 77 42 78 43 79 44 80 67 81 68 82 76 83 69 84
REMARK SMILES IDX 75 85 70 86 71 87 72 88 73 89 74 90 53 91 54 92 62 93 55 94
REMARK SMILES IDX 61 95 56 96 57 97 58 98 59 99 60 100
REMARK H PARENT 81 56 51 67
REMARK Flexibility Score: inf
ROOT
ATOM      1  C   UNL A   1      37.696  20.570  25.310  1.00  0.00     0.188 C 
ENDROOT
BRANCH   1   2
ATOM      2  O   UNL A   1      36.451  21.188  25.638  1.00  0.00    -0.377 OA
BRANCH   2   3
ATOM      3  C   UNL A   1      35.344  21.090  24.753  1.00  0.00     0.188 C 
BRANCH   3   4
ATOM      4  C   UNL A   1      34.393  19.886  24.839  1.00  0.00     0.188 C 
BRANCH   4   5
ATOM      5  O   UNL A   1      33.107  20.204  25.318  1.00  0.00    -0.376 OA
BRANCH   5   6
ATOM      6  C   UNL A   1      32.995  20.998  26.484  1.00  0.00     0.202 C 
BRANCH   6   7
ATOM      7  C   UNL A   1      32.328  22.385  26.479  1.00  0.00     0.261 C 
BRANCH   7   8
ATOM      8  O   UNL A   1      32.282  23.127  25.257  1.00  0.00    -0.463 OA
BRANCH   8   9
ATOM      9  C   UNL A   1      33.093  24.195  25.140  1.00  0.00     0.310 C 
ATOM     10  O   UNL A   1      33.054  25.172  25.883  1.00  0.00    -0.252 OA
BRANCH   9  11
ATOM     11  C   UNL A   1      34.062  24.104  23.967  1.00  0.00     0.118 C 
ATOM     12  N   UNL A   1      33.466  26.229  22.903  1.00  0.00    -0.356 N 
ATOM     13  C   UNL A   1      32.985  25.637  21.663  1.00  0.00     0.118 C 
ATOM     14  C   UNL A   1      34.506  25.532  23.658  1.00  0.00     0.133 C 
ATOM     15  C   UNL A   1      32.586  24.183  21.866  1.00  0.00     0.022 C 
ATOM     16  C   UNL A   1      33.648  23.420  22.654  1.00  0.00     0.019 C 
BRANCH  12  17
ATOM     17  C   UNL A   1      32.696  27.191  23.542  1.00  0.00     0.132 A 
ATOM     18  C   UNL A   1      30.561  28.127  23.944  1.00  0.00     0.046 A 
ATOM     19  C   UNL A   1      31.340  27.215  23.272  1.00  0.00     0.070 A 
ATOM     20  N   UNL A   1      31.085  28.984  24.832  1.00  0.00    -0.233 NA
ATOM     21  C   UNL A   1      32.411  28.904  25.042  1.00  0.00     0.161 A 
ATOM     22  N   UNL A   1      33.249  28.042  24.427  1.00  0.00    -0.211 NA
BRANCH  18  23
ATOM     23  C   UNL A   1      29.065  28.082  23.777  1.00  0.00     0.053 C 
ATOM     24  C   UNL A   1      28.504  26.673  23.706  1.00  0.00     0.011 C 
ENDBRANCH  18  23
BRANCH  21  25
ATOM     25  C   UNL A   1      32.955  29.853  26.021  1.00  0.00     0.019 A 
ATOM     26  C   UNL A   1      34.195  29.613  26.640  1.00  0.00     0.013 A 
ATOM     27  C   UNL A   1      32.221  30.974  26.443  1.00  0.00     0.013 A 
ATOM     28  C   UNL A   1      34.692  30.470  27.630  1.00  0.00     0.021 A 
ATOM     29  C   UNL A   1      32.717  31.843  27.421  1.00  0.00     0.021 A 
ATOM     30  C   UNL A   1      33.953  31.586  28.011  1.00  0.00     0.041 A 
ATOM     31  Cl  UNL A   1      34.550  32.645  29.228  1.00  0.00    -0.084 Cl
ENDBRANCH  21  25
ENDBRANCH  12  17
ENDBRANCH   9  11
ENDBRANCH   8   9
ENDBRANCH   7   8
ENDBRANCH   6   7
ENDBRANCH   5   6
ENDBRANCH   4   5
ENDBRANCH   3   4
ENDBRANCH   2   3
ENDBRANCH   1   2
BRANCH   1  32
ATOM     32  C   UNL A   1      39.016  21.357  25.443  1.00  0.00     0.188 C 
BRANCH  32  33
ATOM     33  O   UNL A   1      39.462  21.549  26.774  1.00  0.00    -0.376 OA
BRANCH  33  34
ATOM     34  C   UNL A   1      39.710  22.879  27.202  1.00  0.00     0.202 C 
BRANCH  34  35
ATOM     35  C   UNL A   1      40.968  23.591  26.679  1.00  0.00     0.261 C 
BRANCH  35  36
ATOM     36  O   UNL A   1      41.345  24.808  27.344  1.00  0.00    -0.460 OA
BRANCH  36  37
ATOM     37  C   UNL A   1      41.019  25.978  26.749  1.00  0.00     0.338 C 
ATOM     38  O   UNL A   1      40.867  26.186  25.565  1.00  0.00    -0.246 OA
BRANCH  37  39
ATOM     39  C   UNL A   1      40.698  26.942  27.823  1.00  0.00     0.060 A 
ATOM     40  C   UNL A   1      41.230  28.237  27.763  1.00  0.00     0.016 A 
ATOM     41  C   UNL A   1      39.890  26.553  28.892  1.00  0.00     0.016 A 
ATOM     42  C   UNL A   1      40.991  29.136  28.802  1.00  0.00     0.010 A 
ATOM     43  C   UNL A   1      39.670  27.448  29.941  1.00  0.00     0.010 A 
ATOM     44  C   UNL A   1      40.253  28.727  29.919  1.00  0.00    -0.014 A 
BRANCH  44  45
ATOM     45  C   UNL A   1      40.275  29.543  31.156  1.00  0.00     0.031 A 
ATOM     46  C   UNL A   1      41.392  29.308  32.138  1.00  0.00     0.074 A 
ATOM     47  C   UNL A   1      39.340  30.477  31.402  1.00  0.00     0.049 A 
ATOM     48  N   UNL A   1      41.587  29.837  33.318  1.00  0.00    -0.248 NA
ATOM     49  C   UNL A   1      42.427  28.340  31.734  1.00  0.00     0.031 C 
ATOM     50  C   UNL A   1      38.244  30.839  30.504  1.00  0.00     0.029 A 
ATOM     51  N   UNL A   1      39.162  31.287  32.496  1.00  0.00    -0.354 N 
ATOM     52  C   UNL A   1      42.754  29.256  33.801  1.00  0.00     0.074 A 
ATOM     53  C   UNL A   1      43.208  28.314  32.802  1.00  0.00     0.031 C 
ATOM     54  C   UNL A   1      37.500  31.794  31.090  1.00  0.00     0.029 A 
ATOM     55  C   UNL A   1      38.042  32.079  32.419  1.00  0.00     0.049 A 
ATOM     56  H   UNL A   1      39.779  31.300  33.263  1.00  0.00     0.167 HD
ATOM     57  C   UNL A   1      43.394  29.489  34.971  1.00  0.00     0.031 A 
ATOM     58  C   UNL A   1      37.500  32.915  33.329  1.00  0.00     0.031 A 
ATOM     59  C   UNL A   1      42.930  30.417  35.968  1.00  0.00     0.049 A 
ATOM     60  C   UNL A   1      38.181  33.094  34.663  1.00  0.00     0.074 A 
ATOM     61  C   UNL A   1      43.509  30.733  37.184  1.00  0.00     0.029 A 
ATOM     62  N   UNL A   1      41.770  31.171  35.868  1.00  0.00    -0.354 N 
ATOM     63  N   UNL A   1      39.291  32.548  35.105  1.00  0.00    -0.248 NA
ATOM     64  C   UNL A   1      37.541  34.007  35.619  1.00  0.00     0.031 C 
ATOM     65  C   UNL A   1      42.665  31.627  37.848  1.00  0.00     0.029 A 
ATOM     66  C   UNL A   1      41.601  31.930  37.013  1.00  0.00     0.049 A 
ATOM     67  H   UNL A   1      41.159  31.167  35.096  1.00  0.00     0.167 HD
ATOM     68  C   UNL A   1      39.500  33.083  36.373  1.00  0.00     0.074 A 
ATOM     69  C   UNL A   1      38.406  33.999  36.625  1.00  0.00     0.031 C 
ATOM     70  C   UNL A   1      40.509  32.843  37.247  1.00  0.00     0.031 A 
BRANCH  57  71
ATOM     71  C   UNL A   1      44.642  28.694  35.255  1.00  0.00    -0.014 A 
ATOM     72  C   UNL A   1      45.890  29.071  34.727  1.00  0.00     0.010 A 
ATOM     73  C   UNL A   1      44.568  27.565  36.093  1.00  0.00     0.010 A 
ATOM     74  C   UNL A   1      47.032  28.314  35.001  1.00  0.00     0.020 A 
ATOM     75  C   UNL A   1      45.714  26.824  36.395  1.00  0.00     0.020 A 
ATOM     76  C   UNL A   1      46.937  27.195  35.834  1.00  0.00     0.054 A 
BRANCH  76  77
ATOM     77  S   UNL A   1      48.441  26.247  36.193  1.00  0.00     0.124 S 
ATOM     78  O   UNL A   1      47.896  25.036  36.802  1.00  0.00    -0.237 OA
ATOM     79  O   UNL A   1      49.031  26.073  34.869  1.00  0.00    -0.237 OA
ATOM     80  O   UNL A   1      49.191  27.115  37.098  1.00  0.00    -0.744 OA
ENDBRANCH  76  77
ENDBRANCH  57  71
BRANCH  58  81
ATOM     81  C   UNL A   1      36.229  33.626  33.020  1.00  0.00    -0.014 A 
ATOM     82  C   UNL A   1      34.992  32.965  33.113  1.00  0.00     0.010 A 
ATOM     83  C   UNL A   1      36.251  34.976  32.624  1.00  0.00     0.010 A 
ATOM     84  C   UNL A   1      33.805  33.634  32.799  1.00  0.00     0.020 A 
ATOM     85  C   UNL A   1      35.066  35.658  32.341  1.00  0.00     0.020 A 
ATOM     86  C   UNL A   1      33.850  34.978  32.419  1.00  0.00     0.054 A 
BRANCH  86  87
ATOM     87  S   UNL A   1      32.292  35.843  32.079  1.00  0.00     0.124 S 
ATOM     88  O   UNL A   1      31.333  35.061  32.853  1.00  0.00    -0.237 OA
ATOM     89  O   UNL A   1      32.571  37.186  32.580  1.00  0.00    -0.237 OA
ATOM     90  O   UNL A   1      32.156  35.745  30.628  1.00  0.00    -0.744 OA
ENDBRANCH  86  87
ENDBRANCH  58  81
BRANCH  70  91
ATOM     91  C   UNL A   1      40.519  33.618  38.541  1.00  0.00    -0.014 A 
ATOM     92  C   UNL A   1      41.036  34.923  38.616  1.00  0.00     0.010 A 
ATOM     93  C   UNL A   1      39.930  33.050  39.687  1.00  0.00     0.010 A 
ATOM     94  C   UNL A   1      40.990  35.634  39.819  1.00  0.00     0.020 A 
ATOM     95  C   UNL A   1      39.852  33.769  40.882  1.00  0.00     0.020 A 
ATOM     96  C   UNL A   1      40.394  35.053  40.944  1.00  0.00     0.054 A 
BRANCH  96  97
ATOM     97  S   UNL A   1      40.300  36.017  42.477  1.00  0.00     0.124 S 
ATOM     98  O   UNL A   1      40.954  37.265  42.094  1.00  0.00    -0.237 OA
ATOM     99  O   UNL A   1      38.861  36.107  42.711  1.00  0.00    -0.237 OA
ATOM    100  O   UNL A   1      41.032  35.202  43.445  1.00  0.00    -0.744 OA
ENDBRANCH  96  97
ENDBRANCH  70  91
ENDBRANCH  44  45
ENDBRANCH  37  39
ENDBRANCH  36  37
ENDBRANCH  35  36
ENDBRANCH  34  35
ENDBRANCH  33  34
ENDBRANCH  32  33
ENDBRANCH   1  32
TORSDOF 26
ENDMDL
MODEL 2
REMARK VINA RESULT:      -8.7      4.701      8.709
REMARK SMILES CCc1cc(N2CCC[C@H](C(=O)OCCOCCOCCOCCOC(=O)c3ccc(-c4c5nc(c(-c6ccc(S(=O)(=O)[O-])cc6)c6ccc([nH]6)c(-c6ccc(S(=O)(=O)[O-])cc6)c6nc(c(-c7ccc(S(=O)(=O)[O-])cc7)c7ccc4[nH]7)C=C6)C=C5)cc3)C2)nc(-c2ccc(Cl)cc2)n1
REMARK SMILES IDX 20 1 19 2 18 3 17 4 16 5 15 6 14 7 13 8 11 9 12 10 10 11
REMARK SMILES IDX 6 12 7 13 88 14 8 15 9 16 5 17 3 18 4 19 98 20 90 21 89 22
REMARK SMILES IDX 2 23 1 24 91 25 92 26 97 27 93 28 96 29 94 30 95 31 21 32
REMARK SMILES IDX 22 33 23 34 24 35 25 36 26 37 27 38 28 39 29 40 87 41 30 42
REMARK SMILES IDX 86 43 31 44 32 45 33 46 80 47 34 48 85 49 79 50 81 51 35 52
REMARK SMILES IDX 84 53 78 54 77 55 36 57 66 58 47 59 65 60 48 61 51 62 64 63
REMARK SMILES IDX 82 64 49 65 50 66 63 68 83 69 52 70 37 71 38 72 46 73 39 74
REMARK SMILES IDX 45 75 40 76 41 77 42 78 43 79 44 80 67 81 68 82 76 83 69 84
REMARK SMILES IDX 75 85 70 86 71 87 72 88 73 89 74 90 53 91 54 92 62 93 55 94
REMARK SMILES IDX 61 95 56 96 57 97 58 98 59 99 60 100
REMARK H PARENT 81 56 51 67
REMARK Flexibility Score: inf
ROOT
ATOM      1  C   UNL A   1      36.449  19.685  25.001  1.00  0.00     0.188 C 
ENDROOT
BRANCH   1   2
ATOM      2  O   UNL A   1      35.379  20.521  24.560  1.00  0.00    -0.377 OA
BRANCH   2   3
ATOM      3  C   UNL A   1      34.347  20.904  25.458  1.00  0.00     0.188 C 
BRANCH   3   4
ATOM      4  C   UNL A   1      34.696  21.595  26.784  1.00  0.00     0.188 C 
BRANCH   4   5
ATOM      5  O   UNL A   1      34.635  23.001  26.733  1.00  0.00    -0.376 OA
BRANCH   5   6
ATOM      6  C   UNL A   1      35.335  23.673  25.704  1.00  0.00     0.202 C 
BRANCH   6   7
ATOM      7  C   UNL A   1      34.836  24.994  25.090  1.00  0.00     0.261 C 
BRANCH   7   8
ATOM      8  O   UNL A   1      33.434  25.169  24.871  1.00  0.00    -0.463 OA
BRANCH   8   9
ATOM      9  C   UNL A   1      32.916  24.707  23.718  1.00  0.00     0.310 C 
ATOM     10  O   UNL A   1      33.366  24.974  22.607  1.00  0.00    -0.252 OA
BRANCH   9  11
ATOM     11  C   UNL A   1      31.682  23.834  23.907  1.00  0.00     0.118 C 
ATOM     12  N   UNL A   1      30.155  25.602  24.644  1.00  0.00    -0.356 N 
ATOM     13  C   UNL A   1      29.912  25.038  25.964  1.00  0.00     0.118 C 
ATOM     14  C   UNL A   1      30.476  24.697  23.542  1.00  0.00     0.133 C 
ATOM     15  C   UNL A   1      31.037  24.102  26.379  1.00  0.00     0.022 C 
ATOM     16  C   UNL A   1      31.404  23.141  25.251  1.00  0.00     0.019 C 
BRANCH  12  17
ATOM     17  C   UNL A   1      30.465  26.950  24.526  1.00  0.00     0.132 A 
ATOM     18  C   UNL A   1      30.018  29.043  23.518  1.00  0.00     0.046 A 
ATOM     19  C   UNL A   1      29.758  27.696  23.601  1.00  0.00     0.070 A 
ATOM     20  N   UNL A   1      30.937  29.633  24.297  1.00  0.00    -0.233 NA
ATOM     21  C   UNL A   1      31.587  28.845  25.172  1.00  0.00     0.161 A 
ATOM     22  N   UNL A   1      31.395  27.517  25.319  1.00  0.00    -0.211 NA
BRANCH  18  23
ATOM     23  C   UNL A   1      29.167  29.904  22.624  1.00  0.00     0.053 C 
ATOM     24  C   UNL A   1      28.346  30.936  23.377  1.00  0.00     0.011 C 
ENDBRANCH  18  23
BRANCH  21  25
ATOM     25  C   UNL A   1      32.584  29.519  26.012  1.00  0.00     0.019 A 
ATOM     26  C   UNL A   1      33.796  28.884  26.336  1.00  0.00     0.013 A 
ATOM     27  C   UNL A   1      32.325  30.771  26.596  1.00  0.00     0.013 A 
ATOM     28  C   UNL A   1      34.723  29.484  27.198  1.00  0.00     0.021 A 
ATOM     29  C   UNL A   1      33.254  31.383  27.446  1.00  0.00     0.021 A 
ATOM     30  C   UNL A   1      34.451  30.735  27.743  1.00  0.00     0.041 A 
ATOM     31  Cl  UNL A   1      35.580  31.482  28.804  1.00  0.00    -0.084 Cl
ENDBRANCH  21  25
ENDBRANCH  12  17
ENDBRANCH   9  11
ENDBRANCH   8   9
ENDBRANCH   7   8
ENDBRANCH   6   7
ENDBRANCH   5   6
ENDBRANCH   4   5
ENDBRANCH   3   4
ENDBRANCH   2   3
ENDBRANCH   1   2
BRANCH   1  32
ATOM     32  C   UNL A   1      37.899  20.212  25.007  1.00  0.00     0.188 C 
BRANCH  32  33
ATOM     33  O   UNL A   1      38.032  21.583  25.338  1.00  0.00    -0.376 OA
BRANCH  33  34
ATOM     34  C   UNL A   1      39.142  21.966  26.134  1.00  0.00     0.202 C 
BRANCH  34  35
ATOM     35  C   UNL A   1      40.297  20.965  26.305  1.00  0.00     0.261 C 
BRANCH  35  36
ATOM     36  O   UNL A   1      41.493  21.459  26.928  1.00  0.00    -0.460 OA
BRANCH  36  37
ATOM     37  C   UNL A   1      42.278  22.295  26.212  1.00  0.00     0.338 C 
ATOM     38  O   UNL A   1      42.507  22.253  25.022  1.00  0.00    -0.246 OA
BRANCH  37  39
ATOM     39  C   UNL A   1      42.678  23.400  27.109  1.00  0.00     0.060 A 
ATOM     40  C   UNL A   1      44.034  23.737  27.218  1.00  0.00     0.016 A 
ATOM     41  C   UNL A   1      41.713  24.080  27.853  1.00  0.00     0.016 A 
ATOM     42  C   UNL A   1      44.433  24.732  28.110  1.00  0.00     0.010 A 
ATOM     43  C   UNL A   1      42.118  25.060  28.761  1.00  0.00     0.010 A 
ATOM     44  C   UNL A   1      43.482  25.360  28.923  1.00  0.00    -0.014 A 
BRANCH  44  45
ATOM     45  C   UNL A   1      43.922  26.161  30.090  1.00  0.00     0.031 A 
ATOM     46  C   UNL A   1      43.906  27.662  29.964  1.00  0.00     0.074 A 
ATOM     47  C   UNL A   1      44.312  25.580  31.237  1.00  0.00     0.049 A 
ATOM     48  N   UNL A   1      44.312  28.571  30.811  1.00  0.00    -0.248 NA
ATOM     49  C   UNL A   1      43.363  28.208  28.708  1.00  0.00     0.031 C 
ATOM     50  C   UNL A   1      44.315  24.142  31.503  1.00  0.00     0.029 A 
ATOM     51  N   UNL A   1      44.794  26.138  32.395  1.00  0.00    -0.354 N 
ATOM     52  C   UNL A   1      44.088  29.793  30.186  1.00  0.00     0.074 A 
ATOM     53  C   UNL A   1      43.539  29.509  28.879  1.00  0.00     0.031 C 
ATOM     54  C   UNL A   1      44.788  23.931  32.744  1.00  0.00     0.029 A 
ATOM     55  C   UNL A   1      45.160  25.213  33.342  1.00  0.00     0.049 A 
ATOM     56  H   UNL A   1      44.870  27.110  32.533  1.00  0.00     0.167 HD
ATOM     57  C   UNL A   1      44.316  31.040  30.659  1.00  0.00     0.031 A 
ATOM     58  C   UNL A   1      45.754  25.381  34.542  1.00  0.00     0.031 A 
ATOM     59  C   UNL A   1      44.877  31.316  31.955  1.00  0.00     0.049 A 
ATOM     60  C   UNL A   1      46.080  26.776  35.014  1.00  0.00     0.074 A 
ATOM     61  C   UNL A   1      45.139  32.545  32.533  1.00  0.00     0.029 A 
ATOM     62  N   UNL A   1      45.269  30.350  32.869  1.00  0.00    -0.354 N 
ATOM     63  N   UNL A   1      45.854  27.925  34.419  1.00  0.00    -0.248 NA
ATOM     64  C   UNL A   1      46.737  26.899  36.323  1.00  0.00     0.031 C 
ATOM     65  C   UNL A   1      45.753  32.321  33.769  1.00  0.00     0.029 A 
ATOM     66  C   UNL A   1      45.798  30.954  33.996  1.00  0.00     0.049 A 
ATOM     67  H   UNL A   1      45.182  29.378  32.737  1.00  0.00     0.167 HD
ATOM     68  C   UNL A   1      46.305  28.905  35.299  1.00  0.00     0.074 A 
ATOM     69  C   UNL A   1      46.810  28.216  36.468  1.00  0.00     0.031 C 
ATOM     70  C   UNL A   1      46.293  30.254  35.156  1.00  0.00     0.031 A 
BRANCH  57  71
ATOM     71  C   UNL A   1      43.999  32.200  29.751  1.00  0.00    -0.014 A 
ATOM     72  C   UNL A   1      42.815  32.946  29.896  1.00  0.00     0.010 A 
ATOM     73  C   UNL A   1      44.921  32.571  28.754  1.00  0.00     0.010 A 
ATOM     74  C   UNL A   1      42.542  34.014  29.038  1.00  0.00     0.020 A 
ATOM     75  C   UNL A   1      44.666  33.659  27.915  1.00  0.00     0.020 A 
ATOM     76  C   UNL A   1      43.470  34.364  28.053  1.00  0.00     0.054 A 
BRANCH  76  77
ATOM     77  S   UNL A   1      43.100  35.773  26.971  1.00  0.00     0.124 S 
ATOM     78  O   UNL A   1      42.983  35.127  25.666  1.00  0.00    -0.237 OA
ATOM     79  O   UNL A   1      41.854  36.287  27.532  1.00  0.00    -0.237 OA
ATOM     80  O   UNL A   1      44.260  36.647  27.130  1.00  0.00    -0.744 OA
ENDBRANCH  76  77
ENDBRANCH  57  71
BRANCH  58  81
ATOM     81  C   UNL A   1      46.104  24.194  35.370  1.00  0.00    -0.014 A 
ATOM     82  C   UNL A   1      45.212  23.703  36.339  1.00  0.00     0.010 A 
ATOM     83  C   UNL A   1      47.342  23.549  35.195  1.00  0.00     0.010 A 
ATOM     84  C   UNL A   1      45.559  22.602  37.129  1.00  0.00     0.020 A 
ATOM     85  C   UNL A   1      47.680  22.429  35.959  1.00  0.00     0.020 A 
ATOM     86  C   UNL A   1      46.789  21.970  36.930  1.00  0.00     0.054 A 
BRANCH  86  87
ATOM     87  S   UNL A   1      47.190  20.504  37.921  1.00  0.00     0.124 S 
ATOM     88  O   UNL A   1      48.332  19.951  37.200  1.00  0.00    -0.237 OA
ATOM     89  O   UNL A   1      47.483  21.087  39.228  1.00  0.00    -0.237 OA
ATOM     90  O   UNL A   1      45.966  19.709  37.864  1.00  0.00    -0.744 OA
ENDBRANCH  86  87
ENDBRANCH  58  81
BRANCH  70  91
ATOM     91  C   UNL A   1      46.793  31.089  36.309  1.00  0.00    -0.014 A 
ATOM     92  C   UNL A   1      48.142  31.465  36.418  1.00  0.00     0.010 A 
ATOM     93  C   UNL A   1      45.871  31.565  37.261  1.00  0.00     0.010 A 
ATOM     94  C   UNL A   1      48.566  32.278  37.474  1.00  0.00     0.020 A 
ATOM     95  C   UNL A   1      46.284  32.404  38.299  1.00  0.00     0.020 A 
ATOM     96  C   UNL A   1      47.633  32.746  38.406  1.00  0.00     0.054 A 
BRANCH  96  97
ATOM     97  S   UNL A   1      48.201  33.841  39.735  1.00  0.00     0.124 S 
ATOM     98  O   UNL A   1      47.006  34.633  40.009  1.00  0.00    -0.237 OA
ATOM     99  O   UNL A   1      48.585  32.899  40.783  1.00  0.00    -0.237 OA
ATOM    100  O   UNL A   1      49.310  34.576  39.130  1.00  0.00    -0.744 OA
ENDBRANCH  96  97
ENDBRANCH  70  91
ENDBRANCH  44  45
ENDBRANCH  37  39
ENDBRANCH  36  37
ENDBRANCH  35  36
ENDBRANCH  34  35
ENDBRANCH  33  34
ENDBRANCH  32  33
ENDBRANCH   1  32
TORSDOF 26
ENDMDL
MODEL 3
REMARK VINA RESULT:      -8.7      6.175      8.443
REMARK SMILES CCc1cc(N2CCC[C@H](C(=O)OCCOCCOCCOCCOC(=O)c3ccc(-c4c5nc(c(-c6ccc(S(=O)(=O)[O-])cc6)c6ccc([nH]6)c(-c6ccc(S(=O)(=O)[O-])cc6)c6nc(c(-c7ccc(S(=O)(=O)[O-])cc7)c7ccc4[nH]7)C=C6)C=C5)cc3)C2)nc(-c2ccc(Cl)cc2)n1
REMARK SMILES IDX 20 1 19 2 18 3 17 4 16 5 15 6 14 7 13 8 11 9 12 10 10 11
REMARK SMILES IDX 6 12 7 13 88 14 8 15 9 16 5 17 3 18 4 19 98 20 90 21 89 22
REMARK SMILES IDX 2 23 1 24 91 25 92 26 97 27 93 28 96 29 94 30 95 31 21 32
REMARK SMILES IDX 22 33 23 34 24 35 25 36 26 37 27 38 28 39 29 40 87 41 30 42
REMARK SMILES IDX 86 43 31 44 32 45 33 46 80 47 34 48 85 49 79 50 81 51 35 52
REMARK SMILES IDX 84 53 78 54 77 55 36 57 66 58 47 59 65 60 48 61 51 62 64 63
REMARK SMILES IDX 82 64 49 65 50 66 63 68 83 69 52 70 37 71 38 72 46 73 39 74
REMARK SMILES IDX 45 75 40 76 41 77 42 78 43 79 44 80 67 81 68 82 76 83 69 84
REMARK SMILES IDX 75 85 70 86 71 87 72 88 73 89 74 90 53 91 54 92 62 93 55 94
REMARK SMILES IDX 61 95 56 96 57 97 58 98 59 99 60 100
REMARK H PARENT 81 56 51 67
REMARK Flexibility Score: inf
ROOT
ATOM      1  C   UNL A   1      39.460  22.745  26.848  1.00  0.00     0.188 C 
ENDROOT
BRANCH   1   2
ATOM      2  O   UNL A   1      38.626  22.047  25.923  1.00  0.00    -0.377 OA
BRANCH   2   3
ATOM      3  C   UNL A   1      37.317  22.519  25.635  1.00  0.00     0.188 C 
BRANCH   3   4
ATOM      4  C   UNL A   1      36.114  21.572  25.747  1.00  0.00     0.188 C 
BRANCH   4   5
ATOM      5  O   UNL A   1      35.157  21.970  26.700  1.00  0.00    -0.376 OA
BRANCH   5   6
ATOM      6  C   UNL A   1      33.829  22.205  26.273  1.00  0.00     0.202 C 
BRANCH   6   7
ATOM      7  C   UNL A   1      32.926  23.267  26.925  1.00  0.00     0.261 C 
BRANCH   7   8
ATOM      8  O   UNL A   1      32.655  24.477  26.212  1.00  0.00    -0.463 OA
BRANCH   8   9
ATOM      9  C   UNL A   1      32.234  24.376  24.938  1.00  0.00     0.310 C 
ATOM     10  O   UNL A   1      31.061  24.491  24.591  1.00  0.00    -0.252 OA
BRANCH   9  11
ATOM     11  C   UNL A   1      33.348  24.069  23.946  1.00  0.00     0.118 C 
ATOM     12  N   UNL A   1      33.734  26.367  23.188  1.00  0.00    -0.356 N 
ATOM     13  C   UNL A   1      33.365  26.122  21.800  1.00  0.00     0.118 C 
ATOM     14  C   UNL A   1      34.295  25.267  23.970  1.00  0.00     0.133 C 
ATOM     15  C   UNL A   1      32.474  24.896  21.676  1.00  0.00     0.022 C 
ATOM     16  C   UNL A   1      33.027  23.723  22.482  1.00  0.00     0.019 C 
BRANCH  12  17
ATOM     17  C   UNL A   1      33.206  27.467  23.849  1.00  0.00     0.132 A 
ATOM     18  C   UNL A   1      31.405  28.975  24.140  1.00  0.00     0.046 A 
ATOM     19  C   UNL A   1      31.961  27.921  23.452  1.00  0.00     0.070 A 
ATOM     20  N   UNL A   1      32.042  29.564  25.162  1.00  0.00    -0.233 NA
ATOM     21  C   UNL A   1      33.249  29.070  25.491  1.00  0.00     0.161 A 
ATOM     22  N   UNL A   1      33.868  28.043  24.871  1.00  0.00    -0.211 NA
BRANCH  18  23
ATOM     23  C   UNL A   1      29.995  29.398  23.825  1.00  0.00     0.053 C 
ATOM     24  C   UNL A   1      29.774  29.731  22.361  1.00  0.00     0.011 C 
ENDBRANCH  18  23
BRANCH  21  25
ATOM     25  C   UNL A   1      33.921  29.733  26.615  1.00  0.00     0.019 A 
ATOM     26  C   UNL A   1      33.466  30.976  27.091  1.00  0.00     0.013 A 
ATOM     27  C   UNL A   1      35.088  29.202  27.188  1.00  0.00     0.013 A 
ATOM     28  C   UNL A   1      34.142  31.656  28.112  1.00  0.00     0.021 A 
ATOM     29  C   UNL A   1      35.760  29.868  28.219  1.00  0.00     0.021 A 
ATOM     30  C   UNL A   1      35.282  31.094  28.678  1.00  0.00     0.041 A 
ATOM     31  Cl  UNL A   1      36.123  31.919  29.931  1.00  0.00    -0.084 Cl
ENDBRANCH  21  25
ENDBRANCH  12  17
ENDBRANCH   9  11
ENDBRANCH   8   9
ENDBRANCH   7   8
ENDBRANCH   6   7
ENDBRANCH   5   6
ENDBRANCH   4   5
ENDBRANCH   3   4
ENDBRANCH   2   3
ENDBRANCH   1   2
BRANCH   1  32
ATOM     32  C   UNL A   1      40.995  22.699  26.703  1.00  0.00     0.188 C 
BRANCH  32  33
ATOM     33  O   UNL A   1      41.652  21.838  27.616  1.00  0.00    -0.376 OA
BRANCH  33  34
ATOM     34  C   UNL A   1      41.374  20.450  27.532  1.00  0.00     0.202 C 
BRANCH  34  35
ATOM     35  C   UNL A   1      42.199  19.597  26.555  1.00  0.00     0.261 C 
BRANCH  35  36
ATOM     36  O   UNL A   1      42.483  20.178  25.271  1.00  0.00    -0.460 OA
BRANCH  36  37
ATOM     37  C   UNL A   1      43.768  20.184  24.852  1.00  0.00     0.338 C 
ATOM     38  O   UNL A   1      44.339  19.328  24.212  1.00  0.00    -0.246 OA
BRANCH  37  39
ATOM     39  C   UNL A   1      44.324  21.519  25.160  1.00  0.00     0.060 A 
ATOM     40  C   UNL A   1      45.272  21.647  26.183  1.00  0.00     0.016 A 
ATOM     41  C   UNL A   1      43.889  22.638  24.448  1.00  0.00     0.016 A 
ATOM     42  C   UNL A   1      45.756  22.909  26.529  1.00  0.00     0.010 A 
ATOM     43  C   UNL A   1      44.358  23.901  24.811  1.00  0.00     0.010 A 
ATOM     44  C   UNL A   1      45.261  24.046  25.879  1.00  0.00    -0.014 A 
BRANCH  44  45
ATOM     45  C   UNL A   1      45.508  25.390  26.453  1.00  0.00     0.031 A 
ATOM     46  C   UNL A   1      46.821  26.061  26.142  1.00  0.00     0.074 A 
ATOM     47  C   UNL A   1      44.593  26.009  27.217  1.00  0.00     0.049 A 
ATOM     48  N   UNL A   1      47.300  27.194  26.583  1.00  0.00    -0.248 NA
ATOM     49  C   UNL A   1      47.715  25.351  25.211  1.00  0.00     0.031 C 
ATOM     50  C   UNL A   1      43.264  25.491  27.540  1.00  0.00     0.029 A 
ATOM     51  N   UNL A   1      44.653  27.215  27.871  1.00  0.00    -0.354 N 
ATOM     52  C   UNL A   1      48.553  27.326  25.997  1.00  0.00     0.074 A 
ATOM     53  C   UNL A   1      48.774  26.145  25.193  1.00  0.00     0.031 C 
ATOM     54  C   UNL A   1      42.638  26.371  28.342  1.00  0.00     0.029 A 
ATOM     55  C   UNL A   1      43.536  27.491  28.621  1.00  0.00     0.049 A 
ATOM     56  H   UNL A   1      45.424  27.824  27.808  1.00  0.00     0.167 HD
ATOM     57  C   UNL A   1      49.441  28.341  26.114  1.00  0.00     0.031 A 
ATOM     58  C   UNL A   1      43.281  28.516  29.461  1.00  0.00     0.031 A 
ATOM     59  C   UNL A   1      49.221  29.507  26.928  1.00  0.00     0.049 A 
ATOM     60  C   UNL A   1      44.320  29.594  29.646  1.00  0.00     0.074 A 
ATOM     61  C   UNL A   1      50.053  30.598  27.109  1.00  0.00     0.029 A 
ATOM     62  N   UNL A   1      48.092  29.731  27.703  1.00  0.00    -0.354 N 
ATOM     63  N   UNL A   1      45.498  29.713  29.079  1.00  0.00    -0.248 NA
ATOM     64  C   UNL A   1      43.993  30.679  30.582  1.00  0.00     0.031 C 
ATOM     65  C   UNL A   1      49.458  31.448  28.045  1.00  0.00     0.029 A 
ATOM     66  C   UNL A   1      48.218  30.928  28.386  1.00  0.00     0.049 A 
ATOM     67  H   UNL A   1      47.316  29.128  27.757  1.00  0.00     0.167 HD
ATOM     68  C   UNL A   1      46.033  30.906  29.558  1.00  0.00     0.074 A 
ATOM     69  C   UNL A   1      45.049  31.473  30.457  1.00  0.00     0.031 C 
ATOM     70  C   UNL A   1      47.227  31.484  29.274  1.00  0.00     0.031 A 
BRANCH  57  71
ATOM     71  C   UNL A   1      50.749  28.213  25.379  1.00  0.00    -0.014 A 
ATOM     72  C   UNL A   1      50.803  28.183  23.974  1.00  0.00     0.010 A 
ATOM     73  C   UNL A   1      51.951  28.156  26.110  1.00  0.00     0.010 A 
ATOM     74  C   UNL A   1      52.029  28.059  23.315  1.00  0.00     0.020 A 
ATOM     75  C   UNL A   1      53.182  28.064  25.454  1.00  0.00     0.020 A 
ATOM     76  C   UNL A   1      53.211  28.000  24.060  1.00  0.00     0.054 A 
BRANCH  76  77
ATOM     77  S   UNL A   1      54.790  27.866  23.177  1.00  0.00     0.124 S 
ATOM     78  O   UNL A   1      55.612  28.849  23.878  1.00  0.00    -0.237 OA
ATOM     79  O   UNL A   1      55.158  26.470  23.393  1.00  0.00    -0.237 OA
ATOM     80  O   UNL A   1      54.448  28.211  21.799  1.00  0.00    -0.744 OA
ENDBRANCH  76  77
ENDBRANCH  57  71
BRANCH  58  81
ATOM     81  C   UNL A   1      41.996  28.558  30.213  1.00  0.00    -0.014 A 
ATOM     82  C   UNL A   1      41.959  28.288  31.592  1.00  0.00     0.010 A 
ATOM     83  C   UNL A   1      40.796  28.866  29.547  1.00  0.00     0.010 A 
ATOM     84  C   UNL A   1      40.744  28.307  32.286  1.00  0.00     0.020 A 
ATOM     85  C   UNL A   1      39.585  28.918  30.241  1.00  0.00     0.020 A 
ATOM     86  C   UNL A   1      39.566  28.626  31.606  1.00  0.00     0.054 A 
BRANCH  86  87
ATOM     87  S   UNL A   1      38.013  28.708  32.539  1.00  0.00     0.124 S 
ATOM     88  O   UNL A   1      37.852  27.328  32.987  1.00  0.00    -0.237 OA
ATOM     89  O   UNL A   1      38.330  29.683  33.579  1.00  0.00    -0.237 OA
ATOM     90  O   UNL A   1      37.042  29.163  31.547  1.00  0.00    -0.744 OA
ENDBRANCH  86  87
ENDBRANCH  58  81
BRANCH  70  91
ATOM     91  C   UNL A   1      47.526  32.825  29.895  1.00  0.00    -0.014 A 
ATOM     92  C   UNL A   1      47.184  34.028  29.254  1.00  0.00     0.010 A 
ATOM     93  C   UNL A   1      48.094  32.875  31.182  1.00  0.00     0.010 A 
ATOM     94  C   UNL A   1      47.433  35.256  29.875  1.00  0.00     0.020 A 
ATOM     95  C   UNL A   1      48.314  34.097  31.820  1.00  0.00     0.020 A 
ATOM     96  C   UNL A   1      47.993  35.283  31.157  1.00  0.00     0.054 A 
BRANCH  96  97
ATOM     97  S   UNL A   1      48.256  36.886  31.961  1.00  0.00     0.124 S 
ATOM     98  O   UNL A   1      47.027  37.046  32.733  1.00  0.00    -0.237 OA
ATOM     99  O   UNL A   1      49.466  36.655  32.747  1.00  0.00    -0.237 OA
ATOM    100  O   UNL A   1      48.414  37.814  30.843  1.00  0.00    -0.744 OA
ENDBRANCH  96  97
ENDBRANCH  70  91
ENDBRANCH  44  45
ENDBRANCH  37  39
ENDBRANCH  36  37
ENDBRANCH  35  36
ENDBRANCH  34  35
ENDBRANCH  33  34
ENDBRANCH  32  33
ENDBRANCH   1  32
TORSDOF 26
ENDMDL
