MODEL 1
REMARK VINA RESULT:      -9.9      0.000      0.000
REMARK SMILES Cc1nsc(NCc2ccncc2)c1C(=O)OCCOCCOCCOCCOC(=O)c1ccc(-c2c3nc(c(-c4ccc(S(=O)(=O)[O-])cc4)c4ccc([nH]4)c(-c4ccc(S(=O)(=O)[O-])cc4)c4nc(c(-c5ccc(S(=O)(=O)[O-])cc5)c5ccc2[nH]5)C=C4)C=C3)cc1
REMARK SMILES IDX 23 1 22 2 21 3 20 4 19 5 18 6 17 7 15 8 16 9 14 10 1 11 2 12
REMARK SMILES IDX 3 13 4 14 5 15 6 16 7 18 8 19 9 20 13 21 10 22 12 23 11 24
REMARK SMILES IDX 24 25 25 26 26 27 27 28 28 29 29 30 30 31 31 32 32 33 33 34
REMARK SMILES IDX 91 35 34 36 90 37 35 38 36 39 37 40 84 41 38 42 89 43 83 44
REMARK SMILES IDX 85 45 39 46 88 47 82 48 81 49 40 51 70 52 51 53 69 54 52 55
REMARK SMILES IDX 55 56 68 57 86 58 53 59 54 60 67 62 87 63 56 64 41 65 42 66
REMARK SMILES IDX 50 67 43 68 49 69 44 70 45 71 46 72 47 73 48 74 71 75 72 76
REMARK SMILES IDX 80 77 73 78 79 79 74 80 75 81 76 82 77 83 78 84 57 85 58 86
REMARK SMILES IDX 66 87 59 88 65 89 60 90 61 91 62 92 63 93 64 94
REMARK H PARENT 6 17 85 50 55 61
REMARK Flexibility Score: inf
ROOT
ATOM      1  O   UNL A   1      38.015  22.874  25.477  1.00  0.00    -0.377 OA
ENDROOT
BRANCH   1   2
ATOM      2  C   UNL A   1      36.769  23.010  26.133  1.00  0.00     0.188 C 
BRANCH   2   3
ATOM      3  C   UNL A   1      35.866  24.082  25.491  1.00  0.00     0.188 C 
BRANCH   3   4
ATOM      4  O   UNL A   1      35.321  23.910  24.192  1.00  0.00    -0.376 OA
BRANCH   4   5
ATOM      5  C   UNL A   1      34.654  24.949  23.496  1.00  0.00     0.202 C 
BRANCH   5   6
ATOM      6  C   UNL A   1      33.252  24.842  22.863  1.00  0.00     0.261 C 
BRANCH   6   7
ATOM      7  O   UNL A   1      32.592  23.577  22.910  1.00  0.00    -0.460 OA
BRANCH   7   8
ATOM      8  C   UNL A   1      31.400  23.543  23.561  1.00  0.00     0.343 C 
ATOM      9  O   UNL A   1      30.314  23.430  23.006  1.00  0.00    -0.246 OA
BRANCH   8  10
ATOM     10  C   UNL A   1      31.573  23.462  25.006  1.00  0.00     0.117 A 
ATOM     11  C   UNL A   1      30.415  25.697  25.747  1.00  0.00     0.069 C 
ATOM     12  C   UNL A   1      31.111  24.402  25.997  1.00  0.00     0.068 A 
ATOM     13  N   UNL A   1      31.379  24.087  27.264  1.00  0.00    -0.195 NA
ATOM     14  S   UNL A   1      32.295  22.717  27.299  1.00  0.00    -0.018 S 
ATOM     15  C   UNL A   1      32.390  22.499  25.601  1.00  0.00     0.124 A 
BRANCH  15  16
ATOM     16  N   UNL A   1      33.173  21.603  24.943  1.00  0.00    -0.371 N 
ATOM     17  H   UNL A   1      33.366  21.798  23.998  1.00  0.00     0.161 HD
BRANCH  16  18
ATOM     18  C   UNL A   1      33.752  20.394  25.483  1.00  0.00     0.149 C 
BRANCH  18  19
ATOM     19  C   UNL A   1      33.547  19.265  24.495  1.00  0.00    -0.026 A 
ATOM     20  C   UNL A   1      34.411  18.162  24.451  1.00  0.00     0.025 A 
ATOM     21  C   UNL A   1      32.502  19.315  23.570  1.00  0.00     0.025 A 
ATOM     22  C   UNL A   1      34.181  17.159  23.529  1.00  0.00     0.111 A 
ATOM     23  C   UNL A   1      32.363  18.267  22.671  1.00  0.00     0.111 A 
ATOM     24  N   UNL A   1      33.174  17.188  22.632  1.00  0.00    -0.265 NA
ENDBRANCH  18  19
ENDBRANCH  16  18
ENDBRANCH  15  16
ENDBRANCH   8  10
ENDBRANCH   7   8
ENDBRANCH   6   7
ENDBRANCH   5   6
ENDBRANCH   4   5
ENDBRANCH   3   4
ENDBRANCH   2   3
ENDBRANCH   1   2
BRANCH   1  25
ATOM     25  C   UNL A   1      38.758  21.700  25.797  1.00  0.00     0.188 C 
BRANCH  25  26
ATOM     26  C   UNL A   1      39.989  21.785  26.744  1.00  0.00     0.188 C 
BRANCH  26  27
ATOM     27  O   UNL A   1      41.244  21.510  26.135  1.00  0.00    -0.376 OA
BRANCH  27  28
ATOM     28  C   UNL A   1      42.189  20.600  26.669  1.00  0.00     0.202 C 
BRANCH  28  29
ATOM     29  C   UNL A   1      43.076  19.852  25.679  1.00  0.00     0.261 C 
BRANCH  29  30
ATOM     30  O   UNL A   1      43.622  20.696  24.690  1.00  0.00    -0.460 OA
BRANCH  30  31
ATOM     31  C   UNL A   1      44.938  20.923  24.817  1.00  0.00     0.338 C 
ATOM     32  O   UNL A   1      45.816  20.092  25.019  1.00  0.00    -0.246 OA
BRANCH  31  33
ATOM     33  C   UNL A   1      45.153  22.365  24.743  1.00  0.00     0.060 A 
ATOM     34  C   UNL A   1      46.258  22.849  25.438  1.00  0.00     0.016 A 
ATOM     35  C   UNL A   1      44.080  23.180  24.343  1.00  0.00     0.016 A 
ATOM     36  C   UNL A   1      46.115  24.062  26.053  1.00  0.00     0.010 A 
ATOM     37  C   UNL A   1      43.934  24.385  24.966  1.00  0.00     0.010 A 
ATOM     38  C   UNL A   1      44.891  24.724  25.913  1.00  0.00    -0.014 A 
BRANCH  38  39
ATOM     39  C   UNL A   1      44.588  25.758  26.864  1.00  0.00     0.031 A 
ATOM     40  C   UNL A   1      45.583  26.836  26.865  1.00  0.00     0.074 A 
ATOM     41  C   UNL A   1      43.460  25.719  27.594  1.00  0.00     0.049 A 
ATOM     42  N   UNL A   1      46.480  27.074  27.760  1.00  0.00    -0.248 NA
ATOM     43  C   UNL A   1      45.736  27.603  25.620  1.00  0.00     0.031 C 
ATOM     44  C   UNL A   1      42.287  24.852  27.435  1.00  0.00     0.029 A 
ATOM     45  N   UNL A   1      43.079  26.565  28.578  1.00  0.00    -0.354 N 
ATOM     46  C   UNL A   1      47.180  28.171  27.282  1.00  0.00     0.074 A 
ATOM     47  C   UNL A   1      46.835  28.303  25.889  1.00  0.00     0.031 C 
ATOM     48  C   UNL A   1      41.244  25.398  28.106  1.00  0.00     0.029 A 
ATOM     49  C   UNL A   1      41.718  26.558  28.842  1.00  0.00     0.049 A 
ATOM     50  H   UNL A   1      43.714  27.138  29.065  1.00  0.00     0.167 HD
ATOM     51  C   UNL A   1      47.770  29.059  28.123  1.00  0.00     0.031 A 
ATOM     52  C   UNL A   1      41.043  27.519  29.523  1.00  0.00     0.031 A 
ATOM     53  C   UNL A   1      47.870  28.549  29.464  1.00  0.00     0.049 A 
ATOM     54  C   UNL A   1      42.056  28.287  30.304  1.00  0.00     0.074 A 
ATOM     55  C   UNL A   1      48.514  27.474  30.041  1.00  0.00     0.029 A 
ATOM     56  N   UNL A   1      46.898  28.940  30.356  1.00  0.00    -0.354 N 
ATOM     57  N   UNL A   1      42.759  27.766  31.274  1.00  0.00    -0.248 NA
ATOM     58  C   UNL A   1      42.638  29.473  29.689  1.00  0.00     0.031 C 
ATOM     59  C   UNL A   1      47.610  26.989  31.029  1.00  0.00     0.029 A 
ATOM     60  C   UNL A   1      46.490  27.825  31.044  1.00  0.00     0.049 A 
ATOM     61  H   UNL A   1      46.556  29.856  30.479  1.00  0.00     0.167 HD
ATOM     62  C   UNL A   1      44.036  28.293  31.121  1.00  0.00     0.074 A 
ATOM     63  C   UNL A   1      43.879  29.401  30.182  1.00  0.00     0.031 C 
ATOM     64  C   UNL A   1      45.145  27.610  31.541  1.00  0.00     0.031 A 
BRANCH  51  65
ATOM     65  C   UNL A   1      47.871  30.523  27.803  1.00  0.00    -0.014 A 
ATOM     66  C   UNL A   1      46.702  31.303  27.806  1.00  0.00     0.010 A 
ATOM     67  C   UNL A   1      49.033  31.099  27.245  1.00  0.00     0.010 A 
ATOM     68  C   UNL A   1      46.690  32.579  27.229  1.00  0.00     0.020 A 
ATOM     69  C   UNL A   1      49.045  32.385  26.715  1.00  0.00     0.020 A 
ATOM     70  C   UNL A   1      47.860  33.104  26.678  1.00  0.00     0.054 A 
BRANCH  70  71
ATOM     71  S   UNL A   1      47.808  34.701  25.836  1.00  0.00     0.124 S 
ATOM     72  O   UNL A   1      46.616  34.561  25.005  1.00  0.00    -0.237 OA
ATOM     73  O   UNL A   1      47.699  35.636  26.952  1.00  0.00    -0.237 OA
ATOM     74  O   UNL A   1      49.075  34.748  25.110  1.00  0.00    -0.744 OA
ENDBRANCH  70  71
ENDBRANCH  51  65
BRANCH  52  75
ATOM     75  C   UNL A   1      39.697  28.053  29.188  1.00  0.00    -0.014 A 
ATOM     76  C   UNL A   1      38.679  28.138  30.155  1.00  0.00     0.010 A 
ATOM     77  C   UNL A   1      39.491  28.729  27.965  1.00  0.00     0.010 A 
ATOM     78  C   UNL A   1      37.521  28.906  29.923  1.00  0.00     0.020 A 
ATOM     79  C   UNL A   1      38.341  29.490  27.725  1.00  0.00     0.020 A 
ATOM     80  C   UNL A   1      37.368  29.591  28.715  1.00  0.00     0.054 A 
BRANCH  80  81
ATOM     81  S   UNL A   1      35.950  30.705  28.484  1.00  0.00     0.124 S 
ATOM     82  O   UNL A   1      35.529  30.960  29.858  1.00  0.00    -0.237 OA
ATOM     83  O   UNL A   1      36.548  31.839  27.785  1.00  0.00    -0.237 OA
ATOM     84  O   UNL A   1      35.016  29.912  27.686  1.00  0.00    -0.744 OA
ENDBRANCH  80  81
ENDBRANCH  52  75
BRANCH  64  85
ATOM     85  C   UNL A   1      44.956  26.382  32.405  1.00  0.00    -0.014 A 
ATOM     86  C   UNL A   1      44.719  25.093  31.884  1.00  0.00     0.010 A 
ATOM     87  C   UNL A   1      45.238  26.509  33.775  1.00  0.00     0.010 A 
ATOM     88  C   UNL A   1      44.766  23.964  32.718  1.00  0.00     0.020 A 
ATOM     89  C   UNL A   1      45.300  25.390  34.606  1.00  0.00     0.020 A 
ATOM     90  C   UNL A   1      45.063  24.121  34.076  1.00  0.00     0.054 A 
BRANCH  90  91
ATOM     91  S   UNL A   1      45.215  22.654  35.136  1.00  0.00     0.124 S 
ATOM     92  O   UNL A   1      44.174  21.775  34.612  1.00  0.00    -0.237 OA
ATOM     93  O   UNL A   1      46.589  22.218  34.894  1.00  0.00    -0.237 OA
ATOM     94  O   UNL A   1      44.969  23.170  36.482  1.00  0.00    -0.744 OA
ENDBRANCH  90  91
ENDBRANCH  64  85
ENDBRANCH  38  39
ENDBRANCH  31  33
ENDBRANCH  30  31
ENDBRANCH  29  30
ENDBRANCH  28  29
ENDBRANCH  27  28
ENDBRANCH  26  27
ENDBRANCH  25  26
ENDBRANCH   1  25
TORSDOF 26
ENDMDL
MODEL 2
REMARK VINA RESULT:      -9.0      3.756     10.444
REMARK SMILES Cc1nsc(NCc2ccncc2)c1C(=O)OCCOCCOCCOCCOC(=O)c1ccc(-c2c3nc(c(-c4ccc(S(=O)(=O)[O-])cc4)c4ccc([nH]4)c(-c4ccc(S(=O)(=O)[O-])cc4)c4nc(c(-c5ccc(S(=O)(=O)[O-])cc5)c5ccc2[nH]5)C=C4)C=C3)cc1
REMARK SMILES IDX 23 1 22 2 21 3 20 4 19 5 18 6 17 7 15 8 16 9 14 10 1 11 2 12
REMARK SMILES IDX 3 13 4 14 5 15 6 16 7 18 8 19 9 20 13 21 10 22 12 23 11 24
REMARK SMILES IDX 24 25 25 26 26 27 27 28 28 29 29 30 30 31 31 32 32 33 33 34
REMARK SMILES IDX 91 35 34 36 90 37 35 38 36 39 37 40 84 41 38 42 89 43 83 44
REMARK SMILES IDX 85 45 39 46 88 47 82 48 81 49 40 51 70 52 51 53 69 54 52 55
REMARK SMILES IDX 55 56 68 57 86 58 53 59 54 60 67 62 87 63 56 64 41 65 42 66
REMARK SMILES IDX 50 67 43 68 49 69 44 70 45 71 46 72 47 73 48 74 71 75 72 76
REMARK SMILES IDX 80 77 73 78 79 79 74 80 75 81 76 82 77 83 78 84 57 85 58 86
REMARK SMILES IDX 66 87 59 88 65 89 60 90 61 91 62 92 63 93 64 94
REMARK H PARENT 6 17 85 50 55 61
REMARK Flexibility Score: inf
ROOT
ATOM      1  O   UNL A   1      34.838  33.866  28.438  1.00  0.00    -0.377 OA
ENDROOT
BRANCH   1   2
ATOM      2  C   UNL A   1      33.898  32.813  28.337  1.00  0.00     0.188 C 
BRANCH   2   3
ATOM      3  C   UNL A   1      34.558  31.421  28.291  1.00  0.00     0.188 C 
BRANCH   3   4
ATOM      4  O   UNL A   1      35.010  30.856  27.070  1.00  0.00    -0.376 OA
BRANCH   4   5
ATOM      5  C   UNL A   1      34.609  29.573  26.623  1.00  0.00     0.202 C 
BRANCH   5   6
ATOM      6  C   UNL A   1      33.754  28.575  27.431  1.00  0.00     0.261 C 
BRANCH   6   7
ATOM      7  O   UNL A   1      33.079  27.541  26.716  1.00  0.00    -0.460 OA
BRANCH   7   8
ATOM      8  C   UNL A   1      31.726  27.642  26.643  1.00  0.00     0.343 C 
ATOM      9  O   UNL A   1      31.069  28.514  27.200  1.00  0.00    -0.246 OA
BRANCH   8  10
ATOM     10  C   UNL A   1      31.163  26.712  25.672  1.00  0.00     0.117 A 
ATOM     11  C   UNL A   1      31.960  24.428  26.689  1.00  0.00     0.069 C 
ATOM     12  C   UNL A   1      31.234  25.272  25.697  1.00  0.00     0.068 A 
ATOM     13  N   UNL A   1      30.616  24.644  24.697  1.00  0.00    -0.195 NA
ATOM     14  S   UNL A   1      30.033  25.762  23.634  1.00  0.00    -0.018 S 
ATOM     15  C   UNL A   1      30.609  27.146  24.466  1.00  0.00     0.124 A 
BRANCH  15  16
ATOM     16  N   UNL A   1      30.600  28.427  24.010  1.00  0.00    -0.371 N 
ATOM     17  H   UNL A   1      30.696  29.135  24.687  1.00  0.00     0.161 HD
BRANCH  16  18
ATOM     18  C   UNL A   1      30.462  28.859  22.638  1.00  0.00     0.149 C 
BRANCH  18  19
ATOM     19  C   UNL A   1      29.577  30.085  22.594  1.00  0.00    -0.026 A 
ATOM     20  C   UNL A   1      29.244  30.793  23.759  1.00  0.00     0.025 A 
ATOM     21  C   UNL A   1      29.034  30.525  21.385  1.00  0.00     0.025 A 
ATOM     22  C   UNL A   1      28.430  31.906  23.665  1.00  0.00     0.111 A 
ATOM     23  C   UNL A   1      28.213  31.643  21.395  1.00  0.00     0.111 A 
ATOM     24  N   UNL A   1      27.902  32.347  22.505  1.00  0.00    -0.265 NA
ENDBRANCH  18  19
ENDBRANCH  16  18
ENDBRANCH  15  16
ENDBRANCH   8  10
ENDBRANCH   7   8
ENDBRANCH   6   7
ENDBRANCH   5   6
ENDBRANCH   4   5
ENDBRANCH   3   4
ENDBRANCH   2   3
ENDBRANCH   1   2
BRANCH   1  25
ATOM     25  C   UNL A   1      34.289  35.170  28.616  1.00  0.00     0.188 C 
BRANCH  25  26
ATOM     26  C   UNL A   1      33.175  35.413  29.674  1.00  0.00     0.188 C 
BRANCH  26  27
ATOM     27  O   UNL A   1      33.591  36.106  30.845  1.00  0.00    -0.376 OA
BRANCH  27  28
ATOM     28  C   UNL A   1      33.218  35.720  32.155  1.00  0.00     0.202 C 
BRANCH  28  29
ATOM     29  C   UNL A   1      33.845  34.446  32.713  1.00  0.00     0.261 C 
BRANCH  29  30
ATOM     30  O   UNL A   1      35.184  34.273  32.303  1.00  0.00    -0.460 OA
BRANCH  30  31
ATOM     31  C   UNL A   1      35.752  33.134  32.728  1.00  0.00     0.338 C 
ATOM     32  O   UNL A   1      35.810  32.721  33.881  1.00  0.00    -0.246 OA
BRANCH  31  33
ATOM     33  C   UNL A   1      36.368  32.483  31.575  1.00  0.00     0.060 A 
ATOM     34  C   UNL A   1      36.147  31.114  31.463  1.00  0.00     0.016 A 
ATOM     35  C   UNL A   1      37.414  33.149  30.913  1.00  0.00     0.016 A 
ATOM     36  C   UNL A   1      37.186  30.359  30.993  1.00  0.00     0.010 A 
ATOM     37  C   UNL A   1      38.454  32.395  30.455  1.00  0.00     0.010 A 
ATOM     38  C   UNL A   1      38.366  31.022  30.641  1.00  0.00    -0.014 A 
BRANCH  38  39
ATOM     39  C   UNL A   1      39.563  30.232  30.551  1.00  0.00     0.031 A 
ATOM     40  C   UNL A   1      40.241  30.080  31.843  1.00  0.00     0.074 A 
ATOM     41  C   UNL A   1      39.930  29.661  29.390  1.00  0.00     0.049 A 
ATOM     42  N   UNL A   1      41.334  30.647  32.226  1.00  0.00    -0.248 NA
ATOM     43  C   UNL A   1      39.499  29.388  32.908  1.00  0.00     0.031 C 
ATOM     44  C   UNL A   1      39.160  29.513  28.150  1.00  0.00     0.029 A 
ATOM     45  N   UNL A   1      41.060  28.965  29.129  1.00  0.00    -0.354 N 
ATOM     46  C   UNL A   1      41.530  30.203  33.525  1.00  0.00     0.074 A 
ATOM     47  C   UNL A   1      40.280  29.632  33.957  1.00  0.00     0.031 C 
ATOM     48  C   UNL A   1      39.737  28.553  27.388  1.00  0.00     0.029 A 
ATOM     49  C   UNL A   1      40.977  28.135  28.022  1.00  0.00     0.049 A 
ATOM     50  H   UNL A   1      41.873  29.040  29.679  1.00  0.00     0.167 HD
ATOM     51  C   UNL A   1      42.776  30.081  34.054  1.00  0.00     0.031 A 
ATOM     52  C   UNL A   1      41.821  27.109  27.742  1.00  0.00     0.031 A 
ATOM     53  C   UNL A   1      43.766  30.764  33.267  1.00  0.00     0.049 A 
ATOM     54  C   UNL A   1      43.060  27.339  28.539  1.00  0.00     0.074 A 
ATOM     55  C   UNL A   1      43.975  32.081  32.911  1.00  0.00     0.029 A 
ATOM     56  N   UNL A   1      44.490  30.005  32.376  1.00  0.00    -0.354 N 
ATOM     57  N   UNL A   1      43.859  28.355  28.348  1.00  0.00    -0.248 NA
ATOM     58  C   UNL A   1      43.146  26.729  29.860  1.00  0.00     0.031 C 
ATOM     59  C   UNL A   1      44.435  32.031  31.564  1.00  0.00     0.029 A 
ATOM     60  C   UNL A   1      44.538  30.689  31.187  1.00  0.00     0.049 A 
ATOM     61  H   UNL A   1      44.901  29.128  32.559  1.00  0.00     0.167 HD
ATOM     62  C   UNL A   1      44.237  28.766  29.620  1.00  0.00     0.074 A 
ATOM     63  C   UNL A   1      43.835  27.675  30.506  1.00  0.00     0.031 C 
ATOM     64  C   UNL A   1      44.577  30.066  29.878  1.00  0.00     0.031 A 
BRANCH  51  65
ATOM     65  C   UNL A   1      43.126  29.006  35.042  1.00  0.00    -0.014 A 
ATOM     66  C   UNL A   1      43.711  29.371  36.267  1.00  0.00     0.010 A 
ATOM     67  C   UNL A   1      43.142  27.636  34.699  1.00  0.00     0.010 A 
ATOM     68  C   UNL A   1      44.326  28.412  37.081  1.00  0.00     0.020 A 
ATOM     69  C   UNL A   1      43.706  26.669  35.524  1.00  0.00     0.020 A 
ATOM     70  C   UNL A   1      44.329  27.070  36.696  1.00  0.00     0.054 A 
BRANCH  70  71
ATOM     71  S   UNL A   1      45.222  25.860  37.696  1.00  0.00     0.124 S 
ATOM     72  O   UNL A   1      46.587  26.015  37.202  1.00  0.00    -0.237 OA
ATOM     73  O   UNL A   1      44.977  26.338  39.053  1.00  0.00    -0.237 OA
ATOM     74  O   UNL A   1      44.575  24.593  37.359  1.00  0.00    -0.744 OA
ENDBRANCH  70  71
ENDBRANCH  51  65
BRANCH  52  75
ATOM     75  C   UNL A   1      41.438  25.781  27.195  1.00  0.00    -0.014 A 
ATOM     76  C   UNL A   1      42.376  24.955  26.549  1.00  0.00     0.010 A 
ATOM     77  C   UNL A   1      40.196  25.207  27.543  1.00  0.00     0.010 A 
ATOM     78  C   UNL A   1      42.096  23.597  26.302  1.00  0.00     0.020 A 
ATOM     79  C   UNL A   1      39.908  23.860  27.295  1.00  0.00     0.020 A 
ATOM     80  C   UNL A   1      40.869  23.054  26.692  1.00  0.00     0.054 A 
BRANCH  80  81
ATOM     81  S   UNL A   1      40.576  21.268  26.514  1.00  0.00     0.124 S 
ATOM     82  O   UNL A   1      39.246  21.231  25.915  1.00  0.00    -0.237 OA
ATOM     83  O   UNL A   1      41.673  20.852  25.645  1.00  0.00    -0.237 OA
ATOM     84  O   UNL A   1      40.652  20.769  27.886  1.00  0.00    -0.744 OA
ENDBRANCH  80  81
ENDBRANCH  52  75
BRANCH  64  85
ATOM     85  C   UNL A   1      44.783  31.006  28.712  1.00  0.00    -0.014 A 
ATOM     86  C   UNL A   1      43.743  31.755  28.123  1.00  0.00     0.010 A 
ATOM     87  C   UNL A   1      46.107  31.295  28.344  1.00  0.00     0.010 A 
ATOM     88  C   UNL A   1      44.028  32.767  27.191  1.00  0.00     0.020 A 
ATOM     89  C   UNL A   1      46.398  32.308  27.429  1.00  0.00     0.020 A 
ATOM     90  C   UNL A   1      45.358  33.040  26.855  1.00  0.00     0.054 A 
BRANCH  90  91
ATOM     91  S   UNL A   1      45.733  34.408  25.720  1.00  0.00     0.124 S 
ATOM     92  O   UNL A   1      45.385  35.583  26.513  1.00  0.00    -0.237 OA
ATOM     93  O   UNL A   1      47.160  34.229  25.453  1.00  0.00    -0.237 OA
ATOM     94  O   UNL A   1      44.864  34.156  24.572  1.00  0.00    -0.744 OA
ENDBRANCH  90  91
ENDBRANCH  64  85
ENDBRANCH  38  39
ENDBRANCH  31  33
ENDBRANCH  30  31
ENDBRANCH  29  30
ENDBRANCH  28  29
ENDBRANCH  27  28
ENDBRANCH  26  27
ENDBRANCH  25  26
ENDBRANCH   1  25
TORSDOF 26
ENDMDL
MODEL 3
REMARK VINA RESULT:      -8.8      1.645      2.360
REMARK SMILES Cc1nsc(NCc2ccncc2)c1C(=O)OCCOCCOCCOCCOC(=O)c1ccc(-c2c3nc(c(-c4ccc(S(=O)(=O)[O-])cc4)c4ccc([nH]4)c(-c4ccc(S(=O)(=O)[O-])cc4)c4nc(c(-c5ccc(S(=O)(=O)[O-])cc5)c5ccc2[nH]5)C=C4)C=C3)cc1
REMARK SMILES IDX 23 1 22 2 21 3 20 4 19 5 18 6 17 7 15 8 16 9 14 10 1 11 2 12
REMARK SMILES IDX 3 13 4 14 5 15 6 16 7 18 8 19 9 20 13 21 10 22 12 23 11 24
REMARK SMILES IDX 24 25 25 26 26 27 27 28 28 29 29 30 30 31 31 32 32 33 33 34
REMARK SMILES IDX 91 35 34 36 90 37 35 38 36 39 37 40 84 41 38 42 89 43 83 44
REMARK SMILES IDX 85 45 39 46 88 47 82 48 81 49 40 51 70 52 51 53 69 54 52 55
REMARK SMILES IDX 55 56 68 57 86 58 53 59 54 60 67 62 87 63 56 64 41 65 42 66
REMARK SMILES IDX 50 67 43 68 49 69 44 70 45 71 46 72 47 73 48 74 71 75 72 76
REMARK SMILES IDX 80 77 73 78 79 79 74 80 75 81 76 82 77 83 78 84 57 85 58 86
REMARK SMILES IDX 66 87 59 88 65 89 60 90 61 91 62 92 63 93 64 94
REMARK H PARENT 6 17 85 50 55 61
REMARK Flexibility Score: inf
ROOT
ATOM      1  O   UNL A   1      40.523  21.422  26.916  1.00  0.00    -0.377 OA
ENDROOT
BRANCH   1   2
ATOM      2  C   UNL A   1      39.382  22.105  26.432  1.00  0.00     0.188 C 
BRANCH   2   3
ATOM      3  C   UNL A   1      38.627  21.316  25.344  1.00  0.00     0.188 C 
BRANCH   3   4
ATOM      4  O   UNL A   1      37.306  20.845  25.553  1.00  0.00    -0.376 OA
BRANCH   4   5
ATOM      5  C   UNL A   1      36.157  21.602  25.213  1.00  0.00     0.202 C 
BRANCH   5   6
ATOM      6  C   UNL A   1      35.944  22.347  23.880  1.00  0.00     0.261 C 
BRANCH   6   7
ATOM      7  O   UNL A   1      35.279  23.609  23.918  1.00  0.00    -0.460 OA
BRANCH   7   8
ATOM      8  C   UNL A   1      34.142  23.714  23.181  1.00  0.00     0.343 C 
ATOM      9  O   UNL A   1      34.065  23.445  21.988  1.00  0.00    -0.246 OA
BRANCH   8  10
ATOM     10  C   UNL A   1      32.980  23.998  24.014  1.00  0.00     0.117 A 
ATOM     11  C   UNL A   1      33.508  26.464  24.738  1.00  0.00     0.069 C 
ATOM     12  C   UNL A   1      32.669  25.233  24.690  1.00  0.00     0.068 A 
ATOM     13  N   UNL A   1      31.527  25.245  25.378  1.00  0.00    -0.195 NA
ATOM     14  S   UNL A   1      30.850  23.742  25.331  1.00  0.00    -0.018 S 
ATOM     15  C   UNL A   1      32.083  23.000  24.398  1.00  0.00     0.124 A 
BRANCH  15  16
ATOM     16  N   UNL A   1      32.211  21.671  24.138  1.00  0.00    -0.371 N 
ATOM     17  H   UNL A   1      31.964  21.375  23.232  1.00  0.00     0.161 HD
BRANCH  16  18
ATOM     18  C   UNL A   1      32.669  20.648  25.050  1.00  0.00     0.149 C 
BRANCH  18  19
ATOM     19  C   UNL A   1      32.995  19.397  24.262  1.00  0.00    -0.026 A 
ATOM     20  C   UNL A   1      34.131  18.625  24.548  1.00  0.00     0.025 A 
ATOM     21  C   UNL A   1      32.185  18.998  23.196  1.00  0.00     0.025 A 
ATOM     22  C   UNL A   1      34.385  17.492  23.798  1.00  0.00     0.111 A 
ATOM     23  C   UNL A   1      32.533  17.856  22.491  1.00  0.00     0.111 A 
ATOM     24  N   UNL A   1      33.611  17.090  22.769  1.00  0.00    -0.265 NA
ENDBRANCH  18  19
ENDBRANCH  16  18
ENDBRANCH  15  16
ENDBRANCH   8  10
ENDBRANCH   7   8
ENDBRANCH   6   7
ENDBRANCH   5   6
ENDBRANCH   4   5
ENDBRANCH   3   4
ENDBRANCH   2   3
ENDBRANCH   1   2
BRANCH   1  25
ATOM     25  C   UNL A   1      40.772  20.145  26.334  1.00  0.00     0.188 C 
BRANCH  25  26
ATOM     26  C   UNL A   1      42.210  19.549  26.337  1.00  0.00     0.188 C 
BRANCH  26  27
ATOM     27  O   UNL A   1      42.792  19.361  25.053  1.00  0.00    -0.376 OA
BRANCH  27  28
ATOM     28  C   UNL A   1      44.160  19.597  24.773  1.00  0.00     0.202 C 
BRANCH  28  29
ATOM     29  C   UNL A   1      44.839  20.741  25.521  1.00  0.00     0.261 C 
BRANCH  29  30
ATOM     30  O   UNL A   1      44.938  21.915  24.746  1.00  0.00    -0.460 OA
BRANCH  30  31
ATOM     31  C   UNL A   1      43.970  22.816  24.975  1.00  0.00     0.338 C 
ATOM     32  O   UNL A   1      42.764  22.664  24.813  1.00  0.00    -0.246 OA
BRANCH  31  33
ATOM     33  C   UNL A   1      44.606  24.062  25.393  1.00  0.00     0.060 A 
ATOM     34  C   UNL A   1      45.222  24.038  26.642  1.00  0.00     0.016 A 
ATOM     35  C   UNL A   1      44.237  25.251  24.741  1.00  0.00     0.016 A 
ATOM     36  C   UNL A   1      45.129  25.175  27.395  1.00  0.00     0.010 A 
ATOM     37  C   UNL A   1      44.135  26.381  25.498  1.00  0.00     0.010 A 
ATOM     38  C   UNL A   1      44.452  26.268  26.845  1.00  0.00    -0.014 A 
BRANCH  38  39
ATOM     39  C   UNL A   1      43.995  27.285  27.751  1.00  0.00     0.031 A 
ATOM     40  C   UNL A   1      44.905  28.434  27.821  1.00  0.00     0.074 A 
ATOM     41  C   UNL A   1      42.814  27.170  28.384  1.00  0.00     0.049 A 
ATOM     42  N   UNL A   1      45.703  28.744  28.785  1.00  0.00    -0.248 NA
ATOM     43  C   UNL A   1      45.108  29.199  26.582  1.00  0.00     0.031 C 
ATOM     44  C   UNL A   1      41.725  26.217  28.140  1.00  0.00     0.029 A 
ATOM     45  N   UNL A   1      42.290  27.994  29.319  1.00  0.00    -0.354 N 
ATOM     46  C   UNL A   1      46.360  29.886  28.352  1.00  0.00     0.074 A 
ATOM     47  C   UNL A   1      46.127  29.981  26.932  1.00  0.00     0.031 C 
ATOM     48  C   UNL A   1      40.592  26.691  28.711  1.00  0.00     0.029 A 
ATOM     49  C   UNL A   1      40.916  27.889  29.468  1.00  0.00     0.049 A 
ATOM     50  H   UNL A   1      42.838  28.616  29.850  1.00  0.00     0.167 HD
ATOM     51  C   UNL A   1      46.811  30.822  29.227  1.00  0.00     0.031 A 
ATOM     52  C   UNL A   1      40.118  28.804  30.076  1.00  0.00     0.031 A 
ATOM     53  C   UNL A   1      46.833  30.332  30.578  1.00  0.00     0.049 A 
ATOM     54  C   UNL A   1      41.002  29.650  30.928  1.00  0.00     0.074 A 
ATOM     55  C   UNL A   1      47.501  29.312  31.224  1.00  0.00     0.029 A 
ATOM     56  N   UNL A   1      45.761  30.659  31.379  1.00  0.00    -0.354 N 
ATOM     57  N   UNL A   1      41.656  29.191  31.962  1.00  0.00    -0.248 NA
ATOM     58  C   UNL A   1      41.547  30.871  30.347  1.00  0.00     0.031 C 
ATOM     59  C   UNL A   1      46.553  28.771  32.138  1.00  0.00     0.029 A 
ATOM     60  C   UNL A   1      45.378  29.522  32.046  1.00  0.00     0.049 A 
ATOM     61  H   UNL A   1      45.345  31.548  31.459  1.00  0.00     0.167 HD
ATOM     62  C   UNL A   1      42.900  29.809  31.909  1.00  0.00     0.074 A 
ATOM     63  C   UNL A   1      42.743  30.895  30.944  1.00  0.00     0.031 C 
ATOM     64  C   UNL A   1      44.015  29.213  32.432  1.00  0.00     0.031 A 
BRANCH  51  65
ATOM     65  C   UNL A   1      46.832  32.287  28.895  1.00  0.00    -0.014 A 
ATOM     66  C   UNL A   1      45.626  33.009  28.919  1.00  0.00     0.010 A 
ATOM     67  C   UNL A   1      47.951  32.915  28.307  1.00  0.00     0.010 A 
ATOM     68  C   UNL A   1      45.538  34.278  28.335  1.00  0.00     0.020 A 
ATOM     69  C   UNL A   1      47.888  34.196  27.768  1.00  0.00     0.020 A 
ATOM     70  C   UNL A   1      46.668  34.855  27.753  1.00  0.00     0.054 A 
BRANCH  70  71
ATOM     71  S   UNL A   1      46.518  36.442  26.902  1.00  0.00     0.124 S 
ATOM     72  O   UNL A   1      47.401  36.250  25.756  1.00  0.00    -0.237 OA
ATOM     73  O   UNL A   1      45.090  36.498  26.603  1.00  0.00    -0.237 OA
ATOM     74  O   UNL A   1      46.982  37.408  27.895  1.00  0.00    -0.744 OA
ENDBRANCH  70  71
ENDBRANCH  51  65
BRANCH  52  75
ATOM     75  C   UNL A   1      38.770  29.234  29.620  1.00  0.00    -0.014 A 
ATOM     76  C   UNL A   1      37.786  29.653  30.533  1.00  0.00     0.010 A 
ATOM     77  C   UNL A   1      38.536  29.484  28.250  1.00  0.00     0.010 A 
ATOM     78  C   UNL A   1      36.633  30.334  30.095  1.00  0.00     0.020 A 
ATOM     79  C   UNL A   1      37.391  30.155  27.806  1.00  0.00     0.020 A 
ATOM     80  C   UNL A   1      36.452  30.595  28.733  1.00  0.00     0.054 A 
BRANCH  80  81
ATOM     81  S   UNL A   1      35.044  31.610  28.190  1.00  0.00     0.124 S 
ATOM     82  O   UNL A   1      35.706  32.722  27.515  1.00  0.00    -0.237 OA
ATOM     83  O   UNL A   1      34.306  30.693  27.326  1.00  0.00    -0.237 OA
ATOM     84  O   UNL A   1      34.369  31.958  29.440  1.00  0.00    -0.744 OA
ENDBRANCH  80  81
ENDBRANCH  52  75
BRANCH  64  85
ATOM     85  C   UNL A   1      43.843  27.982  33.293  1.00  0.00    -0.014 A 
ATOM     86  C   UNL A   1      43.884  26.666  32.788  1.00  0.00     0.010 A 
ATOM     87  C   UNL A   1      43.850  28.165  34.686  1.00  0.00     0.010 A 
ATOM     88  C   UNL A   1      43.933  25.566  33.661  1.00  0.00     0.020 A 
ATOM     89  C   UNL A   1      43.913  27.077  35.558  1.00  0.00     0.020 A 
ATOM     90  C   UNL A   1      43.954  25.781  35.043  1.00  0.00     0.054 A 
BRANCH  90  91
ATOM     91  S   UNL A   1      44.110  24.364  36.169  1.00  0.00     0.124 S 
ATOM     92  O   UNL A   1      45.471  23.903  35.912  1.00  0.00    -0.237 OA
ATOM     93  O   UNL A   1      43.885  24.965  37.482  1.00  0.00    -0.237 OA
ATOM     94  O   UNL A   1      43.055  23.452  35.729  1.00  0.00    -0.744 OA
ENDBRANCH  90  91
ENDBRANCH  64  85
ENDBRANCH  38  39
ENDBRANCH  31  33
ENDBRANCH  30  31
ENDBRANCH  29  30
ENDBRANCH  28  29
ENDBRANCH  27  28
ENDBRANCH  26  27
ENDBRANCH  25  26
ENDBRANCH   1  25
TORSDOF 26
ENDMDL
