MODEL 1
REMARK VINA RESULT:     -10.1      0.000      0.000
REMARK SMILES Cc1cccc(-c2ccc(Cl)c(C(=O)OCCOCCOCCOCCOC(=O)c3ccc(-c4c5nc(c(-c6ccc(S(=O)(=O)[O-])cc6)c6ccc([nH]6)c(-c6ccc(S(=O)(=O)[O-])cc6)c6nc(c(-c7ccc(S(=O)(=O)[O-])cc7)c7ccc4[nH]7)C=C6)C=C5)cc3)c2)c1
REMARK SMILES IDX 22 1 21 2 20 3 19 4 18 5 17 6 16 7 15 8 13 9 14 10 12 11
REMARK SMILES IDX 7 12 8 13 90 14 9 15 10 16 11 17 6 18 1 19 2 20 3 21 91 22
REMARK SMILES IDX 4 23 5 24 23 25 24 26 25 27 26 28 27 29 28 30 29 31 30 32
REMARK SMILES IDX 31 33 89 34 32 35 88 36 33 37 34 38 35 39 82 40 36 41 87 42
REMARK SMILES IDX 81 43 83 44 37 45 86 46 80 47 79 48 38 50 68 51 49 52 67 53
REMARK SMILES IDX 50 54 53 55 66 56 84 57 51 58 52 59 65 61 85 62 54 63 39 64
REMARK SMILES IDX 40 65 48 66 41 67 47 68 42 69 43 70 44 71 45 72 46 73 69 74
REMARK SMILES IDX 70 75 78 76 71 77 77 78 72 79 73 80 74 81 75 82 76 83 55 84
REMARK SMILES IDX 56 85 64 86 57 87 63 88 58 89 59 90 60 91 61 92 62 93
REMARK H PARENT 83 49 53 60
REMARK Flexibility Score: inf
ROOT
ATOM      1  C   UNL A   1      37.102  21.671  25.139  1.00  0.00     0.188 C 
ENDROOT
BRANCH   1   2
ATOM      2  O   UNL A   1      35.890  21.228  25.771  1.00  0.00    -0.377 OA
BRANCH   2   3
ATOM      3  C   UNL A   1      34.956  20.502  25.000  1.00  0.00     0.188 C 
BRANCH   3   4
ATOM      4  C   UNL A   1      33.593  21.171  24.732  1.00  0.00     0.188 C 
BRANCH   4   5
ATOM      5  O   UNL A   1      33.121  21.354  23.406  1.00  0.00    -0.376 OA
BRANCH   5   6
ATOM      6  C   UNL A   1      33.244  22.682  22.897  1.00  0.00     0.202 C 
BRANCH   6   7
ATOM      7  C   UNL A   1      34.533  23.419  23.214  1.00  0.00     0.261 C 
BRANCH   7   8
ATOM      8  O   UNL A   1      34.176  24.746  23.607  1.00  0.00    -0.460 OA
BRANCH   8   9
ATOM      9  C   UNL A   1      33.647  24.828  24.833  1.00  0.00     0.339 C 
ATOM     10  O   UNL A   1      34.108  24.416  25.880  1.00  0.00    -0.246 OA
BRANCH   9  11
ATOM     11  C   UNL A   1      32.737  25.972  24.807  1.00  0.00     0.079 A 
ATOM     12  C   UNL A   1      32.556  28.181  25.798  1.00  0.00    -0.017 A 
ATOM     13  C   UNL A   1      31.241  28.265  25.354  1.00  0.00     0.010 A 
ATOM     14  C   UNL A   1      33.290  27.040  25.494  1.00  0.00     0.026 A 
ATOM     15  C   UNL A   1      30.725  27.249  24.539  1.00  0.00     0.022 A 
ATOM     16  C   UNL A   1      31.479  26.103  24.248  1.00  0.00     0.055 A 
ATOM     17  Cl  UNL A   1      30.744  24.942  23.234  1.00  0.00    -0.083 Cl
BRANCH  12  18
ATOM     18  C   UNL A   1      33.203  29.016  26.796  1.00  0.00    -0.018 A 
ATOM     19  C   UNL A   1      36.871  29.268  27.683  1.00  0.00     0.044 C 
ATOM     20  C   UNL A   1      35.430  29.642  27.532  1.00  0.00    -0.051 A 
ATOM     21  C   UNL A   1      34.978  30.949  27.745  1.00  0.00     0.003 A 
ATOM     22  C   UNL A   1      34.525  28.674  27.103  1.00  0.00     0.012 A 
ATOM     23  C   UNL A   1      33.645  31.289  27.501  1.00  0.00     0.001 A 
ATOM     24  C   UNL A   1      32.756  30.326  27.026  1.00  0.00     0.009 A 
ENDBRANCH  12  18
ENDBRANCH   9  11
ENDBRANCH   8   9
ENDBRANCH   7   8
ENDBRANCH   6   7
ENDBRANCH   5   6
ENDBRANCH   4   5
ENDBRANCH   3   4
ENDBRANCH   2   3
ENDBRANCH   1   2
BRANCH   1  25
ATOM     25  C   UNL A   1      37.901  22.813  25.754  1.00  0.00     0.188 C 
BRANCH  25  26
ATOM     26  O   UNL A   1      39.014  22.233  26.432  1.00  0.00    -0.376 OA
BRANCH  26  27
ATOM     27  C   UNL A   1      39.929  23.137  27.023  1.00  0.00     0.202 C 
BRANCH  27  28
ATOM     28  C   UNL A   1      39.935  24.512  26.355  1.00  0.00     0.261 C 
BRANCH  28  29
ATOM     29  O   UNL A   1      41.069  25.294  26.797  1.00  0.00    -0.460 OA
BRANCH  29  30
ATOM     30  C   UNL A   1      40.840  26.621  27.041  1.00  0.00     0.338 C 
ATOM     31  O   UNL A   1      40.749  27.454  26.157  1.00  0.00    -0.246 OA
BRANCH  30  32
ATOM     32  C   UNL A   1      40.620  26.880  28.498  1.00  0.00     0.060 A 
ATOM     33  C   UNL A   1      39.339  26.973  29.060  1.00  0.00     0.016 A 
ATOM     34  C   UNL A   1      41.706  27.200  29.287  1.00  0.00     0.016 A 
ATOM     35  C   UNL A   1      39.138  27.581  30.329  1.00  0.00     0.010 A 
ATOM     36  C   UNL A   1      41.496  27.847  30.493  1.00  0.00     0.010 A 
ATOM     37  C   UNL A   1      40.221  28.100  31.035  1.00  0.00    -0.014 A 
BRANCH  37  38
ATOM     38  C   UNL A   1      40.194  29.017  32.218  1.00  0.00     0.031 A 
ATOM     39  C   UNL A   1      40.881  28.578  33.519  1.00  0.00     0.074 A 
ATOM     40  C   UNL A   1      39.912  30.346  32.068  1.00  0.00     0.049 A 
ATOM     41  N   UNL A   1      41.081  29.325  34.557  1.00  0.00    -0.248 NA
ATOM     42  C   UNL A   1      41.452  27.245  33.749  1.00  0.00     0.031 C 
ATOM     43  C   UNL A   1      40.517  31.405  32.872  1.00  0.00     0.029 A 
ATOM     44  N   UNL A   1      39.164  31.093  31.165  1.00  0.00    -0.354 N 
ATOM     45  C   UNL A   1      42.067  28.766  35.355  1.00  0.00     0.074 A 
ATOM     46  C   UNL A   1      42.206  27.427  34.846  1.00  0.00     0.031 C 
ATOM     47  C   UNL A   1      40.082  32.613  32.521  1.00  0.00     0.029 A 
ATOM     48  C   UNL A   1      38.989  32.410  31.623  1.00  0.00     0.049 A 
ATOM     49  H   UNL A   1      38.803  30.745  30.317  1.00  0.00     0.167 HD
ATOM     50  C   UNL A   1      42.739  29.550  36.262  1.00  0.00     0.031 A 
ATOM     51  C   UNL A   1      37.782  33.014  31.830  1.00  0.00     0.031 A 
ATOM     52  C   UNL A   1      42.185  30.918  36.304  1.00  0.00     0.049 A 
ATOM     53  C   UNL A   1      37.616  33.274  33.324  1.00  0.00     0.074 A 
ATOM     54  C   UNL A   1      42.733  32.180  36.146  1.00  0.00     0.029 A 
ATOM     55  N   UNL A   1      40.808  31.113  36.374  1.00  0.00    -0.354 N 
ATOM     56  N   UNL A   1      38.155  32.485  34.230  1.00  0.00    -0.248 NA
ATOM     57  C   UNL A   1      37.111  34.520  33.915  1.00  0.00     0.031 C 
ATOM     58  C   UNL A   1      41.671  33.112  35.991  1.00  0.00     0.029 A 
ATOM     59  C   UNL A   1      40.473  32.432  36.159  1.00  0.00     0.049 A 
ATOM     60  H   UNL A   1      40.155  30.398  36.553  1.00  0.00     0.167 HD
ATOM     61  C   UNL A   1      38.260  33.167  35.411  1.00  0.00     0.074 A 
ATOM     62  C   UNL A   1      37.519  34.401  35.195  1.00  0.00     0.031 C 
ATOM     63  C   UNL A   1      39.127  32.894  36.430  1.00  0.00     0.031 A 
BRANCH  50  64
ATOM     64  C   UNL A   1      44.038  29.214  37.026  1.00  0.00    -0.014 A 
ATOM     65  C   UNL A   1      44.204  27.904  37.545  1.00  0.00     0.010 A 
ATOM     66  C   UNL A   1      45.096  30.099  37.326  1.00  0.00     0.010 A 
ATOM     67  C   UNL A   1      45.303  27.504  38.328  1.00  0.00     0.020 A 
ATOM     68  C   UNL A   1      46.230  29.702  38.085  1.00  0.00     0.020 A 
ATOM     69  C   UNL A   1      46.322  28.406  38.590  1.00  0.00     0.054 A 
BRANCH  69  70
ATOM     70  S   UNL A   1      47.762  27.837  39.548  1.00  0.00     0.124 S 
ATOM     71  O   UNL A   1      47.992  26.496  39.014  1.00  0.00    -0.237 OA
ATOM     72  O   UNL A   1      48.782  28.827  39.212  1.00  0.00    -0.237 OA
ATOM     73  O   UNL A   1      47.298  27.878  40.933  1.00  0.00    -0.744 OA
ENDBRANCH  69  70
ENDBRANCH  50  64
BRANCH  51  74
ATOM     74  C   UNL A   1      36.827  32.711  30.721  1.00  0.00    -0.014 A 
ATOM     75  C   UNL A   1      35.519  32.397  31.178  1.00  0.00     0.010 A 
ATOM     76  C   UNL A   1      36.953  33.441  29.523  1.00  0.00     0.010 A 
ATOM     77  C   UNL A   1      34.402  33.056  30.649  1.00  0.00     0.020 A 
ATOM     78  C   UNL A   1      35.831  34.109  28.997  1.00  0.00     0.020 A 
ATOM     79  C   UNL A   1      34.578  33.965  29.606  1.00  0.00     0.054 A 
BRANCH  79  80
ATOM     80  S   UNL A   1      33.229  35.139  29.250  1.00  0.00     0.124 S 
ATOM     81  O   UNL A   1      33.954  36.350  28.888  1.00  0.00    -0.237 OA
ATOM     82  O   UNL A   1      32.512  34.477  28.160  1.00  0.00    -0.237 OA
ATOM     83  O   UNL A   1      32.497  35.197  30.510  1.00  0.00    -0.744 OA
ENDBRANCH  79  80
ENDBRANCH  51  74
BRANCH  63  84
ATOM     84  C   UNL A   1      38.719  33.022  37.873  1.00  0.00    -0.014 A 
ATOM     85  C   UNL A   1      39.345  33.916  38.747  1.00  0.00     0.010 A 
ATOM     86  C   UNL A   1      37.530  32.388  38.323  1.00  0.00     0.010 A 
ATOM     87  C   UNL A   1      38.838  34.139  40.027  1.00  0.00     0.020 A 
ATOM     88  C   UNL A   1      36.989  32.641  39.582  1.00  0.00     0.020 A 
ATOM     89  C   UNL A   1      37.665  33.500  40.435  1.00  0.00     0.054 A 
BRANCH  89  90
ATOM     90  S   UNL A   1      37.032  33.841  42.089  1.00  0.00     0.124 S 
ATOM     91  O   UNL A   1      37.463  35.222  42.290  1.00  0.00    -0.237 OA
ATOM     92  O   UNL A   1      35.593  33.651  41.923  1.00  0.00    -0.237 OA
ATOM     93  O   UNL A   1      37.693  32.848  42.931  1.00  0.00    -0.744 OA
ENDBRANCH  89  90
ENDBRANCH  63  84
ENDBRANCH  37  38
ENDBRANCH  30  32
ENDBRANCH  29  30
ENDBRANCH  28  29
ENDBRANCH  27  28
ENDBRANCH  26  27
ENDBRANCH  25  26
ENDBRANCH   1  25
TORSDOF 24
ENDMDL
MODEL 2
REMARK VINA RESULT:      -9.9      2.538      8.280
REMARK SMILES Cc1cccc(-c2ccc(Cl)c(C(=O)OCCOCCOCCOCCOC(=O)c3ccc(-c4c5nc(c(-c6ccc(S(=O)(=O)[O-])cc6)c6ccc([nH]6)c(-c6ccc(S(=O)(=O)[O-])cc6)c6nc(c(-c7ccc(S(=O)(=O)[O-])cc7)c7ccc4[nH]7)C=C6)C=C5)cc3)c2)c1
REMARK SMILES IDX 22 1 21 2 20 3 19 4 18 5 17 6 16 7 15 8 13 9 14 10 12 11
REMARK SMILES IDX 7 12 8 13 90 14 9 15 10 16 11 17 6 18 1 19 2 20 3 21 91 22
REMARK SMILES IDX 4 23 5 24 23 25 24 26 25 27 26 28 27 29 28 30 29 31 30 32
REMARK SMILES IDX 31 33 89 34 32 35 88 36 33 37 34 38 35 39 82 40 36 41 87 42
REMARK SMILES IDX 81 43 83 44 37 45 86 46 80 47 79 48 38 50 68 51 49 52 67 53
REMARK SMILES IDX 50 54 53 55 66 56 84 57 51 58 52 59 65 61 85 62 54 63 39 64
REMARK SMILES IDX 40 65 48 66 41 67 47 68 42 69 43 70 44 71 45 72 46 73 69 74
REMARK SMILES IDX 70 75 78 76 71 77 77 78 72 79 73 80 74 81 75 82 76 83 55 84
REMARK SMILES IDX 56 85 64 86 57 87 63 88 58 89 59 90 60 91 61 92 62 93
REMARK H PARENT 83 49 53 60
REMARK Flexibility Score: inf
ROOT
ATOM      1  C   UNL A   1      35.313  21.508  24.803  1.00  0.00     0.188 C 
ENDROOT
BRANCH   1   2
ATOM      2  O   UNL A   1      34.595  20.359  25.283  1.00  0.00    -0.377 OA
BRANCH   2   3
ATOM      3  C   UNL A   1      33.465  19.922  24.558  1.00  0.00     0.188 C 
BRANCH   3   4
ATOM      4  C   UNL A   1      32.318  20.933  24.365  1.00  0.00     0.188 C 
BRANCH   4   5
ATOM      5  O   UNL A   1      32.222  21.708  23.180  1.00  0.00    -0.376 OA
BRANCH   5   6
ATOM      6  C   UNL A   1      32.136  23.119  23.385  1.00  0.00     0.202 C 
BRANCH   6   7
ATOM      7  C   UNL A   1      31.720  23.584  24.768  1.00  0.00     0.261 C 
BRANCH   7   8
ATOM      8  O   UNL A   1      32.227  24.910  24.939  1.00  0.00    -0.460 OA
BRANCH   8   9
ATOM      9  C   UNL A   1      31.592  25.621  25.878  1.00  0.00     0.339 C 
ATOM     10  O   UNL A   1      31.462  25.360  27.058  1.00  0.00    -0.246 OA
BRANCH   9  11
ATOM     11  C   UNL A   1      31.583  27.004  25.404  1.00  0.00     0.079 A 
ATOM     12  C   UNL A   1      32.555  29.144  26.011  1.00  0.00    -0.017 A 
ATOM     13  C   UNL A   1      31.689  29.779  25.128  1.00  0.00     0.010 A 
ATOM     14  C   UNL A   1      32.501  27.759  26.116  1.00  0.00     0.026 A 
ATOM     15  C   UNL A   1      30.860  29.007  24.304  1.00  0.00     0.022 A 
ATOM     16  C   UNL A   1      30.815  27.611  24.428  1.00  0.00     0.055 A 
ATOM     17  Cl  UNL A   1      29.773  26.782  23.360  1.00  0.00    -0.083 Cl
BRANCH  12  18
ATOM     18  C   UNL A   1      33.337  29.758  27.070  1.00  0.00    -0.018 A 
ATOM     19  C   UNL A   1      37.007  29.328  27.882  1.00  0.00     0.044 C 
ATOM     20  C   UNL A   1      35.643  29.941  27.807  1.00  0.00    -0.051 A 
ATOM     21  C   UNL A   1      35.411  31.274  28.162  1.00  0.00     0.003 A 
ATOM     22  C   UNL A   1      34.590  29.179  27.307  1.00  0.00     0.012 A 
ATOM     23  C   UNL A   1      34.147  31.846  27.988  1.00  0.00     0.001 A 
ATOM     24  C   UNL A   1      33.110  31.091  27.443  1.00  0.00     0.009 A 
ENDBRANCH  12  18
ENDBRANCH   9  11
ENDBRANCH   8   9
ENDBRANCH   7   8
ENDBRANCH   6   7
ENDBRANCH   5   6
ENDBRANCH   4   5
ENDBRANCH   3   4
ENDBRANCH   2   3
ENDBRANCH   1   2
BRANCH   1  25
ATOM     25  C   UNL A   1      35.498  22.716  25.713  1.00  0.00     0.188 C 
BRANCH  25  26
ATOM     26  O   UNL A   1      36.735  23.330  25.354  1.00  0.00    -0.376 OA
BRANCH  26  27
ATOM     27  C   UNL A   1      37.420  24.012  26.389  1.00  0.00     0.202 C 
BRANCH  27  28
ATOM     28  C   UNL A   1      38.915  23.697  26.430  1.00  0.00     0.261 C 
BRANCH  28  29
ATOM     29  O   UNL A   1      39.698  24.876  26.131  1.00  0.00    -0.460 OA
BRANCH  29  30
ATOM     30  C   UNL A   1      40.716  25.171  26.997  1.00  0.00     0.338 C 
ATOM     31  O   UNL A   1      41.722  24.491  27.099  1.00  0.00    -0.246 OA
BRANCH  30  32
ATOM     32  C   UNL A   1      40.472  26.465  27.708  1.00  0.00     0.060 A 
ATOM     33  C   UNL A   1      41.319  27.572  27.564  1.00  0.00     0.016 A 
ATOM     34  C   UNL A   1      39.476  26.521  28.663  1.00  0.00     0.016 A 
ATOM     35  C   UNL A   1      41.301  28.636  28.506  1.00  0.00     0.010 A 
ATOM     36  C   UNL A   1      39.508  27.530  29.611  1.00  0.00     0.010 A 
ATOM     37  C   UNL A   1      40.435  28.589  29.598  1.00  0.00    -0.014 A 
BRANCH  37  38
ATOM     38  C   UNL A   1      40.463  29.437  30.831  1.00  0.00     0.031 A 
ATOM     39  C   UNL A   1      39.729  30.785  30.827  1.00  0.00     0.074 A 
ATOM     40  C   UNL A   1      40.793  28.899  32.044  1.00  0.00     0.049 A 
ATOM     41  N   UNL A   1      39.528  31.539  31.860  1.00  0.00    -0.248 NA
ATOM     42  C   UNL A   1      39.108  31.390  29.642  1.00  0.00     0.031 C 
ATOM     43  C   UNL A   1      40.204  29.321  33.312  1.00  0.00     0.029 A 
ATOM     44  N   UNL A   1      41.589  27.838  32.461  1.00  0.00    -0.354 N 
ATOM     45  C   UNL A   1      38.503  32.434  31.595  1.00  0.00     0.074 A 
ATOM     46  C   UNL A   1      38.332  32.352  30.168  1.00  0.00     0.031 C 
ATOM     47  C   UNL A   1      40.688  28.634  34.344  1.00  0.00     0.029 A 
ATOM     48  C   UNL A   1      41.796  27.880  33.851  1.00  0.00     0.049 A 
ATOM     49  H   UNL A   1      41.959  27.149  31.863  1.00  0.00     0.167 HD
ATOM     50  C   UNL A   1      37.835  33.036  32.634  1.00  0.00     0.031 A 
ATOM     51  C   UNL A   1      43.017  27.934  34.460  1.00  0.00     0.031 A 
ATOM     52  C   UNL A   1      38.433  32.678  33.937  1.00  0.00     0.049 A 
ATOM     53  C   UNL A   1      43.153  29.283  35.159  1.00  0.00     0.074 A 
ATOM     54  C   UNL A   1      37.932  32.125  35.102  1.00  0.00     0.029 A 
ATOM     55  N   UNL A   1      39.813  32.733  34.110  1.00  0.00    -0.354 N 
ATOM     56  N   UNL A   1      42.565  30.367  34.698  1.00  0.00    -0.248 NA
ATOM     57  C   UNL A   1      43.684  29.484  36.513  1.00  0.00     0.031 C 
ATOM     58  C   UNL A   1      39.028  31.731  35.917  1.00  0.00     0.029 A 
ATOM     59  C   UNL A   1      40.197  32.139  35.292  1.00  0.00     0.049 A 
ATOM     60  H   UNL A   1      40.437  33.144  33.468  1.00  0.00     0.167 HD
ATOM     61  C   UNL A   1      42.452  31.280  35.710  1.00  0.00     0.074 A 
ATOM     62  C   UNL A   1      43.240  30.724  36.801  1.00  0.00     0.031 C 
ATOM     63  C   UNL A   1      41.551  32.303  35.782  1.00  0.00     0.031 A 
BRANCH  50  64
ATOM     64  C   UNL A   1      36.505  33.820  32.579  1.00  0.00    -0.014 A 
ATOM     65  C   UNL A   1      35.687  33.693  31.427  1.00  0.00     0.010 A 
ATOM     66  C   UNL A   1      36.014  34.721  33.548  1.00  0.00     0.010 A 
ATOM     67  C   UNL A   1      34.498  34.419  31.226  1.00  0.00     0.020 A 
ATOM     68  C   UNL A   1      34.798  35.437  33.377  1.00  0.00     0.020 A 
ATOM     69  C   UNL A   1      34.051  35.287  32.209  1.00  0.00     0.054 A 
BRANCH  69  70
ATOM     70  S   UNL A   1      32.475  36.160  31.947  1.00  0.00     0.124 S 
ATOM     71  O   UNL A   1      31.494  35.217  32.480  1.00  0.00    -0.237 OA
ATOM     72  O   UNL A   1      32.653  37.384  32.724  1.00  0.00    -0.237 OA
ATOM     73  O   UNL A   1      32.420  36.354  30.499  1.00  0.00    -0.744 OA
ENDBRANCH  69  70
ENDBRANCH  50  64
BRANCH  51  74
ATOM     74  C   UNL A   1      43.989  27.004  33.810  1.00  0.00    -0.014 A 
ATOM     75  C   UNL A   1      45.292  27.556  33.680  1.00  0.00     0.010 A 
ATOM     76  C   UNL A   1      43.877  25.628  34.093  1.00  0.00     0.010 A 
ATOM     77  C   UNL A   1      46.413  26.849  34.133  1.00  0.00     0.020 A 
ATOM     78  C   UNL A   1      45.004  24.922  34.554  1.00  0.00     0.020 A 
ATOM     79  C   UNL A   1      46.248  25.559  34.635  1.00  0.00     0.054 A 
BRANCH  79  80
ATOM     80  S   UNL A   1      47.598  24.846  35.633  1.00  0.00     0.124 S 
ATOM     81  O   UNL A   1      47.126  25.058  36.996  1.00  0.00    -0.237 OA
ATOM     82  O   UNL A   1      47.626  23.454  35.180  1.00  0.00    -0.237 OA
ATOM     83  O   UNL A   1      48.758  25.636  35.239  1.00  0.00    -0.744 OA
ENDBRANCH  79  80
ENDBRANCH  51  74
BRANCH  63  84
ATOM     84  C   UNL A   1      41.926  33.652  36.334  1.00  0.00    -0.014 A 
ATOM     85  C   UNL A   1      41.069  34.380  37.166  1.00  0.00     0.010 A 
ATOM     86  C   UNL A   1      43.261  34.118  36.199  1.00  0.00     0.010 A 
ATOM     87  C   UNL A   1      41.506  35.542  37.801  1.00  0.00     0.020 A 
ATOM     88  C   UNL A   1      43.720  35.250  36.867  1.00  0.00     0.020 A 
ATOM     89  C   UNL A   1      42.826  35.969  37.647  1.00  0.00     0.054 A 
BRANCH  89  90
ATOM     90  S   UNL A   1      43.352  37.463  38.510  1.00  0.00     0.124 S 
ATOM     91  O   UNL A   1      43.786  38.307  37.400  1.00  0.00    -0.237 OA
ATOM     92  O   UNL A   1      42.126  37.890  39.181  1.00  0.00    -0.237 OA
ATOM     93  O   UNL A   1      44.413  37.000  39.400  1.00  0.00    -0.744 OA
ENDBRANCH  89  90
ENDBRANCH  63  84
ENDBRANCH  37  38
ENDBRANCH  30  32
ENDBRANCH  29  30
ENDBRANCH  28  29
ENDBRANCH  27  28
ENDBRANCH  26  27
ENDBRANCH  25  26
ENDBRANCH   1  25
TORSDOF 24
ENDMDL
MODEL 3
REMARK VINA RESULT:      -9.3      4.961      9.306
REMARK SMILES Cc1cccc(-c2ccc(Cl)c(C(=O)OCCOCCOCCOCCOC(=O)c3ccc(-c4c5nc(c(-c6ccc(S(=O)(=O)[O-])cc6)c6ccc([nH]6)c(-c6ccc(S(=O)(=O)[O-])cc6)c6nc(c(-c7ccc(S(=O)(=O)[O-])cc7)c7ccc4[nH]7)C=C6)C=C5)cc3)c2)c1
REMARK SMILES IDX 22 1 21 2 20 3 19 4 18 5 17 6 16 7 15 8 13 9 14 10 12 11
REMARK SMILES IDX 7 12 8 13 90 14 9 15 10 16 11 17 6 18 1 19 2 20 3 21 91 22
REMARK SMILES IDX 4 23 5 24 23 25 24 26 25 27 26 28 27 29 28 30 29 31 30 32
REMARK SMILES IDX 31 33 89 34 32 35 88 36 33 37 34 38 35 39 82 40 36 41 87 42
REMARK SMILES IDX 81 43 83 44 37 45 86 46 80 47 79 48 38 50 68 51 49 52 67 53
REMARK SMILES IDX 50 54 53 55 66 56 84 57 51 58 52 59 65 61 85 62 54 63 39 64
REMARK SMILES IDX 40 65 48 66 41 67 47 68 42 69 43 70 44 71 45 72 46 73 69 74
REMARK SMILES IDX 70 75 78 76 71 77 77 78 72 79 73 80 74 81 75 82 76 83 55 84
REMARK SMILES IDX 56 85 64 86 57 87 63 88 58 89 59 90 60 91 61 92 62 93
REMARK H PARENT 83 49 53 60
REMARK Flexibility Score: inf
ROOT
ATOM      1  C   UNL A   1      36.003  22.795  24.081  1.00  0.00     0.188 C 
ENDROOT
BRANCH   1   2
ATOM      2  O   UNL A   1      34.587  22.552  24.050  1.00  0.00    -0.377 OA
BRANCH   2   3
ATOM      3  C   UNL A   1      33.811  23.220  23.078  1.00  0.00     0.188 C 
BRANCH   3   4
ATOM      4  C   UNL A   1      33.821  24.761  23.108  1.00  0.00     0.188 C 
BRANCH   4   5
ATOM      5  O   UNL A   1      34.055  25.510  21.925  1.00  0.00    -0.376 OA
BRANCH   5   6
ATOM      6  C   UNL A   1      33.556  26.848  21.948  1.00  0.00     0.202 C 
BRANCH   6   7
ATOM      7  C   UNL A   1      32.056  27.022  21.801  1.00  0.00     0.261 C 
BRANCH   7   8
ATOM      8  O   UNL A   1      31.721  28.295  22.357  1.00  0.00    -0.460 OA
BRANCH   8   9
ATOM      9  C   UNL A   1      30.502  28.347  22.907  1.00  0.00     0.339 C 
ATOM     10  O   UNL A   1      29.429  28.451  22.347  1.00  0.00    -0.246 OA
BRANCH   9  11
ATOM     11  C   UNL A   1      30.615  27.688  24.207  1.00  0.00     0.079 A 
ATOM     12  C   UNL A   1      31.514  28.153  26.414  1.00  0.00    -0.017 A 
ATOM     13  C   UNL A   1      31.357  26.814  26.752  1.00  0.00     0.010 A 
ATOM     14  C   UNL A   1      31.116  28.572  25.150  1.00  0.00     0.026 A 
ATOM     15  C   UNL A   1      30.720  25.948  25.853  1.00  0.00     0.022 A 
ATOM     16  C   UNL A   1      30.331  26.387  24.580  1.00  0.00     0.055 A 
ATOM     17  Cl  UNL A   1      29.555  25.241  23.580  1.00  0.00    -0.083 Cl
BRANCH  12  18
ATOM     18  C   UNL A   1      32.309  29.149  27.112  1.00  0.00    -0.018 A 
ATOM     19  C   UNL A   1      36.064  29.340  27.528  1.00  0.00     0.044 C 
ATOM     20  C   UNL A   1      34.632  29.770  27.443  1.00  0.00    -0.051 A 
ATOM     21  C   UNL A   1      34.267  31.119  27.384  1.00  0.00     0.003 A 
ATOM     22  C   UNL A   1      33.642  28.795  27.353  1.00  0.00     0.012 A 
ATOM     23  C   UNL A   1      32.930  31.487  27.206  1.00  0.00     0.001 A 
ATOM     24  C   UNL A   1      31.950  30.505  27.069  1.00  0.00     0.009 A 
ENDBRANCH  12  18
ENDBRANCH   9  11
ENDBRANCH   8   9
ENDBRANCH   7   8
ENDBRANCH   6   7
ENDBRANCH   5   6
ENDBRANCH   4   5
ENDBRANCH   3   4
ENDBRANCH   2   3
ENDBRANCH   1   2
BRANCH   1  25
ATOM     25  C   UNL A   1      36.766  22.645  25.391  1.00  0.00     0.188 C 
BRANCH  25  26
ATOM     26  O   UNL A   1      37.978  21.952  25.098  1.00  0.00    -0.376 OA
BRANCH  26  27
ATOM     27  C   UNL A   1      38.893  21.805  26.168  1.00  0.00     0.202 C 
BRANCH  27  28
ATOM     28  C   UNL A   1      40.138  21.004  25.791  1.00  0.00     0.261 C 
BRANCH  28  29
ATOM     29  O   UNL A   1      41.294  21.868  25.683  1.00  0.00    -0.460 OA
BRANCH  29  30
ATOM     30  C   UNL A   1      41.871  22.268  26.858  1.00  0.00     0.338 C 
ATOM     31  O   UNL A   1      42.611  21.554  27.513  1.00  0.00    -0.246 OA
BRANCH  30  32
ATOM     32  C   UNL A   1      41.557  23.698  27.165  1.00  0.00     0.060 A 
ATOM     33  C   UNL A   1      41.177  24.614  26.174  1.00  0.00     0.016 A 
ATOM     34  C   UNL A   1      41.806  24.175  28.437  1.00  0.00     0.016 A 
ATOM     35  C   UNL A   1      41.251  26.014  26.403  1.00  0.00     0.010 A 
ATOM     36  C   UNL A   1      41.935  25.540  28.631  1.00  0.00     0.010 A 
ATOM     37  C   UNL A   1      41.710  26.499  27.626  1.00  0.00    -0.014 A 
BRANCH  37  38
ATOM     38  C   UNL A   1      42.133  27.895  27.962  1.00  0.00     0.031 A 
ATOM     39  C   UNL A   1      41.065  28.925  28.360  1.00  0.00     0.074 A 
ATOM     40  C   UNL A   1      43.433  28.176  28.279  1.00  0.00     0.049 A 
ATOM     41  N   UNL A   1      41.295  30.108  28.832  1.00  0.00    -0.248 NA
ATOM     42  C   UNL A   1      39.618  28.686  28.300  1.00  0.00     0.031 C 
ATOM     43  C   UNL A   1      43.835  29.185  29.257  1.00  0.00     0.029 A 
ATOM     44  N   UNL A   1      44.664  27.623  27.947  1.00  0.00    -0.354 N 
ATOM     45  C   UNL A   1      40.159  30.590  29.463  1.00  0.00     0.074 A 
ATOM     46  C   UNL A   1      39.117  29.696  29.029  1.00  0.00     0.031 C 
ATOM     47  C   UNL A   1      45.158  29.256  29.390  1.00  0.00     0.029 A 
ATOM     48  C   UNL A   1      45.718  28.466  28.339  1.00  0.00     0.049 A 
ATOM     49  H   UNL A   1      44.783  26.756  27.495  1.00  0.00     0.167 HD
ATOM     50  C   UNL A   1      40.266  31.607  30.380  1.00  0.00     0.031 A 
ATOM     51  C   UNL A   1      46.668  28.974  27.501  1.00  0.00     0.031 A 
ATOM     52  C   UNL A   1      41.651  32.112  30.464  1.00  0.00     0.049 A 
ATOM     53  C   UNL A   1      46.490  30.488  27.422  1.00  0.00     0.074 A 
ATOM     54  C   UNL A   1      42.552  32.273  31.502  1.00  0.00     0.029 A 
ATOM     55  N   UNL A   1      42.365  32.389  29.301  1.00  0.00    -0.354 N 
ATOM     56  N   UNL A   1      45.308  31.055  27.548  1.00  0.00    -0.248 NA
ATOM     57  C   UNL A   1      47.578  31.472  27.482  1.00  0.00     0.031 C 
ATOM     58  C   UNL A   1      43.836  32.519  30.945  1.00  0.00     0.029 A 
ATOM     59  C   UNL A   1      43.698  32.612  29.568  1.00  0.00     0.049 A 
ATOM     60  H   UNL A   1      41.968  32.421  28.400  1.00  0.00     0.167 HD
ATOM     61  C   UNL A   1      45.477  32.365  27.903  1.00  0.00     0.074 A 
ATOM     62  C   UNL A   1      46.906  32.607  27.766  1.00  0.00     0.031 C 
ATOM     63  C   UNL A   1      44.565  33.155  28.541  1.00  0.00     0.031 A 
BRANCH  50  64
ATOM     64  C   UNL A   1      39.201  32.089  31.390  1.00  0.00    -0.014 A 
ATOM     65  C   UNL A   1      38.684  33.403  31.260  1.00  0.00     0.010 A 
ATOM     66  C   UNL A   1      38.701  31.371  32.498  1.00  0.00     0.010 A 
ATOM     67  C   UNL A   1      37.775  33.981  32.166  1.00  0.00     0.020 A 
ATOM     68  C   UNL A   1      37.756  31.927  33.403  1.00  0.00     0.020 A 
ATOM     69  C   UNL A   1      37.306  33.236  33.236  1.00  0.00     0.054 A 
BRANCH  69  70
ATOM     70  S   UNL A   1      36.080  33.990  34.349  1.00  0.00     0.124 S 
ATOM     71  O   UNL A   1      35.832  35.287  33.723  1.00  0.00    -0.237 OA
ATOM     72  O   UNL A   1      34.968  33.045  34.290  1.00  0.00    -0.237 OA
ATOM     73  O   UNL A   1      36.768  34.050  35.637  1.00  0.00    -0.744 OA
ENDBRANCH  69  70
ENDBRANCH  50  64
BRANCH  51  74
ATOM     74  C   UNL A   1      47.153  27.939  26.539  1.00  0.00    -0.014 A 
ATOM     75  C   UNL A   1      47.493  26.709  27.165  1.00  0.00     0.010 A 
ATOM     76  C   UNL A   1      46.556  27.891  25.264  1.00  0.00     0.010 A 
ATOM     77  C   UNL A   1      46.968  25.500  26.691  1.00  0.00     0.020 A 
ATOM     78  C   UNL A   1      46.022  26.676  24.794  1.00  0.00     0.020 A 
ATOM     79  C   UNL A   1      46.174  25.504  25.545  1.00  0.00     0.054 A 
BRANCH  79  80
ATOM     80  S   UNL A   1      45.133  24.044  25.214  1.00  0.00     0.124 S 
ATOM     81  O   UNL A   1      45.076  23.397  26.519  1.00  0.00    -0.237 OA
ATOM     82  O   UNL A   1      43.883  24.645  24.747  1.00  0.00    -0.237 OA
ATOM     83  O   UNL A   1      45.882  23.326  24.189  1.00  0.00    -0.744 OA
ENDBRANCH  79  80
ENDBRANCH  51  74
BRANCH  63  84
ATOM     84  C   UNL A   1      44.389  34.608  28.188  1.00  0.00    -0.014 A 
ATOM     85  C   UNL A   1      43.547  35.025  27.152  1.00  0.00     0.010 A 
ATOM     86  C   UNL A   1      44.910  35.607  29.053  1.00  0.00     0.010 A 
ATOM     87  C   UNL A   1      43.269  36.377  26.958  1.00  0.00     0.020 A 
ATOM     88  C   UNL A   1      44.599  36.955  28.896  1.00  0.00     0.020 A 
ATOM     89  C   UNL A   1      43.797  37.332  27.829  1.00  0.00     0.054 A 
BRANCH  89  90
ATOM     90  S   UNL A   1      43.386  39.067  27.554  1.00  0.00     0.124 S 
ATOM     91  O   UNL A   1      41.952  38.992  27.292  1.00  0.00    -0.237 OA
ATOM     92  O   UNL A   1      43.760  39.686  28.824  1.00  0.00    -0.237 OA
ATOM     93  O   UNL A   1      44.215  39.448  26.414  1.00  0.00    -0.744 OA
ENDBRANCH  89  90
ENDBRANCH  63  84
ENDBRANCH  37  38
ENDBRANCH  30  32
ENDBRANCH  29  30
ENDBRANCH  28  29
ENDBRANCH  27  28
ENDBRANCH  26  27
ENDBRANCH  25  26
ENDBRANCH   1  25
TORSDOF 24
ENDMDL
