MODEL 1
REMARK VINA RESULT:      -6.7      0.000      0.000
REMARK SMILES COc1ccc([C@H]2CC(c3ccc(S(C)(=O)=O)cc3)=NN2c2ccc(C(=O)OCCOCCOCCOCCOC(=O)c3ccc(-c4c5nc(c(-c6ccc(S(=O)(=O)[O-])cc6)c6ccc([nH]6)c(-c6ccc(S(=O)(=O)[O-])cc6)c6nc(c(-c7ccc(S(=O)(=O)[O-])cc7)c7ccc4[nH]7)C=C6)C=C5)cc3)cc2)cc1
REMARK SMILES IDX 34 1 33 2 32 3 31 4 30 5 29 6 28 7 26 8 27 9 25 10 22 11
REMARK SMILES IDX 23 12 104 13 24 14 103 15 21 16 7 17 8 18 9 19 20 20 6 21
REMARK SMILES IDX 3 22 4 23 106 24 5 25 105 26 2 27 1 28 10 29 11 30 19 31
REMARK SMILES IDX 12 32 18 33 13 34 14 35 15 36 16 37 17 38 35 39 36 40 37 41
REMARK SMILES IDX 38 42 39 43 40 44 41 45 42 46 43 47 44 48 102 49 45 50
REMARK SMILES IDX 101 51 46 52 47 53 48 54 95 55 49 56 100 57 94 58 96 59
REMARK SMILES IDX 50 60 99 61 93 62 92 63 51 65 81 66 62 67 80 68 63 69 66 70
REMARK SMILES IDX 79 71 97 72 64 73 65 74 78 76 98 77 67 78 52 79 53 80 61 81
REMARK SMILES IDX 54 82 60 83 55 84 56 85 57 86 58 87 59 88 82 89 83 90 91 91
REMARK SMILES IDX 84 92 90 93 85 94 86 95 87 96 88 97 89 98 68 99 69 100
REMARK SMILES IDX 77 101 70 102 76 103 71 104 72 105 73 106 74 107 75 108
REMARK H PARENT 96 64 66 75
REMARK Flexibility Score: inf
ROOT
ATOM      1  O   UNL A   1      49.928  24.954  32.797  1.00  0.00    -0.377 OA
ENDROOT
BRANCH   1   2
ATOM      2  C   UNL A   1      51.212  25.085  32.204  1.00  0.00     0.188 C 
BRANCH   2   3
ATOM      3  C   UNL A   1      51.807  26.491  31.971  1.00  0.00     0.188 C 
BRANCH   3   4
ATOM      4  O   UNL A   1      51.096  27.278  31.034  1.00  0.00    -0.376 OA
BRANCH   4   5
ATOM      5  C   UNL A   1      51.675  27.546  29.770  1.00  0.00     0.202 C 
BRANCH   5   6
ATOM      6  C   UNL A   1      51.415  26.583  28.602  1.00  0.00     0.261 C 
BRANCH   6   7
ATOM      7  O   UNL A   1      50.066  26.511  28.123  1.00  0.00    -0.460 OA
BRANCH   7   8
ATOM      8  C   UNL A   1      49.707  25.373  27.490  1.00  0.00     0.338 C 
ATOM      9  O   UNL A   1      50.441  24.448  27.187  1.00  0.00    -0.246 OA
BRANCH   8  10
ATOM     10  C   UNL A   1      48.230  25.328  27.394  1.00  0.00     0.060 A 
ATOM     11  C   UNL A   1      45.415  25.438  27.229  1.00  0.00     0.060 A 
ATOM     12  C   UNL A   1      46.216  26.007  26.230  1.00  0.00     0.029 A 
ATOM     13  C   UNL A   1      46.058  24.718  28.250  1.00  0.00     0.029 A 
ATOM     14  C   UNL A   1      47.611  25.986  26.326  1.00  0.00     0.018 A 
ATOM     15  C   UNL A   1      47.454  24.642  28.328  1.00  0.00     0.018 A 
BRANCH  11  16
ATOM     16  N   UNL A   1      44.039  25.630  27.220  1.00  0.00    -0.257 N 
ATOM     17  C   UNL A   1      43.181  25.314  26.077  1.00  0.00     0.144 C 
ATOM     18  C   UNL A   1      41.818  25.857  26.512  1.00  0.00     0.091 C 
ATOM     19  C   UNL A   1      42.167  26.397  27.867  1.00  0.00     0.071 C 
ATOM     20  N   UNL A   1      43.396  26.251  28.252  1.00  0.00    -0.176 NA
BRANCH  17  21
ATOM     21  C   UNL A   1      43.100  23.823  25.769  1.00  0.00    -0.023 A 
ATOM     22  C   UNL A   1      43.111  21.018  25.500  1.00  0.00     0.118 A 
ATOM     23  C   UNL A   1      42.115  21.649  26.242  1.00  0.00     0.047 A 
ATOM     24  C   UNL A   1      44.049  21.786  24.814  1.00  0.00     0.047 A 
ATOM     25  C   UNL A   1      42.113  23.039  26.384  1.00  0.00     0.010 A 
ATOM     26  C   UNL A   1      44.038  23.181  24.940  1.00  0.00     0.010 A 
BRANCH  22  27
ATOM     27  O   UNL A   1      43.059  19.651  25.450  1.00  0.00    -0.497 OA
ATOM     28  C   UNL A   1      41.921  19.093  26.105  1.00  0.00     0.278 C 
ENDBRANCH  22  27
ENDBRANCH  17  21
BRANCH  19  29
ATOM     29  C   UNL A   1      41.124  27.057  28.655  1.00  0.00    -0.002 A 
ATOM     30  C   UNL A   1      41.452  27.636  29.884  1.00  0.00     0.011 A 
ATOM     31  C   UNL A   1      39.841  27.182  28.117  1.00  0.00     0.011 A 
ATOM     32  C   UNL A   1      40.485  28.366  30.579  1.00  0.00     0.021 A 
ATOM     33  C   UNL A   1      38.868  27.896  28.817  1.00  0.00     0.021 A 
ATOM     34  C   UNL A   1      39.196  28.487  30.043  1.00  0.00     0.067 A 
BRANCH  34  35
ATOM     35  S   UNL A   1      37.979  29.456  30.905  1.00  0.00     0.175 S 
ATOM     36  C   UNL A   1      37.778  28.632  32.462  1.00  0.00     0.163 C 
ATOM     37  O   UNL A   1      38.571  30.757  31.147  1.00  0.00    -0.224 OA
ATOM     38  O   UNL A   1      36.725  29.332  30.184  1.00  0.00    -0.224 OA
ENDBRANCH  34  35
ENDBRANCH  19  29
ENDBRANCH  11  16
ENDBRANCH   8  10
ENDBRANCH   7   8
ENDBRANCH   6   7
ENDBRANCH   5   6
ENDBRANCH   4   5
ENDBRANCH   3   4
ENDBRANCH   2   3
ENDBRANCH   1   2
BRANCH   1  39
ATOM     39  C   UNL A   1      49.572  23.766  33.499  1.00  0.00     0.188 C 
BRANCH  39  40
ATOM     40  C   UNL A   1      50.050  23.505  34.946  1.00  0.00     0.188 C 
BRANCH  40  41
ATOM     41  O   UNL A   1      49.963  22.153  35.361  1.00  0.00    -0.376 OA
BRANCH  41  42
ATOM     42  C   UNL A   1      48.734  21.481  35.164  1.00  0.00     0.202 C 
BRANCH  42  43
ATOM     43  C   UNL A   1      47.691  21.579  36.286  1.00  0.00     0.261 C 
BRANCH  43  44
ATOM     44  O   UNL A   1      46.639  22.537  36.098  1.00  0.00    -0.460 OA
BRANCH  44  45
ATOM     45  C   UNL A   1      45.827  22.364  35.028  1.00  0.00     0.338 C 
ATOM     46  O   UNL A   1      45.166  21.385  34.760  1.00  0.00    -0.246 OA
BRANCH  45  47
ATOM     47  C   UNL A   1      45.741  23.669  34.332  1.00  0.00     0.060 A 
ATOM     48  C   UNL A   1      46.439  24.769  34.848  1.00  0.00     0.016 A 
ATOM     49  C   UNL A   1      44.985  23.792  33.165  1.00  0.00     0.016 A 
ATOM     50  C   UNL A   1      46.352  26.009  34.214  1.00  0.00     0.010 A 
ATOM     51  C   UNL A   1      44.882  25.039  32.544  1.00  0.00     0.010 A 
ATOM     52  C   UNL A   1      45.536  26.160  33.084  1.00  0.00    -0.014 A 
BRANCH  52  53
ATOM     53  C   UNL A   1      45.201  27.518  32.588  1.00  0.00     0.031 A 
ATOM     54  C   UNL A   1      46.008  28.074  31.446  1.00  0.00     0.074 A 
ATOM     55  C   UNL A   1      44.202  28.239  33.128  1.00  0.00     0.049 A 
ATOM     56  N   UNL A   1      45.944  29.250  30.880  1.00  0.00    -0.248 NA
ATOM     57  C   UNL A   1      47.029  27.181  30.870  1.00  0.00     0.031 C 
ATOM     58  C   UNL A   1      43.319  27.793  34.205  1.00  0.00     0.029 A 
ATOM     59  N   UNL A   1      43.771  29.511  32.842  1.00  0.00    -0.354 N 
ATOM     60  C   UNL A   1      46.922  29.244  29.891  1.00  0.00     0.074 A 
ATOM     61  C   UNL A   1      47.585  27.961  29.955  1.00  0.00     0.031 C 
ATOM     62  C   UNL A   1      42.455  28.782  34.495  1.00  0.00     0.029 A 
ATOM     63  C   UNL A   1      42.748  29.942  33.654  1.00  0.00     0.049 A 
ATOM     64  H   UNL A   1      44.156  30.061  32.123  1.00  0.00     0.167 HD
ATOM     65  C   UNL A   1      47.238  30.220  29.007  1.00  0.00     0.031 A 
ATOM     66  C   UNL A   1      42.138  31.143  33.726  1.00  0.00     0.031 A 
ATOM     67  C   UNL A   1      46.588  31.501  28.959  1.00  0.00     0.049 A 
ATOM     68  C   UNL A   1      42.561  32.243  32.783  1.00  0.00     0.074 A 
ATOM     69  C   UNL A   1      46.823  32.553  28.091  1.00  0.00     0.029 A 
ATOM     70  N   UNL A   1      45.580  31.912  29.820  1.00  0.00    -0.354 N 
ATOM     71  N   UNL A   1      43.470  32.216  31.838  1.00  0.00    -0.248 NA
ATOM     72  C   UNL A   1      41.869  33.534  32.915  1.00  0.00     0.031 C 
ATOM     73  C   UNL A   1      46.007  33.623  28.471  1.00  0.00     0.029 A 
ATOM     74  C   UNL A   1      45.207  33.211  29.525  1.00  0.00     0.049 A 
ATOM     75  H   UNL A   1      45.190  31.360  30.536  1.00  0.00     0.167 HD
ATOM     76  C   UNL A   1      43.433  33.473  31.239  1.00  0.00     0.074 A 
ATOM     77  C   UNL A   1      42.405  34.230  31.922  1.00  0.00     0.031 C 
ATOM     78  C   UNL A   1      44.180  33.954  30.213  1.00  0.00     0.031 A 
BRANCH  65  79
ATOM     79  C   UNL A   1      48.370  29.952  28.049  1.00  0.00    -0.014 A 
ATOM     80  C   UNL A   1      49.685  30.364  28.333  1.00  0.00     0.010 A 
ATOM     81  C   UNL A   1      48.117  29.245  26.860  1.00  0.00     0.010 A 
ATOM     82  C   UNL A   1      50.718  30.105  27.428  1.00  0.00     0.020 A 
ATOM     83  C   UNL A   1      49.153  28.955  25.967  1.00  0.00     0.020 A 
ATOM     84  C   UNL A   1      50.445  29.401  26.250  1.00  0.00     0.054 A 
BRANCH  84  85
ATOM     85  S   UNL A   1      51.810  29.054  25.108  1.00  0.00     0.124 S 
ATOM     86  O   UNL A   1      51.904  27.598  25.185  1.00  0.00    -0.237 OA
ATOM     87  O   UNL A   1      51.310  29.584  23.843  1.00  0.00    -0.237 OA
ATOM     88  O   UNL A   1      52.940  29.781  25.684  1.00  0.00    -0.744 OA
ENDBRANCH  84  85
ENDBRANCH  65  79
BRANCH  66  89
ATOM     89  C   UNL A   1      41.075  31.379  34.742  1.00  0.00    -0.014 A 
ATOM     90  C   UNL A   1      41.366  32.028  35.955  1.00  0.00     0.010 A 
ATOM     91  C   UNL A   1      39.757  30.946  34.503  1.00  0.00     0.010 A 
ATOM     92  C   UNL A   1      40.367  32.225  36.913  1.00  0.00     0.020 A 
ATOM     93  C   UNL A   1      38.747  31.169  35.443  1.00  0.00     0.020 A 
ATOM     94  C   UNL A   1      39.061  31.799  36.649  1.00  0.00     0.054 A 
BRANCH  94  95
ATOM     95  S   UNL A   1      37.770  32.115  37.883  1.00  0.00     0.124 S 
ATOM     96  O   UNL A   1      37.112  33.299  37.340  1.00  0.00    -0.237 OA
ATOM     97  O   UNL A   1      36.990  30.882  37.843  1.00  0.00    -0.237 OA
ATOM     98  O   UNL A   1      38.522  32.329  39.118  1.00  0.00    -0.744 OA
ENDBRANCH  94  95
ENDBRANCH  66  89
BRANCH  78  99
ATOM     99  C   UNL A   1      43.886  35.352  29.727  1.00  0.00    -0.014 A 
ATOM    100  C   UNL A   1      42.934  35.597  28.722  1.00  0.00     0.010 A 
ATOM    101  C   UNL A   1      44.534  36.443  30.337  1.00  0.00     0.010 A 
ATOM    102  C   UNL A   1      42.661  36.906  28.312  1.00  0.00     0.020 A 
ATOM    103  C   UNL A   1      44.238  37.754  29.954  1.00  0.00     0.020 A 
ATOM    104  C   UNL A   1      43.314  37.977  28.933  1.00  0.00     0.054 A 
BRANCH 104 105
ATOM    105  S   UNL A   1      42.909  39.667  28.412  1.00  0.00     0.124 S 
ATOM    106  O   UNL A   1      42.668  40.330  29.691  1.00  0.00    -0.237 OA
ATOM    107  O   UNL A   1      44.119  40.082  27.707  1.00  0.00    -0.237 OA
ATOM    108  O   UNL A   1      41.729  39.497  27.567  1.00  0.00    -0.744 OA
ENDBRANCH 104 105
ENDBRANCH  78  99
ENDBRANCH  52  53
ENDBRANCH  45  47
ENDBRANCH  44  45
ENDBRANCH  43  44
ENDBRANCH  42  43
ENDBRANCH  41  42
ENDBRANCH  40  41
ENDBRANCH  39  40
ENDBRANCH   1  39
TORSDOF 28
ENDMDL
MODEL 2
REMARK VINA RESULT:      -6.1      8.520     14.300
REMARK SMILES COc1ccc([C@H]2CC(c3ccc(S(C)(=O)=O)cc3)=NN2c2ccc(C(=O)OCCOCCOCCOCCOC(=O)c3ccc(-c4c5nc(c(-c6ccc(S(=O)(=O)[O-])cc6)c6ccc([nH]6)c(-c6ccc(S(=O)(=O)[O-])cc6)c6nc(c(-c7ccc(S(=O)(=O)[O-])cc7)c7ccc4[nH]7)C=C6)C=C5)cc3)cc2)cc1
REMARK SMILES IDX 34 1 33 2 32 3 31 4 30 5 29 6 28 7 26 8 27 9 25 10 22 11
REMARK SMILES IDX 23 12 104 13 24 14 103 15 21 16 7 17 8 18 9 19 20 20 6 21
REMARK SMILES IDX 3 22 4 23 106 24 5 25 105 26 2 27 1 28 10 29 11 30 19 31
REMARK SMILES IDX 12 32 18 33 13 34 14 35 15 36 16 37 17 38 35 39 36 40 37 41
REMARK SMILES IDX 38 42 39 43 40 44 41 45 42 46 43 47 44 48 102 49 45 50
REMARK SMILES IDX 101 51 46 52 47 53 48 54 95 55 49 56 100 57 94 58 96 59
REMARK SMILES IDX 50 60 99 61 93 62 92 63 51 65 81 66 62 67 80 68 63 69 66 70
REMARK SMILES IDX 79 71 97 72 64 73 65 74 78 76 98 77 67 78 52 79 53 80 61 81
REMARK SMILES IDX 54 82 60 83 55 84 56 85 57 86 58 87 59 88 82 89 83 90 91 91
REMARK SMILES IDX 84 92 90 93 85 94 86 95 87 96 88 97 89 98 68 99 69 100
REMARK SMILES IDX 77 101 70 102 76 103 71 104 72 105 73 106 74 107 75 108
REMARK H PARENT 96 64 66 75
REMARK Flexibility Score: inf
ROOT
ATOM      1  O   UNL A   1      35.522  32.269  33.002  1.00  0.00    -0.377 OA
ENDROOT
BRANCH   1   2
ATOM      2  C   UNL A   1      35.897  31.301  32.033  1.00  0.00     0.188 C 
BRANCH   2   3
ATOM      3  C   UNL A   1      37.376  31.178  31.608  1.00  0.00     0.188 C 
BRANCH   3   4
ATOM      4  O   UNL A   1      37.642  31.612  30.287  1.00  0.00    -0.376 OA
BRANCH   4   5
ATOM      5  C   UNL A   1      37.995  30.660  29.301  1.00  0.00     0.202 C 
BRANCH   5   6
ATOM      6  C   UNL A   1      36.958  30.245  28.247  1.00  0.00     0.261 C 
BRANCH   6   7
ATOM      7  O   UNL A   1      35.580  30.411  28.608  1.00  0.00    -0.460 OA
BRANCH   7   8
ATOM      8  C   UNL A   1      34.778  30.984  27.686  1.00  0.00     0.338 C 
ATOM      9  O   UNL A   1      34.782  32.155  27.344  1.00  0.00    -0.246 OA
BRANCH   8  10
ATOM     10  C   UNL A   1      34.010  29.921  26.997  1.00  0.00     0.060 A 
ATOM     11  C   UNL A   1      32.545  27.797  25.856  1.00  0.00     0.060 A 
ATOM     12  C   UNL A   1      31.978  28.609  26.847  1.00  0.00     0.029 A 
ATOM     13  C   UNL A   1      33.818  28.145  25.373  1.00  0.00     0.029 A 
ATOM     14  C   UNL A   1      32.714  29.640  27.441  1.00  0.00     0.018 A 
ATOM     15  C   UNL A   1      34.543  29.211  25.921  1.00  0.00     0.018 A 
BRANCH  11  16
ATOM     16  N   UNL A   1      31.875  26.663  25.410  1.00  0.00    -0.257 N 
ATOM     17  C   UNL A   1      30.430  26.605  25.190  1.00  0.00     0.144 C 
ATOM     18  C   UNL A   1      30.191  25.126  24.877  1.00  0.00     0.091 C 
ATOM     19  C   UNL A   1      31.592  24.602  24.979  1.00  0.00     0.071 C 
ATOM     20  N   UNL A   1      32.517  25.466  25.260  1.00  0.00    -0.176 NA
BRANCH  17  21
ATOM     21  C   UNL A   1      29.952  27.489  24.044  1.00  0.00    -0.023 A 
ATOM     22  C   UNL A   1      29.032  29.371  22.159  1.00  0.00     0.118 A 
ATOM     23  C   UNL A   1      30.375  29.347  22.529  1.00  0.00     0.047 A 
ATOM     24  C   UNL A   1      28.163  28.402  22.655  1.00  0.00     0.047 A 
ATOM     25  C   UNL A   1      30.832  28.420  23.470  1.00  0.00     0.010 A 
ATOM     26  C   UNL A   1      28.623  27.460  23.585  1.00  0.00     0.010 A 
BRANCH  22  27
ATOM     27  O   UNL A   1      28.665  30.340  21.264  1.00  0.00    -0.497 OA
ATOM     28  C   UNL A   1      28.813  31.669  21.760  1.00  0.00     0.278 C 
ENDBRANCH  22  27
ENDBRANCH  17  21
BRANCH  19  29
ATOM     29  C   UNL A   1      31.829  23.172  24.775  1.00  0.00    -0.002 A 
ATOM     30  C   UNL A   1      32.440  22.737  23.595  1.00  0.00     0.011 A 
ATOM     31  C   UNL A   1      31.530  22.278  25.806  1.00  0.00     0.011 A 
ATOM     32  C   UNL A   1      32.772  21.387  23.451  1.00  0.00     0.021 A 
ATOM     33  C   UNL A   1      31.846  20.927  25.657  1.00  0.00     0.021 A 
ATOM     34  C   UNL A   1      32.467  20.489  24.482  1.00  0.00     0.067 A 
BRANCH  34  35
ATOM     35  S   UNL A   1      32.933  18.780  24.318  1.00  0.00     0.175 S 
ATOM     36  C   UNL A   1      32.325  18.307  22.721  1.00  0.00     0.163 C 
ATOM     37  O   UNL A   1      34.382  18.740  24.288  1.00  0.00    -0.224 OA
ATOM     38  O   UNL A   1      32.188  18.024  25.307  1.00  0.00    -0.224 OA
ENDBRANCH  34  35
ENDBRANCH  19  29
ENDBRANCH  11  16
ENDBRANCH   8  10
ENDBRANCH   7   8
ENDBRANCH   6   7
ENDBRANCH   5   6
ENDBRANCH   4   5
ENDBRANCH   3   4
ENDBRANCH   2   3
ENDBRANCH   1   2
BRANCH   1  39
ATOM     39  C   UNL A   1      36.339  33.410  33.242  1.00  0.00     0.188 C 
BRANCH  39  40
ATOM     40  C   UNL A   1      37.189  33.543  34.527  1.00  0.00     0.188 C 
BRANCH  40  41
ATOM     41  O   UNL A   1      37.247  32.371  35.320  1.00  0.00    -0.376 OA
BRANCH  41  42
ATOM     42  C   UNL A   1      38.200  32.328  36.366  1.00  0.00     0.202 C 
BRANCH  42  43
ATOM     43  C   UNL A   1      39.671  32.543  35.985  1.00  0.00     0.261 C 
BRANCH  43  44
ATOM     44  O   UNL A   1      40.033  32.238  34.631  1.00  0.00    -0.460 OA
BRANCH  44  45
ATOM     45  C   UNL A   1      41.353  32.219  34.331  1.00  0.00     0.338 C 
ATOM     46  O   UNL A   1      41.963  31.337  33.768  1.00  0.00    -0.246 OA
BRANCH  45  47
ATOM     47  C   UNL A   1      41.892  33.562  34.648  1.00  0.00     0.060 A 
ATOM     48  C   UNL A   1      41.179  34.699  34.247  1.00  0.00     0.016 A 
ATOM     49  C   UNL A   1      43.089  33.688  35.355  1.00  0.00     0.016 A 
ATOM     50  C   UNL A   1      41.683  35.971  34.521  1.00  0.00     0.010 A 
ATOM     51  C   UNL A   1      43.603  34.962  35.610  1.00  0.00     0.010 A 
ATOM     52  C   UNL A   1      42.920  36.107  35.165  1.00  0.00    -0.014 A 
BRANCH  52  53
ATOM     53  C   UNL A   1      43.600  37.426  35.192  1.00  0.00     0.031 A 
ATOM     54  C   UNL A   1      43.888  38.047  36.532  1.00  0.00     0.074 A 
ATOM     55  C   UNL A   1      43.963  38.056  34.060  1.00  0.00     0.049 A 
ATOM     56  N   UNL A   1      44.417  39.209  36.812  1.00  0.00    -0.248 NA
ATOM     57  C   UNL A   1      43.525  37.248  37.716  1.00  0.00     0.031 C 
ATOM     58  C   UNL A   1      43.781  37.537  32.705  1.00  0.00     0.029 A 
ATOM     59  N   UNL A   1      44.554  39.281  33.876  1.00  0.00    -0.354 N 
ATOM     60  C   UNL A   1      44.438  39.287  38.200  1.00  0.00     0.074 A 
ATOM     61  C   UNL A   1      43.842  38.071  38.705  1.00  0.00     0.031 C 
ATOM     62  C   UNL A   1      44.246  38.445  31.827  1.00  0.00     0.029 A 
ATOM     63  C   UNL A   1      44.719  39.622  32.554  1.00  0.00     0.049 A 
ATOM     64  H   UNL A   1      44.835  39.860  34.621  1.00  0.00     0.167 HD
ATOM     65  C   UNL A   1      44.913  40.283  38.985  1.00  0.00     0.031 A 
ATOM     66  C   UNL A   1      45.175  40.762  31.997  1.00  0.00     0.031 A 
ATOM     67  C   UNL A   1      45.489  41.499  38.478  1.00  0.00     0.049 A 
ATOM     68  C   UNL A   1      45.626  41.891  32.891  1.00  0.00     0.074 A 
ATOM     69  C   UNL A   1      46.015  42.563  39.190  1.00  0.00     0.029 A 
ATOM     70  N   UNL A   1      45.607  41.820  37.134  1.00  0.00    -0.354 N 
ATOM     71  N   UNL A   1      45.664  41.942  34.202  1.00  0.00    -0.248 NA
ATOM     72  C   UNL A   1      46.104  43.114  32.228  1.00  0.00     0.031 C 
ATOM     73  C   UNL A   1      46.387  43.556  38.279  1.00  0.00     0.029 A 
ATOM     74  C   UNL A   1      46.167  43.079  36.997  1.00  0.00     0.049 A 
ATOM     75  H   UNL A   1      45.332  41.240  36.388  1.00  0.00     0.167 HD
ATOM     76  C   UNL A   1      46.202  43.187  34.519  1.00  0.00     0.074 A 
ATOM     77  C   UNL A   1      46.485  43.851  33.263  1.00  0.00     0.031 C 
ATOM     78  C   UNL A   1      46.444  43.728  35.739  1.00  0.00     0.031 A 
BRANCH  65  79
ATOM     79  C   UNL A   1      44.787  40.115  40.477  1.00  0.00    -0.014 A 
ATOM     80  C   UNL A   1      45.816  39.531  41.239  1.00  0.00     0.010 A 
ATOM     81  C   UNL A   1      43.633  40.582  41.132  1.00  0.00     0.010 A 
ATOM     82  C   UNL A   1      45.675  39.384  42.622  1.00  0.00     0.020 A 
ATOM     83  C   UNL A   1      43.503  40.468  42.518  1.00  0.00     0.020 A 
ATOM     84  C   UNL A   1      44.519  39.854  43.253  1.00  0.00     0.054 A 
BRANCH  84  85
ATOM     85  S   UNL A   1      44.377  39.677  45.052  1.00  0.00     0.124 S 
ATOM     86  O   UNL A   1      45.591  40.344  45.517  1.00  0.00    -0.237 OA
ATOM     87  O   UNL A   1      43.128  40.375  45.343  1.00  0.00    -0.237 OA
ATOM     88  O   UNL A   1      44.344  38.231  45.259  1.00  0.00    -0.744 OA
ENDBRANCH  84  85
ENDBRANCH  65  79
BRANCH  66  89
ATOM     89  C   UNL A   1      45.210  40.906  30.515  1.00  0.00    -0.014 A 
ATOM     90  C   UNL A   1      44.089  41.376  29.809  1.00  0.00     0.010 A 
ATOM     91  C   UNL A   1      46.371  40.563  29.796  1.00  0.00     0.010 A 
ATOM     92  C   UNL A   1      44.122  41.486  28.415  1.00  0.00     0.020 A 
ATOM     93  C   UNL A   1      46.421  40.702  28.406  1.00  0.00     0.020 A 
ATOM     94  C   UNL A   1      45.291  41.153  27.722  1.00  0.00     0.054 A 
BRANCH  94  95
ATOM     95  S   UNL A   1      45.328  41.357  25.920  1.00  0.00     0.124 S 
ATOM     96  O   UNL A   1      45.437  39.976  25.459  1.00  0.00    -0.237 OA
ATOM     97  O   UNL A   1      44.052  42.015  25.653  1.00  0.00    -0.237 OA
ATOM     98  O   UNL A   1      46.509  42.187  25.693  1.00  0.00    -0.744 OA
ENDBRANCH  94  95
ENDBRANCH  66  89
BRANCH  78  99
ATOM     99  C   UNL A   1      47.090  45.091  35.786  1.00  0.00    -0.014 A 
ATOM    100  C   UNL A   1      46.325  46.270  35.781  1.00  0.00     0.010 A 
ATOM    101  C   UNL A   1      48.490  45.186  35.901  1.00  0.00     0.010 A 
ATOM    102  C   UNL A   1      46.950  47.519  35.856  1.00  0.00     0.020 A 
ATOM    103  C   UNL A   1      49.116  46.430  36.010  1.00  0.00     0.020 A 
ATOM    104  C   UNL A   1      48.342  47.591  35.972  1.00  0.00     0.054 A 
BRANCH 104 105
ATOM    105  S   UNL A   1      49.124  49.221  36.112  1.00  0.00     0.124 S 
ATOM    106  O   UNL A   1      48.260  50.046  35.272  1.00  0.00    -0.237 OA
ATOM    107  O   UNL A   1      49.049  49.490  37.546  1.00  0.00    -0.237 OA
ATOM    108  O   UNL A   1      50.474  49.005  35.595  1.00  0.00    -0.744 OA
ENDBRANCH 104 105
ENDBRANCH  78  99
ENDBRANCH  52  53
ENDBRANCH  45  47
ENDBRANCH  44  45
ENDBRANCH  43  44
ENDBRANCH  42  43
ENDBRANCH  41  42
ENDBRANCH  40  41
ENDBRANCH  39  40
ENDBRANCH   1  39
TORSDOF 28
ENDMDL
MODEL 3
REMARK VINA RESULT:      -5.9      3.355     10.846
REMARK SMILES COc1ccc([C@H]2CC(c3ccc(S(C)(=O)=O)cc3)=NN2c2ccc(C(=O)OCCOCCOCCOCCOC(=O)c3ccc(-c4c5nc(c(-c6ccc(S(=O)(=O)[O-])cc6)c6ccc([nH]6)c(-c6ccc(S(=O)(=O)[O-])cc6)c6nc(c(-c7ccc(S(=O)(=O)[O-])cc7)c7ccc4[nH]7)C=C6)C=C5)cc3)cc2)cc1
REMARK SMILES IDX 34 1 33 2 32 3 31 4 30 5 29 6 28 7 26 8 27 9 25 10 22 11
REMARK SMILES IDX 23 12 104 13 24 14 103 15 21 16 7 17 8 18 9 19 20 20 6 21
REMARK SMILES IDX 3 22 4 23 106 24 5 25 105 26 2 27 1 28 10 29 11 30 19 31
REMARK SMILES IDX 12 32 18 33 13 34 14 35 15 36 16 37 17 38 35 39 36 40 37 41
REMARK SMILES IDX 38 42 39 43 40 44 41 45 42 46 43 47 44 48 102 49 45 50
REMARK SMILES IDX 101 51 46 52 47 53 48 54 95 55 49 56 100 57 94 58 96 59
REMARK SMILES IDX 50 60 99 61 93 62 92 63 51 65 81 66 62 67 80 68 63 69 66 70
REMARK SMILES IDX 79 71 97 72 64 73 65 74 78 76 98 77 67 78 52 79 53 80 61 81
REMARK SMILES IDX 54 82 60 83 55 84 56 85 57 86 58 87 59 88 82 89 83 90 91 91
REMARK SMILES IDX 84 92 90 93 85 94 86 95 87 96 88 97 89 98 68 99 69 100
REMARK SMILES IDX 77 101 70 102 76 103 71 104 72 105 73 106 74 107 75 108
REMARK H PARENT 96 64 66 75
REMARK Flexibility Score: inf
ROOT
ATOM      1  O   UNL A   1      50.546  38.465  29.175  1.00  0.00    -0.377 OA
ENDROOT
BRANCH   1   2
ATOM      2  C   UNL A   1      49.520  37.811  28.441  1.00  0.00     0.188 C 
BRANCH   2   3
ATOM      3  C   UNL A   1      48.092  38.398  28.434  1.00  0.00     0.188 C 
BRANCH   3   4
ATOM      4  O   UNL A   1      47.656  38.857  27.168  1.00  0.00    -0.376 OA
BRANCH   4   5
ATOM      5  C   UNL A   1      46.507  38.278  26.578  1.00  0.00     0.202 C 
BRANCH   5   6
ATOM      6  C   UNL A   1      45.227  38.122  27.412  1.00  0.00     0.261 C 
BRANCH   6   7
ATOM      7  O   UNL A   1      44.537  36.871  27.294  1.00  0.00    -0.460 OA
BRANCH   7   8
ATOM      8  C   UNL A   1      43.355  36.767  27.937  1.00  0.00     0.338 C 
ATOM      9  O   UNL A   1      42.452  37.587  27.936  1.00  0.00    -0.246 OA
BRANCH   8  10
ATOM     10  C   UNL A   1      43.234  35.400  28.493  1.00  0.00     0.060 A 
ATOM     11  C   UNL A   1      42.966  32.731  29.370  1.00  0.00     0.060 A 
ATOM     12  C   UNL A   1      44.012  33.105  28.517  1.00  0.00     0.029 A 
ATOM     13  C   UNL A   1      42.128  33.747  29.861  1.00  0.00     0.029 A 
ATOM     14  C   UNL A   1      44.128  34.419  28.051  1.00  0.00     0.018 A 
ATOM     15  C   UNL A   1      42.267  35.077  29.445  1.00  0.00     0.018 A 
BRANCH  11  16
ATOM     16  N   UNL A   1      42.751  31.392  29.674  1.00  0.00    -0.257 N 
ATOM     17  C   UNL A   1      42.148  30.928  30.923  1.00  0.00     0.144 C 
ATOM     18  C   UNL A   1      42.295  29.407  30.829  1.00  0.00     0.091 C 
ATOM     19  C   UNL A   1      42.975  29.287  29.497  1.00  0.00     0.071 C 
ATOM     20  N   UNL A   1      43.208  30.393  28.862  1.00  0.00    -0.176 NA
BRANCH  17  21
ATOM     21  C   UNL A   1      40.685  31.325  31.079  1.00  0.00    -0.023 A 
ATOM     22  C   UNL A   1      38.046  32.312  31.144  1.00  0.00     0.118 A 
ATOM     23  C   UNL A   1      38.445  31.440  30.134  1.00  0.00     0.047 A 
ATOM     24  C   UNL A   1      38.931  32.623  32.174  1.00  0.00     0.047 A 
ATOM     25  C   UNL A   1      39.756  30.956  30.095  1.00  0.00     0.010 A 
ATOM     26  C   UNL A   1      40.240  32.124  32.147  1.00  0.00     0.010 A 
BRANCH  22  27
ATOM     27  O   UNL A   1      36.757  32.770  31.079  1.00  0.00    -0.497 OA
ATOM     28  C   UNL A   1      36.469  33.812  32.009  1.00  0.00     0.278 C 
ENDBRANCH  22  27
ENDBRANCH  17  21
BRANCH  19  29
ATOM     29  C   UNL A   1      43.342  27.957  29.008  1.00  0.00    -0.002 A 
ATOM     30  C   UNL A   1      43.096  26.836  29.807  1.00  0.00     0.011 A 
ATOM     31  C   UNL A   1      43.840  27.823  27.710  1.00  0.00     0.011 A 
ATOM     32  C   UNL A   1      43.337  25.560  29.292  1.00  0.00     0.021 A 
ATOM     33  C   UNL A   1      44.098  26.550  27.200  1.00  0.00     0.021 A 
ATOM     34  C   UNL A   1      43.842  25.426  27.993  1.00  0.00     0.067 A 
BRANCH  34  35
ATOM     35  S   UNL A   1      44.105  23.799  27.322  1.00  0.00     0.175 S 
ATOM     36  C   UNL A   1      43.888  24.001  25.574  1.00  0.00     0.163 C 
ATOM     37  O   UNL A   1      45.490  23.456  27.577  1.00  0.00    -0.224 OA
ATOM     38  O   UNL A   1      43.029  22.948  27.797  1.00  0.00    -0.224 OA
ENDBRANCH  34  35
ENDBRANCH  19  29
ENDBRANCH  11  16
ENDBRANCH   8  10
ENDBRANCH   7   8
ENDBRANCH   6   7
ENDBRANCH   5   6
ENDBRANCH   4   5
ENDBRANCH   3   4
ENDBRANCH   2   3
ENDBRANCH   1   2
BRANCH   1  39
ATOM     39  C   UNL A   1      51.416  39.394  28.535  1.00  0.00     0.188 C 
BRANCH  39  40
ATOM     40  C   UNL A   1      52.921  39.096  28.343  1.00  0.00     0.188 C 
BRANCH  40  41
ATOM     41  O   UNL A   1      53.204  38.076  27.400  1.00  0.00    -0.376 OA
BRANCH  41  42
ATOM     42  C   UNL A   1      53.683  36.839  27.892  1.00  0.00     0.202 C 
BRANCH  42  43
ATOM     43  C   UNL A   1      53.080  35.562  27.290  1.00  0.00     0.261 C 
BRANCH  43  44
ATOM     44  O   UNL A   1      51.871  35.080  27.893  1.00  0.00    -0.460 OA
BRANCH  44  45
ATOM     45  C   UNL A   1      51.331  33.948  27.382  1.00  0.00     0.338 C 
ATOM     46  O   UNL A   1      51.743  33.298  26.446  1.00  0.00    -0.246 OA
BRANCH  45  47
ATOM     47  C   UNL A   1      50.240  33.534  28.294  1.00  0.00     0.060 A 
ATOM     48  C   UNL A   1      48.993  33.187  27.759  1.00  0.00     0.016 A 
ATOM     49  C   UNL A   1      50.462  33.477  29.671  1.00  0.00     0.016 A 
ATOM     50  C   UNL A   1      47.949  32.813  28.608  1.00  0.00     0.010 A 
ATOM     51  C   UNL A   1      49.411  33.124  30.521  1.00  0.00     0.010 A 
ATOM     52  C   UNL A   1      48.142  32.825  29.996  1.00  0.00    -0.014 A 
BRANCH  52  53
ATOM     53  C   UNL A   1      46.974  32.725  30.906  1.00  0.00     0.031 A 
ATOM     54  C   UNL A   1      46.229  33.989  31.244  1.00  0.00     0.074 A 
ATOM     55  C   UNL A   1      46.575  31.546  31.416  1.00  0.00     0.049 A 
ATOM     56  N   UNL A   1      45.220  34.166  32.055  1.00  0.00    -0.248 NA
ATOM     57  C   UNL A   1      46.691  35.220  30.578  1.00  0.00     0.031 C 
ATOM     58  C   UNL A   1      47.183  30.249  31.128  1.00  0.00     0.029 A 
ATOM     59  N   UNL A   1      45.561  31.257  32.294  1.00  0.00    -0.354 N 
ATOM     60  C   UNL A   1      44.935  35.526  32.008  1.00  0.00     0.074 A 
ATOM     61  C   UNL A   1      45.895  36.133  31.113  1.00  0.00     0.031 C 
ATOM     62  C   UNL A   1      46.534  29.300  31.826  1.00  0.00     0.029 A 
ATOM     63  C   UNL A   1      45.492  29.927  32.639  1.00  0.00     0.049 A 
ATOM     64  H   UNL A   1      44.941  31.936  32.644  1.00  0.00     0.167 HD
ATOM     65  C   UNL A   1      43.958  36.210  32.651  1.00  0.00     0.031 A 
ATOM     66  C   UNL A   1      44.697  29.295  33.526  1.00  0.00     0.031 A 
ATOM     67  C   UNL A   1      43.016  35.606  33.553  1.00  0.00     0.049 A 
ATOM     68  C   UNL A   1      43.667  30.090  34.291  1.00  0.00     0.074 A 
ATOM     69  C   UNL A   1      41.978  36.208  34.242  1.00  0.00     0.029 A 
ATOM     70  N   UNL A   1      43.001  34.263  33.901  1.00  0.00    -0.354 N 
ATOM     71  N   UNL A   1      43.392  31.371  34.218  1.00  0.00    -0.248 NA
ATOM     72  C   UNL A   1      42.837  29.350  35.253  1.00  0.00     0.031 C 
ATOM     73  C   UNL A   1      41.380  35.243  35.059  1.00  0.00     0.029 A 
ATOM     74  C   UNL A   1      41.993  34.024  34.819  1.00  0.00     0.049 A 
ATOM     75  H   UNL A   1      43.617  33.581  33.548  1.00  0.00     0.167 HD
ATOM     76  C   UNL A   1      42.333  31.583  35.098  1.00  0.00     0.074 A 
ATOM     77  C   UNL A   1      42.012  30.297  35.681  1.00  0.00     0.031 C 
ATOM     78  C   UNL A   1      41.684  32.737  35.392  1.00  0.00     0.031 A 
BRANCH  65  79
ATOM     79  C   UNL A   1      43.891  37.699  32.433  1.00  0.00    -0.014 A 
ATOM     80  C   UNL A   1      43.489  38.243  31.199  1.00  0.00     0.010 A 
ATOM     81  C   UNL A   1      44.200  38.569  33.494  1.00  0.00     0.010 A 
ATOM     82  C   UNL A   1      43.436  39.628  31.020  1.00  0.00     0.020 A 
ATOM     83  C   UNL A   1      44.116  39.954  33.331  1.00  0.00     0.020 A 
ATOM     84  C   UNL A   1      43.749  40.475  32.088  1.00  0.00     0.054 A 
BRANCH  84  85
ATOM     85  S   UNL A   1      43.642  42.268  31.837  1.00  0.00     0.124 S 
ATOM     86  O   UNL A   1      45.001  42.699  32.156  1.00  0.00    -0.237 OA
ATOM     87  O   UNL A   1      43.267  42.371  30.429  1.00  0.00    -0.237 OA
ATOM     88  O   UNL A   1      42.616  42.693  32.786  1.00  0.00    -0.744 OA
ENDBRANCH  84  85
ENDBRANCH  65  79
BRANCH  66  89
ATOM     89  C   UNL A   1      44.854  27.832  33.759  1.00  0.00    -0.014 A 
ATOM     90  C   UNL A   1      44.094  26.900  33.032  1.00  0.00     0.010 A 
ATOM     91  C   UNL A   1      45.766  27.361  34.723  1.00  0.00     0.010 A 
ATOM     92  C   UNL A   1      44.232  25.529  33.272  1.00  0.00     0.020 A 
ATOM     93  C   UNL A   1      45.931  25.991  34.945  1.00  0.00     0.020 A 
ATOM     94  C   UNL A   1      45.153  25.083  34.224  1.00  0.00     0.054 A 
BRANCH  94  95
ATOM     95  S   UNL A   1      45.354  23.298  34.480  1.00  0.00     0.124 S 
ATOM     96  O   UNL A   1      46.799  23.134  34.367  1.00  0.00    -0.237 OA
ATOM     97  O   UNL A   1      44.798  23.109  35.817  1.00  0.00    -0.237 OA
ATOM     98  O   UNL A   1      44.570  22.706  33.398  1.00  0.00    -0.744 OA
ENDBRANCH  94  95
ENDBRANCH  66  89
BRANCH  78  99
ATOM     99  C   UNL A   1      40.523  32.664  36.354  1.00  0.00    -0.014 A 
ATOM    100  C   UNL A   1      39.296  32.085  35.985  1.00  0.00     0.010 A 
ATOM    101  C   UNL A   1      40.691  33.128  37.672  1.00  0.00     0.010 A 
ATOM    102  C   UNL A   1      38.248  32.004  36.907  1.00  0.00     0.020 A 
ATOM    103  C   UNL A   1      39.658  33.017  38.606  1.00  0.00     0.020 A 
ATOM    104  C   UNL A   1      38.436  32.468  38.213  1.00  0.00     0.054 A 
BRANCH 104 105
ATOM    105  S   UNL A   1      37.076  32.311  39.402  1.00  0.00     0.124 S 
ATOM    106  O   UNL A   1      37.504  33.202  40.476  1.00  0.00    -0.237 OA
ATOM    107  O   UNL A   1      35.922  32.768  38.629  1.00  0.00    -0.237 OA
ATOM    108  O   UNL A   1      37.069  30.889  39.737  1.00  0.00    -0.744 OA
ENDBRANCH 104 105
ENDBRANCH  78  99
ENDBRANCH  52  53
ENDBRANCH  45  47
ENDBRANCH  44  45
ENDBRANCH  43  44
ENDBRANCH  42  43
ENDBRANCH  41  42
ENDBRANCH  40  41
ENDBRANCH  39  40
ENDBRANCH   1  39
TORSDOF 28
ENDMDL
