MODEL 1
REMARK VINA RESULT:     -10.0      0.000      0.000
REMARK SMILES Cc1nsc(NC(=O)c2ccc(N)cc2)c1C(=O)OCCOCCOCCOCCOC(=O)c1ccc(-c2c3nc(c(-c4ccc(S(=O)(=O)[O-])cc4)c4ccc([nH]4)c(-c4ccc(S(=O)(=O)[O-])cc4)c4nc(c(-c5ccc(S(=O)(=O)[O-])cc5)c5ccc2[nH]5)C=C4)C=C3)cc1
REMARK SMILES IDX 25 1 24 2 23 3 22 4 21 5 20 6 19 7 17 8 18 9 16 10 1 11 2 12
REMARK SMILES IDX 3 13 4 14 5 15 6 16 7 17 8 19 9 20 10 21 15 22 11 23 14 24
REMARK SMILES IDX 12 25 13 26 26 29 27 30 28 31 29 32 30 33 31 34 32 35 33 36
REMARK SMILES IDX 34 37 35 38 93 39 36 40 92 41 37 42 38 43 39 44 86 45 40 46
REMARK SMILES IDX 91 47 85 48 87 49 41 50 90 51 84 52 83 53 42 55 72 56 53 57
REMARK SMILES IDX 71 58 54 59 57 60 70 61 88 62 55 63 56 64 69 66 89 67 58 68
REMARK SMILES IDX 43 69 44 70 52 71 45 72 51 73 46 74 47 75 48 76 49 77 50 78
REMARK SMILES IDX 73 79 74 80 82 81 75 82 81 83 76 84 77 85 78 86 79 87 80 88
REMARK SMILES IDX 59 89 60 90 68 91 61 92 67 93 62 94 63 95 64 96 65 97 66 98
REMARK H PARENT 6 18 13 27 13 28 87 54 57 65
REMARK Flexibility Score: inf
ROOT
ATOM      1  O   UNL A   1      41.138  19.681  25.715  1.00  0.00    -0.377 OA
ENDROOT
BRANCH   1   2
ATOM      2  C   UNL A   1      40.921  20.860  26.466  1.00  0.00     0.188 C 
BRANCH   2   3
ATOM      3  C   UNL A   1      39.584  21.569  26.149  1.00  0.00     0.188 C 
BRANCH   3   4
ATOM      4  O   UNL A   1      39.306  22.908  26.539  1.00  0.00    -0.376 OA
BRANCH   4   5
ATOM      5  C   UNL A   1      38.173  23.614  26.064  1.00  0.00     0.202 C 
BRANCH   5   6
ATOM      6  C   UNL A   1      36.802  22.937  25.902  1.00  0.00     0.261 C 
BRANCH   6   7
ATOM      7  O   UNL A   1      35.658  23.790  26.001  1.00  0.00    -0.460 OA
BRANCH   7   8
ATOM      8  C   UNL A   1      34.616  23.512  25.178  1.00  0.00     0.343 C 
ATOM      9  O   UNL A   1      34.727  23.084  24.029  1.00  0.00    -0.246 OA
BRANCH   8  10
ATOM     10  C   UNL A   1      33.343  23.553  25.882  1.00  0.00     0.117 A 
ATOM     11  C   UNL A   1      33.764  21.740  27.743  1.00  0.00     0.069 C 
ATOM     12  C   UNL A   1      32.935  22.735  27.004  1.00  0.00     0.068 A 
ATOM     13  N   UNL A   1      31.669  22.879  27.391  1.00  0.00    -0.195 NA
ATOM     14  S   UNL A   1      30.895  23.881  26.341  1.00  0.00    -0.017 S 
ATOM     15  C   UNL A   1      32.263  24.304  25.423  1.00  0.00     0.131 A 
BRANCH  15  16
ATOM     16  N   UNL A   1      32.207  25.102  24.283  1.00  0.00    -0.312 N 
ATOM     17  C   UNL A   1      31.999  26.455  24.132  1.00  0.00     0.256 C 
ATOM     18  H   UNL A   1      32.340  24.614  23.439  1.00  0.00     0.171 HD
ATOM     19  O   UNL A   1      31.531  26.893  23.082  1.00  0.00    -0.269 OA
BRANCH  17  20
ATOM     20  C   UNL A   1      32.411  27.418  25.171  1.00  0.00     0.040 A 
ATOM     21  C   UNL A   1      31.514  27.790  26.174  1.00  0.00     0.016 A 
ATOM     22  C   UNL A   1      33.712  27.926  25.166  1.00  0.00     0.016 A 
ATOM     23  C   UNL A   1      31.872  28.783  27.083  1.00  0.00     0.026 A 
ATOM     24  C   UNL A   1      34.070  28.898  26.105  1.00  0.00     0.026 A 
ATOM     25  C   UNL A   1      33.131  29.384  27.021  1.00  0.00     0.031 A 
BRANCH  25  26
ATOM     26  N   UNL A   1      33.485  30.351  27.950  1.00  0.00    -0.399 N 
ATOM     27  H   UNL A   1      32.792  30.917  28.360  1.00  0.00     0.156 HD
ATOM     28  H   UNL A   1      34.429  30.471  28.200  1.00  0.00     0.156 HD
ENDBRANCH  25  26
ENDBRANCH  17  20
ENDBRANCH  15  16
ENDBRANCH   8  10
ENDBRANCH   7   8
ENDBRANCH   6   7
ENDBRANCH   5   6
ENDBRANCH   4   5
ENDBRANCH   3   4
ENDBRANCH   2   3
ENDBRANCH   1   2
BRANCH   1  29
ATOM     29  C   UNL A   1      42.295  18.930  26.087  1.00  0.00     0.188 C 
BRANCH  29  30
ATOM     30  C   UNL A   1      43.572  19.047  25.208  1.00  0.00     0.188 C 
BRANCH  30  31
ATOM     31  O   UNL A   1      44.462  20.088  25.582  1.00  0.00    -0.376 OA
BRANCH  31  32
ATOM     32  C   UNL A   1      45.134  20.921  24.656  1.00  0.00     0.202 C 
BRANCH  32  33
ATOM     33  C   UNL A   1      44.343  21.965  23.880  1.00  0.00     0.261 C 
BRANCH  33  34
ATOM     34  O   UNL A   1      43.476  22.735  24.681  1.00  0.00    -0.460 OA
BRANCH  34  35
ATOM     35  C   UNL A   1      43.924  23.968  24.962  1.00  0.00     0.338 C 
ATOM     36  O   UNL A   1      44.959  24.488  24.560  1.00  0.00    -0.246 OA
BRANCH  35  37
ATOM     37  C   UNL A   1      43.030  24.544  25.961  1.00  0.00     0.060 A 
ATOM     38  C   UNL A   1      42.023  25.377  25.480  1.00  0.00     0.016 A 
ATOM     39  C   UNL A   1      43.462  24.566  27.298  1.00  0.00     0.016 A 
ATOM     40  C   UNL A   1      41.663  26.442  26.265  1.00  0.00     0.010 A 
ATOM     41  C   UNL A   1      43.119  25.641  28.069  1.00  0.00     0.010 A 
ATOM     42  C   UNL A   1      42.315  26.614  27.493  1.00  0.00    -0.014 A 
BRANCH  42  43
ATOM     43  C   UNL A   1      42.073  27.830  28.223  1.00  0.00     0.031 A 
ATOM     44  C   UNL A   1      43.171  28.794  28.048  1.00  0.00     0.074 A 
ATOM     45  C   UNL A   1      40.942  28.062  28.910  1.00  0.00     0.049 A 
ATOM     46  N   UNL A   1      44.124  29.029  28.883  1.00  0.00    -0.248 NA
ATOM     47  C   UNL A   1      43.376  29.367  26.708  1.00  0.00     0.031 C 
ATOM     48  C   UNL A   1      39.691  27.301  28.929  1.00  0.00     0.029 A 
ATOM     49  N   UNL A   1      40.655  29.132  29.688  1.00  0.00    -0.354 N 
ATOM     50  C   UNL A   1      44.918  29.978  28.263  1.00  0.00     0.074 A 
ATOM     51  C   UNL A   1      44.558  29.961  26.867  1.00  0.00     0.031 C 
ATOM     52  C   UNL A   1      38.716  28.067  29.478  1.00  0.00     0.029 A 
ATOM     53  C   UNL A   1      39.308  29.301  29.972  1.00  0.00     0.049 A 
ATOM     54  H   UNL A   1      41.350  29.743  30.027  1.00  0.00     0.167 HD
ATOM     55  C   UNL A   1      45.592  30.909  28.989  1.00  0.00     0.031 A 
ATOM     56  C   UNL A   1      38.747  30.416  30.509  1.00  0.00     0.031 A 
ATOM     57  C   UNL A   1      45.635  30.565  30.389  1.00  0.00     0.049 A 
ATOM     58  C   UNL A   1      39.843  31.172  31.177  1.00  0.00     0.074 A 
ATOM     59  C   UNL A   1      46.130  29.493  31.104  1.00  0.00     0.029 A 
ATOM     60  N   UNL A   1      44.719  31.184  31.211  1.00  0.00    -0.354 N 
ATOM     61  N   UNL A   1      40.473  30.728  32.229  1.00  0.00    -0.248 NA
ATOM     62  C   UNL A   1      40.568  32.163  30.393  1.00  0.00     0.031 C 
ATOM     63  C   UNL A   1      45.160  29.247  32.118  1.00  0.00     0.029 A 
ATOM     64  C   UNL A   1      44.166  30.224  32.020  1.00  0.00     0.049 A 
ATOM     65  H   UNL A   1      44.500  32.144  31.217  1.00  0.00     0.167 HD
ATOM     66  C   UNL A   1      41.808  31.034  32.003  1.00  0.00     0.074 A 
ATOM     67  C   UNL A   1      41.795  31.993  30.899  1.00  0.00     0.031 C 
ATOM     68  C   UNL A   1      42.811  30.270  32.532  1.00  0.00     0.031 A 
BRANCH  55  69
ATOM     69  C   UNL A   1      45.821  32.309  28.494  1.00  0.00    -0.014 A 
ATOM     70  C   UNL A   1      47.117  32.849  28.567  1.00  0.00     0.010 A 
ATOM     71  C   UNL A   1      44.766  33.200  28.203  1.00  0.00     0.010 A 
ATOM     72  C   UNL A   1      47.335  34.221  28.405  1.00  0.00     0.020 A 
ATOM     73  C   UNL A   1      44.977  34.560  27.993  1.00  0.00     0.020 A 
ATOM     74  C   UNL A   1      46.261  35.067  28.126  1.00  0.00     0.054 A 
BRANCH  74  75
ATOM     75  S   UNL A   1      46.542  36.847  27.996  1.00  0.00     0.124 S 
ATOM     76  O   UNL A   1      45.396  37.273  27.200  1.00  0.00    -0.237 OA
ATOM     77  O   UNL A   1      46.536  37.260  29.395  1.00  0.00    -0.237 OA
ATOM     78  O   UNL A   1      47.839  36.940  27.328  1.00  0.00    -0.744 OA
ENDBRANCH  74  75
ENDBRANCH  55  69
BRANCH  56  79
ATOM     79  C   UNL A   1      37.438  31.039  30.173  1.00  0.00    -0.014 A 
ATOM     80  C   UNL A   1      36.568  31.489  31.185  1.00  0.00     0.010 A 
ATOM     81  C   UNL A   1      37.176  31.461  28.853  1.00  0.00     0.010 A 
ATOM     82  C   UNL A   1      35.521  32.385  30.898  1.00  0.00     0.020 A 
ATOM     83  C   UNL A   1      36.132  32.349  28.560  1.00  0.00     0.020 A 
ATOM     84  C   UNL A   1      35.324  32.829  29.588  1.00  0.00     0.054 A 
BRANCH  84  85
ATOM     85  S   UNL A   1      34.100  34.132  29.254  1.00  0.00     0.124 S 
ATOM     86  O   UNL A   1      33.600  34.439  30.591  1.00  0.00    -0.237 OA
ATOM     87  O   UNL A   1      34.907  35.174  28.627  1.00  0.00    -0.237 OA
ATOM     88  O   UNL A   1      33.137  33.480  28.367  1.00  0.00    -0.744 OA
ENDBRANCH  84  85
ENDBRANCH  56  79
BRANCH  68  89
ATOM     89  C   UNL A   1      42.456  29.241  33.584  1.00  0.00    -0.014 A 
ATOM     90  C   UNL A   1      41.744  28.051  33.321  1.00  0.00     0.010 A 
ATOM     91  C   UNL A   1      43.001  29.421  34.867  1.00  0.00     0.010 A 
ATOM     92  C   UNL A   1      41.560  27.088  34.327  1.00  0.00     0.020 A 
ATOM     93  C   UNL A   1      42.837  28.458  35.865  1.00  0.00     0.020 A 
ATOM     94  C   UNL A   1      42.108  27.302  35.596  1.00  0.00     0.054 A 
BRANCH  94  95
ATOM     95  S   UNL A   1      41.894  26.045  36.890  1.00  0.00     0.124 S 
ATOM     96  O   UNL A   1      42.426  24.842  36.256  1.00  0.00    -0.237 OA
ATOM     97  O   UNL A   1      42.688  26.577  37.994  1.00  0.00    -0.237 OA
ATOM     98  O   UNL A   1      40.451  26.032  37.128  1.00  0.00    -0.744 OA
ENDBRANCH  94  95
ENDBRANCH  68  89
ENDBRANCH  42  43
ENDBRANCH  35  37
ENDBRANCH  34  35
ENDBRANCH  33  34
ENDBRANCH  32  33
ENDBRANCH  31  32
ENDBRANCH  30  31
ENDBRANCH  29  30
ENDBRANCH   1  29
TORSDOF 26
ENDMDL
MODEL 2
REMARK VINA RESULT:      -9.5      1.864      3.115
REMARK SMILES Cc1nsc(NC(=O)c2ccc(N)cc2)c1C(=O)OCCOCCOCCOCCOC(=O)c1ccc(-c2c3nc(c(-c4ccc(S(=O)(=O)[O-])cc4)c4ccc([nH]4)c(-c4ccc(S(=O)(=O)[O-])cc4)c4nc(c(-c5ccc(S(=O)(=O)[O-])cc5)c5ccc2[nH]5)C=C4)C=C3)cc1
REMARK SMILES IDX 25 1 24 2 23 3 22 4 21 5 20 6 19 7 17 8 18 9 16 10 1 11 2 12
REMARK SMILES IDX 3 13 4 14 5 15 6 16 7 17 8 19 9 20 10 21 15 22 11 23 14 24
REMARK SMILES IDX 12 25 13 26 26 29 27 30 28 31 29 32 30 33 31 34 32 35 33 36
REMARK SMILES IDX 34 37 35 38 93 39 36 40 92 41 37 42 38 43 39 44 86 45 40 46
REMARK SMILES IDX 91 47 85 48 87 49 41 50 90 51 84 52 83 53 42 55 72 56 53 57
REMARK SMILES IDX 71 58 54 59 57 60 70 61 88 62 55 63 56 64 69 66 89 67 58 68
REMARK SMILES IDX 43 69 44 70 52 71 45 72 51 73 46 74 47 75 48 76 49 77 50 78
REMARK SMILES IDX 73 79 74 80 82 81 75 82 81 83 76 84 77 85 78 86 79 87 80 88
REMARK SMILES IDX 59 89 60 90 68 91 61 92 67 93 62 94 63 95 64 96 65 97 66 98
REMARK H PARENT 6 18 13 27 13 28 87 54 57 65
REMARK Flexibility Score: inf
ROOT
ATOM      1  O   UNL A   1      35.931  20.786  25.820  1.00  0.00    -0.377 OA
ENDROOT
BRANCH   1   2
ATOM      2  C   UNL A   1      34.525  20.691  25.700  1.00  0.00     0.188 C 
BRANCH   2   3
ATOM      3  C   UNL A   1      34.040  20.314  24.282  1.00  0.00     0.188 C 
BRANCH   3   4
ATOM      4  O   UNL A   1      32.669  20.119  23.959  1.00  0.00    -0.376 OA
BRANCH   4   5
ATOM      5  C   UNL A   1      31.985  20.949  23.035  1.00  0.00     0.202 C 
BRANCH   5   6
ATOM      6  C   UNL A   1      32.632  22.210  22.440  1.00  0.00     0.261 C 
BRANCH   6   7
ATOM      7  O   UNL A   1      31.762  23.322  22.212  1.00  0.00    -0.460 OA
BRANCH   7   8
ATOM      8  C   UNL A   1      31.322  23.988  23.309  1.00  0.00     0.343 C 
ATOM      9  O   UNL A   1      30.161  24.358  23.483  1.00  0.00    -0.246 OA
BRANCH   8  10
ATOM     10  C   UNL A   1      32.321  24.011  24.367  1.00  0.00     0.117 A 
ATOM     11  C   UNL A   1      30.991  22.833  26.310  1.00  0.00     0.069 C 
ATOM     12  C   UNL A   1      32.170  23.535  25.725  1.00  0.00     0.068 A 
ATOM     13  N   UNL A   1      33.194  23.784  26.539  1.00  0.00    -0.195 NA
ATOM     14  S   UNL A   1      34.297  24.714  25.749  1.00  0.00    -0.017 S 
ATOM     15  C   UNL A   1      33.535  24.679  24.229  1.00  0.00     0.131 A 
BRANCH  15  16
ATOM     16  N   UNL A   1      33.987  25.398  23.126  1.00  0.00    -0.312 N 
ATOM     17  C   UNL A   1      33.571  26.598  22.593  1.00  0.00     0.256 C 
ATOM     18  H   UNL A   1      34.733  24.976  22.643  1.00  0.00     0.171 HD
ATOM     19  O   UNL A   1      33.756  26.840  21.401  1.00  0.00    -0.269 OA
BRANCH  17  20
ATOM     20  C   UNL A   1      32.986  27.655  23.439  1.00  0.00     0.040 A 
ATOM     21  C   UNL A   1      31.615  27.917  23.382  1.00  0.00     0.016 A 
ATOM     22  C   UNL A   1      33.801  28.366  24.322  1.00  0.00     0.016 A 
ATOM     23  C   UNL A   1      31.089  28.990  24.098  1.00  0.00     0.026 A 
ATOM     24  C   UNL A   1      33.255  29.420  25.060  1.00  0.00     0.026 A 
ATOM     25  C   UNL A   1      31.914  29.783  24.899  1.00  0.00     0.031 A 
BRANCH  25  26
ATOM     26  N   UNL A   1      31.373  30.830  25.630  1.00  0.00    -0.399 N 
ATOM     27  H   UNL A   1      31.097  31.658  25.174  1.00  0.00     0.156 HD
ATOM     28  H   UNL A   1      31.263  30.746  26.604  1.00  0.00     0.156 HD
ENDBRANCH  25  26
ENDBRANCH  17  20
ENDBRANCH  15  16
ENDBRANCH   8  10
ENDBRANCH   7   8
ENDBRANCH   6   7
ENDBRANCH   5   6
ENDBRANCH   4   5
ENDBRANCH   3   4
ENDBRANCH   2   3
ENDBRANCH   1   2
BRANCH   1  29
ATOM     29  C   UNL A   1      36.533  21.847  25.077  1.00  0.00     0.188 C 
BRANCH  29  30
ATOM     30  C   UNL A   1      38.076  22.027  25.155  1.00  0.00     0.188 C 
BRANCH  30  31
ATOM     31  O   UNL A   1      38.529  22.851  26.218  1.00  0.00    -0.376 OA
BRANCH  31  32
ATOM     32  C   UNL A   1      39.770  22.676  26.877  1.00  0.00     0.202 C 
BRANCH  32  33
ATOM     33  C   UNL A   1      40.644  21.481  26.516  1.00  0.00     0.261 C 
BRANCH  33  34
ATOM     34  O   UNL A   1      41.607  21.758  25.526  1.00  0.00    -0.460 OA
BRANCH  34  35
ATOM     35  C   UNL A   1      42.877  21.574  25.916  1.00  0.00     0.338 C 
ATOM     36  O   UNL A   1      43.444  20.503  26.107  1.00  0.00    -0.246 OA
BRANCH  35  37
ATOM     37  C   UNL A   1      43.439  22.885  26.222  1.00  0.00     0.060 A 
ATOM     38  C   UNL A   1      43.944  23.055  27.508  1.00  0.00     0.016 A 
ATOM     39  C   UNL A   1      43.081  23.964  25.395  1.00  0.00     0.016 A 
ATOM     40  C   UNL A   1      43.802  24.294  28.077  1.00  0.00     0.010 A 
ATOM     41  C   UNL A   1      42.919  25.192  25.972  1.00  0.00     0.010 A 
ATOM     42  C   UNL A   1      43.177  25.302  27.331  1.00  0.00    -0.014 A 
BRANCH  42  43
ATOM     43  C   UNL A   1      42.861  26.538  27.996  1.00  0.00     0.031 A 
ATOM     44  C   UNL A   1      43.913  27.547  27.790  1.00  0.00     0.074 A 
ATOM     45  C   UNL A   1      41.706  26.746  28.651  1.00  0.00     0.049 A 
ATOM     46  N   UNL A   1      44.836  27.871  28.629  1.00  0.00    -0.248 NA
ATOM     47  C   UNL A   1      44.114  28.063  26.427  1.00  0.00     0.031 C 
ATOM     48  C   UNL A   1      40.495  25.925  28.687  1.00  0.00     0.029 A 
ATOM     49  N   UNL A   1      41.352  27.837  29.370  1.00  0.00    -0.354 N 
ATOM     50  C   UNL A   1      45.594  28.828  27.976  1.00  0.00     0.074 A 
ATOM     51  C   UNL A   1      45.262  28.723  26.576  1.00  0.00     0.031 C 
ATOM     52  C   UNL A   1      39.473  26.666  29.181  1.00  0.00     0.029 A 
ATOM     53  C   UNL A   1      39.993  27.952  29.622  1.00  0.00     0.049 A 
ATOM     54  H   UNL A   1      42.008  28.499  29.689  1.00  0.00     0.167 HD
ATOM     55  C   UNL A   1      46.206  29.826  28.665  1.00  0.00     0.031 A 
ATOM     56  C   UNL A   1      39.366  29.062  30.093  1.00  0.00     0.031 A 
ATOM     57  C   UNL A   1      46.239  29.554  30.080  1.00  0.00     0.049 A 
ATOM     58  C   UNL A   1      40.410  29.905  30.740  1.00  0.00     0.074 A 
ATOM     59  C   UNL A   1      46.774  28.545  30.857  1.00  0.00     0.029 A 
ATOM     60  N   UNL A   1      45.278  30.166  30.855  1.00  0.00    -0.354 N 
ATOM     61  N   UNL A   1      41.041  29.545  31.824  1.00  0.00    -0.248 NA
ATOM     62  C   UNL A   1      41.100  30.891  29.920  1.00  0.00     0.031 C 
ATOM     63  C   UNL A   1      45.797  28.300  31.866  1.00  0.00     0.029 A 
ATOM     64  C   UNL A   1      44.759  29.220  31.703  1.00  0.00     0.049 A 
ATOM     65  H   UNL A   1      45.011  31.113  30.809  1.00  0.00     0.167 HD
ATOM     66  C   UNL A   1      42.364  29.908  31.605  1.00  0.00     0.074 A 
ATOM     67  C   UNL A   1      42.324  30.809  30.454  1.00  0.00     0.031 C 
ATOM     68  C   UNL A   1      43.393  29.222  32.188  1.00  0.00     0.031 A 
BRANCH  55  69
ATOM     69  C   UNL A   1      46.375  31.210  28.104  1.00  0.00    -0.014 A 
ATOM     70  C   UNL A   1      45.277  32.087  28.126  1.00  0.00     0.010 A 
ATOM     71  C   UNL A   1      47.489  31.588  27.324  1.00  0.00     0.010 A 
ATOM     72  C   UNL A   1      45.279  33.261  27.365  1.00  0.00     0.020 A 
ATOM     73  C   UNL A   1      47.520  32.777  26.600  1.00  0.00     0.020 A 
ATOM     74  C   UNL A   1      46.399  33.593  26.602  1.00  0.00     0.054 A 
BRANCH  74  75
ATOM     75  S   UNL A   1      46.360  35.070  25.562  1.00  0.00     0.124 S 
ATOM     76  O   UNL A   1      45.672  34.580  24.373  1.00  0.00    -0.237 OA
ATOM     77  O   UNL A   1      45.609  36.007  26.392  1.00  0.00    -0.237 OA
ATOM     78  O   UNL A   1      47.772  35.397  25.380  1.00  0.00    -0.744 OA
ENDBRANCH  74  75
ENDBRANCH  55  69
BRANCH  56  79
ATOM     79  C   UNL A   1      38.035  29.600  29.704  1.00  0.00    -0.014 A 
ATOM     80  C   UNL A   1      37.191  30.206  30.656  1.00  0.00     0.010 A 
ATOM     81  C   UNL A   1      37.719  29.787  28.342  1.00  0.00     0.010 A 
ATOM     82  C   UNL A   1      36.118  31.026  30.259  1.00  0.00     0.020 A 
ATOM     83  C   UNL A   1      36.649  30.597  27.941  1.00  0.00     0.020 A 
ATOM     84  C   UNL A   1      35.868  31.235  28.901  1.00  0.00     0.054 A 
BRANCH  84  85
ATOM     85  S   UNL A   1      34.608  32.445  28.394  1.00  0.00     0.124 S 
ATOM     86  O   UNL A   1      35.379  33.373  27.573  1.00  0.00    -0.237 OA
ATOM     87  O   UNL A   1      33.642  31.618  27.676  1.00  0.00    -0.237 OA
ATOM     88  O   UNL A   1      34.127  32.992  29.663  1.00  0.00    -0.744 OA
ENDBRANCH  84  85
ENDBRANCH  56  79
BRANCH  68  89
ATOM     89  C   UNL A   1      43.069  28.229  33.284  1.00  0.00    -0.014 A 
ATOM     90  C   UNL A   1      42.453  28.570  34.506  1.00  0.00     0.010 A 
ATOM     91  C   UNL A   1      43.265  26.868  32.995  1.00  0.00     0.010 A 
ATOM     92  C   UNL A   1      42.074  27.574  35.422  1.00  0.00     0.020 A 
ATOM     93  C   UNL A   1      42.873  25.872  33.892  1.00  0.00     0.020 A 
ATOM     94  C   UNL A   1      42.291  26.229  35.107  1.00  0.00     0.054 A 
BRANCH  94  95
ATOM     95  S   UNL A   1      41.777  24.938  36.277  1.00  0.00     0.124 S 
ATOM     96  O   UNL A   1      40.415  25.341  36.617  1.00  0.00    -0.237 OA
ATOM     97  O   UNL A   1      41.893  23.716  35.486  1.00  0.00    -0.237 OA
ATOM     98  O   UNL A   1      42.745  25.052  37.368  1.00  0.00    -0.744 OA
ENDBRANCH  94  95
ENDBRANCH  68  89
ENDBRANCH  42  43
ENDBRANCH  35  37
ENDBRANCH  34  35
ENDBRANCH  33  34
ENDBRANCH  32  33
ENDBRANCH  31  32
ENDBRANCH  30  31
ENDBRANCH  29  30
ENDBRANCH   1  29
TORSDOF 26
ENDMDL
MODEL 3
REMARK VINA RESULT:      -9.3      2.269      3.957
REMARK SMILES Cc1nsc(NC(=O)c2ccc(N)cc2)c1C(=O)OCCOCCOCCOCCOC(=O)c1ccc(-c2c3nc(c(-c4ccc(S(=O)(=O)[O-])cc4)c4ccc([nH]4)c(-c4ccc(S(=O)(=O)[O-])cc4)c4nc(c(-c5ccc(S(=O)(=O)[O-])cc5)c5ccc2[nH]5)C=C4)C=C3)cc1
REMARK SMILES IDX 25 1 24 2 23 3 22 4 21 5 20 6 19 7 17 8 18 9 16 10 1 11 2 12
REMARK SMILES IDX 3 13 4 14 5 15 6 16 7 17 8 19 9 20 10 21 15 22 11 23 14 24
REMARK SMILES IDX 12 25 13 26 26 29 27 30 28 31 29 32 30 33 31 34 32 35 33 36
REMARK SMILES IDX 34 37 35 38 93 39 36 40 92 41 37 42 38 43 39 44 86 45 40 46
REMARK SMILES IDX 91 47 85 48 87 49 41 50 90 51 84 52 83 53 42 55 72 56 53 57
REMARK SMILES IDX 71 58 54 59 57 60 70 61 88 62 55 63 56 64 69 66 89 67 58 68
REMARK SMILES IDX 43 69 44 70 52 71 45 72 51 73 46 74 47 75 48 76 49 77 50 78
REMARK SMILES IDX 73 79 74 80 82 81 75 82 81 83 76 84 77 85 78 86 79 87 80 88
REMARK SMILES IDX 59 89 60 90 68 91 61 92 67 93 62 94 63 95 64 96 65 97 66 98
REMARK H PARENT 6 18 13 27 13 28 87 54 57 65
REMARK Flexibility Score: inf
ROOT
ATOM      1  O   UNL A   1      34.344  21.972  26.759  1.00  0.00    -0.377 OA
ENDROOT
BRANCH   1   2
ATOM      2  C   UNL A   1      32.985  22.239  27.051  1.00  0.00     0.188 C 
BRANCH   2   3
ATOM      3  C   UNL A   1      32.025  21.960  25.872  1.00  0.00     0.188 C 
BRANCH   3   4
ATOM      4  O   UNL A   1      30.682  22.427  25.842  1.00  0.00    -0.376 OA
BRANCH   4   5
ATOM      5  C   UNL A   1      30.225  23.470  26.685  1.00  0.00     0.202 C 
BRANCH   5   6
ATOM      6  C   UNL A   1      30.235  24.941  26.238  1.00  0.00     0.261 C 
BRANCH   6   7
ATOM      7  O   UNL A   1      31.489  25.623  26.329  1.00  0.00    -0.460 OA
BRANCH   7   8
ATOM      8  C   UNL A   1      31.446  26.977  26.386  1.00  0.00     0.343 C 
ATOM      9  O   UNL A   1      31.067  27.624  27.362  1.00  0.00    -0.246 OA
BRANCH   8  10
ATOM     10  C   UNL A   1      32.120  27.589  25.251  1.00  0.00     0.117 A 
ATOM     11  C   UNL A   1      34.225  28.627  26.443  1.00  0.00     0.069 C 
ATOM     12  C   UNL A   1      33.341  28.366  25.271  1.00  0.00     0.068 A 
ATOM     13  N   UNL A   1      33.686  28.925  24.112  1.00  0.00    -0.195 NA
ATOM     14  S   UNL A   1      32.494  28.662  23.010  1.00  0.00    -0.017 S 
ATOM     15  C   UNL A   1      31.544  27.641  23.983  1.00  0.00     0.131 A 
BRANCH  15  16
ATOM     16  N   UNL A   1      30.302  27.146  23.595  1.00  0.00    -0.312 N 
ATOM     17  C   UNL A   1      29.084  27.771  23.444  1.00  0.00     0.256 C 
ATOM     18  H   UNL A   1      30.293  26.183  23.394  1.00  0.00     0.171 HD
ATOM     19  O   UNL A   1      28.043  27.124  23.549  1.00  0.00    -0.269 OA
BRANCH  17  20
ATOM     20  C   UNL A   1      28.990  29.192  23.061  1.00  0.00     0.040 A 
ATOM     21  C   UNL A   1      29.263  30.188  24.002  1.00  0.00     0.016 A 
ATOM     22  C   UNL A   1      28.662  29.536  21.749  1.00  0.00     0.016 A 
ATOM     23  C   UNL A   1      29.062  31.525  23.666  1.00  0.00     0.026 A 
ATOM     24  C   UNL A   1      28.496  30.883  21.415  1.00  0.00     0.026 A 
ATOM     25  C   UNL A   1      28.624  31.879  22.389  1.00  0.00     0.031 A 
BRANCH  25  26
ATOM     26  N   UNL A   1      28.456  33.216  22.058  1.00  0.00    -0.399 N 
ATOM     27  H   UNL A   1      27.804  33.473  21.367  1.00  0.00     0.156 HD
ATOM     28  H   UNL A   1      28.987  33.907  22.514  1.00  0.00     0.156 HD
ENDBRANCH  25  26
ENDBRANCH  17  20
ENDBRANCH  15  16
ENDBRANCH   8  10
ENDBRANCH   7   8
ENDBRANCH   6   7
ENDBRANCH   5   6
ENDBRANCH   4   5
ENDBRANCH   3   4
ENDBRANCH   2   3
ENDBRANCH   1   2
BRANCH   1  29
ATOM     29  C   UNL A   1      35.054  23.046  26.140  1.00  0.00     0.188 C 
BRANCH  29  30
ATOM     30  C   UNL A   1      36.560  22.850  25.810  1.00  0.00     0.188 C 
BRANCH  30  31
ATOM     31  O   UNL A   1      37.389  23.962  26.111  1.00  0.00    -0.376 OA
BRANCH  31  32
ATOM     32  C   UNL A   1      38.731  23.851  26.548  1.00  0.00     0.202 C 
BRANCH  32  33
ATOM     33  C   UNL A   1      39.376  22.473  26.632  1.00  0.00     0.261 C 
BRANCH  33  34
ATOM     34  O   UNL A   1      40.537  22.339  25.844  1.00  0.00    -0.460 OA
BRANCH  34  35
ATOM     35  C   UNL A   1      41.630  21.957  26.522  1.00  0.00     0.338 C 
ATOM     36  O   UNL A   1      41.920  20.819  26.875  1.00  0.00    -0.246 OA
BRANCH  35  37
ATOM     37  C   UNL A   1      42.356  23.164  26.903  1.00  0.00     0.060 A 
ATOM     38  C   UNL A   1      42.693  23.282  28.249  1.00  0.00     0.016 A 
ATOM     39  C   UNL A   1      42.308  24.265  26.031  1.00  0.00     0.016 A 
ATOM     40  C   UNL A   1      42.683  24.542  28.789  1.00  0.00     0.010 A 
ATOM     41  C   UNL A   1      42.275  25.518  26.576  1.00  0.00     0.010 A 
ATOM     42  C   UNL A   1      42.350  25.619  27.958  1.00  0.00    -0.014 A 
BRANCH  42  43
ATOM     43  C   UNL A   1      42.156  26.909  28.566  1.00  0.00     0.031 A 
ATOM     44  C   UNL A   1      43.289  27.809  28.298  1.00  0.00     0.074 A 
ATOM     45  C   UNL A   1      41.036  27.248  29.226  1.00  0.00     0.049 A 
ATOM     46  N   UNL A   1      44.252  28.089  29.108  1.00  0.00    -0.248 NA
ATOM     47  C   UNL A   1      43.510  28.241  26.909  1.00  0.00     0.031 C 
ATOM     48  C   UNL A   1      39.758  26.541  29.319  1.00  0.00     0.029 A 
ATOM     49  N   UNL A   1      40.792  28.399  29.897  1.00  0.00    -0.354 N 
ATOM     50  C   UNL A   1      45.079  28.943  28.399  1.00  0.00     0.074 A 
ATOM     51  C   UNL A   1      44.714  28.803  27.011  1.00  0.00     0.031 C 
ATOM     52  C   UNL A   1      38.814  27.392  29.790  1.00  0.00     0.029 A 
ATOM     53  C   UNL A   1      39.453  28.646  30.162  1.00  0.00     0.049 A 
ATOM     54  H   UNL A   1      41.510  29.014  30.175  1.00  0.00     0.167 HD
ATOM     55  C   UNL A   1      45.789  29.914  29.031  1.00  0.00     0.031 A 
ATOM     56  C   UNL A   1      38.935  29.827  30.587  1.00  0.00     0.031 A 
ATOM     57  C   UNL A   1      45.823  29.707  30.457  1.00  0.00     0.049 A 
ATOM     58  C   UNL A   1      40.060  30.604  31.179  1.00  0.00     0.074 A 
ATOM     59  C   UNL A   1      46.281  28.691  31.274  1.00  0.00     0.029 A 
ATOM     60  N   UNL A   1      44.934  30.436  31.214  1.00  0.00    -0.354 N 
ATOM     61  N   UNL A   1      40.677  30.241  32.270  1.00  0.00    -0.248 NA
ATOM     62  C   UNL A   1      40.820  31.485  30.303  1.00  0.00     0.031 C 
ATOM     63  C   UNL A   1      45.305  28.581  32.307  1.00  0.00     0.029 A 
ATOM     64  C   UNL A   1      44.348  29.581  32.114  1.00  0.00     0.049 A 
ATOM     65  H   UNL A   1      44.751  31.400  31.127  1.00  0.00     0.167 HD
ATOM     66  C   UNL A   1      42.022  30.473  32.016  1.00  0.00     0.074 A 
ATOM     67  C   UNL A   1      42.041  31.320  30.823  1.00  0.00     0.031 C 
ATOM     68  C   UNL A   1      42.997  29.727  32.617  1.00  0.00     0.031 A 
BRANCH  55  69
ATOM     69  C   UNL A   1      46.069  31.250  28.402  1.00  0.00    -0.014 A 
ATOM     70  C   UNL A   1      45.404  32.384  28.898  1.00  0.00     0.010 A 
ATOM     71  C   UNL A   1      46.759  31.389  27.178  1.00  0.00     0.010 A 
ATOM     72  C   UNL A   1      45.392  33.584  28.179  1.00  0.00     0.020 A 
ATOM     73  C   UNL A   1      46.792  32.591  26.477  1.00  0.00     0.020 A 
ATOM     74  C   UNL A   1      46.082  33.675  26.969  1.00  0.00     0.054 A 
BRANCH  74  75
ATOM     75  S   UNL A   1      45.994  35.204  26.010  1.00  0.00     0.124 S 
ATOM     76  O   UNL A   1      44.717  35.758  26.447  1.00  0.00    -0.237 OA
ATOM     77  O   UNL A   1      47.186  35.916  26.462  1.00  0.00    -0.237 OA
ATOM     78  O   UNL A   1      46.037  34.742  24.625  1.00  0.00    -0.744 OA
ENDBRANCH  74  75
ENDBRANCH  55  69
BRANCH  56  79
ATOM     79  C   UNL A   1      37.650  30.463  30.191  1.00  0.00    -0.014 A 
ATOM     80  C   UNL A   1      36.834  31.105  31.144  1.00  0.00     0.010 A 
ATOM     81  C   UNL A   1      37.369  30.699  28.830  1.00  0.00     0.010 A 
ATOM     82  C   UNL A   1      35.825  32.004  30.750  1.00  0.00     0.020 A 
ATOM     83  C   UNL A   1      36.362  31.588  28.431  1.00  0.00     0.020 A 
ATOM     84  C   UNL A   1      35.611  32.258  29.393  1.00  0.00     0.054 A 
BRANCH  84  85
ATOM     85  S   UNL A   1      34.444  33.561  28.896  1.00  0.00     0.124 S 
ATOM     86  O   UNL A   1      35.332  34.583  28.349  1.00  0.00    -0.237 OA
ATOM     87  O   UNL A   1      33.596  32.876  27.924  1.00  0.00    -0.237 OA
ATOM     88  O   UNL A   1      33.778  33.923  30.147  1.00  0.00    -0.744 OA
ENDBRANCH  84  85
ENDBRANCH  56  79
BRANCH  68  89
ATOM     89  C   UNL A   1      42.607  28.819  33.764  1.00  0.00    -0.014 A 
ATOM     90  C   UNL A   1      41.718  27.731  33.647  1.00  0.00     0.010 A 
ATOM     91  C   UNL A   1      43.292  28.990  34.979  1.00  0.00     0.010 A 
ATOM     92  C   UNL A   1      41.500  26.861  34.729  1.00  0.00     0.020 A 
ATOM     93  C   UNL A   1      43.095  28.118  36.052  1.00  0.00     0.020 A 
ATOM     94  C   UNL A   1      42.192  27.064  35.927  1.00  0.00     0.054 A 
BRANCH  94  95
ATOM     95  S   UNL A   1      41.933  25.925  37.318  1.00  0.00     0.124 S 
ATOM     96  O   UNL A   1      40.516  26.107  37.619  1.00  0.00    -0.237 OA
ATOM     97  O   UNL A   1      42.294  24.629  36.749  1.00  0.00    -0.237 OA
ATOM     98  O   UNL A   1      42.851  26.417  38.345  1.00  0.00    -0.744 OA
ENDBRANCH  94  95
ENDBRANCH  68  89
ENDBRANCH  42  43
ENDBRANCH  35  37
ENDBRANCH  34  35
ENDBRANCH  33  34
ENDBRANCH  32  33
ENDBRANCH  31  32
ENDBRANCH  30  31
ENDBRANCH  29  30
ENDBRANCH   1  29
TORSDOF 26
ENDMDL
