MODEL 1
REMARK VINA RESULT:      -9.9      0.000      0.000
REMARK SMILES Cc1ccc2[nH]c(C(=O)OCCOCCOCCOCCOC(=O)c3ccc(-c4c5nc(c(-c6ccc(S(=O)(=O)[O-])cc6)c6ccc([nH]6)c(-c6ccc(S(=O)(=O)[O-])cc6)c6nc(c(-c7ccc(S(=O)(=O)[O-])cc7)c7ccc4[nH]7)C=C6)C=C5)cc3)c(NC(=O)[C@H]3C[C@H]3c3ccccc3)c2c1
REMARK SMILES IDX 16 1 15 2 14 3 13 4 12 5 11 6 10 7 8 8 9 9 7 10 1 11 2 12
REMARK SMILES IDX 3 13 99 14 4 15 98 16 5 17 85 18 6 19 86 21 87 22 88 24
REMARK SMILES IDX 89 25 90 26 91 27 92 28 93 29 97 30 94 31 96 32 95 33 17 34
REMARK SMILES IDX 18 35 19 36 20 37 21 38 22 39 23 40 24 41 25 42 26 43 84 44
REMARK SMILES IDX 27 45 83 46 28 47 29 48 30 49 77 50 31 51 82 52 76 53 78 54
REMARK SMILES IDX 32 55 81 56 75 57 74 58 33 60 63 61 44 62 62 63 45 64 48 65
REMARK SMILES IDX 61 66 79 67 46 68 47 69 60 71 80 72 49 73 34 74 35 75 43 76
REMARK SMILES IDX 36 77 42 78 37 79 38 80 39 81 40 82 41 83 64 84 65 85 73 86
REMARK SMILES IDX 66 87 72 88 67 89 68 90 69 91 70 92 71 93 50 94 51 95 59 96
REMARK SMILES IDX 52 97 58 98 53 99 54 100 55 101 56 102 57 103
REMARK H PARENT 6 20 86 23 78 59 48 70
REMARK Flexibility Score: inf
ROOT
ATOM      1  O   UNL A   1      39.153  21.071  25.544  1.00  0.00    -0.377 OA
ENDROOT
BRANCH   1   2
ATOM      2  C   UNL A   1      38.195  22.077  25.804  1.00  0.00     0.188 C 
BRANCH   2   3
ATOM      3  C   UNL A   1      37.279  22.505  24.640  1.00  0.00     0.188 C 
BRANCH   3   4
ATOM      4  O   UNL A   1      36.303  23.525  24.823  1.00  0.00    -0.376 OA
BRANCH   4   5
ATOM      5  C   UNL A   1      35.534  24.043  23.743  1.00  0.00     0.202 C 
BRANCH   5   6
ATOM      6  C   UNL A   1      34.749  23.069  22.874  1.00  0.00     0.261 C 
BRANCH   6   7
ATOM      7  O   UNL A   1      33.652  23.768  22.272  1.00  0.00    -0.459 OA
BRANCH   7   8
ATOM      8  C   UNL A   1      32.429  23.614  22.819  1.00  0.00     0.357 C 
ATOM      9  O   UNL A   1      31.831  22.536  22.865  1.00  0.00    -0.244 OA
BRANCH   8  10
ATOM     10  C   UNL A   1      32.094  24.765  23.614  1.00  0.00     0.149 A 
ATOM     11  C   UNL A   1      31.882  29.722  27.118  1.00  0.00     0.044 C 
ATOM     12  C   UNL A   1      31.932  28.778  25.951  1.00  0.00    -0.050 A 
ATOM     13  C   UNL A   1      32.269  29.255  24.682  1.00  0.00     0.005 A 
ATOM     14  C   UNL A   1      31.658  27.407  26.139  1.00  0.00     0.016 A 
ATOM     15  C   UNL A   1      32.381  28.388  23.597  1.00  0.00     0.027 A 
ATOM     16  C   UNL A   1      31.799  26.496  25.064  1.00  0.00     0.024 A 
ATOM     17  C   UNL A   1      32.168  27.028  23.835  1.00  0.00     0.048 A 
ATOM     18  C   UNL A   1      31.657  25.047  24.915  1.00  0.00     0.082 A 
ATOM     19  N   UNL A   1      32.301  25.976  22.984  1.00  0.00    -0.347 N 
ATOM     20  H   UNL A   1      32.518  26.067  22.028  1.00  0.00     0.167 HD
BRANCH  18  21
ATOM     21  N   UNL A   1      31.229  24.270  26.008  1.00  0.00    -0.323 N 
ATOM     22  C   UNL A   1      31.784  23.259  26.778  1.00  0.00     0.228 C 
ATOM     23  H   UNL A   1      30.315  24.499  26.295  1.00  0.00     0.170 HD
ATOM     24  O   UNL A   1      31.152  22.743  27.691  1.00  0.00    -0.274 OA
BRANCH  22  25
ATOM     25  C   UNL A   1      33.111  22.786  26.405  1.00  0.00     0.087 C 
ATOM     26  C   UNL A   1      33.632  21.697  27.302  1.00  0.00     0.023 C 
ATOM     27  C   UNL A   1      33.802  21.607  25.808  1.00  0.00     0.032 C 
BRANCH  27  28
ATOM     28  C   UNL A   1      33.589  20.223  25.289  1.00  0.00    -0.044 A 
ATOM     29  C   UNL A   1      34.759  19.456  25.060  1.00  0.00     0.004 A 
ATOM     30  C   UNL A   1      32.390  19.719  24.790  1.00  0.00     0.004 A 
ATOM     31  C   UNL A   1      34.753  18.272  24.331  1.00  0.00     0.000 A 
ATOM     32  C   UNL A   1      32.381  18.523  24.054  1.00  0.00     0.000 A 
ATOM     33  C   UNL A   1      33.556  17.811  23.814  1.00  0.00     0.000 A 
ENDBRANCH  27  28
ENDBRANCH  22  25
ENDBRANCH  18  21
ENDBRANCH   8  10
ENDBRANCH   7   8
ENDBRANCH   6   7
ENDBRANCH   5   6
ENDBRANCH   4   5
ENDBRANCH   3   4
ENDBRANCH   2   3
ENDBRANCH   1   2
BRANCH   1  34
ATOM     34  C   UNL A   1      40.204  20.984  26.487  1.00  0.00     0.188 C 
BRANCH  34  35
ATOM     35  C   UNL A   1      41.003  19.670  26.428  1.00  0.00     0.188 C 
BRANCH  35  36
ATOM     36  O   UNL A   1      41.820  19.325  25.316  1.00  0.00    -0.376 OA
BRANCH  36  37
ATOM     37  C   UNL A   1      43.222  19.184  25.459  1.00  0.00     0.202 C 
BRANCH  37  38
ATOM     38  C   UNL A   1      44.144  20.365  25.117  1.00  0.00     0.261 C 
BRANCH  38  39
ATOM     39  O   UNL A   1      43.963  21.558  25.890  1.00  0.00    -0.460 OA
BRANCH  39  40
ATOM     40  C   UNL A   1      43.520  22.626  25.186  1.00  0.00     0.338 C 
ATOM     41  O   UNL A   1      43.378  22.707  23.977  1.00  0.00    -0.246 OA
BRANCH  40  42
ATOM     42  C   UNL A   1      43.098  23.689  26.116  1.00  0.00     0.060 A 
ATOM     43  C   UNL A   1      43.608  24.979  25.923  1.00  0.00     0.016 A 
ATOM     44  C   UNL A   1      42.285  23.403  27.215  1.00  0.00     0.016 A 
ATOM     45  C   UNL A   1      43.341  25.981  26.852  1.00  0.00     0.010 A 
ATOM     46  C   UNL A   1      42.043  24.401  28.163  1.00  0.00     0.010 A 
ATOM     47  C   UNL A   1      42.604  25.680  28.003  1.00  0.00    -0.014 A 
BRANCH  47  48
ATOM     48  C   UNL A   1      42.608  26.642  29.131  1.00  0.00     0.031 A 
ATOM     49  C   UNL A   1      43.706  26.540  30.151  1.00  0.00     0.074 A 
ATOM     50  C   UNL A   1      41.667  27.596  29.233  1.00  0.00     0.049 A 
ATOM     51  N   UNL A   1      43.899  27.250  31.232  1.00  0.00    -0.248 NA
ATOM     52  C   UNL A   1      44.717  25.493  29.926  1.00  0.00     0.031 C 
ATOM     53  C   UNL A   1      40.570  27.795  28.292  1.00  0.00     0.029 A 
ATOM     54  N   UNL A   1      41.482  28.569  30.182  1.00  0.00    -0.354 N 
ATOM     55  C   UNL A   1      45.038  26.722  31.827  1.00  0.00     0.074 A 
ATOM     56  C   UNL A   1      45.484  25.625  30.998  1.00  0.00     0.031 C 
ATOM     57  C   UNL A   1      39.816  28.822  28.722  1.00  0.00     0.029 A 
ATOM     58  C   UNL A   1      40.374  29.351  29.960  1.00  0.00     0.049 A 
ATOM     59  H   UNL A   1      42.085  28.694  30.950  1.00  0.00     0.167 HD
ATOM     60  C   UNL A   1      45.652  27.115  32.967  1.00  0.00     0.031 A 
ATOM     61  C   UNL A   1      39.863  30.369  30.681  1.00  0.00     0.031 A 
ATOM     62  C   UNL A   1      45.190  28.196  33.796  1.00  0.00     0.049 A 
ATOM     63  C   UNL A   1      40.544  30.764  31.964  1.00  0.00     0.074 A 
ATOM     64  C   UNL A   1      45.743  28.678  34.969  1.00  0.00     0.029 A 
ATOM     65  N   UNL A   1      44.056  28.955  33.545  1.00  0.00    -0.354 N 
ATOM     66  N   UNL A   1      41.634  30.272  32.504  1.00  0.00    -0.248 NA
ATOM     67  C   UNL A   1      39.921  31.844  32.743  1.00  0.00     0.031 C 
ATOM     68  C   UNL A   1      44.912  29.691  35.458  1.00  0.00     0.029 A 
ATOM     69  C   UNL A   1      43.877  29.885  34.555  1.00  0.00     0.049 A 
ATOM     70  H   UNL A   1      43.467  28.849  32.764  1.00  0.00     0.167 HD
ATOM     71  C   UNL A   1      41.832  30.988  33.680  1.00  0.00     0.074 A 
ATOM     72  C   UNL A   1      40.765  31.966  33.758  1.00  0.00     0.031 C 
ATOM     73  C   UNL A   1      42.804  30.845  34.616  1.00  0.00     0.031 A 
BRANCH  60  74
ATOM     74  C   UNL A   1      46.863  26.336  33.404  1.00  0.00    -0.014 A 
ATOM     75  C   UNL A   1      46.747  25.198  34.223  1.00  0.00     0.010 A 
ATOM     76  C   UNL A   1      48.139  26.738  32.969  1.00  0.00     0.010 A 
ATOM     77  C   UNL A   1      47.887  24.500  34.630  1.00  0.00     0.020 A 
ATOM     78  C   UNL A   1      49.280  26.026  33.350  1.00  0.00     0.020 A 
ATOM     79  C   UNL A   1      49.148  24.920  34.192  1.00  0.00     0.054 A 
BRANCH  79  80
ATOM     80  S   UNL A   1      50.608  23.981  34.714  1.00  0.00     0.124 S 
ATOM     81  O   UNL A   1      50.183  23.458  36.010  1.00  0.00    -0.237 OA
ATOM     82  O   UNL A   1      50.747  22.988  33.652  1.00  0.00    -0.237 OA
ATOM     83  O   UNL A   1      51.667  24.986  34.766  1.00  0.00    -0.744 OA
ENDBRANCH  79  80
ENDBRANCH  60  74
BRANCH  61  84
ATOM     84  C   UNL A   1      38.637  31.079  30.213  1.00  0.00    -0.014 A 
ATOM     85  C   UNL A   1      37.361  30.534  30.447  1.00  0.00     0.010 A 
ATOM     86  C   UNL A   1      38.737  32.306  29.533  1.00  0.00     0.010 A 
ATOM     87  C   UNL A   1      36.214  31.192  29.992  1.00  0.00     0.020 A 
ATOM     88  C   UNL A   1      37.591  32.984  29.107  1.00  0.00     0.020 A 
ATOM     89  C   UNL A   1      36.335  32.414  29.326  1.00  0.00     0.054 A 
BRANCH  89  90
ATOM     90  S   UNL A   1      34.830  33.266  28.774  1.00  0.00     0.124 S 
ATOM     91  O   UNL A   1      35.272  33.883  27.527  1.00  0.00    -0.237 OA
ATOM     92  O   UNL A   1      33.879  32.167  28.633  1.00  0.00    -0.237 OA
ATOM     93  O   UNL A   1      34.542  34.196  29.863  1.00  0.00    -0.744 OA
ENDBRANCH  89  90
ENDBRANCH  61  84
BRANCH  73  94
ATOM     94  C   UNL A   1      42.771  31.781  35.796  1.00  0.00    -0.014 A 
ATOM     95  C   UNL A   1      43.411  33.033  35.748  1.00  0.00     0.010 A 
ATOM     96  C   UNL A   1      42.040  31.427  36.944  1.00  0.00     0.010 A 
ATOM     97  C   UNL A   1      43.346  33.900  36.842  1.00  0.00     0.020 A 
ATOM     98  C   UNL A   1      41.947  32.304  38.027  1.00  0.00     0.020 A 
ATOM     99  C   UNL A   1      42.613  33.530  37.974  1.00  0.00     0.054 A 
BRANCH  99 100
ATOM    100  S   UNL A   1      42.507  34.692  39.363  1.00  0.00     0.124 S 
ATOM    101  O   UNL A   1      41.598  35.709  38.840  1.00  0.00    -0.237 OA
ATOM    102  O   UNL A   1      41.969  33.860  40.436  1.00  0.00    -0.237 OA
ATOM    103  O   UNL A   1      43.888  35.130  39.555  1.00  0.00    -0.744 OA
ENDBRANCH  99 100
ENDBRANCH  73  94
ENDBRANCH  47  48
ENDBRANCH  40  42
ENDBRANCH  39  40
ENDBRANCH  38  39
ENDBRANCH  37  38
ENDBRANCH  36  37
ENDBRANCH  35  36
ENDBRANCH  34  35
ENDBRANCH   1  34
TORSDOF 26
ENDMDL
MODEL 2
REMARK VINA RESULT:      -9.3      2.508      4.082
REMARK SMILES Cc1ccc2[nH]c(C(=O)OCCOCCOCCOCCOC(=O)c3ccc(-c4c5nc(c(-c6ccc(S(=O)(=O)[O-])cc6)c6ccc([nH]6)c(-c6ccc(S(=O)(=O)[O-])cc6)c6nc(c(-c7ccc(S(=O)(=O)[O-])cc7)c7ccc4[nH]7)C=C6)C=C5)cc3)c(NC(=O)[C@H]3C[C@H]3c3ccccc3)c2c1
REMARK SMILES IDX 16 1 15 2 14 3 13 4 12 5 11 6 10 7 8 8 9 9 7 10 1 11 2 12
REMARK SMILES IDX 3 13 99 14 4 15 98 16 5 17 85 18 6 19 86 21 87 22 88 24
REMARK SMILES IDX 89 25 90 26 91 27 92 28 93 29 97 30 94 31 96 32 95 33 17 34
REMARK SMILES IDX 18 35 19 36 20 37 21 38 22 39 23 40 24 41 25 42 26 43 84 44
REMARK SMILES IDX 27 45 83 46 28 47 29 48 30 49 77 50 31 51 82 52 76 53 78 54
REMARK SMILES IDX 32 55 81 56 75 57 74 58 33 60 63 61 44 62 62 63 45 64 48 65
REMARK SMILES IDX 61 66 79 67 46 68 47 69 60 71 80 72 49 73 34 74 35 75 43 76
REMARK SMILES IDX 36 77 42 78 37 79 38 80 39 81 40 82 41 83 64 84 65 85 73 86
REMARK SMILES IDX 66 87 72 88 67 89 68 90 69 91 70 92 71 93 50 94 51 95 59 96
REMARK SMILES IDX 52 97 58 98 53 99 54 100 55 101 56 102 57 103
REMARK H PARENT 6 20 86 23 78 59 48 70
REMARK Flexibility Score: inf
ROOT
ATOM      1  O   UNL A   1      37.892  22.957  25.686  1.00  0.00    -0.377 OA
ENDROOT
BRANCH   1   2
ATOM      2  C   UNL A   1      36.536  23.290  25.908  1.00  0.00     0.188 C 
BRANCH   2   3
ATOM      3  C   UNL A   1      35.525  22.129  26.001  1.00  0.00     0.188 C 
BRANCH   3   4
ATOM      4  O   UNL A   1      34.141  22.353  25.761  1.00  0.00    -0.376 OA
BRANCH   4   5
ATOM      5  C   UNL A   1      33.341  23.159  26.620  1.00  0.00     0.202 C 
BRANCH   5   6
ATOM      6  C   UNL A   1      33.213  24.646  26.313  1.00  0.00     0.261 C 
BRANCH   6   7
ATOM      7  O   UNL A   1      31.869  25.060  26.586  1.00  0.00    -0.459 OA
BRANCH   7   8
ATOM      8  C   UNL A   1      30.951  24.908  25.610  1.00  0.00     0.357 C 
ATOM      9  O   UNL A   1      30.385  23.841  25.363  1.00  0.00    -0.244 OA
BRANCH   8  10
ATOM     10  C   UNL A   1      30.496  26.195  25.154  1.00  0.00     0.149 A 
ATOM     11  C   UNL A   1      28.887  31.212  22.131  1.00  0.00     0.044 C 
ATOM     12  C   UNL A   1      28.888  29.877  22.820  1.00  0.00    -0.050 A 
ATOM     13  C   UNL A   1      27.831  28.986  22.616  1.00  0.00     0.005 A 
ATOM     14  C   UNL A   1      29.964  29.515  23.657  1.00  0.00     0.016 A 
ATOM     15  C   UNL A   1      27.841  27.719  23.195  1.00  0.00     0.027 A 
ATOM     16  C   UNL A   1      30.020  28.221  24.231  1.00  0.00     0.024 A 
ATOM     17  C   UNL A   1      28.955  27.370  23.963  1.00  0.00     0.048 A 
ATOM     18  C   UNL A   1      30.979  27.508  25.074  1.00  0.00     0.082 A 
ATOM     19  N   UNL A   1      29.251  26.183  24.556  1.00  0.00    -0.347 N 
ATOM     20  H   UNL A   1      28.648  25.406  24.561  1.00  0.00     0.167 HD
BRANCH  18  21
ATOM     21  N   UNL A   1      32.130  28.171  25.541  1.00  0.00    -0.323 N 
ATOM     22  C   UNL A   1      33.222  28.787  24.949  1.00  0.00     0.228 C 
ATOM     23  H   UNL A   1      32.169  28.207  26.524  1.00  0.00     0.170 HD
ATOM     24  O   UNL A   1      34.107  29.289  25.630  1.00  0.00    -0.274 OA
BRANCH  22  25
ATOM     25  C   UNL A   1      33.311  28.739  23.496  1.00  0.00     0.087 C 
ATOM     26  C   UNL A   1      34.549  28.046  22.994  1.00  0.00     0.023 C 
ATOM     27  C   UNL A   1      33.211  27.784  22.354  1.00  0.00     0.032 C 
BRANCH  27  28
ATOM     28  C   UNL A   1      33.016  26.347  22.000  1.00  0.00    -0.044 A 
ATOM     29  C   UNL A   1      33.446  25.403  22.966  1.00  0.00     0.004 A 
ATOM     30  C   UNL A   1      32.686  25.860  20.737  1.00  0.00     0.004 A 
ATOM     31  C   UNL A   1      33.589  24.049  22.685  1.00  0.00     0.000 A 
ATOM     32  C   UNL A   1      32.829  24.493  20.450  1.00  0.00     0.000 A 
ATOM     33  C   UNL A   1      33.292  23.595  21.412  1.00  0.00     0.000 A 
ENDBRANCH  27  28
ENDBRANCH  22  25
ENDBRANCH  18  21
ENDBRANCH   8  10
ENDBRANCH   7   8
ENDBRANCH   6   7
ENDBRANCH   5   6
ENDBRANCH   4   5
ENDBRANCH   3   4
ENDBRANCH   2   3
ENDBRANCH   1   2
BRANCH   1  34
ATOM     34  C   UNL A   1      38.820  23.625  26.521  1.00  0.00     0.188 C 
BRANCH  34  35
ATOM     35  C   UNL A   1      40.007  22.756  26.973  1.00  0.00     0.188 C 
BRANCH  35  36
ATOM     36  O   UNL A   1      40.829  22.051  26.050  1.00  0.00    -0.376 OA
BRANCH  36  37
ATOM     37  C   UNL A   1      42.229  22.261  26.015  1.00  0.00     0.202 C 
BRANCH  37  38
ATOM     38  C   UNL A   1      42.801  23.440  25.213  1.00  0.00     0.261 C 
BRANCH  38  39
ATOM     39  O   UNL A   1      43.156  24.608  25.963  1.00  0.00    -0.460 OA
BRANCH  39  40
ATOM     40  C   UNL A   1      42.224  25.589  25.957  1.00  0.00     0.338 C 
ATOM     41  O   UNL A   1      41.356  25.779  25.121  1.00  0.00    -0.246 OA
BRANCH  40  42
ATOM     42  C   UNL A   1      42.318  26.366  27.206  1.00  0.00     0.060 A 
ATOM     43  C   UNL A   1      41.501  25.994  28.281  1.00  0.00     0.016 A 
ATOM     44  C   UNL A   1      43.129  27.500  27.290  1.00  0.00     0.016 A 
ATOM     45  C   UNL A   1      41.460  26.777  29.431  1.00  0.00     0.010 A 
ATOM     46  C   UNL A   1      43.065  28.303  28.433  1.00  0.00     0.010 A 
ATOM     47  C   UNL A   1      42.200  27.964  29.488  1.00  0.00    -0.014 A 
BRANCH  47  48
ATOM     48  C   UNL A   1      41.901  28.947  30.555  1.00  0.00     0.031 A 
ATOM     49  C   UNL A   1      42.821  29.014  31.741  1.00  0.00     0.074 A 
ATOM     50  C   UNL A   1      40.847  29.776  30.461  1.00  0.00     0.049 A 
ATOM     51  N   UNL A   1      42.746  29.771  32.804  1.00  0.00    -0.248 NA
ATOM     52  C   UNL A   1      43.975  28.099  31.730  1.00  0.00     0.031 C 
ATOM     53  C   UNL A   1      39.903  29.808  29.348  1.00  0.00     0.029 A 
ATOM     54  N   UNL A   1      40.392  30.742  31.322  1.00  0.00    -0.354 N 
ATOM     55  C   UNL A   1      43.827  29.409  33.598  1.00  0.00     0.074 A 
ATOM     56  C   UNL A   1      44.534  28.357  32.902  1.00  0.00     0.031 C 
ATOM     57  C   UNL A   1      38.969  30.740  29.604  1.00  0.00     0.029 A 
ATOM     58  C   UNL A   1      39.248  31.369  30.889  1.00  0.00     0.049 A 
ATOM     59  H   UNL A   1      40.841  30.964  32.169  1.00  0.00     0.167 HD
ATOM     60  C   UNL A   1      44.194  29.908  34.801  1.00  0.00     0.031 A 
ATOM     61  C   UNL A   1      38.505  32.333  31.470  1.00  0.00     0.031 A 
ATOM     62  C   UNL A   1      43.473  30.942  35.494  1.00  0.00     0.049 A 
ATOM     63  C   UNL A   1      38.913  32.845  32.826  1.00  0.00     0.074 A 
ATOM     64  C   UNL A   1      43.763  31.522  36.716  1.00  0.00     0.029 A 
ATOM     65  N   UNL A   1      42.312  31.543  35.030  1.00  0.00    -0.354 N 
ATOM     66  N   UNL A   1      39.951  32.511  33.555  1.00  0.00    -0.248 NA
ATOM     67  C   UNL A   1      38.043  33.857  33.444  1.00  0.00     0.031 C 
ATOM     68  C   UNL A   1      42.746  32.433  37.018  1.00  0.00     0.029 A 
ATOM     69  C   UNL A   1      41.857  32.470  35.954  1.00  0.00     0.049 A 
ATOM     70  H   UNL A   1      41.876  31.342  34.171  1.00  0.00     0.167 HD
ATOM     71  C   UNL A   1      39.865  33.278  34.713  1.00  0.00     0.074 A 
ATOM     72  C   UNL A   1      38.689  34.112  34.573  1.00  0.00     0.031 C 
ATOM     73  C   UNL A   1      40.679  33.285  35.798  1.00  0.00     0.031 A 
BRANCH  60  74
ATOM     74  C   UNL A   1      45.402  29.302  35.462  1.00  0.00    -0.014 A 
ATOM     75  C   UNL A   1      46.690  29.831  35.258  1.00  0.00     0.010 A 
ATOM     76  C   UNL A   1      45.244  28.198  36.319  1.00  0.00     0.010 A 
ATOM     77  C   UNL A   1      47.801  29.242  35.869  1.00  0.00     0.020 A 
ATOM     78  C   UNL A   1      46.348  27.624  36.954  1.00  0.00     0.020 A 
ATOM     79  C   UNL A   1      47.622  28.140  36.712  1.00  0.00     0.054 A 
BRANCH  79  80
ATOM     80  S   UNL A   1      49.078  27.411  37.512  1.00  0.00     0.124 S 
ATOM     81  O   UNL A   1      50.158  28.242  36.986  1.00  0.00    -0.237 OA
ATOM     82  O   UNL A   1      48.785  27.587  38.931  1.00  0.00    -0.237 OA
ATOM     83  O   UNL A   1      49.075  26.027  37.044  1.00  0.00    -0.744 OA
ENDBRANCH  79  80
ENDBRANCH  60  74
BRANCH  61  84
ATOM     84  C   UNL A   1      37.295  32.867  30.780  1.00  0.00    -0.014 A 
ATOM     85  C   UNL A   1      36.026  32.313  31.028  1.00  0.00     0.010 A 
ATOM     86  C   UNL A   1      37.404  33.936  29.872  1.00  0.00     0.010 A 
ATOM     87  C   UNL A   1      34.895  32.803  30.367  1.00  0.00     0.020 A 
ATOM     88  C   UNL A   1      36.271  34.451  29.235  1.00  0.00     0.020 A 
ATOM     89  C   UNL A   1      35.024  33.871  29.475  1.00  0.00     0.054 A 
BRANCH  89  90
ATOM     90  S   UNL A   1      33.538  34.512  28.654  1.00  0.00     0.124 S 
ATOM     91  O   UNL A   1      33.176  33.405  27.775  1.00  0.00    -0.237 OA
ATOM     92  O   UNL A   1      32.634  34.749  29.777  1.00  0.00    -0.237 OA
ATOM     93  O   UNL A   1      34.012  35.717  27.977  1.00  0.00    -0.744 OA
ENDBRANCH  89  90
ENDBRANCH  61  84
BRANCH  73  94
ATOM     94  C   UNL A   1      40.340  34.240  36.912  1.00  0.00    -0.014 A 
ATOM     95  C   UNL A   1      40.688  35.601  36.834  1.00  0.00     0.010 A 
ATOM     96  C   UNL A   1      39.610  33.780  38.023  1.00  0.00     0.010 A 
ATOM     97  C   UNL A   1      40.339  36.478  37.865  1.00  0.00     0.020 A 
ATOM     98  C   UNL A   1      39.233  34.660  39.040  1.00  0.00     0.020 A 
ATOM     99  C   UNL A   1      39.612  36.002  38.961  1.00  0.00     0.054 A 
BRANCH  99 100
ATOM    100  S   UNL A   1      39.133  37.169  40.263  1.00  0.00     0.124 S 
ATOM    101  O   UNL A   1      38.285  36.342  41.117  1.00  0.00    -0.237 OA
ATOM    102  O   UNL A   1      40.421  37.553  40.838  1.00  0.00    -0.237 OA
ATOM    103  O   UNL A   1      38.440  38.232  39.539  1.00  0.00    -0.744 OA
ENDBRANCH  99 100
ENDBRANCH  73  94
ENDBRANCH  47  48
ENDBRANCH  40  42
ENDBRANCH  39  40
ENDBRANCH  38  39
ENDBRANCH  37  38
ENDBRANCH  36  37
ENDBRANCH  35  36
ENDBRANCH  34  35
ENDBRANCH   1  34
TORSDOF 26
ENDMDL
MODEL 3
REMARK VINA RESULT:      -9.1      2.468      4.553
REMARK SMILES Cc1ccc2[nH]c(C(=O)OCCOCCOCCOCCOC(=O)c3ccc(-c4c5nc(c(-c6ccc(S(=O)(=O)[O-])cc6)c6ccc([nH]6)c(-c6ccc(S(=O)(=O)[O-])cc6)c6nc(c(-c7ccc(S(=O)(=O)[O-])cc7)c7ccc4[nH]7)C=C6)C=C5)cc3)c(NC(=O)[C@H]3C[C@H]3c3ccccc3)c2c1
REMARK SMILES IDX 16 1 15 2 14 3 13 4 12 5 11 6 10 7 8 8 9 9 7 10 1 11 2 12
REMARK SMILES IDX 3 13 99 14 4 15 98 16 5 17 85 18 6 19 86 21 87 22 88 24
REMARK SMILES IDX 89 25 90 26 91 27 92 28 93 29 97 30 94 31 96 32 95 33 17 34
REMARK SMILES IDX 18 35 19 36 20 37 21 38 22 39 23 40 24 41 25 42 26 43 84 44
REMARK SMILES IDX 27 45 83 46 28 47 29 48 30 49 77 50 31 51 82 52 76 53 78 54
REMARK SMILES IDX 32 55 81 56 75 57 74 58 33 60 63 61 44 62 62 63 45 64 48 65
REMARK SMILES IDX 61 66 79 67 46 68 47 69 60 71 80 72 49 73 34 74 35 75 43 76
REMARK SMILES IDX 36 77 42 78 37 79 38 80 39 81 40 82 41 83 64 84 65 85 73 86
REMARK SMILES IDX 66 87 72 88 67 89 68 90 69 91 70 92 71 93 50 94 51 95 59 96
REMARK SMILES IDX 52 97 58 98 53 99 54 100 55 101 56 102 57 103
REMARK H PARENT 6 20 86 23 78 59 48 70
REMARK Flexibility Score: inf
ROOT
ATOM      1  O   UNL A   1      37.663  22.902  25.623  1.00  0.00    -0.377 OA
ENDROOT
BRANCH   1   2
ATOM      2  C   UNL A   1      36.303  23.137  25.929  1.00  0.00     0.188 C 
BRANCH   2   3
ATOM      3  C   UNL A   1      35.464  21.935  26.407  1.00  0.00     0.188 C 
BRANCH   3   4
ATOM      4  O   UNL A   1      34.048  22.032  26.501  1.00  0.00    -0.376 OA
BRANCH   4   5
ATOM      5  C   UNL A   1      33.404  22.831  27.489  1.00  0.00     0.202 C 
BRANCH   5   6
ATOM      6  C   UNL A   1      32.932  24.227  27.103  1.00  0.00     0.261 C 
BRANCH   6   7
ATOM      7  O   UNL A   1      31.504  24.278  27.210  1.00  0.00    -0.459 OA
BRANCH   7   8
ATOM      8  C   UNL A   1      30.783  23.431  26.447  1.00  0.00     0.357 C 
ATOM      9  O   UNL A   1      29.878  22.718  26.886  1.00  0.00    -0.244 OA
BRANCH   8  10
ATOM     10  C   UNL A   1      30.982  23.728  25.054  1.00  0.00     0.149 A 
ATOM     11  C   UNL A   1      32.736  25.675  19.574  1.00  0.00     0.044 C 
ATOM     12  C   UNL A   1      32.557  24.883  20.837  1.00  0.00    -0.050 A 
ATOM     13  C   UNL A   1      33.467  23.874  21.163  1.00  0.00     0.005 A 
ATOM     14  C   UNL A   1      31.481  25.169  21.704  1.00  0.00     0.016 A 
ATOM     15  C   UNL A   1      33.356  23.167  22.359  1.00  0.00     0.027 A 
ATOM     16  C   UNL A   1      31.362  24.494  22.943  1.00  0.00     0.024 A 
ATOM     17  C   UNL A   1      32.318  23.524  23.223  1.00  0.00     0.048 A 
ATOM     18  C   UNL A   1      30.440  24.572  24.076  1.00  0.00     0.082 A 
ATOM     19  N   UNL A   1      32.043  23.062  24.472  1.00  0.00    -0.347 N 
ATOM     20  H   UNL A   1      32.541  22.336  24.911  1.00  0.00     0.167 HD
BRANCH  18  21
ATOM     21  N   UNL A   1      29.335  25.443  24.020  1.00  0.00    -0.323 N 
ATOM     22  C   UNL A   1      29.137  26.763  23.644  1.00  0.00     0.228 C 
ATOM     23  H   UNL A   1      28.501  25.011  24.319  1.00  0.00     0.170 HD
ATOM     24  O   UNL A   1      28.027  27.278  23.712  1.00  0.00    -0.274 OA
BRANCH  22  25
ATOM     25  C   UNL A   1      30.311  27.529  23.247  1.00  0.00     0.087 C 
ATOM     26  C   UNL A   1      30.375  28.894  23.875  1.00  0.00     0.023 C 
ATOM     27  C   UNL A   1      31.608  28.033  23.783  1.00  0.00     0.032 C 
BRANCH  27  28
ATOM     28  C   UNL A   1      32.455  28.111  25.010  1.00  0.00    -0.044 A 
ATOM     29  C   UNL A   1      31.840  27.702  26.219  1.00  0.00     0.004 A 
ATOM     30  C   UNL A   1      33.681  28.766  25.110  1.00  0.00     0.004 A 
ATOM     31  C   UNL A   1      32.385  27.968  27.471  1.00  0.00     0.000 A 
ATOM     32  C   UNL A   1      34.235  29.035  26.372  1.00  0.00     0.000 A 
ATOM     33  C   UNL A   1      33.585  28.653  27.545  1.00  0.00     0.000 A 
ENDBRANCH  27  28
ENDBRANCH  22  25
ENDBRANCH  18  21
ENDBRANCH   8  10
ENDBRANCH   7   8
ENDBRANCH   6   7
ENDBRANCH   5   6
ENDBRANCH   4   5
ENDBRANCH   3   4
ENDBRANCH   2   3
ENDBRANCH   1   2
BRANCH   1  34
ATOM     34  C   UNL A   1      38.584  23.738  26.297  1.00  0.00     0.188 C 
BRANCH  34  35
ATOM     35  C   UNL A   1      39.794  22.998  26.895  1.00  0.00     0.188 C 
BRANCH  35  36
ATOM     36  O   UNL A   1      40.664  22.199  26.103  1.00  0.00    -0.376 OA
BRANCH  36  37
ATOM     37  C   UNL A   1      42.068  22.378  26.159  1.00  0.00     0.202 C 
BRANCH  37  38
ATOM     38  C   UNL A   1      42.737  23.423  25.252  1.00  0.00     0.261 C 
BRANCH  38  39
ATOM     39  O   UNL A   1      43.201  24.618  25.893  1.00  0.00    -0.460 OA
BRANCH  39  40
ATOM     40  C   UNL A   1      42.315  25.641  25.893  1.00  0.00     0.338 C 
ATOM     41  O   UNL A   1      41.498  25.912  25.028  1.00  0.00    -0.246 OA
BRANCH  40  42
ATOM     42  C   UNL A   1      42.380  26.350  27.184  1.00  0.00     0.060 A 
ATOM     43  C   UNL A   1      41.621  25.854  28.252  1.00  0.00     0.016 A 
ATOM     44  C   UNL A   1      43.104  27.537  27.317  1.00  0.00     0.016 A 
ATOM     45  C   UNL A   1      41.551  26.564  29.447  1.00  0.00     0.010 A 
ATOM     46  C   UNL A   1      43.007  28.265  28.507  1.00  0.00     0.010 A 
ATOM     47  C   UNL A   1      42.198  27.800  29.558  1.00  0.00    -0.014 A 
BRANCH  47  48
ATOM     48  C   UNL A   1      41.851  28.694  30.687  1.00  0.00     0.031 A 
ATOM     49  C   UNL A   1      42.706  28.648  31.922  1.00  0.00     0.074 A 
ATOM     50  C   UNL A   1      40.813  29.543  30.608  1.00  0.00     0.049 A 
ATOM     51  N   UNL A   1      42.581  29.313  33.040  1.00  0.00    -0.248 NA
ATOM     52  C   UNL A   1      43.850  27.720  31.894  1.00  0.00     0.031 C 
ATOM     53  C   UNL A   1      39.931  29.683  29.453  1.00  0.00     0.029 A 
ATOM     54  N   UNL A   1      40.321  30.440  31.522  1.00  0.00    -0.354 N 
ATOM     55  C   UNL A   1      43.615  28.870  33.856  1.00  0.00     0.074 A 
ATOM     56  C   UNL A   1      44.347  27.870  33.113  1.00  0.00     0.031 C 
ATOM     57  C   UNL A   1      38.994  30.604  29.737  1.00  0.00     0.029 A 
ATOM     58  C   UNL A   1      39.209  31.119  31.084  1.00  0.00     0.049 A 
ATOM     59  H   UNL A   1      40.726  30.583  32.408  1.00  0.00     0.167 HD
ATOM     60  C   UNL A   1      43.920  29.259  35.116  1.00  0.00     0.031 A 
ATOM     61  C   UNL A   1      38.446  32.040  31.705  1.00  0.00     0.031 A 
ATOM     62  C   UNL A   1      43.173  30.243  35.854  1.00  0.00     0.049 A 
ATOM     63  C   UNL A   1      38.784  32.431  33.119  1.00  0.00     0.074 A 
ATOM     64  C   UNL A   1      43.403  30.713  37.135  1.00  0.00     0.029 A 
ATOM     65  N   UNL A   1      42.045  30.898  35.382  1.00  0.00    -0.354 N 
ATOM     66  N   UNL A   1      39.778  32.021  33.871  1.00  0.00    -0.248 NA
ATOM     67  C   UNL A   1      37.893  33.399  33.773  1.00  0.00     0.031 C 
ATOM     68  C   UNL A   1      42.380  31.610  37.459  1.00  0.00     0.029 A 
ATOM     69  C   UNL A   1      41.551  31.749  36.356  1.00  0.00     0.049 A 
ATOM     70  H   UNL A   1      41.655  30.776  34.487  1.00  0.00     0.167 HD
ATOM     71  C   UNL A   1      39.637  32.688  35.084  1.00  0.00     0.074 A 
ATOM     72  C   UNL A   1      38.479  33.549  34.953  1.00  0.00     0.031 C 
ATOM     73  C   UNL A   1      40.392  32.592  36.207  1.00  0.00     0.031 A 
BRANCH  60  74
ATOM     74  C   UNL A   1      45.085  28.583  35.786  1.00  0.00    -0.014 A 
ATOM     75  C   UNL A   1      46.389  29.103  35.689  1.00  0.00     0.010 A 
ATOM     76  C   UNL A   1      44.868  27.418  36.543  1.00  0.00     0.010 A 
ATOM     77  C   UNL A   1      47.458  28.448  36.307  1.00  0.00     0.020 A 
ATOM     78  C   UNL A   1      45.930  26.776  37.185  1.00  0.00     0.020 A 
ATOM     79  C   UNL A   1      47.222  27.287  37.050  1.00  0.00     0.054 A 
BRANCH  79  80
ATOM     80  S   UNL A   1      48.624  26.471  37.861  1.00  0.00     0.124 S 
ATOM     81  O   UNL A   1      47.954  25.465  38.681  1.00  0.00    -0.237 OA
ATOM     82  O   UNL A   1      49.390  25.953  36.731  1.00  0.00    -0.237 OA
ATOM     83  O   UNL A   1      49.269  27.550  38.605  1.00  0.00    -0.744 OA
ENDBRANCH  79  80
ENDBRANCH  60  74
BRANCH  61  84
ATOM     84  C   UNL A   1      37.280  32.649  30.999  1.00  0.00    -0.014 A 
ATOM     85  C   UNL A   1      35.991  32.106  31.147  1.00  0.00     0.010 A 
ATOM     86  C   UNL A   1      37.453  33.776  30.176  1.00  0.00     0.010 A 
ATOM     87  C   UNL A   1      34.903  32.667  30.471  1.00  0.00     0.020 A 
ATOM     88  C   UNL A   1      36.362  34.361  29.526  1.00  0.00     0.020 A 
ATOM     89  C   UNL A   1      35.095  33.793  29.664  1.00  0.00     0.054 A 
BRANCH  89  90
ATOM     90  S   UNL A   1      33.662  34.523  28.823  1.00  0.00     0.124 S 
ATOM     91  O   UNL A   1      32.722  34.702  29.925  1.00  0.00    -0.237 OA
ATOM     92  O   UNL A   1      34.218  35.752  28.262  1.00  0.00    -0.237 OA
ATOM     93  O   UNL A   1      33.286  33.510  27.840  1.00  0.00    -0.744 OA
ENDBRANCH  89  90
ENDBRANCH  61  84
BRANCH  73  94
ATOM     94  C   UNL A   1      40.002  33.455  37.378  1.00  0.00    -0.014 A 
ATOM     95  C   UNL A   1      39.208  32.949  38.422  1.00  0.00     0.010 A 
ATOM     96  C   UNL A   1      40.489  34.772  37.463  1.00  0.00     0.010 A 
ATOM     97  C   UNL A   1      38.881  33.756  39.515  1.00  0.00     0.020 A 
ATOM     98  C   UNL A   1      40.190  35.572  38.569  1.00  0.00     0.020 A 
ATOM     99  C   UNL A   1      39.375  35.063  39.582  1.00  0.00     0.054 A 
BRANCH  99 100
ATOM    100  S   UNL A   1      38.973  36.075  41.032  1.00  0.00     0.124 S 
ATOM    101  O   UNL A   1      37.596  35.675  41.310  1.00  0.00    -0.237 OA
ATOM    102  O   UNL A   1      39.965  35.639  42.012  1.00  0.00    -0.237 OA
ATOM    103  O   UNL A   1      39.139  37.446  40.555  1.00  0.00    -0.744 OA
ENDBRANCH  99 100
ENDBRANCH  73  94
ENDBRANCH  47  48
ENDBRANCH  40  42
ENDBRANCH  39  40
ENDBRANCH  38  39
ENDBRANCH  37  38
ENDBRANCH  36  37
ENDBRANCH  35  36
ENDBRANCH  34  35
ENDBRANCH   1  34
TORSDOF 26
ENDMDL
