MODEL 1
REMARK VINA RESULT:      -9.3      0.000      0.000
REMARK SMILES Cc1cc(C)c2c(c1)C=C(C(=O)OCCOCCOCCOCCOC(=O)c1ccc(-c3c4nc(c(-c5ccc(S(=O)(=O)[O-])cc5)c5ccc([nH]5)c(-c5ccc(S(=O)(=O)[O-])cc5)c5nc(c(-c6ccc(S(=O)(=O)[O-])cc6)c6ccc3[nH]6)C=C5)C=C4)cc1)[C@@H](C(F)(F)F)O2
REMARK SMILES IDX 20 1 19 2 18 3 17 4 16 5 15 6 14 7 13 8 11 9 12 10 10 11
REMARK SMILES IDX 1 12 2 13 3 14 8 15 4 16 7 17 5 18 6 19 9 20 93 21 88 22
REMARK SMILES IDX 89 23 90 24 91 25 92 26 21 27 22 28 23 29 24 30 25 31 26 32
REMARK SMILES IDX 27 33 28 34 29 35 87 36 30 37 86 38 31 39 32 40 33 41 80 42
REMARK SMILES IDX 34 43 85 44 79 45 81 46 35 47 84 48 78 49 77 50 36 52 66 53
REMARK SMILES IDX 47 54 65 55 48 56 51 57 64 58 82 59 49 60 50 61 63 63 83 64
REMARK SMILES IDX 52 65 37 66 38 67 46 68 39 69 45 70 40 71 41 72 42 73 43 74
REMARK SMILES IDX 44 75 67 76 68 77 76 78 69 79 75 80 70 81 71 82 72 83 73 84
REMARK SMILES IDX 74 85 53 86 54 87 62 88 55 89 61 90 56 91 57 92 58 93 59 94
REMARK SMILES IDX 60 95
REMARK H PARENT 81 51 51 62
REMARK Flexibility Score: inf
ROOT
ATOM      1  C   UNL A   1      35.040  33.408  31.638  1.00  0.00     0.188 C 
ENDROOT
BRANCH   1   2
ATOM      2  O   UNL A   1      33.743  34.000  31.711  1.00  0.00    -0.377 OA
BRANCH   2   3
ATOM      3  C   UNL A   1      33.647  35.387  31.445  1.00  0.00     0.188 C 
BRANCH   3   4
ATOM      4  C   UNL A   1      33.015  35.701  30.075  1.00  0.00     0.188 C 
BRANCH   4   5
ATOM      5  O   UNL A   1      32.454  34.628  29.346  1.00  0.00    -0.376 OA
BRANCH   5   6
ATOM      6  C   UNL A   1      33.036  34.084  28.172  1.00  0.00     0.202 C 
BRANCH   6   7
ATOM      7  C   UNL A   1      32.346  33.226  27.092  1.00  0.00     0.261 C 
BRANCH   7   8
ATOM      8  O   UNL A   1      32.235  31.827  27.318  1.00  0.00    -0.460 OA
BRANCH   8   9
ATOM      9  C   UNL A   1      33.215  31.057  26.815  1.00  0.00     0.338 C 
ATOM     10  O   UNL A   1      34.375  31.004  27.188  1.00  0.00    -0.246 OA
BRANCH   9  11
ATOM     11  C   UNL A   1      32.603  30.132  25.842  1.00  0.00     0.087 C 
ATOM     12  C   UNL A   1      27.427  29.388  22.641  1.00  0.00     0.044 C 
ATOM     13  C   UNL A   1      28.809  29.037  23.106  1.00  0.00    -0.050 A 
ATOM     14  C   UNL A   1      29.362  27.775  22.863  1.00  0.00     0.010 A 
ATOM     15  C   UNL A   1      29.541  29.967  23.851  1.00  0.00     0.015 A 
ATOM     16  C   UNL A   1      30.638  27.440  23.343  1.00  0.00    -0.008 A 
ATOM     17  C   UNL A   1      30.793  29.628  24.372  1.00  0.00     0.018 A 
ATOM     18  C   UNL A   1      31.199  26.066  23.103  1.00  0.00     0.048 C 
ATOM     19  C   UNL A   1      31.358  28.384  24.089  1.00  0.00     0.130 A 
ATOM     20  C   UNL A   1      31.452  30.534  25.291  1.00  0.00     0.027 C 
ATOM     21  O   UNL A   1      32.599  28.013  24.525  1.00  0.00    -0.475 OA
ATOM     22  C   UNL A   1      33.306  28.852  25.479  1.00  0.00     0.316 C 
BRANCH  22  23
ATOM     23  C   UNL A   1      33.631  28.003  26.714  1.00  0.00     0.430 C 
ATOM     24  F   UNL A   1      34.888  28.239  27.159  1.00  0.00    -0.167 F 
ATOM     25  F   UNL A   1      32.793  28.265  27.742  1.00  0.00    -0.167 F 
ATOM     26  F   UNL A   1      33.538  26.680  26.444  1.00  0.00    -0.167 F 
ENDBRANCH  22  23
ENDBRANCH   9  11
ENDBRANCH   8   9
ENDBRANCH   7   8
ENDBRANCH   6   7
ENDBRANCH   5   6
ENDBRANCH   4   5
ENDBRANCH   3   4
ENDBRANCH   2   3
ENDBRANCH   1   2
BRANCH   1  27
ATOM     27  C   UNL A   1      35.847  33.454  30.321  1.00  0.00     0.188 C 
BRANCH  27  28
ATOM     28  O   UNL A   1      37.140  32.870  30.405  1.00  0.00    -0.376 OA
BRANCH  28  29
ATOM     29  C   UNL A   1      37.546  32.269  31.624  1.00  0.00     0.202 C 
BRANCH  29  30
ATOM     30  C   UNL A   1      38.288  30.929  31.521  1.00  0.00     0.261 C 
BRANCH  30  31
ATOM     31  O   UNL A   1      37.462  29.770  31.357  1.00  0.00    -0.460 OA
BRANCH  31  32
ATOM     32  C   UNL A   1      37.269  29.326  30.097  1.00  0.00     0.338 C 
ATOM     33  O   UNL A   1      36.240  29.389  29.445  1.00  0.00    -0.246 OA
BRANCH  32  34
ATOM     34  C   UNL A   1      38.582  28.918  29.562  1.00  0.00     0.060 A 
ATOM     35  C   UNL A   1      39.342  27.973  30.265  1.00  0.00     0.016 A 
ATOM     36  C   UNL A   1      39.058  29.471  28.372  1.00  0.00     0.016 A 
ATOM     37  C   UNL A   1      40.605  27.610  29.799  1.00  0.00     0.010 A 
ATOM     38  C   UNL A   1      40.332  29.128  27.921  1.00  0.00     0.010 A 
ATOM     39  C   UNL A   1      41.124  28.226  28.653  1.00  0.00    -0.014 A 
BRANCH  39  40
ATOM     40  C   UNL A   1      42.562  28.099  28.325  1.00  0.00     0.031 A 
ATOM     41  C   UNL A   1      43.454  29.281  28.590  1.00  0.00     0.074 A 
ATOM     42  C   UNL A   1      43.064  26.968  27.799  1.00  0.00     0.049 A 
ATOM     43  N   UNL A   1      44.708  29.460  28.273  1.00  0.00    -0.248 NA
ATOM     44  C   UNL A   1      42.844  30.414  29.308  1.00  0.00     0.031 C 
ATOM     45  C   UNL A   1      42.315  25.734  27.568  1.00  0.00     0.029 A 
ATOM     46  N   UNL A   1      44.330  26.685  27.352  1.00  0.00    -0.354 N 
ATOM     47  C   UNL A   1      45.036  30.727  28.740  1.00  0.00     0.074 A 
ATOM     48  C   UNL A   1      43.845  31.282  29.346  1.00  0.00     0.031 C 
ATOM     49  C   UNL A   1      43.134  24.828  27.005  1.00  0.00     0.029 A 
ATOM     50  C   UNL A   1      44.448  25.435  26.793  1.00  0.00     0.049 A 
ATOM     51  H   UNL A   1      45.081  27.316  27.424  1.00  0.00     0.167 HD
ATOM     52  C   UNL A   1      46.224  31.371  28.671  1.00  0.00     0.031 A 
ATOM     53  C   UNL A   1      45.487  24.861  26.154  1.00  0.00     0.031 A 
ATOM     54  C   UNL A   1      47.398  30.819  28.049  1.00  0.00     0.049 A 
ATOM     55  C   UNL A   1      46.772  25.637  25.999  1.00  0.00     0.074 A 
ATOM     56  C   UNL A   1      48.650  31.393  27.915  1.00  0.00     0.029 A 
ATOM     57  N   UNL A   1      47.466  29.568  27.454  1.00  0.00    -0.354 N 
ATOM     58  N   UNL A   1      47.065  26.843  26.426  1.00  0.00    -0.248 NA
ATOM     59  C   UNL A   1      47.866  24.970  25.282  1.00  0.00     0.031 C 
ATOM     60  C   UNL A   1      49.456  30.515  27.185  1.00  0.00     0.029 A 
ATOM     61  C   UNL A   1      48.730  29.361  26.933  1.00  0.00     0.049 A 
ATOM     62  H   UNL A   1      46.723  28.923  27.410  1.00  0.00     0.167 HD
ATOM     63  C   UNL A   1      48.389  27.065  26.060  1.00  0.00     0.074 A 
ATOM     64  C   UNL A   1      48.842  25.863  25.389  1.00  0.00     0.031 C 
ATOM     65  C   UNL A   1      49.164  28.159  26.265  1.00  0.00     0.031 A 
BRANCH  52  66
ATOM     66  C   UNL A   1      46.309  32.758  29.249  1.00  0.00    -0.014 A 
ATOM     67  C   UNL A   1      46.004  33.892  28.474  1.00  0.00     0.010 A 
ATOM     68  C   UNL A   1      46.630  32.925  30.608  1.00  0.00     0.010 A 
ATOM     69  C   UNL A   1      46.030  35.167  29.046  1.00  0.00     0.020 A 
ATOM     70  C   UNL A   1      46.631  34.197  31.191  1.00  0.00     0.020 A 
ATOM     71  C   UNL A   1      46.336  35.309  30.402  1.00  0.00     0.054 A 
BRANCH  71  72
ATOM     72  S   UNL A   1      46.302  36.971  31.129  1.00  0.00     0.124 S 
ATOM     73  O   UNL A   1      47.093  37.738  30.168  1.00  0.00    -0.237 OA
ATOM     74  O   UNL A   1      44.874  37.278  31.152  1.00  0.00    -0.237 OA
ATOM     75  O   UNL A   1      46.922  36.791  32.440  1.00  0.00    -0.744 OA
ENDBRANCH  71  72
ENDBRANCH  52  66
BRANCH  53  76
ATOM     76  C   UNL A   1      45.352  23.488  25.594  1.00  0.00    -0.014 A 
ATOM     77  C   UNL A   1      45.220  23.289  24.208  1.00  0.00     0.010 A 
ATOM     78  C   UNL A   1      45.357  22.367  26.446  1.00  0.00     0.010 A 
ATOM     79  C   UNL A   1      45.083  21.999  23.687  1.00  0.00     0.020 A 
ATOM     80  C   UNL A   1      45.252  21.073  25.925  1.00  0.00     0.020 A 
ATOM     81  C   UNL A   1      45.108  20.898  24.549  1.00  0.00     0.054 A 
BRANCH  81  82
ATOM     82  S   UNL A   1      44.985  19.233  23.839  1.00  0.00     0.124 S 
ATOM     83  O   UNL A   1      44.240  18.517  24.869  1.00  0.00    -0.237 OA
ATOM     84  O   UNL A   1      44.266  19.479  22.592  1.00  0.00    -0.237 OA
ATOM     85  O   UNL A   1      46.379  18.826  23.678  1.00  0.00    -0.744 OA
ENDBRANCH  81  82
ENDBRANCH  53  76
BRANCH  65  86
ATOM     86  C   UNL A   1      50.598  28.096  25.803  1.00  0.00    -0.014 A 
ATOM     87  C   UNL A   1      50.943  28.237  24.448  1.00  0.00     0.010 A 
ATOM     88  C   UNL A   1      51.622  27.938  26.757  1.00  0.00     0.010 A 
ATOM     89  C   UNL A   1      52.282  28.171  24.050  1.00  0.00     0.020 A 
ATOM     90  C   UNL A   1      52.963  27.907  26.367  1.00  0.00     0.020 A 
ATOM     91  C   UNL A   1      53.283  28.003  25.012  1.00  0.00     0.054 A 
BRANCH  91  92
ATOM     92  S   UNL A   1      55.010  27.932  24.468  1.00  0.00     0.124 S 
ATOM     93  O   UNL A   1      54.869  27.644  23.044  1.00  0.00    -0.237 OA
ATOM     94  O   UNL A   1      55.503  29.269  24.793  1.00  0.00    -0.237 OA
ATOM     95  O   UNL A   1      55.584  26.852  25.268  1.00  0.00    -0.744 OA
ENDBRANCH  91  92
ENDBRANCH  65  86
ENDBRANCH  39  40
ENDBRANCH  32  34
ENDBRANCH  31  32
ENDBRANCH  30  31
ENDBRANCH  29  30
ENDBRANCH  28  29
ENDBRANCH  27  28
ENDBRANCH   1  27
TORSDOF 24
ENDMDL
MODEL 2
REMARK VINA RESULT:      -9.1      1.839      8.320
REMARK SMILES Cc1cc(C)c2c(c1)C=C(C(=O)OCCOCCOCCOCCOC(=O)c1ccc(-c3c4nc(c(-c5ccc(S(=O)(=O)[O-])cc5)c5ccc([nH]5)c(-c5ccc(S(=O)(=O)[O-])cc5)c5nc(c(-c6ccc(S(=O)(=O)[O-])cc6)c6ccc3[nH]6)C=C5)C=C4)cc1)[C@@H](C(F)(F)F)O2
REMARK SMILES IDX 20 1 19 2 18 3 17 4 16 5 15 6 14 7 13 8 11 9 12 10 10 11
REMARK SMILES IDX 1 12 2 13 3 14 8 15 4 16 7 17 5 18 6 19 9 20 93 21 88 22
REMARK SMILES IDX 89 23 90 24 91 25 92 26 21 27 22 28 23 29 24 30 25 31 26 32
REMARK SMILES IDX 27 33 28 34 29 35 87 36 30 37 86 38 31 39 32 40 33 41 80 42
REMARK SMILES IDX 34 43 85 44 79 45 81 46 35 47 84 48 78 49 77 50 36 52 66 53
REMARK SMILES IDX 47 54 65 55 48 56 51 57 64 58 82 59 49 60 50 61 63 63 83 64
REMARK SMILES IDX 52 65 37 66 38 67 46 68 39 69 45 70 40 71 41 72 42 73 43 74
REMARK SMILES IDX 44 75 67 76 68 77 76 78 69 79 75 80 70 81 71 82 72 83 73 84
REMARK SMILES IDX 74 85 53 86 54 87 62 88 55 89 61 90 56 91 57 92 58 93 59 94
REMARK SMILES IDX 60 95
REMARK H PARENT 81 51 51 62
REMARK Flexibility Score: inf
ROOT
ATOM      1  C   UNL A   1      35.861  33.897  31.257  1.00  0.00     0.188 C 
ENDROOT
BRANCH   1   2
ATOM      2  O   UNL A   1      34.936  33.156  30.462  1.00  0.00    -0.377 OA
BRANCH   2   3
ATOM      3  C   UNL A   1      34.171  33.877  29.513  1.00  0.00     0.188 C 
BRANCH   3   4
ATOM      4  C   UNL A   1      34.570  33.576  28.056  1.00  0.00     0.188 C 
BRANCH   4   5
ATOM      5  O   UNL A   1      34.682  32.222  27.668  1.00  0.00    -0.376 OA
BRANCH   5   6
ATOM      6  C   UNL A   1      33.592  31.313  27.654  1.00  0.00     0.202 C 
BRANCH   6   7
ATOM      7  C   UNL A   1      33.039  30.528  26.448  1.00  0.00     0.261 C 
BRANCH   7   8
ATOM      8  O   UNL A   1      33.454  29.178  26.281  1.00  0.00    -0.460 OA
BRANCH   8   9
ATOM      9  C   UNL A   1      32.553  28.230  26.591  1.00  0.00     0.338 C 
ATOM     10  O   UNL A   1      31.593  28.340  27.335  1.00  0.00    -0.246 OA
BRANCH   9  11
ATOM     11  C   UNL A   1      32.811  27.066  25.721  1.00  0.00     0.087 C 
ATOM     12  C   UNL A   1      37.081  22.788  24.696  1.00  0.00     0.044 C 
ATOM     13  C   UNL A   1      35.779  23.499  24.478  1.00  0.00    -0.050 A 
ATOM     14  C   UNL A   1      34.999  23.259  23.341  1.00  0.00     0.010 A 
ATOM     15  C   UNL A   1      35.361  24.466  25.397  1.00  0.00     0.015 A 
ATOM     16  C   UNL A   1      33.804  23.965  23.123  1.00  0.00    -0.008 A 
ATOM     17  C   UNL A   1      34.198  25.206  25.167  1.00  0.00     0.018 A 
ATOM     18  C   UNL A   1      32.999  23.720  21.877  1.00  0.00     0.048 C 
ATOM     19  C   UNL A   1      33.401  24.932  24.054  1.00  0.00     0.130 A 
ATOM     20  C   UNL A   1      33.881  26.325  26.031  1.00  0.00     0.027 C 
ATOM     21  O   UNL A   1      32.225  25.583  23.802  1.00  0.00    -0.475 OA
ATOM     22  C   UNL A   1      31.858  26.740  24.602  1.00  0.00     0.316 C 
BRANCH  22  23
ATOM     23  C   UNL A   1      31.652  27.929  23.657  1.00  0.00     0.430 C 
ATOM     24  F   UNL A   1      30.802  28.840  24.188  1.00  0.00    -0.167 F 
ATOM     25  F   UNL A   1      32.811  28.576  23.398  1.00  0.00    -0.167 F 
ATOM     26  F   UNL A   1      31.135  27.536  22.470  1.00  0.00    -0.167 F 
ENDBRANCH  22  23
ENDBRANCH   9  11
ENDBRANCH   8   9
ENDBRANCH   7   8
ENDBRANCH   6   7
ENDBRANCH   5   6
ENDBRANCH   4   5
ENDBRANCH   3   4
ENDBRANCH   2   3
ENDBRANCH   1   2
BRANCH   1  27
ATOM     27  C   UNL A   1      37.125  34.513  30.614  1.00  0.00     0.188 C 
BRANCH  27  28
ATOM     28  O   UNL A   1      38.152  33.574  30.324  1.00  0.00    -0.376 OA
BRANCH  28  29
ATOM     29  C   UNL A   1      38.166  32.940  29.057  1.00  0.00     0.202 C 
BRANCH  29  30
ATOM     30  C   UNL A   1      37.756  31.461  29.019  1.00  0.00     0.261 C 
BRANCH  30  31
ATOM     31  O   UNL A   1      37.687  30.799  30.288  1.00  0.00    -0.460 OA
BRANCH  31  32
ATOM     32  C   UNL A   1      37.805  29.455  30.286  1.00  0.00     0.338 C 
ATOM     33  O   UNL A   1      36.943  28.640  30.572  1.00  0.00    -0.246 OA
BRANCH  32  34
ATOM     34  C   UNL A   1      39.113  29.122  29.689  1.00  0.00     0.060 A 
ATOM     35  C   UNL A   1      40.156  28.696  30.523  1.00  0.00     0.016 A 
ATOM     36  C   UNL A   1      39.304  29.237  28.311  1.00  0.00     0.016 A 
ATOM     37  C   UNL A   1      41.411  28.422  29.981  1.00  0.00     0.010 A 
ATOM     38  C   UNL A   1      40.567  28.989  27.774  1.00  0.00     0.010 A 
ATOM     39  C   UNL A   1      41.634  28.618  28.612  1.00  0.00    -0.014 A 
BRANCH  39  40
ATOM     40  C   UNL A   1      43.013  28.645  28.078  1.00  0.00     0.031 A 
ATOM     41  C   UNL A   1      43.545  27.394  27.432  1.00  0.00     0.074 A 
ATOM     42  C   UNL A   1      43.780  29.745  28.168  1.00  0.00     0.049 A 
ATOM     43  N   UNL A   1      44.752  27.128  27.009  1.00  0.00    -0.248 NA
ATOM     44  C   UNL A   1      42.582  26.294  27.241  1.00  0.00     0.031 C 
ATOM     45  C   UNL A   1      43.350  31.036  28.704  1.00  0.00     0.029 A 
ATOM     46  N   UNL A   1      45.092  29.943  27.820  1.00  0.00    -0.354 N 
ATOM     47  C   UNL A   1      44.699  25.831  26.513  1.00  0.00     0.074 A 
ATOM     48  C   UNL A   1      43.347  25.354  26.705  1.00  0.00     0.031 C 
ATOM     49  C   UNL A   1      44.388  31.890  28.663  1.00  0.00     0.029 A 
ATOM     50  C   UNL A   1      45.565  31.192  28.145  1.00  0.00     0.049 A 
ATOM     51  H   UNL A   1      45.642  29.256  27.379  1.00  0.00     0.167 HD
ATOM     52  C   UNL A   1      45.689  25.102  25.949  1.00  0.00     0.031 A 
ATOM     53  C   UNL A   1      46.811  31.699  28.064  1.00  0.00     0.031 A 
ATOM     54  C   UNL A   1      47.037  25.579  25.779  1.00  0.00     0.049 A 
ATOM     55  C   UNL A   1      47.922  30.834  27.524  1.00  0.00     0.074 A 
ATOM     56  C   UNL A   1      48.119  24.916  25.229  1.00  0.00     0.029 A 
ATOM     57  N   UNL A   1      47.487  26.833  26.162  1.00  0.00    -0.354 N 
ATOM     58  N   UNL A   1      47.866  29.600  27.078  1.00  0.00    -0.248 NA
ATOM     59  C   UNL A   1      49.262  31.432  27.472  1.00  0.00     0.031 C 
ATOM     60  C   UNL A   1      49.238  25.746  25.335  1.00  0.00     0.029 A 
ATOM     61  C   UNL A   1      48.836  26.956  25.880  1.00  0.00     0.049 A 
ATOM     62  H   UNL A   1      46.929  27.532  26.573  1.00  0.00     0.167 HD
ATOM     63  C   UNL A   1      49.156  29.289  26.659  1.00  0.00     0.074 A 
ATOM     64  C   UNL A   1      49.966  30.468  26.893  1.00  0.00     0.031 C 
ATOM     65  C   UNL A   1      49.628  28.136  26.123  1.00  0.00     0.031 A 
BRANCH  52  66
ATOM     66  C   UNL A   1      45.367  23.701  25.503  1.00  0.00    -0.014 A 
ATOM     67  C   UNL A   1      45.014  23.423  24.170  1.00  0.00     0.010 A 
ATOM     68  C   UNL A   1      45.492  22.637  26.414  1.00  0.00     0.010 A 
ATOM     69  C   UNL A   1      44.778  22.107  23.762  1.00  0.00     0.020 A 
ATOM     70  C   UNL A   1      45.284  21.317  26.003  1.00  0.00     0.020 A 
ATOM     71  C   UNL A   1      44.922  21.062  24.680  1.00  0.00     0.054 A 
BRANCH  71  72
ATOM     72  S   UNL A   1      44.670  19.361  24.103  1.00  0.00     0.124 S 
ATOM     73  O   UNL A   1      44.502  19.551  22.664  1.00  0.00    -0.237 OA
ATOM     74  O   UNL A   1      45.908  18.701  24.510  1.00  0.00    -0.237 OA
ATOM     75  O   UNL A   1      43.470  18.926  24.816  1.00  0.00    -0.744 OA
ENDBRANCH  71  72
ENDBRANCH  52  66
BRANCH  53  76
ATOM     76  C   UNL A   1      47.080  33.090  28.523  1.00  0.00    -0.014 A 
ATOM     77  C   UNL A   1      46.978  34.172  27.630  1.00  0.00     0.010 A 
ATOM     78  C   UNL A   1      47.440  33.343  29.861  1.00  0.00     0.010 A 
ATOM     79  C   UNL A   1      47.241  35.475  28.062  1.00  0.00     0.020 A 
ATOM     80  C   UNL A   1      47.673  34.648  30.304  1.00  0.00     0.020 A 
ATOM     81  C   UNL A   1      47.580  35.706  29.399  1.00  0.00     0.054 A 
BRANCH  81  82
ATOM     82  S   UNL A   1      47.860  37.413  29.944  1.00  0.00     0.124 S 
ATOM     83  O   UNL A   1      48.789  37.230  31.055  1.00  0.00    -0.237 OA
ATOM     84  O   UNL A   1      48.419  38.035  28.747  1.00  0.00    -0.237 OA
ATOM     85  O   UNL A   1      46.525  37.878  30.315  1.00  0.00    -0.744 OA
ENDBRANCH  81  82
ENDBRANCH  53  76
BRANCH  65  86
ATOM     86  C   UNL A   1      51.077  28.102  25.705  1.00  0.00    -0.014 A 
ATOM     87  C   UNL A   1      52.092  27.720  26.598  1.00  0.00     0.010 A 
ATOM     88  C   UNL A   1      51.418  28.416  24.375  1.00  0.00     0.010 A 
ATOM     89  C   UNL A   1      53.427  27.700  26.182  1.00  0.00     0.020 A 
ATOM     90  C   UNL A   1      52.746  28.363  23.947  1.00  0.00     0.020 A 
ATOM     91  C   UNL A   1      53.746  28.026  24.860  1.00  0.00     0.054 A 
BRANCH  91  92
ATOM     92  S   UNL A   1      55.483  27.982  24.346  1.00  0.00     0.124 S 
ATOM     93  O   UNL A   1      55.828  29.400  24.318  1.00  0.00    -0.237 OA
ATOM     94  O   UNL A   1      56.112  27.203  25.410  1.00  0.00    -0.237 OA
ATOM     95  O   UNL A   1      55.445  27.325  23.041  1.00  0.00    -0.744 OA
ENDBRANCH  91  92
ENDBRANCH  65  86
ENDBRANCH  39  40
ENDBRANCH  32  34
ENDBRANCH  31  32
ENDBRANCH  30  31
ENDBRANCH  29  30
ENDBRANCH  28  29
ENDBRANCH  27  28
ENDBRANCH   1  27
TORSDOF 24
ENDMDL
MODEL 3
REMARK VINA RESULT:      -8.9      6.369     14.457
REMARK SMILES Cc1cc(C)c2c(c1)C=C(C(=O)OCCOCCOCCOCCOC(=O)c1ccc(-c3c4nc(c(-c5ccc(S(=O)(=O)[O-])cc5)c5ccc([nH]5)c(-c5ccc(S(=O)(=O)[O-])cc5)c5nc(c(-c6ccc(S(=O)(=O)[O-])cc6)c6ccc3[nH]6)C=C5)C=C4)cc1)[C@@H](C(F)(F)F)O2
REMARK SMILES IDX 20 1 19 2 18 3 17 4 16 5 15 6 14 7 13 8 11 9 12 10 10 11
REMARK SMILES IDX 1 12 2 13 3 14 8 15 4 16 7 17 5 18 6 19 9 20 93 21 88 22
REMARK SMILES IDX 89 23 90 24 91 25 92 26 21 27 22 28 23 29 24 30 25 31 26 32
REMARK SMILES IDX 27 33 28 34 29 35 87 36 30 37 86 38 31 39 32 40 33 41 80 42
REMARK SMILES IDX 34 43 85 44 79 45 81 46 35 47 84 48 78 49 77 50 36 52 66 53
REMARK SMILES IDX 47 54 65 55 48 56 51 57 64 58 82 59 49 60 50 61 63 63 83 64
REMARK SMILES IDX 52 65 37 66 38 67 46 68 39 69 45 70 40 71 41 72 42 73 43 74
REMARK SMILES IDX 44 75 67 76 68 77 76 78 69 79 75 80 70 81 71 82 72 83 73 84
REMARK SMILES IDX 74 85 53 86 54 87 62 88 55 89 61 90 56 91 57 92 58 93 59 94
REMARK SMILES IDX 60 95
REMARK H PARENT 81 51 51 62
REMARK Flexibility Score: inf
ROOT
ATOM      1  C   UNL A   1      45.171  26.380  26.911  1.00  0.00     0.188 C 
ENDROOT
BRANCH   1   2
ATOM      2  O   UNL A   1      44.573  27.583  27.393  1.00  0.00    -0.377 OA
BRANCH   2   3
ATOM      3  C   UNL A   1      44.708  27.867  28.773  1.00  0.00     0.188 C 
BRANCH   3   4
ATOM      4  C   UNL A   1      45.389  26.733  29.564  1.00  0.00     0.188 C 
BRANCH   4   5
ATOM      5  O   UNL A   1      46.539  27.054  30.319  1.00  0.00    -0.376 OA
BRANCH   5   6
ATOM      6  C   UNL A   1      47.298  28.239  30.136  1.00  0.00     0.202 C 
BRANCH   6   7
ATOM      7  C   UNL A   1      47.321  29.488  31.040  1.00  0.00     0.261 C 
BRANCH   7   8
ATOM      8  O   UNL A   1      46.099  30.183  31.254  1.00  0.00    -0.460 OA
BRANCH   8   9
ATOM      9  C   UNL A   1      45.928  31.325  30.566  1.00  0.00     0.338 C 
ATOM     10  O   UNL A   1      46.256  31.546  29.413  1.00  0.00    -0.246 OA
BRANCH   9  11
ATOM     11  C   UNL A   1      45.094  32.223  31.390  1.00  0.00     0.087 C 
ATOM     12  C   UNL A   1      44.625  34.275  37.147  1.00  0.00     0.044 C 
ATOM     13  C   UNL A   1      44.239  34.157  35.703  1.00  0.00    -0.050 A 
ATOM     14  C   UNL A   1      43.008  34.630  35.235  1.00  0.00     0.010 A 
ATOM     15  C   UNL A   1      45.099  33.507  34.813  1.00  0.00     0.015 A 
ATOM     16  C   UNL A   1      42.636  34.471  33.890  1.00  0.00    -0.008 A 
ATOM     17  C   UNL A   1      44.721  33.303  33.483  1.00  0.00     0.018 A 
ATOM     18  C   UNL A   1      41.294  34.953  33.416  1.00  0.00     0.048 C 
ATOM     19  C   UNL A   1      43.511  33.816  33.012  1.00  0.00     0.130 A 
ATOM     20  C   UNL A   1      45.540  32.470  32.627  1.00  0.00     0.027 C 
ATOM     21  O   UNL A   1      43.108  33.697  31.711  1.00  0.00    -0.475 OA
ATOM     22  C   UNL A   1      43.858  32.846  30.801  1.00  0.00     0.316 C 
BRANCH  22  23
ATOM     23  C   UNL A   1      42.900  31.795  30.229  1.00  0.00     0.430 C 
ATOM     24  F   UNL A   1      43.033  31.683  28.886  1.00  0.00    -0.167 F 
ATOM     25  F   UNL A   1      43.125  30.568  30.751  1.00  0.00    -0.167 F 
ATOM     26  F   UNL A   1      41.608  32.111  30.483  1.00  0.00    -0.167 F 
ENDBRANCH  22  23
ENDBRANCH   9  11
ENDBRANCH   8   9
ENDBRANCH   7   8
ENDBRANCH   6   7
ENDBRANCH   5   6
ENDBRANCH   4   5
ENDBRANCH   3   4
ENDBRANCH   2   3
ENDBRANCH   1   2
BRANCH   1  27
ATOM     27  C   UNL A   1      45.158  26.053  25.400  1.00  0.00     0.188 C 
BRANCH  27  28
ATOM     28  O   UNL A   1      43.950  25.464  24.937  1.00  0.00    -0.376 OA
BRANCH  28  29
ATOM     29  C   UNL A   1      42.750  25.703  25.653  1.00  0.00     0.202 C 
BRANCH  29  30
ATOM     30  C   UNL A   1      42.083  24.486  26.310  1.00  0.00     0.261 C 
BRANCH  30  31
ATOM     31  O   UNL A   1      41.309  24.758  27.485  1.00  0.00    -0.460 OA
BRANCH  31  32
ATOM     32  C   UNL A   1      40.098  25.325  27.305  1.00  0.00     0.338 C 
ATOM     33  O   UNL A   1      39.202  24.931  26.577  1.00  0.00    -0.246 OA
BRANCH  32  34
ATOM     34  C   UNL A   1      39.963  26.413  28.293  1.00  0.00     0.060 A 
ATOM     35  C   UNL A   1      40.742  27.569  28.147  1.00  0.00     0.016 A 
ATOM     36  C   UNL A   1      39.073  26.284  29.361  1.00  0.00     0.016 A 
ATOM     37  C   UNL A   1      40.662  28.586  29.097  1.00  0.00     0.010 A 
ATOM     38  C   UNL A   1      39.013  27.291  30.325  1.00  0.00     0.010 A 
ATOM     39  C   UNL A   1      39.834  28.426  30.216  1.00  0.00    -0.014 A 
BRANCH  39  40
ATOM     40  C   UNL A   1      39.972  29.331  31.379  1.00  0.00     0.031 A 
ATOM     41  C   UNL A   1      41.128  29.106  32.316  1.00  0.00     0.074 A 
ATOM     42  C   UNL A   1      39.091  30.321  31.606  1.00  0.00     0.049 A 
ATOM     43  N   UNL A   1      41.388  29.676  33.462  1.00  0.00    -0.248 NA
ATOM     44  C   UNL A   1      42.122  28.100  31.901  1.00  0.00     0.031 C 
ATOM     45  C   UNL A   1      37.977  30.681  30.731  1.00  0.00     0.029 A 
ATOM     46  N   UNL A   1      38.994  31.197  32.657  1.00  0.00    -0.354 N 
ATOM     47  C   UNL A   1      42.567  29.092  33.912  1.00  0.00     0.074 A 
ATOM     48  C   UNL A   1      42.962  28.110  32.927  1.00  0.00     0.031 C 
ATOM     49  C   UNL A   1      37.296  31.697  31.292  1.00  0.00     0.029 A 
ATOM     50  C   UNL A   1      37.897  32.023  32.584  1.00  0.00     0.049 A 
ATOM     51  H   UNL A   1      39.646  31.231  33.393  1.00  0.00     0.167 HD
ATOM     52  C   UNL A   1      43.257  29.352  35.046  1.00  0.00     0.031 A 
ATOM     53  C   UNL A   1      37.418  32.914  33.475  1.00  0.00     0.031 A 
ATOM     54  C   UNL A   1      42.846  30.318  36.031  1.00  0.00     0.049 A 
ATOM     55  C   UNL A   1      38.150  33.115  34.778  1.00  0.00     0.074 A 
ATOM     56  C   UNL A   1      43.469  30.650  37.220  1.00  0.00     0.029 A 
ATOM     57  N   UNL A   1      41.706  31.103  35.942  1.00  0.00    -0.354 N 
ATOM     58  N   UNL A   1      39.252  32.543  35.204  1.00  0.00    -0.248 NA
ATOM     59  C   UNL A   1      37.576  34.087  35.718  1.00  0.00     0.031 C 
ATOM     60  C   UNL A   1      42.673  31.591  37.880  1.00  0.00     0.029 A 
ATOM     61  C   UNL A   1      41.596  31.902  37.066  1.00  0.00     0.049 A 
ATOM     62  H   UNL A   1      41.070  31.092  35.190  1.00  0.00     0.167 HD
ATOM     63  C   UNL A   1      39.521  33.112  36.445  1.00  0.00     0.074 A 
ATOM     64  C   UNL A   1      38.474  34.082  36.694  1.00  0.00     0.031 C 
ATOM     65  C   UNL A   1      40.545  32.861  37.299  1.00  0.00     0.031 A 
BRANCH  52  66
ATOM     66  C   UNL A   1      44.510  28.560  35.306  1.00  0.00    -0.014 A 
ATOM     67  C   UNL A   1      45.771  29.034  34.899  1.00  0.00     0.010 A 
ATOM     68  C   UNL A   1      44.434  27.357  36.031  1.00  0.00     0.010 A 
ATOM     69  C   UNL A   1      46.929  28.314  35.203  1.00  0.00     0.020 A 
ATOM     70  C   UNL A   1      45.593  26.648  36.362  1.00  0.00     0.020 A 
ATOM     71  C   UNL A   1      46.832  27.129  35.939  1.00  0.00     0.054 A 
BRANCH  71  72
ATOM     72  S   UNL A   1      48.359  26.249  36.370  1.00  0.00     0.124 S 
ATOM     73  O   UNL A   1      49.301  27.351  36.555  1.00  0.00    -0.237 OA
ATOM     74  O   UNL A   1      47.981  25.535  37.587  1.00  0.00    -0.237 OA
ATOM     75  O   UNL A   1      48.614  25.403  35.206  1.00  0.00    -0.744 OA
ENDBRANCH  71  72
ENDBRANCH  52  66
BRANCH  53  76
ATOM     76  C   UNL A   1      36.170  33.670  33.175  1.00  0.00    -0.014 A 
ATOM     77  C   UNL A   1      36.231  34.968  32.637  1.00  0.00     0.010 A 
ATOM     78  C   UNL A   1      34.910  33.094  33.423  1.00  0.00     0.010 A 
ATOM     79  C   UNL A   1      35.058  35.679  32.365  1.00  0.00     0.020 A 
ATOM     80  C   UNL A   1      33.735  33.789  33.123  1.00  0.00     0.020 A 
ATOM     81  C   UNL A   1      33.816  35.081  32.604  1.00  0.00     0.054 A 
BRANCH  81  82
ATOM     82  S   UNL A   1      32.312  36.005  32.189  1.00  0.00     0.124 S 
ATOM     83  O   UNL A   1      31.262  35.077  32.596  1.00  0.00    -0.237 OA
ATOM     84  O   UNL A   1      32.448  37.207  33.008  1.00  0.00    -0.237 OA
ATOM     85  O   UNL A   1      32.430  36.224  30.748  1.00  0.00    -0.744 OA
ENDBRANCH  81  82
ENDBRANCH  53  76
BRANCH  65  86
ATOM     86  C   UNL A   1      40.615  33.680  38.564  1.00  0.00    -0.014 A 
ATOM     87  C   UNL A   1      40.089  33.207  39.778  1.00  0.00     0.010 A 
ATOM     88  C   UNL A   1      41.264  34.930  38.540  1.00  0.00     0.010 A 
ATOM     89  C   UNL A   1      40.167  33.990  40.934  1.00  0.00     0.020 A 
ATOM     90  C   UNL A   1      41.375  35.699  39.700  1.00  0.00     0.020 A 
ATOM     91  C   UNL A   1      40.807  35.232  40.886  1.00  0.00     0.054 A 
BRANCH  91  92
ATOM     92  S   UNL A   1      40.902  36.222  42.402  1.00  0.00     0.124 S 
ATOM     93  O   UNL A   1      41.330  35.231  43.386  1.00  0.00    -0.237 OA
ATOM     94  O   UNL A   1      41.895  37.236  42.059  1.00  0.00    -0.237 OA
ATOM     95  O   UNL A   1      39.541  36.725  42.578  1.00  0.00    -0.744 OA
ENDBRANCH  91  92
ENDBRANCH  65  86
ENDBRANCH  39  40
ENDBRANCH  32  34
ENDBRANCH  31  32
ENDBRANCH  30  31
ENDBRANCH  29  30
ENDBRANCH  28  29
ENDBRANCH  27  28
ENDBRANCH   1  27
TORSDOF 24
ENDMDL
