MODEL 1
REMARK VINA RESULT:      -9.5      0.000      0.000
REMARK SMILES O=C(OCCOCCOCCOCCOC(=O)[C@@H]1[C@@H](C(=O)Nc2cccc([N+](=O)[O-])c2)[C@H]2C=C[C@@H]1O2)c1ccc(-c2c3nc(c(-c4ccc(S(=O)(=O)[O-])cc4)c4ccc([nH]4)c(-c4ccc(S(=O)(=O)[O-])cc4)c4nc(c(-c5ccc(S(=O)(=O)[O-])cc5)c5ccc2[nH]5)C=C4)C=C3)cc1
REMARK SMILES IDX 9 1 8 2 7 3 6 4 5 5 4 6 3 7 2 8 1 9 37 10 38 11 96 12 39 13
REMARK SMILES IDX 95 14 40 15 41 16 42 17 89 18 43 19 94 20 88 21 90 22 44 23
REMARK SMILES IDX 93 24 87 25 86 26 45 28 75 29 56 30 74 31 57 32 60 33 73 34
REMARK SMILES IDX 91 35 58 36 59 37 72 39 92 40 61 41 46 42 47 43 55 44 48 45
REMARK SMILES IDX 54 46 49 47 50 48 51 49 52 50 53 51 76 52 77 53 85 54 78 55
REMARK SMILES IDX 84 56 79 57 80 58 81 59 82 60 83 61 62 62 63 63 71 64 64 65
REMARK SMILES IDX 70 66 65 67 66 68 67 69 68 70 69 71 10 72 11 73 12 74 13 75
REMARK SMILES IDX 14 76 15 77 16 78 17 79 18 80 19 81 35 82 32 83 34 84 36 85
REMARK SMILES IDX 33 86 20 87 21 88 22 89 23 91 24 92 31 93 25 94 27 95 26 96
REMARK SMILES IDX 28 97 29 98 30 99
REMARK H PARENT 90 27 60 38 22 90
REMARK Flexibility Score: inf
ROOT
ATOM      1  O   UNL A   1      34.295  35.287  30.907  1.00  0.00    -0.377 OA
ENDROOT
BRANCH   1   2
ATOM      2  C   UNL A   1      33.627  35.381  32.165  1.00  0.00     0.188 C 
BRANCH   2   3
ATOM      3  C   UNL A   1      34.428  34.885  33.370  1.00  0.00     0.188 C 
BRANCH   3   4
ATOM      4  O   UNL A   1      35.798  34.776  32.998  1.00  0.00    -0.376 OA
BRANCH   4   5
ATOM      5  C   UNL A   1      36.498  33.579  33.317  1.00  0.00     0.202 C 
BRANCH   5   6
ATOM      6  C   UNL A   1      36.191  32.361  32.451  1.00  0.00     0.261 C 
BRANCH   6   7
ATOM      7  O   UNL A   1      37.349  31.566  32.152  1.00  0.00    -0.460 OA
BRANCH   7   8
ATOM      8  C   UNL A   1      37.371  30.410  31.440  1.00  0.00     0.338 C 
ATOM      9  O   UNL A   1      36.332  29.766  31.296  1.00  0.00    -0.246 OA
BRANCH   8  10
ATOM     10  C   UNL A   1      38.609  29.914  30.788  1.00  0.00     0.060 A 
ATOM     11  C   UNL A   1      39.714  29.433  31.485  1.00  0.00     0.016 A 
ATOM     12  C   UNL A   1      38.639  29.867  29.393  1.00  0.00     0.016 A 
ATOM     13  C   UNL A   1      40.895  29.116  30.857  1.00  0.00     0.010 A 
ATOM     14  C   UNL A   1      39.792  29.438  28.735  1.00  0.00     0.010 A 
ATOM     15  C   UNL A   1      40.941  29.120  29.476  1.00  0.00    -0.014 A 
BRANCH  15  16
ATOM     16  C   UNL A   1      42.256  28.974  28.847  1.00  0.00     0.031 A 
ATOM     17  C   UNL A   1      42.573  27.641  28.251  1.00  0.00     0.074 A 
ATOM     18  C   UNL A   1      43.061  30.040  28.700  1.00  0.00     0.049 A 
ATOM     19  N   UNL A   1      43.715  27.170  27.844  1.00  0.00    -0.248 NA
ATOM     20  C   UNL A   1      41.443  26.702  28.103  1.00  0.00     0.031 C 
ATOM     21  C   UNL A   1      42.727  31.421  29.074  1.00  0.00     0.029 A 
ATOM     22  N   UNL A   1      44.318  30.136  28.175  1.00  0.00    -0.354 N 
ATOM     23  C   UNL A   1      43.460  25.855  27.480  1.00  0.00     0.074 A 
ATOM     24  C   UNL A   1      42.055  25.605  27.689  1.00  0.00     0.031 C 
ATOM     25  C   UNL A   1      43.750  32.225  28.748  1.00  0.00     0.029 A 
ATOM     26  C   UNL A   1      44.847  31.402  28.260  1.00  0.00     0.049 A 
ATOM     27  H   UNL A   1      44.797  29.376  27.773  1.00  0.00     0.167 HD
ATOM     28  C   UNL A   1      44.351  24.939  27.041  1.00  0.00     0.031 A 
ATOM     29  C   UNL A   1      46.106  31.819  28.041  1.00  0.00     0.031 A 
ATOM     30  C   UNL A   1      45.737  25.262  26.852  1.00  0.00     0.049 A 
ATOM     31  C   UNL A   1      47.108  30.769  27.649  1.00  0.00     0.074 A 
ATOM     32  C   UNL A   1      46.783  24.438  26.489  1.00  0.00     0.029 A 
ATOM     33  N   UNL A   1      46.262  26.542  27.008  1.00  0.00    -0.354 N 
ATOM     34  N   UNL A   1      46.910  29.487  27.435  1.00  0.00    -0.248 NA
ATOM     35  C   UNL A   1      48.497  31.204  27.490  1.00  0.00     0.031 C 
ATOM     36  C   UNL A   1      47.948  25.213  26.476  1.00  0.00     0.029 A 
ATOM     37  C   UNL A   1      47.618  26.532  26.760  1.00  0.00     0.049 A 
ATOM     38  H   UNL A   1      45.740  27.338  27.259  1.00  0.00     0.167 HD
ATOM     39  C   UNL A   1      48.147  28.960  27.098  1.00  0.00     0.074 A 
ATOM     40  C   UNL A   1      49.084  30.072  27.123  1.00  0.00     0.031 C 
ATOM     41  C   UNL A   1      48.490  27.683  26.794  1.00  0.00     0.031 A 
BRANCH  28  42
ATOM     42  C   UNL A   1      43.856  23.530  26.872  1.00  0.00    -0.014 A 
ATOM     43  C   UNL A   1      44.000  22.827  25.661  1.00  0.00     0.010 A 
ATOM     44  C   UNL A   1      43.157  22.922  27.932  1.00  0.00     0.010 A 
ATOM     45  C   UNL A   1      43.404  21.572  25.495  1.00  0.00     0.020 A 
ATOM     46  C   UNL A   1      42.586  21.656  27.781  1.00  0.00     0.020 A 
ATOM     47  C   UNL A   1      42.692  20.999  26.555  1.00  0.00     0.054 A 
BRANCH  47  48
ATOM     48  S   UNL A   1      41.910  19.381  26.307  1.00  0.00     0.124 S 
ATOM     49  O   UNL A   1      42.480  18.964  25.029  1.00  0.00    -0.237 OA
ATOM     50  O   UNL A   1      42.363  18.625  27.472  1.00  0.00    -0.237 OA
ATOM     51  O   UNL A   1      40.482  19.686  26.283  1.00  0.00    -0.744 OA
ENDBRANCH  47  48
ENDBRANCH  28  42
BRANCH  29  52
ATOM     52  C   UNL A   1      46.480  33.240  28.280  1.00  0.00    -0.014 A 
ATOM     53  C   UNL A   1      46.281  34.217  27.292  1.00  0.00     0.010 A 
ATOM     54  C   UNL A   1      46.998  33.638  29.530  1.00  0.00     0.010 A 
ATOM     55  C   UNL A   1      46.595  35.559  27.544  1.00  0.00     0.020 A 
ATOM     56  C   UNL A   1      47.284  34.980  29.798  1.00  0.00     0.020 A 
ATOM     57  C   UNL A   1      47.089  35.932  28.797  1.00  0.00     0.054 A 
BRANCH  57  58
ATOM     58  S   UNL A   1      47.433  37.685  29.119  1.00  0.00     0.124 S 
ATOM     59  O   UNL A   1      46.151  38.156  29.632  1.00  0.00    -0.237 OA
ATOM     60  O   UNL A   1      48.520  37.617  30.094  1.00  0.00    -0.237 OA
ATOM     61  O   UNL A   1      47.814  38.206  27.809  1.00  0.00    -0.744 OA
ENDBRANCH  57  58
ENDBRANCH  29  52
BRANCH  41  62
ATOM     62  C   UNL A   1      49.919  27.444  26.409  1.00  0.00    -0.014 A 
ATOM     63  C   UNL A   1      50.891  27.130  27.372  1.00  0.00     0.010 A 
ATOM     64  C   UNL A   1      50.261  27.450  25.044  1.00  0.00     0.010 A 
ATOM     65  C   UNL A   1      52.196  26.841  26.974  1.00  0.00     0.020 A 
ATOM     66  C   UNL A   1      51.556  27.130  24.643  1.00  0.00     0.020 A 
ATOM     67  C   UNL A   1      52.518  26.837  25.612  1.00  0.00     0.054 A 
BRANCH  67  68
ATOM     68  S   UNL A   1      54.200  26.384  25.117  1.00  0.00     0.124 S 
ATOM     69  O   UNL A   1      54.039  24.979  24.754  1.00  0.00    -0.237 OA
ATOM     70  O   UNL A   1      54.462  27.296  24.007  1.00  0.00    -0.237 OA
ATOM     71  O   UNL A   1      54.993  26.632  26.319  1.00  0.00    -0.744 OA
ENDBRANCH  67  68
ENDBRANCH  41  62
ENDBRANCH  15  16
ENDBRANCH   8  10
ENDBRANCH   7   8
ENDBRANCH   6   7
ENDBRANCH   5   6
ENDBRANCH   4   5
ENDBRANCH   3   4
ENDBRANCH   2   3
ENDBRANCH   1   2
BRANCH   1  72
ATOM     72  C   UNL A   1      33.459  35.401  29.768  1.00  0.00     0.188 C 
BRANCH  72  73
ATOM     73  C   UNL A   1      33.338  34.223  28.774  1.00  0.00     0.188 C 
BRANCH  73  74
ATOM     74  O   UNL A   1      34.440  33.973  27.931  1.00  0.00    -0.376 OA
BRANCH  74  75
ATOM     75  C   UNL A   1      35.072  32.698  27.907  1.00  0.00     0.202 C 
BRANCH  75  76
ATOM     76  C   UNL A   1      34.446  31.384  28.427  1.00  0.00     0.261 C 
BRANCH  76  77
ATOM     77  O   UNL A   1      33.526  30.740  27.539  1.00  0.00    -0.463 OA
BRANCH  77  78
ATOM     78  C   UNL A   1      33.820  29.477  27.130  1.00  0.00     0.312 C 
ATOM     79  O   UNL A   1      34.785  28.813  27.530  1.00  0.00    -0.252 OA
BRANCH  78  80
ATOM     80  C   UNL A   1      32.674  28.900  26.338  1.00  0.00     0.147 C 
ATOM     81  C   UNL A   1      32.996  27.599  25.585  1.00  0.00     0.129 C 
ATOM     82  C   UNL A   1      32.236  29.848  25.218  1.00  0.00     0.157 C 
ATOM     83  C   UNL A   1      32.695  28.016  24.137  1.00  0.00     0.155 C 
ATOM     84  C   UNL A   1      30.941  29.384  24.611  1.00  0.00     0.004 C 
ATOM     85  O   UNL A   1      33.141  29.403  24.171  1.00  0.00    -0.365 OA
ATOM     86  C   UNL A   1      31.227  28.262  23.936  1.00  0.00     0.004 C 
BRANCH  81  87
ATOM     87  C   UNL A   1      32.260  26.309  25.962  1.00  0.00     0.231 C 
ATOM     88  O   UNL A   1      31.542  26.293  26.967  1.00  0.00    -0.274 OA
ATOM     89  N   UNL A   1      32.125  25.296  25.043  1.00  0.00    -0.325 N 
ATOM     90  H   UNL A   1      31.253  25.254  24.588  1.00  0.00     0.169 HD
BRANCH  89  91
ATOM     91  C   UNL A   1      33.059  24.304  24.656  1.00  0.00     0.048 A 
ATOM     92  C   UNL A   1      33.943  24.627  23.616  1.00  0.00     0.026 A 
ATOM     93  C   UNL A   1      33.133  23.034  25.229  1.00  0.00     0.111 A 
ATOM     94  C   UNL A   1      34.930  23.726  23.195  1.00  0.00     0.009 A 
ATOM     95  C   UNL A   1      34.140  22.138  24.818  1.00  0.00     0.271 A 
ATOM     96  C   UNL A   1      35.043  22.479  23.805  1.00  0.00     0.086 A 
BRANCH  95  97
ATOM     97  N   UNL A   1      34.299  20.857  25.515  1.00  0.00     0.062 N 
ATOM     98  O   UNL A   1      35.213  20.109  25.136  1.00  0.00    -0.258 OA
ATOM     99  O   UNL A   1      33.529  20.612  26.452  1.00  0.00    -0.258 OA
ENDBRANCH  95  97
ENDBRANCH  89  91
ENDBRANCH  81  87
ENDBRANCH  78  80
ENDBRANCH  77  78
ENDBRANCH  76  77
ENDBRANCH  75  76
ENDBRANCH  74  75
ENDBRANCH  73  74
ENDBRANCH  72  73
ENDBRANCH   1  72
TORSDOF 26
ENDMDL
MODEL 2
REMARK VINA RESULT:      -9.5      1.778      8.164
REMARK SMILES O=C(OCCOCCOCCOCCOC(=O)[C@@H]1[C@@H](C(=O)Nc2cccc([N+](=O)[O-])c2)[C@H]2C=C[C@@H]1O2)c1ccc(-c2c3nc(c(-c4ccc(S(=O)(=O)[O-])cc4)c4ccc([nH]4)c(-c4ccc(S(=O)(=O)[O-])cc4)c4nc(c(-c5ccc(S(=O)(=O)[O-])cc5)c5ccc2[nH]5)C=C4)C=C3)cc1
REMARK SMILES IDX 9 1 8 2 7 3 6 4 5 5 4 6 3 7 2 8 1 9 37 10 38 11 96 12 39 13
REMARK SMILES IDX 95 14 40 15 41 16 42 17 89 18 43 19 94 20 88 21 90 22 44 23
REMARK SMILES IDX 93 24 87 25 86 26 45 28 75 29 56 30 74 31 57 32 60 33 73 34
REMARK SMILES IDX 91 35 58 36 59 37 72 39 92 40 61 41 46 42 47 43 55 44 48 45
REMARK SMILES IDX 54 46 49 47 50 48 51 49 52 50 53 51 76 52 77 53 85 54 78 55
REMARK SMILES IDX 84 56 79 57 80 58 81 59 82 60 83 61 62 62 63 63 71 64 64 65
REMARK SMILES IDX 70 66 65 67 66 68 67 69 68 70 69 71 10 72 11 73 12 74 13 75
REMARK SMILES IDX 14 76 15 77 16 78 17 79 18 80 19 81 35 82 32 83 34 84 36 85
REMARK SMILES IDX 33 86 20 87 21 88 22 89 23 91 24 92 31 93 25 94 27 95 26 96
REMARK SMILES IDX 28 97 29 98 30 99
REMARK H PARENT 90 27 60 38 22 90
REMARK Flexibility Score: inf
ROOT
ATOM      1  O   UNL A   1      33.331  34.570  30.065  1.00  0.00    -0.377 OA
ENDROOT
BRANCH   1   2
ATOM      2  C   UNL A   1      32.975  35.736  30.809  1.00  0.00     0.188 C 
BRANCH   2   3
ATOM      3  C   UNL A   1      33.331  35.696  32.296  1.00  0.00     0.188 C 
BRANCH   3   4
ATOM      4  O   UNL A   1      34.748  35.731  32.432  1.00  0.00    -0.376 OA
BRANCH   4   5
ATOM      5  C   UNL A   1      35.377  34.774  33.276  1.00  0.00     0.202 C 
BRANCH   5   6
ATOM      6  C   UNL A   1      34.658  33.438  33.443  1.00  0.00     0.261 C 
BRANCH   6   7
ATOM      7  O   UNL A   1      35.415  32.319  32.958  1.00  0.00    -0.460 OA
BRANCH   7   8
ATOM      8  C   UNL A   1      35.744  32.067  31.665  1.00  0.00     0.338 C 
ATOM      9  O   UNL A   1      34.858  32.025  30.811  1.00  0.00    -0.246 OA
BRANCH   8  10
ATOM     10  C   UNL A   1      37.152  31.880  31.236  1.00  0.00     0.060 A 
ATOM     11  C   UNL A   1      37.605  32.106  29.939  1.00  0.00     0.016 A 
ATOM     12  C   UNL A   1      38.088  31.518  32.207  1.00  0.00     0.016 A 
ATOM     13  C   UNL A   1      38.882  31.786  29.543  1.00  0.00     0.010 A 
ATOM     14  C   UNL A   1      39.418  31.299  31.844  1.00  0.00     0.010 A 
ATOM     15  C   UNL A   1      39.796  31.377  30.496  1.00  0.00    -0.014 A 
BRANCH  15  16
ATOM     16  C   UNL A   1      41.079  30.856  30.016  1.00  0.00     0.031 A 
ATOM     17  C   UNL A   1      42.252  31.778  30.096  1.00  0.00     0.074 A 
ATOM     18  C   UNL A   1      41.198  29.566  29.660  1.00  0.00     0.049 A 
ATOM     19  N   UNL A   1      43.427  31.668  29.548  1.00  0.00    -0.248 NA
ATOM     20  C   UNL A   1      42.071  33.004  30.899  1.00  0.00     0.031 C 
ATOM     21  C   UNL A   1      40.139  28.552  29.755  1.00  0.00     0.029 A 
ATOM     22  N   UNL A   1      42.270  28.876  29.170  1.00  0.00    -0.354 N 
ATOM     23  C   UNL A   1      44.089  32.846  29.862  1.00  0.00     0.074 A 
ATOM     24  C   UNL A   1      43.201  33.650  30.666  1.00  0.00     0.031 C 
ATOM     25  C   UNL A   1      40.625  27.369  29.351  1.00  0.00     0.029 A 
ATOM     26  C   UNL A   1      41.980  27.570  28.860  1.00  0.00     0.049 A 
ATOM     27  H   UNL A   1      43.162  29.275  29.052  1.00  0.00     0.167 HD
ATOM     28  C   UNL A   1      45.327  33.220  29.470  1.00  0.00     0.031 A 
ATOM     29  C   UNL A   1      42.711  26.670  28.179  1.00  0.00     0.031 A 
ATOM     30  C   UNL A   1      46.158  32.364  28.672  1.00  0.00     0.049 A 
ATOM     31  C   UNL A   1      44.046  27.133  27.665  1.00  0.00     0.074 A 
ATOM     32  C   UNL A   1      47.400  32.616  28.126  1.00  0.00     0.029 A 
ATOM     33  N   UNL A   1      45.812  31.064  28.315  1.00  0.00    -0.354 N 
ATOM     34  N   UNL A   1      44.630  28.298  27.835  1.00  0.00    -0.248 NA
ATOM     35  C   UNL A   1      44.809  26.183  26.853  1.00  0.00     0.031 C 
ATOM     36  C   UNL A   1      47.781  31.483  27.398  1.00  0.00     0.029 A 
ATOM     37  C   UNL A   1      46.810  30.501  27.548  1.00  0.00     0.049 A 
ATOM     38  H   UNL A   1      44.977  30.612  28.573  1.00  0.00     0.167 HD
ATOM     39  C   UNL A   1      45.842  28.219  27.166  1.00  0.00     0.074 A 
ATOM     40  C   UNL A   1      45.910  26.881  26.601  1.00  0.00     0.031 C 
ATOM     41  C   UNL A   1      46.815  29.155  27.025  1.00  0.00     0.031 A 
BRANCH  28  42
ATOM     42  C   UNL A   1      45.756  34.622  29.803  1.00  0.00    -0.014 A 
ATOM     43  C   UNL A   1      45.492  35.707  28.947  1.00  0.00     0.010 A 
ATOM     44  C   UNL A   1      46.514  34.843  30.969  1.00  0.00     0.010 A 
ATOM     45  C   UNL A   1      46.027  36.971  29.220  1.00  0.00     0.020 A 
ATOM     46  C   UNL A   1      47.025  36.110  31.261  1.00  0.00     0.020 A 
ATOM     47  C   UNL A   1      46.798  37.161  30.371  1.00  0.00     0.054 A 
BRANCH  47  48
ATOM     48  S   UNL A   1      47.500  38.804  30.691  1.00  0.00     0.124 S 
ATOM     49  O   UNL A   1      48.229  39.065  29.453  1.00  0.00    -0.237 OA
ATOM     50  O   UNL A   1      46.309  39.624  30.902  1.00  0.00    -0.237 OA
ATOM     51  O   UNL A   1      48.332  38.601  31.874  1.00  0.00    -0.744 OA
ENDBRANCH  47  48
ENDBRANCH  28  42
BRANCH  29  52
ATOM     52  C   UNL A   1      42.156  25.320  27.882  1.00  0.00    -0.014 A 
ATOM     53  C   UNL A   1      41.287  25.119  26.798  1.00  0.00     0.010 A 
ATOM     54  C   UNL A   1      42.537  24.208  28.660  1.00  0.00     0.010 A 
ATOM     55  C   UNL A   1      40.806  23.837  26.501  1.00  0.00     0.020 A 
ATOM     56  C   UNL A   1      42.085  22.922  28.350  1.00  0.00     0.020 A 
ATOM     57  C   UNL A   1      41.212  22.746  27.276  1.00  0.00     0.054 A 
BRANCH  57  58
ATOM     58  S   UNL A   1      40.623  21.088  26.835  1.00  0.00     0.124 S 
ATOM     59  O   UNL A   1      40.785  20.364  28.092  1.00  0.00    -0.237 OA
ATOM     60  O   UNL A   1      39.244  21.344  26.425  1.00  0.00    -0.237 OA
ATOM     61  O   UNL A   1      41.519  20.680  25.757  1.00  0.00    -0.744 OA
ENDBRANCH  57  58
ENDBRANCH  29  52
BRANCH  41  62
ATOM     62  C   UNL A   1      48.048  28.735  26.285  1.00  0.00    -0.014 A 
ATOM     63  C   UNL A   1      49.330  29.012  26.787  1.00  0.00     0.010 A 
ATOM     64  C   UNL A   1      47.907  27.971  25.111  1.00  0.00     0.010 A 
ATOM     65  C   UNL A   1      50.457  28.544  26.113  1.00  0.00     0.020 A 
ATOM     66  C   UNL A   1      49.031  27.477  24.455  1.00  0.00     0.020 A 
ATOM     67  C   UNL A   1      50.300  27.774  24.955  1.00  0.00     0.054 A 
BRANCH  67  68
ATOM     68  S   UNL A   1      51.777  27.115  24.141  1.00  0.00     0.124 S 
ATOM     69  O   UNL A   1      52.756  28.167  24.396  1.00  0.00    -0.237 OA
ATOM     70  O   UNL A   1      52.000  25.860  24.853  1.00  0.00    -0.237 OA
ATOM     71  O   UNL A   1      51.367  26.969  22.746  1.00  0.00    -0.744 OA
ENDBRANCH  67  68
ENDBRANCH  41  62
ENDBRANCH  15  16
ENDBRANCH   8  10
ENDBRANCH   7   8
ENDBRANCH   6   7
ENDBRANCH   5   6
ENDBRANCH   4   5
ENDBRANCH   3   4
ENDBRANCH   2   3
ENDBRANCH   1   2
BRANCH   1  72
ATOM     72  C   UNL A   1      33.206  34.689  28.658  1.00  0.00     0.188 C 
BRANCH  72  73
ATOM     73  C   UNL A   1      33.163  33.421  27.774  1.00  0.00     0.188 C 
BRANCH  73  74
ATOM     74  O   UNL A   1      34.327  32.626  27.729  1.00  0.00    -0.376 OA
BRANCH  74  75
ATOM     75  C   UNL A   1      34.246  31.216  27.548  1.00  0.00     0.202 C 
BRANCH  75  76
ATOM     76  C   UNL A   1      32.986  30.447  27.092  1.00  0.00     0.261 C 
BRANCH  76  77
ATOM     77  O   UNL A   1      33.068  29.825  25.805  1.00  0.00    -0.463 OA
BRANCH  77  78
ATOM     78  C   UNL A   1      33.464  28.526  25.754  1.00  0.00     0.312 C 
ATOM     79  O   UNL A   1      34.282  28.007  26.524  1.00  0.00    -0.252 OA
BRANCH  78  80
ATOM     80  C   UNL A   1      32.579  27.742  24.818  1.00  0.00     0.147 C 
ATOM     81  C   UNL A   1      33.058  27.698  23.358  1.00  0.00     0.129 C 
ATOM     82  C   UNL A   1      31.188  28.373  24.706  1.00  0.00     0.157 C 
ATOM     83  C   UNL A   1      31.855  28.324  22.634  1.00  0.00     0.155 C 
ATOM     84  C   UNL A   1      30.247  27.450  23.984  1.00  0.00     0.004 C 
ATOM     85  O   UNL A   1      31.446  29.312  23.625  1.00  0.00    -0.365 OA
ATOM     86  C   UNL A   1      30.652  27.429  22.706  1.00  0.00     0.004 C 
BRANCH  81  87
ATOM     87  C   UNL A   1      33.450  26.354  22.734  1.00  0.00     0.231 C 
ATOM     88  O   UNL A   1      33.654  26.288  21.518  1.00  0.00    -0.274 OA
ATOM     89  N   UNL A   1      33.890  25.325  23.531  1.00  0.00    -0.325 N 
ATOM     90  H   UNL A   1      34.867  25.204  23.562  1.00  0.00     0.169 HD
BRANCH  89  91
ATOM     91  C   UNL A   1      33.143  24.411  24.314  1.00  0.00     0.048 A 
ATOM     92  C   UNL A   1      31.846  24.104  23.877  1.00  0.00     0.026 A 
ATOM     93  C   UNL A   1      33.610  23.824  25.490  1.00  0.00     0.111 A 
ATOM     94  C   UNL A   1      31.048  23.177  24.561  1.00  0.00     0.009 A 
ATOM     95  C   UNL A   1      32.814  22.877  26.165  1.00  0.00     0.271 A 
ATOM     96  C   UNL A   1      31.535  22.548  25.704  1.00  0.00     0.086 A 
BRANCH  95  97
ATOM     97  N   UNL A   1      33.362  22.164  27.324  1.00  0.00     0.062 N 
ATOM     98  O   UNL A   1      34.439  21.569  27.174  1.00  0.00    -0.258 OA
ATOM     99  O   UNL A   1      32.728  22.220  28.386  1.00  0.00    -0.258 OA
ENDBRANCH  95  97
ENDBRANCH  89  91
ENDBRANCH  81  87
ENDBRANCH  78  80
ENDBRANCH  77  78
ENDBRANCH  76  77
ENDBRANCH  75  76
ENDBRANCH  74  75
ENDBRANCH  73  74
ENDBRANCH  72  73
ENDBRANCH   1  72
TORSDOF 26
ENDMDL
MODEL 3
REMARK VINA RESULT:      -9.2      1.696      7.878
REMARK SMILES O=C(OCCOCCOCCOCCOC(=O)[C@@H]1[C@@H](C(=O)Nc2cccc([N+](=O)[O-])c2)[C@H]2C=C[C@@H]1O2)c1ccc(-c2c3nc(c(-c4ccc(S(=O)(=O)[O-])cc4)c4ccc([nH]4)c(-c4ccc(S(=O)(=O)[O-])cc4)c4nc(c(-c5ccc(S(=O)(=O)[O-])cc5)c5ccc2[nH]5)C=C4)C=C3)cc1
REMARK SMILES IDX 9 1 8 2 7 3 6 4 5 5 4 6 3 7 2 8 1 9 37 10 38 11 96 12 39 13
REMARK SMILES IDX 95 14 40 15 41 16 42 17 89 18 43 19 94 20 88 21 90 22 44 23
REMARK SMILES IDX 93 24 87 25 86 26 45 28 75 29 56 30 74 31 57 32 60 33 73 34
REMARK SMILES IDX 91 35 58 36 59 37 72 39 92 40 61 41 46 42 47 43 55 44 48 45
REMARK SMILES IDX 54 46 49 47 50 48 51 49 52 50 53 51 76 52 77 53 85 54 78 55
REMARK SMILES IDX 84 56 79 57 80 58 81 59 82 60 83 61 62 62 63 63 71 64 64 65
REMARK SMILES IDX 70 66 65 67 66 68 67 69 68 70 69 71 10 72 11 73 12 74 13 75
REMARK SMILES IDX 14 76 15 77 16 78 17 79 18 80 19 81 35 82 32 83 34 84 36 85
REMARK SMILES IDX 33 86 20 87 21 88 22 89 23 91 24 92 31 93 25 94 27 95 26 96
REMARK SMILES IDX 28 97 29 98 30 99
REMARK H PARENT 90 27 60 38 22 90
REMARK Flexibility Score: inf
ROOT
ATOM      1  O   UNL A   1      34.306  35.022  31.218  1.00  0.00    -0.377 OA
ENDROOT
BRANCH   1   2
ATOM      2  C   UNL A   1      33.683  34.581  32.425  1.00  0.00     0.188 C 
BRANCH   2   3
ATOM      3  C   UNL A   1      34.453  33.515  33.206  1.00  0.00     0.188 C 
BRANCH   3   4
ATOM      4  O   UNL A   1      35.747  33.367  32.631  1.00  0.00    -0.376 OA
BRANCH   4   5
ATOM      5  C   UNL A   1      36.355  32.080  32.639  1.00  0.00     0.202 C 
BRANCH   5   6
ATOM      6  C   UNL A   1      36.154  31.226  31.391  1.00  0.00     0.261 C 
BRANCH   6   7
ATOM      7  O   UNL A   1      37.278  30.386  31.088  1.00  0.00    -0.460 OA
BRANCH   7   8
ATOM      8  C   UNL A   1      37.400  29.559  30.017  1.00  0.00     0.338 C 
ATOM      9  O   UNL A   1      36.395  29.229  29.387  1.00  0.00    -0.246 OA
BRANCH   8  10
ATOM     10  C   UNL A   1      38.721  29.068  29.552  1.00  0.00     0.060 A 
ATOM     11  C   UNL A   1      39.537  28.216  30.291  1.00  0.00     0.016 A 
ATOM     12  C   UNL A   1      39.139  29.432  28.270  1.00  0.00     0.016 A 
ATOM     13  C   UNL A   1      40.813  27.896  29.893  1.00  0.00     0.010 A 
ATOM     14  C   UNL A   1      40.387  29.021  27.802  1.00  0.00     0.010 A 
ATOM     15  C   UNL A   1      41.247  28.300  28.645  1.00  0.00    -0.014 A 
BRANCH  15  16
ATOM     16  C   UNL A   1      42.668  28.118  28.336  1.00  0.00     0.031 A 
ATOM     17  C   UNL A   1      43.595  29.209  28.765  1.00  0.00     0.074 A 
ATOM     18  C   UNL A   1      43.108  26.957  27.822  1.00  0.00     0.049 A 
ATOM     19  N   UNL A   1      44.835  29.416  28.431  1.00  0.00    -0.248 NA
ATOM     20  C   UNL A   1      43.041  30.214  29.693  1.00  0.00     0.031 C 
ATOM     21  C   UNL A   1      42.284  25.767  27.571  1.00  0.00     0.029 A 
ATOM     22  N   UNL A   1      44.362  26.576  27.440  1.00  0.00    -0.354 N 
ATOM     23  C   UNL A   1      45.179  30.619  29.030  1.00  0.00     0.074 A 
ATOM     24  C   UNL A   1      44.032  31.088  29.768  1.00  0.00     0.031 C 
ATOM     25  C   UNL A   1      43.063  24.785  27.092  1.00  0.00     0.029 A 
ATOM     26  C   UNL A   1      44.403  25.317  26.892  1.00  0.00     0.049 A 
ATOM     27  H   UNL A   1      45.158  27.146  27.547  1.00  0.00     0.167 HD
ATOM     28  C   UNL A   1      46.355  31.278  28.931  1.00  0.00     0.031 A 
ATOM     29  C   UNL A   1      45.402  24.704  26.231  1.00  0.00     0.031 A 
ATOM     30  C   UNL A   1      47.458  30.747  28.180  1.00  0.00     0.049 A 
ATOM     31  C   UNL A   1      46.670  25.488  26.043  1.00  0.00     0.074 A 
ATOM     32  C   UNL A   1      48.686  31.316  27.914  1.00  0.00     0.029 A 
ATOM     33  N   UNL A   1      47.451  29.491  27.578  1.00  0.00    -0.354 N 
ATOM     34  N   UNL A   1      46.964  26.690  26.488  1.00  0.00    -0.248 NA
ATOM     35  C   UNL A   1      47.729  24.856  25.253  1.00  0.00     0.031 C 
ATOM     36  C   UNL A   1      49.402  30.423  27.109  1.00  0.00     0.029 A 
ATOM     37  C   UNL A   1      48.649  29.269  26.932  1.00  0.00     0.049 A 
ATOM     38  H   UNL A   1      46.700  28.855  27.610  1.00  0.00     0.167 HD
ATOM     39  C   UNL A   1      48.251  26.956  26.047  1.00  0.00     0.074 A 
ATOM     40  C   UNL A   1      48.683  25.778  25.312  1.00  0.00     0.031 C 
ATOM     41  C   UNL A   1      49.015  28.063  26.226  1.00  0.00     0.031 A 
BRANCH  28  42
ATOM     42  C   UNL A   1      46.424  32.650  29.540  1.00  0.00    -0.014 A 
ATOM     43  C   UNL A   1      46.675  32.848  30.911  1.00  0.00     0.010 A 
ATOM     44  C   UNL A   1      46.153  33.769  28.729  1.00  0.00     0.010 A 
ATOM     45  C   UNL A   1      46.592  34.129  31.468  1.00  0.00     0.020 A 
ATOM     46  C   UNL A   1      46.099  35.053  29.276  1.00  0.00     0.020 A 
ATOM     47  C   UNL A   1      46.296  35.222  30.647  1.00  0.00     0.054 A 
BRANCH  47  48
ATOM     48  S   UNL A   1      46.173  36.869  31.398  1.00  0.00     0.124 S 
ATOM     49  O   UNL A   1      44.934  36.759  32.163  1.00  0.00    -0.237 OA
ATOM     50  O   UNL A   1      47.396  36.950  32.194  1.00  0.00    -0.237 OA
ATOM     51  O   UNL A   1      46.119  37.770  30.250  1.00  0.00    -0.744 OA
ENDBRANCH  47  48
ENDBRANCH  28  42
BRANCH  29  52
ATOM     52  C   UNL A   1      45.194  23.352  25.642  1.00  0.00    -0.014 A 
ATOM     53  C   UNL A   1      44.673  23.200  24.347  1.00  0.00     0.010 A 
ATOM     54  C   UNL A   1      45.567  22.198  26.361  1.00  0.00     0.010 A 
ATOM     55  C   UNL A   1      44.523  21.925  23.786  1.00  0.00     0.020 A 
ATOM     56  C   UNL A   1      45.449  20.926  25.794  1.00  0.00     0.020 A 
ATOM     57  C   UNL A   1      44.917  20.797  24.511  1.00  0.00     0.054 A 
BRANCH  57  58
ATOM     58  S   UNL A   1      44.769  19.161  23.740  1.00  0.00     0.124 S 
ATOM     59  O   UNL A   1      45.986  18.498  24.197  1.00  0.00    -0.237 OA
ATOM     60  O   UNL A   1      43.521  18.658  24.310  1.00  0.00    -0.237 OA
ATOM     61  O   UNL A   1      44.717  19.458  22.311  1.00  0.00    -0.744 OA
ENDBRANCH  57  58
ENDBRANCH  29  52
BRANCH  41  62
ATOM     62  C   UNL A   1      50.405  28.017  25.669  1.00  0.00    -0.014 A 
ATOM     63  C   UNL A   1      51.505  27.696  26.482  1.00  0.00     0.010 A 
ATOM     64  C   UNL A   1      50.589  28.213  24.289  1.00  0.00     0.010 A 
ATOM     65  C   UNL A   1      52.777  27.588  25.920  1.00  0.00     0.020 A 
ATOM     66  C   UNL A   1      51.854  28.075  23.721  1.00  0.00     0.020 A 
ATOM     67  C   UNL A   1      52.941  27.773  24.542  1.00  0.00     0.054 A 
BRANCH  67  68
ATOM     68  S   UNL A   1      54.590  27.554  23.825  1.00  0.00     0.124 S 
ATOM     69  O   UNL A   1      55.419  28.345  24.730  1.00  0.00    -0.237 OA
ATOM     70  O   UNL A   1      54.779  26.108  23.899  1.00  0.00    -0.237 OA
ATOM     71  O   UNL A   1      54.453  28.090  22.474  1.00  0.00    -0.744 OA
ENDBRANCH  67  68
ENDBRANCH  41  62
ENDBRANCH  15  16
ENDBRANCH   8  10
ENDBRANCH   7   8
ENDBRANCH   6   7
ENDBRANCH   5   6
ENDBRANCH   4   5
ENDBRANCH   3   4
ENDBRANCH   2   3
ENDBRANCH   1   2
BRANCH   1  72
ATOM     72  C   UNL A   1      33.419  35.322  30.154  1.00  0.00     0.188 C 
BRANCH  72  73
ATOM     73  C   UNL A   1      33.378  34.418  28.900  1.00  0.00     0.188 C 
BRANCH  73  74
ATOM     74  O   UNL A   1      34.609  34.099  28.293  1.00  0.00    -0.376 OA
BRANCH  74  75
ATOM     75  C   UNL A   1      34.904  32.767  27.886  1.00  0.00     0.202 C 
BRANCH  75  76
ATOM     76  C   UNL A   1      34.028  31.530  28.186  1.00  0.00     0.261 C 
BRANCH  76  77
ATOM     77  O   UNL A   1      33.148  31.121  27.133  1.00  0.00    -0.463 OA
BRANCH  77  78
ATOM     78  C   UNL A   1      33.425  29.954  26.493  1.00  0.00     0.312 C 
ATOM     79  O   UNL A   1      34.506  29.355  26.556  1.00  0.00    -0.252 OA
BRANCH  78  80
ATOM     80  C   UNL A   1      32.164  29.354  25.924  1.00  0.00     0.147 C 
ATOM     81  C   UNL A   1      32.201  27.829  25.734  1.00  0.00     0.129 C 
ATOM     82  C   UNL A   1      31.889  29.872  24.510  1.00  0.00     0.157 C 
ATOM     83  C   UNL A   1      31.944  27.715  24.222  1.00  0.00     0.155 C 
ATOM     84  C   UNL A   1      30.510  29.473  24.062  1.00  0.00     0.004 C 
ATOM     85  O   UNL A   1      32.657  28.897  23.752  1.00  0.00    -0.365 OA
ATOM     86  C   UNL A   1      30.549  28.147  23.874  1.00  0.00     0.004 C 
BRANCH  81  87
ATOM     87  C   UNL A   1      31.236  26.947  26.534  1.00  0.00     0.231 C 
ATOM     88  O   UNL A   1      30.864  27.317  27.652  1.00  0.00    -0.274 OA
ATOM     89  N   UNL A   1      30.537  25.943  25.909  1.00  0.00    -0.325 N 
ATOM     90  H   UNL A   1      29.604  26.159  25.679  1.00  0.00     0.169 HD
BRANCH  89  91
ATOM     91  C   UNL A   1      30.964  24.642  25.548  1.00  0.00     0.048 A 
ATOM     92  C   UNL A   1      30.690  23.603  26.450  1.00  0.00     0.026 A 
ATOM     93  C   UNL A   1      31.652  24.343  24.371  1.00  0.00     0.111 A 
ATOM     94  C   UNL A   1      31.034  22.276  26.159  1.00  0.00     0.009 A 
ATOM     95  C   UNL A   1      31.977  23.005  24.070  1.00  0.00     0.271 A 
ATOM     96  C   UNL A   1      31.669  21.969  24.958  1.00  0.00     0.086 A 
BRANCH  95  97
ATOM     97  N   UNL A   1      32.579  22.679  22.773  1.00  0.00     0.062 N 
ATOM     98  O   UNL A   1      32.351  21.555  22.302  1.00  0.00    -0.258 OA
ATOM     99  O   UNL A   1      33.256  23.553  22.216  1.00  0.00    -0.258 OA
ENDBRANCH  95  97
ENDBRANCH  89  91
ENDBRANCH  81  87
ENDBRANCH  78  80
ENDBRANCH  77  78
ENDBRANCH  76  77
ENDBRANCH  75  76
ENDBRANCH  74  75
ENDBRANCH  73  74
ENDBRANCH  72  73
ENDBRANCH   1  72
TORSDOF 26
ENDMDL
