MODEL 1
REMARK VINA RESULT:     -10.1      0.000      0.000
REMARK SMILES Cc1cc(S(=O)(=O)Nc2ccc(Cl)cc2F)ccc1OCC(=O)OCCOCCOCCOCCOC(=O)c1ccc(-c2c3nc(c(-c4ccc(S(=O)(=O)[O-])cc4)c4ccc([nH]4)c(-c4ccc(S(=O)(=O)[O-])cc4)c4nc(c(-c5ccc(S(=O)(=O)[O-])cc5)c5ccc2[nH]5)C=C4)C=C3)cc1
REMARK SMILES IDX 29 1 28 2 27 3 26 4 25 5 24 6 22 7 23 8 21 9 20 10 19 11
REMARK SMILES IDX 1 12 2 13 3 14 4 15 18 16 17 17 5 18 6 19 7 20 8 21 9 23
REMARK SMILES IDX 10 24 15 25 11 26 14 27 16 28 12 29 13 30 30 31 31 32 32 33
REMARK SMILES IDX 33 34 34 35 35 36 36 37 37 38 38 39 39 40 40 41 98 42 41 43
REMARK SMILES IDX 97 44 42 45 43 46 44 47 91 48 45 49 96 50 90 51 92 52 46 53
REMARK SMILES IDX 95 54 89 55 88 56 47 58 77 59 58 60 76 61 59 62 62 63 75 64
REMARK SMILES IDX 93 65 60 66 61 67 74 69 94 70 63 71 48 72 49 73 57 74 50 75
REMARK SMILES IDX 56 76 51 77 52 78 53 79 54 80 55 81 78 82 79 83 87 84 80 85
REMARK SMILES IDX 86 86 81 87 82 88 83 89 84 90 85 91 64 92 65 93 73 94 66 95
REMARK SMILES IDX 72 96 67 97 68 98 69 99 70 100 71 101
REMARK H PARENT 8 22 92 57 62 68
REMARK Flexibility Score: inf
ROOT
ATOM      1  C   UNL A   1      39.159  22.380  26.259  1.00  0.00     0.188 C 
ENDROOT
BRANCH   1   2
ATOM      2  C   UNL A   1      38.542  21.064  25.719  1.00  0.00     0.188 C 
BRANCH   2   3
ATOM      3  O   UNL A   1      37.595  20.941  24.679  1.00  0.00    -0.376 OA
BRANCH   3   4
ATOM      4  C   UNL A   1      36.397  20.324  25.066  1.00  0.00     0.202 C 
BRANCH   4   5
ATOM      5  C   UNL A   1      35.069  20.936  24.665  1.00  0.00     0.261 C 
BRANCH   5   6
ATOM      6  O   UNL A   1      34.051  19.945  24.540  1.00  0.00    -0.461 OA
BRANCH   6   7
ATOM      7  C   UNL A   1      32.865  20.252  25.103  1.00  0.00     0.344 C 
ATOM      8  O   UNL A   1      31.898  19.505  25.186  1.00  0.00    -0.248 OA
BRANCH   7   9
ATOM      9  C   UNL A   1      32.845  21.687  25.613  1.00  0.00     0.351 C 
BRANCH   9  10
ATOM     10  O   UNL A   1      32.108  22.687  24.952  1.00  0.00    -0.482 OA
BRANCH  10  11
ATOM     11  C   UNL A   1      32.118  24.023  25.219  1.00  0.00     0.123 A 
ATOM     12  C   UNL A   1      30.009  24.449  26.692  1.00  0.00     0.048 C 
ATOM     13  C   UNL A   1      31.260  24.855  25.958  1.00  0.00    -0.008 A 
ATOM     14  C   UNL A   1      31.659  26.203  26.203  1.00  0.00     0.029 A 
ATOM     15  C   UNL A   1      32.903  26.699  25.796  1.00  0.00     0.088 A 
ATOM     16  C   UNL A   1      33.347  24.554  24.790  1.00  0.00     0.048 A 
ATOM     17  C   UNL A   1      33.773  25.830  25.161  1.00  0.00     0.026 A 
BRANCH  15  18
ATOM     18  S   UNL A   1      33.273  28.420  26.114  1.00  0.00     0.262 S 
ATOM     19  O   UNL A   1      33.800  28.506  27.473  1.00  0.00    -0.201 OA
ATOM     20  O   UNL A   1      34.065  28.889  25.010  1.00  0.00    -0.201 OA
BRANCH  18  21
ATOM     21  N   UNL A   1      31.861  29.329  26.032  1.00  0.00    -0.277 N 
ATOM     22  H   UNL A   1      31.510  29.688  26.879  1.00  0.00     0.180 HD
BRANCH  21  23
ATOM     23  C   UNL A   1      31.126  29.629  24.846  1.00  0.00     0.085 A 
ATOM     24  C   UNL A   1      31.006  28.591  23.914  1.00  0.00     0.031 A 
ATOM     25  C   UNL A   1      30.401  30.810  24.633  1.00  0.00     0.148 A 
ATOM     26  C   UNL A   1      30.056  28.673  22.890  1.00  0.00     0.023 A 
ATOM     27  C   UNL A   1      29.428  30.880  23.639  1.00  0.00     0.062 A 
ATOM     28  F   UNL A   1      30.489  31.844  25.477  1.00  0.00    -0.205 F 
ATOM     29  C   UNL A   1      29.241  29.798  22.788  1.00  0.00     0.044 A 
ATOM     30  Cl  UNL A   1      27.966  29.836  21.635  1.00  0.00    -0.084 Cl
ENDBRANCH  21  23
ENDBRANCH  18  21
ENDBRANCH  15  18
ENDBRANCH  10  11
ENDBRANCH   9  10
ENDBRANCH   7   9
ENDBRANCH   6   7
ENDBRANCH   5   6
ENDBRANCH   4   5
ENDBRANCH   3   4
ENDBRANCH   2   3
ENDBRANCH   1   2
BRANCH   1  31
ATOM     31  O   UNL A   1      40.092  22.400  27.320  1.00  0.00    -0.377 OA
BRANCH  31  32
ATOM     32  C   UNL A   1      41.232  21.560  27.072  1.00  0.00     0.188 C 
BRANCH  32  33
ATOM     33  C   UNL A   1      42.409  22.236  27.724  1.00  0.00     0.188 C 
BRANCH  33  34
ATOM     34  O   UNL A   1      42.973  23.164  26.808  1.00  0.00    -0.376 OA
BRANCH  34  35
ATOM     35  C   UNL A   1      42.883  24.538  27.063  1.00  0.00     0.202 C 
BRANCH  35  36
ATOM     36  C   UNL A   1      41.909  25.292  26.182  1.00  0.00     0.261 C 
BRANCH  36  37
ATOM     37  O   UNL A   1      41.165  26.374  26.820  1.00  0.00    -0.460 OA
BRANCH  37  38
ATOM     38  C   UNL A   1      40.061  26.340  27.621  1.00  0.00     0.338 C 
ATOM     39  O   UNL A   1      39.103  25.627  27.327  1.00  0.00    -0.246 OA
BRANCH  38  40
ATOM     40  C   UNL A   1      40.099  26.918  28.987  1.00  0.00     0.060 A 
ATOM     41  C   UNL A   1      38.980  26.858  29.839  1.00  0.00     0.016 A 
ATOM     42  C   UNL A   1      41.263  27.509  29.456  1.00  0.00     0.016 A 
ATOM     43  C   UNL A   1      38.963  27.552  31.071  1.00  0.00     0.010 A 
ATOM     44  C   UNL A   1      41.213  28.259  30.630  1.00  0.00     0.010 A 
ATOM     45  C   UNL A   1      40.071  28.310  31.453  1.00  0.00    -0.014 A 
BRANCH  45  46
ATOM     46  C   UNL A   1      40.134  29.260  32.601  1.00  0.00     0.031 A 
ATOM     47  C   UNL A   1      40.823  28.823  33.867  1.00  0.00     0.074 A 
ATOM     48  C   UNL A   1      39.958  30.587  32.354  1.00  0.00     0.049 A 
ATOM     49  N   UNL A   1      41.104  29.581  34.874  1.00  0.00    -0.248 NA
ATOM     50  C   UNL A   1      41.329  27.465  34.074  1.00  0.00     0.031 C 
ATOM     51  C   UNL A   1      40.608  31.721  33.030  1.00  0.00     0.029 A 
ATOM     52  N   UNL A   1      39.296  31.213  31.302  1.00  0.00    -0.354 N 
ATOM     53  C   UNL A   1      42.093  28.970  35.634  1.00  0.00     0.074 A 
ATOM     54  C   UNL A   1      42.131  27.618  35.135  1.00  0.00     0.031 C 
ATOM     55  C   UNL A   1      40.338  32.878  32.404  1.00  0.00     0.029 A 
ATOM     56  C   UNL A   1      39.209  32.602  31.548  1.00  0.00     0.049 A 
ATOM     57  H   UNL A   1      38.939  30.756  30.507  1.00  0.00     0.167 HD
ATOM     58  C   UNL A   1      42.862  29.733  36.480  1.00  0.00     0.031 A 
ATOM     59  C   UNL A   1      37.982  33.149  31.804  1.00  0.00     0.031 A 
ATOM     60  C   UNL A   1      42.359  31.130  36.559  1.00  0.00     0.049 A 
ATOM     61  C   UNL A   1      37.816  33.392  33.315  1.00  0.00     0.074 A 
ATOM     62  C   UNL A   1      42.910  32.399  36.472  1.00  0.00     0.029 A 
ATOM     63  N   UNL A   1      40.976  31.345  36.620  1.00  0.00    -0.354 N 
ATOM     64  N   UNL A   1      38.555  32.778  34.214  1.00  0.00    -0.248 NA
ATOM     65  C   UNL A   1      36.997  34.426  33.948  1.00  0.00     0.031 C 
ATOM     66  C   UNL A   1      41.847  33.337  36.280  1.00  0.00     0.029 A 
ATOM     67  C   UNL A   1      40.639  32.654  36.343  1.00  0.00     0.049 A 
ATOM     68  H   UNL A   1      40.321  30.643  36.834  1.00  0.00     0.167 HD
ATOM     69  C   UNL A   1      38.459  33.377  35.431  1.00  0.00     0.074 A 
ATOM     70  C   UNL A   1      37.401  34.357  35.237  1.00  0.00     0.031 C 
ATOM     71  C   UNL A   1      39.256  33.095  36.507  1.00  0.00     0.031 A 
BRANCH  58  72
ATOM     72  C   UNL A   1      44.190  29.289  37.135  1.00  0.00    -0.014 A 
ATOM     73  C   UNL A   1      44.937  30.212  37.905  1.00  0.00     0.010 A 
ATOM     74  C   UNL A   1      44.781  28.009  37.036  1.00  0.00     0.010 A 
ATOM     75  C   UNL A   1      46.169  29.902  38.515  1.00  0.00     0.020 A 
ATOM     76  C   UNL A   1      46.007  27.671  37.662  1.00  0.00     0.020 A 
ATOM     77  C   UNL A   1      46.695  28.623  38.403  1.00  0.00     0.054 A 
BRANCH  77  78
ATOM     78  S   UNL A   1      48.229  28.222  39.292  1.00  0.00     0.124 S 
ATOM     79  O   UNL A   1      49.234  28.977  38.549  1.00  0.00    -0.237 OA
ATOM     80  O   UNL A   1      47.951  28.709  40.640  1.00  0.00    -0.237 OA
ATOM     81  O   UNL A   1      48.334  26.769  39.172  1.00  0.00    -0.744 OA
ENDBRANCH  77  78
ENDBRANCH  58  72
BRANCH  59  82
ATOM     82  C   UNL A   1      37.050  32.820  30.661  1.00  0.00    -0.014 A 
ATOM     83  C   UNL A   1      35.752  32.407  31.075  1.00  0.00     0.010 A 
ATOM     84  C   UNL A   1      37.130  33.558  29.460  1.00  0.00     0.010 A 
ATOM     85  C   UNL A   1      34.590  32.938  30.486  1.00  0.00     0.020 A 
ATOM     86  C   UNL A   1      35.963  34.104  28.874  1.00  0.00     0.020 A 
ATOM     87  C   UNL A   1      34.705  33.842  29.431  1.00  0.00     0.054 A 
BRANCH  87  88
ATOM     88  S   UNL A   1      33.259  34.886  29.010  1.00  0.00     0.124 S 
ATOM     89  O   UNL A   1      32.535  34.064  28.050  1.00  0.00    -0.237 OA
ATOM     90  O   UNL A   1      32.592  35.072  30.302  1.00  0.00    -0.237 OA
ATOM     91  O   UNL A   1      33.858  36.106  28.480  1.00  0.00    -0.744 OA
ENDBRANCH  87  88
ENDBRANCH  59  82
BRANCH  71  92
ATOM     92  C   UNL A   1      38.762  33.182  37.925  1.00  0.00    -0.014 A 
ATOM     93  C   UNL A   1      39.110  34.249  38.761  1.00  0.00     0.010 A 
ATOM     94  C   UNL A   1      37.715  32.326  38.355  1.00  0.00     0.010 A 
ATOM     95  C   UNL A   1      38.498  34.413  40.002  1.00  0.00     0.020 A 
ATOM     96  C   UNL A   1      37.060  32.513  39.568  1.00  0.00     0.020 A 
ATOM     97  C   UNL A   1      37.485  33.539  40.401  1.00  0.00     0.054 A 
BRANCH  97  98
ATOM     98  S   UNL A   1      36.714  33.780  42.012  1.00  0.00     0.124 S 
ATOM     99  O   UNL A   1      37.354  35.014  42.458  1.00  0.00    -0.237 OA
ATOM    100  O   UNL A   1      35.296  33.893  41.677  1.00  0.00    -0.237 OA
ATOM    101  O   UNL A   1      37.081  32.578  42.757  1.00  0.00    -0.744 OA
ENDBRANCH  97  98
ENDBRANCH  71  92
ENDBRANCH  45  46
ENDBRANCH  38  40
ENDBRANCH  37  38
ENDBRANCH  36  37
ENDBRANCH  35  36
ENDBRANCH  34  35
ENDBRANCH  33  34
ENDBRANCH  32  33
ENDBRANCH  31  32
ENDBRANCH   1  31
TORSDOF 28
ENDMDL
MODEL 2
REMARK VINA RESULT:     -10.0      1.563      2.099
REMARK SMILES Cc1cc(S(=O)(=O)Nc2ccc(Cl)cc2F)ccc1OCC(=O)OCCOCCOCCOCCOC(=O)c1ccc(-c2c3nc(c(-c4ccc(S(=O)(=O)[O-])cc4)c4ccc([nH]4)c(-c4ccc(S(=O)(=O)[O-])cc4)c4nc(c(-c5ccc(S(=O)(=O)[O-])cc5)c5ccc2[nH]5)C=C4)C=C3)cc1
REMARK SMILES IDX 29 1 28 2 27 3 26 4 25 5 24 6 22 7 23 8 21 9 20 10 19 11
REMARK SMILES IDX 1 12 2 13 3 14 4 15 18 16 17 17 5 18 6 19 7 20 8 21 9 23
REMARK SMILES IDX 10 24 15 25 11 26 14 27 16 28 12 29 13 30 30 31 31 32 32 33
REMARK SMILES IDX 33 34 34 35 35 36 36 37 37 38 38 39 39 40 40 41 98 42 41 43
REMARK SMILES IDX 97 44 42 45 43 46 44 47 91 48 45 49 96 50 90 51 92 52 46 53
REMARK SMILES IDX 95 54 89 55 88 56 47 58 77 59 58 60 76 61 59 62 62 63 75 64
REMARK SMILES IDX 93 65 60 66 61 67 74 69 94 70 63 71 48 72 49 73 57 74 50 75
REMARK SMILES IDX 56 76 51 77 52 78 53 79 54 80 55 81 78 82 79 83 87 84 80 85
REMARK SMILES IDX 86 86 81 87 82 88 83 89 84 90 85 91 64 92 65 93 73 94 66 95
REMARK SMILES IDX 72 96 67 97 68 98 69 99 70 100 71 101
REMARK H PARENT 8 22 92 57 62 68
REMARK Flexibility Score: inf
ROOT
ATOM      1  C   UNL A   1      39.323  22.599  26.524  1.00  0.00     0.188 C 
ENDROOT
BRANCH   1   2
ATOM      2  C   UNL A   1      38.669  21.299  25.990  1.00  0.00     0.188 C 
BRANCH   2   3
ATOM      3  O   UNL A   1      37.960  21.148  24.779  1.00  0.00    -0.376 OA
BRANCH   3   4
ATOM      4  C   UNL A   1      36.640  20.704  24.939  1.00  0.00     0.202 C 
BRANCH   4   5
ATOM      5  C   UNL A   1      35.487  21.621  24.578  1.00  0.00     0.261 C 
BRANCH   5   6
ATOM      6  O   UNL A   1      34.283  20.887  24.360  1.00  0.00    -0.461 OA
BRANCH   6   7
ATOM      7  C   UNL A   1      33.286  21.128  25.236  1.00  0.00     0.344 C 
ATOM      8  O   UNL A   1      32.320  20.403  25.437  1.00  0.00    -0.248 OA
BRANCH   7   9
ATOM      9  C   UNL A   1      33.482  22.460  25.950  1.00  0.00     0.351 C 
BRANCH   9  10
ATOM     10  O   UNL A   1      32.420  23.370  26.103  1.00  0.00    -0.482 OA
BRANCH  10  11
ATOM     11  C   UNL A   1      32.212  24.514  25.394  1.00  0.00     0.123 A 
ATOM     12  C   UNL A   1      33.780  24.336  23.318  1.00  0.00     0.048 C 
ATOM     13  C   UNL A   1      32.749  25.002  24.191  1.00  0.00    -0.008 A 
ATOM     14  C   UNL A   1      32.174  26.173  23.610  1.00  0.00     0.029 A 
ATOM     15  C   UNL A   1      31.051  26.802  24.159  1.00  0.00     0.088 A 
ATOM     16  C   UNL A   1      31.106  25.184  25.945  1.00  0.00     0.048 A 
ATOM     17  C   UNL A   1      30.476  26.242  25.286  1.00  0.00     0.026 A 
BRANCH  15  18
ATOM     18  S   UNL A   1      30.448  28.292  23.372  1.00  0.00     0.262 S 
ATOM     19  O   UNL A   1      30.769  28.191  21.951  1.00  0.00    -0.201 OA
ATOM     20  O   UNL A   1      29.082  28.460  23.786  1.00  0.00    -0.201 OA
BRANCH  18  21
ATOM     21  N   UNL A   1      31.244  29.631  24.004  1.00  0.00    -0.277 N 
ATOM     22  H   UNL A   1      31.136  30.483  23.524  1.00  0.00     0.180 HD
BRANCH  21  23
ATOM     23  C   UNL A   1      32.062  29.643  25.174  1.00  0.00     0.085 A 
ATOM     24  C   UNL A   1      33.149  28.761  25.178  1.00  0.00     0.031 A 
ATOM     25  C   UNL A   1      31.946  30.570  26.220  1.00  0.00     0.148 A 
ATOM     26  C   UNL A   1      34.178  28.918  26.114  1.00  0.00     0.023 A 
ATOM     27  C   UNL A   1      32.983  30.754  27.129  1.00  0.00     0.062 A 
ATOM     28  F   UNL A   1      30.918  31.426  26.282  1.00  0.00    -0.205 F 
ATOM     29  C   UNL A   1      34.110  29.944  27.054  1.00  0.00     0.044 A 
ATOM     30  Cl  UNL A   1      35.442  30.243  28.100  1.00  0.00    -0.084 Cl
ENDBRANCH  21  23
ENDBRANCH  18  21
ENDBRANCH  15  18
ENDBRANCH  10  11
ENDBRANCH   9  10
ENDBRANCH   7   9
ENDBRANCH   6   7
ENDBRANCH   5   6
ENDBRANCH   4   5
ENDBRANCH   3   4
ENDBRANCH   2   3
ENDBRANCH   1   2
BRANCH   1  31
ATOM     31  O   UNL A   1      40.168  22.613  27.656  1.00  0.00    -0.377 OA
BRANCH  31  32
ATOM     32  C   UNL A   1      41.231  21.648  27.568  1.00  0.00     0.188 C 
BRANCH  32  33
ATOM     33  C   UNL A   1      42.429  22.273  28.232  1.00  0.00     0.188 C 
BRANCH  33  34
ATOM     34  O   UNL A   1      43.146  23.033  27.268  1.00  0.00    -0.376 OA
BRANCH  34  35
ATOM     35  C   UNL A   1      43.134  24.432  27.335  1.00  0.00     0.202 C 
BRANCH  35  36
ATOM     36  C   UNL A   1      42.223  25.114  26.336  1.00  0.00     0.261 C 
BRANCH  36  37
ATOM     37  O   UNL A   1      41.490  26.279  26.822  1.00  0.00    -0.460 OA
BRANCH  37  38
ATOM     38  C   UNL A   1      40.341  26.364  27.553  1.00  0.00     0.338 C 
ATOM     39  O   UNL A   1      39.335  25.751  27.201  1.00  0.00    -0.246 OA
BRANCH  38  40
ATOM     40  C   UNL A   1      40.354  26.944  28.919  1.00  0.00     0.060 A 
ATOM     41  C   UNL A   1      39.211  26.910  29.740  1.00  0.00     0.016 A 
ATOM     42  C   UNL A   1      41.517  27.512  29.418  1.00  0.00     0.016 A 
ATOM     43  C   UNL A   1      39.175  27.607  30.970  1.00  0.00     0.010 A 
ATOM     44  C   UNL A   1      41.451  28.266  30.588  1.00  0.00     0.010 A 
ATOM     45  C   UNL A   1      40.288  28.343  31.381  1.00  0.00    -0.014 A 
BRANCH  45  46
ATOM     46  C   UNL A   1      40.340  29.294  32.528  1.00  0.00     0.031 A 
ATOM     47  C   UNL A   1      41.075  28.885  33.777  1.00  0.00     0.074 A 
ATOM     48  C   UNL A   1      40.105  30.612  32.287  1.00  0.00     0.049 A 
ATOM     49  N   UNL A   1      41.349  29.653  34.778  1.00  0.00    -0.248 NA
ATOM     50  C   UNL A   1      41.639  27.548  33.970  1.00  0.00     0.031 C 
ATOM     51  C   UNL A   1      40.724  31.772  32.949  1.00  0.00     0.029 A 
ATOM     52  N   UNL A   1      39.393  31.212  31.252  1.00  0.00    -0.354 N 
ATOM     53  C   UNL A   1      42.379  29.082  35.514  1.00  0.00     0.074 A 
ATOM     54  C   UNL A   1      42.460  27.732  35.012  1.00  0.00     0.031 C 
ATOM     55  C   UNL A   1      40.393  32.918  32.332  1.00  0.00     0.029 A 
ATOM     56  C   UNL A   1      39.256  32.596  31.501  1.00  0.00     0.049 A 
ATOM     57  H   UNL A   1      39.037  30.741  30.464  1.00  0.00     0.167 HD
ATOM     58  C   UNL A   1      43.136  29.874  36.343  1.00  0.00     0.031 A 
ATOM     59  C   UNL A   1      38.014  33.094  31.786  1.00  0.00     0.031 A 
ATOM     60  C   UNL A   1      42.580  31.250  36.435  1.00  0.00     0.049 A 
ATOM     61  C   UNL A   1      37.874  33.329  33.302  1.00  0.00     0.074 A 
ATOM     62  C   UNL A   1      43.077  32.540  36.337  1.00  0.00     0.029 A 
ATOM     63  N   UNL A   1      41.191  31.409  36.528  1.00  0.00    -0.354 N 
ATOM     64  N   UNL A   1      38.658  32.745  34.183  1.00  0.00    -0.248 NA
ATOM     65  C   UNL A   1      37.029  34.329  33.955  1.00  0.00     0.031 C 
ATOM     66  C   UNL A   1      41.973  33.434  36.171  1.00  0.00     0.029 A 
ATOM     67  C   UNL A   1      40.795  32.704  36.262  1.00  0.00     0.049 A 
ATOM     68  H   UNL A   1      40.569  30.681  36.757  1.00  0.00     0.167 HD
ATOM     69  C   UNL A   1      38.567  33.339  35.402  1.00  0.00     0.074 A 
ATOM     70  C   UNL A   1      37.466  34.275  35.234  1.00  0.00     0.031 C 
ATOM     71  C   UNL A   1      39.400  33.088  36.459  1.00  0.00     0.031 A 
BRANCH  58  72
ATOM     72  C   UNL A   1      44.496  29.484  36.965  1.00  0.00    -0.014 A 
ATOM     73  C   UNL A   1      44.741  29.737  38.336  1.00  0.00     0.010 A 
ATOM     74  C   UNL A   1      45.583  28.887  36.287  1.00  0.00     0.010 A 
ATOM     75  C   UNL A   1      45.959  29.439  38.980  1.00  0.00     0.020 A 
ATOM     76  C   UNL A   1      46.807  28.557  36.921  1.00  0.00     0.020 A 
ATOM     77  C   UNL A   1      46.986  28.834  38.270  1.00  0.00     0.054 A 
BRANCH  77  78
ATOM     78  S   UNL A   1      48.504  28.361  39.152  1.00  0.00     0.124 S 
ATOM     79  O   UNL A   1      48.087  28.410  40.551  1.00  0.00    -0.237 OA
ATOM     80  O   UNL A   1      48.772  27.026  38.627  1.00  0.00    -0.237 OA
ATOM     81  O   UNL A   1      49.471  29.384  38.759  1.00  0.00    -0.744 OA
ENDBRANCH  77  78
ENDBRANCH  58  72
BRANCH  59  82
ATOM     82  C   UNL A   1      37.069  32.728  30.666  1.00  0.00    -0.014 A 
ATOM     83  C   UNL A   1      35.765  32.366  31.105  1.00  0.00     0.010 A 
ATOM     84  C   UNL A   1      37.162  33.401  29.428  1.00  0.00     0.010 A 
ATOM     85  C   UNL A   1      34.613  32.893  30.493  1.00  0.00     0.020 A 
ATOM     86  C   UNL A   1      36.004  33.943  28.819  1.00  0.00     0.020 A 
ATOM     87  C   UNL A   1      34.743  33.739  29.393  1.00  0.00     0.054 A 
BRANCH  87  88
ATOM     88  S   UNL A   1      33.319  34.792  28.924  1.00  0.00     0.124 S 
ATOM     89  O   UNL A   1      32.627  34.983  30.191  1.00  0.00    -0.237 OA
ATOM     90  O   UNL A   1      33.955  35.991  28.372  1.00  0.00    -0.237 OA
ATOM     91  O   UNL A   1      32.613  33.992  27.928  1.00  0.00    -0.744 OA
ENDBRANCH  87  88
ENDBRANCH  59  82
BRANCH  71  92
ATOM     92  C   UNL A   1      38.936  33.155  37.888  1.00  0.00    -0.014 A 
ATOM     93  C   UNL A   1      39.232  34.251  38.707  1.00  0.00     0.010 A 
ATOM     94  C   UNL A   1      37.960  32.234  38.350  1.00  0.00     0.010 A 
ATOM     95  C   UNL A   1      38.641  34.384  39.962  1.00  0.00     0.020 A 
ATOM     96  C   UNL A   1      37.323  32.388  39.578  1.00  0.00     0.020 A 
ATOM     97  C   UNL A   1      37.699  33.448  40.392  1.00  0.00     0.054 A 
BRANCH  97  98
ATOM     98  S   UNL A   1      36.954  33.650  42.021  1.00  0.00     0.124 S 
ATOM     99  O   UNL A   1      35.601  33.153  41.784  1.00  0.00    -0.237 OA
ATOM    100  O   UNL A   1      37.794  32.806  42.867  1.00  0.00    -0.237 OA
ATOM    101  O   UNL A   1      37.058  35.084  42.277  1.00  0.00    -0.744 OA
ENDBRANCH  97  98
ENDBRANCH  71  92
ENDBRANCH  45  46
ENDBRANCH  38  40
ENDBRANCH  37  38
ENDBRANCH  36  37
ENDBRANCH  35  36
ENDBRANCH  34  35
ENDBRANCH  33  34
ENDBRANCH  32  33
ENDBRANCH  31  32
ENDBRANCH   1  31
TORSDOF 28
ENDMDL
MODEL 3
REMARK VINA RESULT:      -9.5      3.089      8.346
REMARK SMILES Cc1cc(S(=O)(=O)Nc2ccc(Cl)cc2F)ccc1OCC(=O)OCCOCCOCCOCCOC(=O)c1ccc(-c2c3nc(c(-c4ccc(S(=O)(=O)[O-])cc4)c4ccc([nH]4)c(-c4ccc(S(=O)(=O)[O-])cc4)c4nc(c(-c5ccc(S(=O)(=O)[O-])cc5)c5ccc2[nH]5)C=C4)C=C3)cc1
REMARK SMILES IDX 29 1 28 2 27 3 26 4 25 5 24 6 22 7 23 8 21 9 20 10 19 11
REMARK SMILES IDX 1 12 2 13 3 14 4 15 18 16 17 17 5 18 6 19 7 20 8 21 9 23
REMARK SMILES IDX 10 24 15 25 11 26 14 27 16 28 12 29 13 30 30 31 31 32 32 33
REMARK SMILES IDX 33 34 34 35 35 36 36 37 37 38 38 39 39 40 40 41 98 42 41 43
REMARK SMILES IDX 97 44 42 45 43 46 44 47 91 48 45 49 96 50 90 51 92 52 46 53
REMARK SMILES IDX 95 54 89 55 88 56 47 58 77 59 58 60 76 61 59 62 62 63 75 64
REMARK SMILES IDX 93 65 60 66 61 67 74 69 94 70 63 71 48 72 49 73 57 74 50 75
REMARK SMILES IDX 56 76 51 77 52 78 53 79 54 80 55 81 78 82 79 83 87 84 80 85
REMARK SMILES IDX 86 86 81 87 82 88 83 89 84 90 85 91 64 92 65 93 73 94 66 95
REMARK SMILES IDX 72 96 67 97 68 98 69 99 70 100 71 101
REMARK H PARENT 8 22 92 57 62 68
REMARK Flexibility Score: inf
ROOT
ATOM      1  C   UNL A   1      38.847  23.170  26.429  1.00  0.00     0.188 C 
ENDROOT
BRANCH   1   2
ATOM      2  C   UNL A   1      38.670  21.772  25.783  1.00  0.00     0.188 C 
BRANCH   2   3
ATOM      3  O   UNL A   1      37.721  21.410  24.802  1.00  0.00    -0.376 OA
BRANCH   3   4
ATOM      4  C   UNL A   1      37.174  20.132  24.978  1.00  0.00     0.202 C 
BRANCH   4   5
ATOM      5  C   UNL A   1      35.668  19.950  24.990  1.00  0.00     0.261 C 
BRANCH   5   6
ATOM      6  O   UNL A   1      35.298  18.621  24.629  1.00  0.00    -0.461 OA
BRANCH   6   7
ATOM      7  C   UNL A   1      33.993  18.436  24.343  1.00  0.00     0.344 C 
ATOM      8  O   UNL A   1      33.552  17.834  23.372  1.00  0.00    -0.248 OA
BRANCH   7   9
ATOM      9  C   UNL A   1      33.096  19.106  25.376  1.00  0.00     0.351 C 
BRANCH   9  10
ATOM     10  O   UNL A   1      32.059  19.975  24.990  1.00  0.00    -0.482 OA
BRANCH  10  11
ATOM     11  C   UNL A   1      32.186  21.254  24.543  1.00  0.00     0.123 A 
ATOM     12  C   UNL A   1      32.811  22.664  26.645  1.00  0.00     0.048 C 
ATOM     13  C   UNL A   1      32.510  22.462  25.183  1.00  0.00    -0.008 A 
ATOM     14  C   UNL A   1      32.747  23.620  24.381  1.00  0.00     0.029 A 
ATOM     15  C   UNL A   1      32.742  23.572  22.983  1.00  0.00     0.088 A 
ATOM     16  C   UNL A   1      32.152  21.240  23.137  1.00  0.00     0.048 A 
ATOM     17  C   UNL A   1      32.523  22.348  22.374  1.00  0.00     0.026 A 
BRANCH  15  18
ATOM     18  S   UNL A   1      33.003  25.096  22.084  1.00  0.00     0.262 S 
ATOM     19  O   UNL A   1      34.198  25.726  22.638  1.00  0.00    -0.201 OA
ATOM     20  O   UNL A   1      32.950  24.771  20.685  1.00  0.00    -0.201 OA
BRANCH  18  21
ATOM     21  N   UNL A   1      31.698  26.128  22.323  1.00  0.00    -0.277 N 
ATOM     22  H   UNL A   1      30.960  26.074  21.674  1.00  0.00     0.180 HD
BRANCH  21  23
ATOM     23  C   UNL A   1      31.563  27.076  23.382  1.00  0.00     0.085 A 
ATOM     24  C   UNL A   1      30.911  26.626  24.536  1.00  0.00     0.031 A 
ATOM     25  C   UNL A   1      32.165  28.342  23.402  1.00  0.00     0.148 A 
ATOM     26  C   UNL A   1      31.008  27.353  25.728  1.00  0.00     0.023 A 
ATOM     27  C   UNL A   1      32.296  29.051  24.593  1.00  0.00     0.062 A 
ATOM     28  F   UNL A   1      32.785  28.837  22.324  1.00  0.00    -0.205 F 
ATOM     29  C   UNL A   1      31.740  28.538  25.758  1.00  0.00     0.044 A 
ATOM     30  Cl  UNL A   1      31.998  29.351  27.251  1.00  0.00    -0.084 Cl
ENDBRANCH  21  23
ENDBRANCH  18  21
ENDBRANCH  15  18
ENDBRANCH  10  11
ENDBRANCH   9  10
ENDBRANCH   7   9
ENDBRANCH   6   7
ENDBRANCH   5   6
ENDBRANCH   4   5
ENDBRANCH   3   4
ENDBRANCH   2   3
ENDBRANCH   1   2
BRANCH   1  31
ATOM     31  O   UNL A   1      39.893  23.461  27.333  1.00  0.00    -0.377 OA
BRANCH  31  32
ATOM     32  C   UNL A   1      40.993  22.541  27.224  1.00  0.00     0.188 C 
BRANCH  32  33
ATOM     33  C   UNL A   1      42.138  23.155  27.985  1.00  0.00     0.188 C 
BRANCH  33  34
ATOM     34  O   UNL A   1      43.326  23.023  27.216  1.00  0.00    -0.376 OA
BRANCH  34  35
ATOM     35  C   UNL A   1      44.027  24.167  26.815  1.00  0.00     0.202 C 
BRANCH  35  36
ATOM     36  C   UNL A   1      43.526  24.813  25.540  1.00  0.00     0.261 C 
BRANCH  36  37
ATOM     37  O   UNL A   1      42.880  26.114  25.685  1.00  0.00    -0.460 OA
BRANCH  37  38
ATOM     38  C   UNL A   1      41.653  26.446  26.180  1.00  0.00     0.338 C 
ATOM     39  O   UNL A   1      40.631  26.100  25.588  1.00  0.00    -0.246 OA
BRANCH  38  40
ATOM     40  C   UNL A   1      41.508  26.963  27.563  1.00  0.00     0.060 A 
ATOM     41  C   UNL A   1      40.266  26.943  28.227  1.00  0.00     0.016 A 
ATOM     42  C   UNL A   1      42.617  27.454  28.237  1.00  0.00     0.016 A 
ATOM     43  C   UNL A   1      40.096  27.585  29.476  1.00  0.00     0.010 A 
ATOM     44  C   UNL A   1      42.426  28.157  29.426  1.00  0.00     0.010 A 
ATOM     45  C   UNL A   1      41.173  28.250  30.063  1.00  0.00    -0.014 A 
BRANCH  45  46
ATOM     46  C   UNL A   1      41.110  29.145  31.254  1.00  0.00     0.031 A 
ATOM     47  C   UNL A   1      40.416  30.475  31.126  1.00  0.00     0.074 A 
ATOM     48  C   UNL A   1      41.294  28.598  32.486  1.00  0.00     0.049 A 
ATOM     49  N   UNL A   1      40.135  31.278  32.098  1.00  0.00    -0.248 NA
ATOM     50  C   UNL A   1      39.903  30.990  29.855  1.00  0.00     0.031 C 
ATOM     51  C   UNL A   1      40.648  28.990  33.749  1.00  0.00     0.029 A 
ATOM     52  N   UNL A   1      41.962  27.433  32.848  1.00  0.00    -0.354 N 
ATOM     53  C   UNL A   1      39.141  32.155  31.685  1.00  0.00     0.074 A 
ATOM     54  C   UNL A   1      39.098  31.984  30.253  1.00  0.00     0.031 C 
ATOM     55  C   UNL A   1      40.926  28.114  34.729  1.00  0.00     0.029 A 
ATOM     56  C   UNL A   1      42.055  27.349  34.256  1.00  0.00     0.049 A 
ATOM     57  H   UNL A   1      42.319  26.766  32.218  1.00  0.00     0.167 HD
ATOM     58  C   UNL A   1      38.373  32.798  32.626  1.00  0.00     0.031 A 
ATOM     59  C   UNL A   1      43.285  27.476  34.843  1.00  0.00     0.031 A 
ATOM     60  C   UNL A   1      38.883  32.552  34.001  1.00  0.00     0.049 A 
ATOM     61  C   UNL A   1      43.447  28.890  35.430  1.00  0.00     0.074 A 
ATOM     62  C   UNL A   1      38.338  32.170  35.217  1.00  0.00     0.029 A 
ATOM     63  N   UNL A   1      40.267  32.567  34.218  1.00  0.00    -0.354 N 
ATOM     64  N   UNL A   1      42.703  29.905  35.044  1.00  0.00    -0.248 NA
ATOM     65  C   UNL A   1      44.269  29.270  36.579  1.00  0.00     0.031 C 
ATOM     66  C   UNL A   1      39.406  31.771  36.080  1.00  0.00     0.029 A 
ATOM     67  C   UNL A   1      40.611  31.996  35.426  1.00  0.00     0.049 A 
ATOM     68  H   UNL A   1      40.918  32.941  33.583  1.00  0.00     0.167 HD
ATOM     69  C   UNL A   1      42.798  30.950  35.909  1.00  0.00     0.074 A 
ATOM     70  C   UNL A   1      43.861  30.538  36.812  1.00  0.00     0.031 C 
ATOM     71  C   UNL A   1      41.996  32.059  35.887  1.00  0.00     0.031 A 
BRANCH  58  72
ATOM     72  C   UNL A   1      37.041  33.532  32.352  1.00  0.00    -0.014 A 
ATOM     73  C   UNL A   1      36.171  33.056  31.342  1.00  0.00     0.010 A 
ATOM     74  C   UNL A   1      36.574  34.688  33.017  1.00  0.00     0.010 A 
ATOM     75  C   UNL A   1      34.950  33.677  31.007  1.00  0.00     0.020 A 
ATOM     76  C   UNL A   1      35.339  35.313  32.712  1.00  0.00     0.020 A 
ATOM     77  C   UNL A   1      34.531  34.799  31.706  1.00  0.00     0.054 A 
BRANCH  77  78
ATOM     78  S   UNL A   1      32.902  35.512  31.327  1.00  0.00     0.124 S 
ATOM     79  O   UNL A   1      33.168  36.948  31.355  1.00  0.00    -0.237 OA
ATOM     80  O   UNL A   1      32.612  34.956  30.009  1.00  0.00    -0.237 OA
ATOM     81  O   UNL A   1      32.045  35.022  32.405  1.00  0.00    -0.744 OA
ENDBRANCH  77  78
ENDBRANCH  58  72
BRANCH  59  82
ATOM     82  C   UNL A   1      44.219  26.445  34.254  1.00  0.00    -0.014 A 
ATOM     83  C   UNL A   1      45.586  26.644  34.593  1.00  0.00     0.010 A 
ATOM     84  C   UNL A   1      43.784  25.109  34.115  1.00  0.00     0.010 A 
ATOM     85  C   UNL A   1      46.392  25.582  35.044  1.00  0.00     0.020 A 
ATOM     86  C   UNL A   1      44.590  24.041  34.580  1.00  0.00     0.020 A 
ATOM     87  C   UNL A   1      45.863  24.294  35.102  1.00  0.00     0.054 A 
BRANCH  87  88
ATOM     88  S   UNL A   1      46.720  23.041  36.130  1.00  0.00     0.124 S 
ATOM     89  O   UNL A   1      47.718  23.831  36.838  1.00  0.00    -0.237 OA
ATOM     90  O   UNL A   1      45.644  22.499  36.964  1.00  0.00    -0.237 OA
ATOM     91  O   UNL A   1      47.238  22.090  35.152  1.00  0.00    -0.744 OA
ENDBRANCH  87  88
ENDBRANCH  59  82
BRANCH  71  92
ATOM     92  C   UNL A   1      42.486  33.419  36.299  1.00  0.00    -0.014 A 
ATOM     93  C   UNL A   1      42.047  34.033  37.478  1.00  0.00     0.010 A 
ATOM     94  C   UNL A   1      43.607  33.988  35.640  1.00  0.00     0.010 A 
ATOM     95  C   UNL A   1      42.647  35.203  37.939  1.00  0.00     0.020 A 
ATOM     96  C   UNL A   1      44.248  35.125  36.123  1.00  0.00     0.020 A 
ATOM     97  C   UNL A   1      43.737  35.746  37.254  1.00  0.00     0.054 A 
BRANCH  97  98
ATOM     98  S   UNL A   1      44.489  37.259  37.878  1.00  0.00     0.124 S 
ATOM     99  O   UNL A   1      45.281  36.750  38.995  1.00  0.00    -0.237 OA
ATOM    100  O   UNL A   1      45.257  37.735  36.729  1.00  0.00    -0.237 OA
ATOM    101  O   UNL A   1      43.347  38.091  38.247  1.00  0.00    -0.744 OA
ENDBRANCH  97  98
ENDBRANCH  71  92
ENDBRANCH  45  46
ENDBRANCH  38  40
ENDBRANCH  37  38
ENDBRANCH  36  37
ENDBRANCH  35  36
ENDBRANCH  34  35
ENDBRANCH  33  34
ENDBRANCH  32  33
ENDBRANCH  31  32
ENDBRANCH   1  31
TORSDOF 28
ENDMDL
