MODEL 1
REMARK VINA RESULT:     -10.3      0.000      0.000
REMARK SMILES C[NH+]1CCN(C(=O)c2ccc3c(c2)N(CC(=O)OCCOCCOCCOCCOC(=O)c2ccc(-c4c5nc(c(-c6ccc(S(=O)(=O)[O-])cc6)c6ccc([nH]6)c(-c6ccc(S(=O)(=O)[O-])cc6)c6nc(c(-c7ccc(S(=O)(=O)[O-])cc7)c7ccc4[nH]7)C=C6)C=C5)cc2)C(=O)CO3)CC1
REMARK SMILES IDX 25 1 24 2 23 3 22 4 21 5 20 6 19 7 18 8 16 9 17 10 15 11
REMARK SMILES IDX 14 12 8 13 9 14 13 15 10 16 12 17 11 18 96 19 93 20 95 21
REMARK SMILES IDX 94 22 6 23 1 24 2 25 3 26 98 27 4 29 97 30 5 31 7 32 26 33
REMARK SMILES IDX 27 34 28 35 29 36 30 37 31 38 32 39 33 40 34 41 92 42 35 43
REMARK SMILES IDX 91 44 36 45 37 46 38 47 85 48 39 49 90 50 84 51 86 52 40 53
REMARK SMILES IDX 89 54 83 55 82 56 41 58 71 59 52 60 70 61 53 62 56 63 69 64
REMARK SMILES IDX 87 65 54 66 55 67 68 69 88 70 57 71 42 72 43 73 51 74 44 75
REMARK SMILES IDX 50 76 45 77 46 78 47 79 48 80 49 81 72 82 73 83 81 84 74 85
REMARK SMILES IDX 80 86 75 87 76 88 77 89 78 90 79 91 58 92 59 93 67 94 60 95
REMARK SMILES IDX 66 96 61 97 62 98 63 99 64 100 65 101
REMARK H PARENT 2 28 86 57 56 68
REMARK Flexibility Score: inf
ROOT
ATOM      1  C   UNL A   1      34.223  31.339  27.640  1.00  0.00     0.188 C 
ENDROOT
BRANCH   1   2
ATOM      2  O   UNL A   1      33.150  30.859  26.838  1.00  0.00    -0.377 OA
BRANCH   2   3
ATOM      3  C   UNL A   1      33.371  29.565  26.325  1.00  0.00     0.188 C 
BRANCH   3   4
ATOM      4  C   UNL A   1      32.509  29.325  25.098  1.00  0.00     0.188 C 
BRANCH   4   5
ATOM      5  O   UNL A   1      32.612  28.151  24.331  1.00  0.00    -0.376 OA
BRANCH   5   6
ATOM      6  C   UNL A   1      33.714  28.025  23.451  1.00  0.00     0.202 C 
BRANCH   6   7
ATOM      7  C   UNL A   1      33.526  27.470  22.019  1.00  0.00     0.261 C 
BRANCH   7   8
ATOM      8  O   UNL A   1      32.518  26.444  21.866  1.00  0.00    -0.462 OA
BRANCH   8   9
ATOM      9  C   UNL A   1      32.827  25.165  22.180  1.00  0.00     0.326 C 
ATOM     10  O   UNL A   1      33.919  24.654  21.952  1.00  0.00    -0.250 OA
BRANCH   9  11
ATOM     11  C   UNL A   1      31.687  24.399  22.914  1.00  0.00     0.248 C 
BRANCH  11  12
ATOM     12  N   UNL A   1      31.578  24.316  24.390  1.00  0.00    -0.295 N 
ATOM     13  C   UNL A   1      33.677  21.325  25.556  1.00  0.00     0.042 A 
ATOM     14  C   UNL A   1      33.393  21.362  26.924  1.00  0.00     0.018 A 
ATOM     15  C   UNL A   1      33.004  22.228  24.692  1.00  0.00     0.044 A 
ATOM     16  C   UNL A   1      32.543  22.341  27.435  1.00  0.00     0.049 A 
ATOM     17  C   UNL A   1      32.154  23.258  25.198  1.00  0.00     0.087 A 
ATOM     18  C   UNL A   1      31.954  23.292  26.591  1.00  0.00     0.143 A 
ATOM     19  O   UNL A   1      31.256  24.248  27.266  1.00  0.00    -0.482 OA
ATOM     20  C   UNL A   1      30.798  25.305  24.991  1.00  0.00     0.265 C 
ATOM     21  C   UNL A   1      30.498  25.129  26.474  1.00  0.00     0.330 C 
ATOM     22  O   UNL A   1      30.315  26.246  24.361  1.00  0.00    -0.270 OA
BRANCH  13  23
ATOM     23  C   UNL A   1      34.576  20.213  25.095  1.00  0.00     0.254 C 
ATOM     24  C   UNL A   1      32.906  14.991  25.539  1.00  0.00     0.332 C 
ATOM     25  N   UNL A   1      33.201  16.203  24.780  1.00  0.00    -0.334 N 
ATOM     26  C   UNL A   1      34.640  16.552  24.829  1.00  0.00     0.283 C 
ATOM     27  C   UNL A   1      32.375  17.326  25.263  1.00  0.00     0.283 C 
ATOM     28  H   UNL A   1      32.967  16.017  23.804  1.00  0.00     0.347 HD
ATOM     29  C   UNL A   1      34.997  17.927  24.191  1.00  0.00     0.181 C 
ATOM     30  C   UNL A   1      32.710  18.577  24.450  1.00  0.00     0.181 C 
ATOM     31  N   UNL A   1      34.091  18.982  24.646  1.00  0.00    -0.327 N 
ATOM     32  O   UNL A   1      35.778  20.484  25.078  1.00  0.00    -0.269 OA
ENDBRANCH  13  23
ENDBRANCH  11  12
ENDBRANCH   9  11
ENDBRANCH   8   9
ENDBRANCH   7   8
ENDBRANCH   6   7
ENDBRANCH   5   6
ENDBRANCH   4   5
ENDBRANCH   3   4
ENDBRANCH   2   3
ENDBRANCH   1   2
BRANCH   1  33
ATOM     33  C   UNL A   1      34.277  32.868  27.816  1.00  0.00     0.188 C 
BRANCH  33  34
ATOM     34  O   UNL A   1      33.290  33.547  28.604  1.00  0.00    -0.376 OA
BRANCH  34  35
ATOM     35  C   UNL A   1      33.520  34.847  29.121  1.00  0.00     0.202 C 
BRANCH  35  36
ATOM     36  C   UNL A   1      33.562  34.889  30.646  1.00  0.00     0.261 C 
BRANCH  36  37
ATOM     37  O   UNL A   1      34.829  34.452  31.114  1.00  0.00    -0.460 OA
BRANCH  37  38
ATOM     38  C   UNL A   1      34.812  33.241  31.722  1.00  0.00     0.338 C 
ATOM     39  O   UNL A   1      33.895  32.718  32.335  1.00  0.00    -0.246 OA
BRANCH  38  40
ATOM     40  C   UNL A   1      36.048  32.560  31.318  1.00  0.00     0.060 A 
ATOM     41  C   UNL A   1      36.625  31.641  32.205  1.00  0.00     0.016 A 
ATOM     42  C   UNL A   1      36.559  32.750  30.029  1.00  0.00     0.016 A 
ATOM     43  C   UNL A   1      37.737  30.913  31.805  1.00  0.00     0.010 A 
ATOM     44  C   UNL A   1      37.686  32.049  29.639  1.00  0.00     0.010 A 
ATOM     45  C   UNL A   1      38.294  31.168  30.546  1.00  0.00    -0.014 A 
BRANCH  45  46
ATOM     46  C   UNL A   1      39.698  30.812  30.305  1.00  0.00     0.031 A 
ATOM     47  C   UNL A   1      40.697  31.909  30.531  1.00  0.00     0.074 A 
ATOM     48  C   UNL A   1      40.038  29.588  29.881  1.00  0.00     0.049 A 
ATOM     49  N   UNL A   1      41.974  31.929  30.274  1.00  0.00    -0.248 NA
ATOM     50  C   UNL A   1      40.180  33.165  31.113  1.00  0.00     0.031 C 
ATOM     51  C   UNL A   1      39.118  28.465  29.691  1.00  0.00     0.029 A 
ATOM     52  N   UNL A   1      41.260  29.092  29.519  1.00  0.00    -0.354 N 
ATOM     53  C   UNL A   1      42.406  33.192  30.659  1.00  0.00     0.074 A 
ATOM     54  C   UNL A   1      41.259  33.928  31.129  1.00  0.00     0.031 C 
ATOM     55  C   UNL A   1      39.814  27.410  29.228  1.00  0.00     0.029 A 
ATOM     56  C   UNL A   1      41.210  27.801  29.052  1.00  0.00     0.049 A 
ATOM     57  H   UNL A   1      42.094  29.611  29.585  1.00  0.00     0.167 HD
ATOM     58  C   UNL A   1      43.661  33.686  30.628  1.00  0.00     0.031 A 
ATOM     59  C   UNL A   1      42.191  27.051  28.516  1.00  0.00     0.031 A 
ATOM     60  C   UNL A   1      44.774  32.935  30.126  1.00  0.00     0.049 A 
ATOM     61  C   UNL A   1      43.567  27.661  28.405  1.00  0.00     0.074 A 
ATOM     62  C   UNL A   1      46.095  33.320  30.019  1.00  0.00     0.029 A 
ATOM     63  N   UNL A   1      44.686  31.635  29.648  1.00  0.00    -0.354 N 
ATOM     64  N   UNL A   1      43.972  28.855  28.773  1.00  0.00    -0.248 NA
ATOM     65  C   UNL A   1      44.619  26.824  27.813  1.00  0.00     0.031 C 
ATOM     66  C   UNL A   1      46.798  32.269  29.426  1.00  0.00     0.029 A 
ATOM     67  C   UNL A   1      45.928  31.203  29.235  1.00  0.00     0.049 A 
ATOM     68  H   UNL A   1      43.859  31.101  29.610  1.00  0.00     0.167 HD
ATOM     69  C   UNL A   1      45.337  28.893  28.507  1.00  0.00     0.074 A 
ATOM     70  C   UNL A   1      45.684  27.604  27.944  1.00  0.00     0.031 C 
ATOM     71  C   UNL A   1      46.228  29.893  28.714  1.00  0.00     0.031 A 
BRANCH  58  72
ATOM     72  C   UNL A   1      43.876  35.088  31.123  1.00  0.00    -0.014 A 
ATOM     73  C   UNL A   1      43.848  36.181  30.238  1.00  0.00     0.010 A 
ATOM     74  C   UNL A   1      44.073  35.322  32.496  1.00  0.00     0.010 A 
ATOM     75  C   UNL A   1      44.026  37.481  30.714  1.00  0.00     0.020 A 
ATOM     76  C   UNL A   1      44.222  36.624  32.980  1.00  0.00     0.020 A 
ATOM     77  C   UNL A   1      44.202  37.695  32.083  1.00  0.00     0.054 A 
BRANCH  77  78
ATOM     78  S   UNL A   1      44.359  39.400  32.680  1.00  0.00     0.124 S 
ATOM     79  O   UNL A   1      43.057  39.623  33.307  1.00  0.00    -0.237 OA
ATOM     80  O   UNL A   1      45.491  39.311  33.599  1.00  0.00    -0.237 OA
ATOM     81  O   UNL A   1      44.604  40.174  31.466  1.00  0.00    -0.744 OA
ENDBRANCH  77  78
ENDBRANCH  58  72
BRANCH  59  82
ATOM     82  C   UNL A   1      41.913  25.671  28.034  1.00  0.00    -0.014 A 
ATOM     83  C   UNL A   1      41.441  25.450  26.727  1.00  0.00     0.010 A 
ATOM     84  C   UNL A   1      42.097  24.566  28.887  1.00  0.00     0.010 A 
ATOM     85  C   UNL A   1      41.116  24.159  26.299  1.00  0.00     0.020 A 
ATOM     86  C   UNL A   1      41.805  23.270  28.451  1.00  0.00     0.020 A 
ATOM     87  C   UNL A   1      41.295  23.078  27.166  1.00  0.00     0.054 A 
BRANCH  87  88
ATOM     88  S   UNL A   1      40.863  21.414  26.588  1.00  0.00     0.124 S 
ATOM     89  O   UNL A   1      40.791  20.668  27.841  1.00  0.00    -0.237 OA
ATOM     90  O   UNL A   1      39.589  21.637  25.909  1.00  0.00    -0.237 OA
ATOM     91  O   UNL A   1      41.976  21.056  25.710  1.00  0.00    -0.744 OA
ENDBRANCH  87  88
ENDBRANCH  59  82
BRANCH  71  92
ATOM     92  C   UNL A   1      47.673  29.611  28.419  1.00  0.00    -0.014 A 
ATOM     93  C   UNL A   1      48.234  29.892  27.162  1.00  0.00     0.010 A 
ATOM     94  C   UNL A   1      48.503  29.167  29.466  1.00  0.00     0.010 A 
ATOM     95  C   UNL A   1      49.605  29.722  26.957  1.00  0.00     0.020 A 
ATOM     96  C   UNL A   1      49.876  29.029  29.272  1.00  0.00     0.020 A 
ATOM     97  C   UNL A   1      50.418  29.302  28.016  1.00  0.00     0.054 A 
BRANCH  97  98
ATOM     98  S   UNL A   1      52.205  29.179  27.744  1.00  0.00     0.124 S 
ATOM     99  O   UNL A   1      52.730  30.078  28.768  1.00  0.00    -0.237 OA
ATOM    100  O   UNL A   1      52.463  27.758  27.961  1.00  0.00    -0.237 OA
ATOM    101  O   UNL A   1      52.379  29.635  26.366  1.00  0.00    -0.744 OA
ENDBRANCH  97  98
ENDBRANCH  71  92
ENDBRANCH  45  46
ENDBRANCH  38  40
ENDBRANCH  37  38
ENDBRANCH  36  37
ENDBRANCH  35  36
ENDBRANCH  34  35
ENDBRANCH  33  34
ENDBRANCH   1  33
TORSDOF 25
ENDMDL
MODEL 2
REMARK VINA RESULT:      -9.4      5.194      6.229
REMARK SMILES C[NH+]1CCN(C(=O)c2ccc3c(c2)N(CC(=O)OCCOCCOCCOCCOC(=O)c2ccc(-c4c5nc(c(-c6ccc(S(=O)(=O)[O-])cc6)c6ccc([nH]6)c(-c6ccc(S(=O)(=O)[O-])cc6)c6nc(c(-c7ccc(S(=O)(=O)[O-])cc7)c7ccc4[nH]7)C=C6)C=C5)cc2)C(=O)CO3)CC1
REMARK SMILES IDX 25 1 24 2 23 3 22 4 21 5 20 6 19 7 18 8 16 9 17 10 15 11
REMARK SMILES IDX 14 12 8 13 9 14 13 15 10 16 12 17 11 18 96 19 93 20 95 21
REMARK SMILES IDX 94 22 6 23 1 24 2 25 3 26 98 27 4 29 97 30 5 31 7 32 26 33
REMARK SMILES IDX 27 34 28 35 29 36 30 37 31 38 32 39 33 40 34 41 92 42 35 43
REMARK SMILES IDX 91 44 36 45 37 46 38 47 85 48 39 49 90 50 84 51 86 52 40 53
REMARK SMILES IDX 89 54 83 55 82 56 41 58 71 59 52 60 70 61 53 62 56 63 69 64
REMARK SMILES IDX 87 65 54 66 55 67 68 69 88 70 57 71 42 72 43 73 51 74 44 75
REMARK SMILES IDX 50 76 45 77 46 78 47 79 48 80 49 81 72 82 73 83 81 84 74 85
REMARK SMILES IDX 80 86 75 87 76 88 77 89 78 90 79 91 58 92 59 93 67 94 60 95
REMARK SMILES IDX 66 96 61 97 62 98 63 99 64 100 65 101
REMARK H PARENT 2 28 86 57 56 68
REMARK Flexibility Score: inf
ROOT
ATOM      1  C   UNL A   1      34.603  31.924  28.062  1.00  0.00     0.188 C 
ENDROOT
BRANCH   1   2
ATOM      2  O   UNL A   1      33.439  31.192  27.693  1.00  0.00    -0.377 OA
BRANCH   2   3
ATOM      3  C   UNL A   1      33.699  30.160  26.769  1.00  0.00     0.188 C 
BRANCH   3   4
ATOM      4  C   UNL A   1      32.541  30.012  25.798  1.00  0.00     0.188 C 
BRANCH   4   5
ATOM      5  O   UNL A   1      32.368  28.859  25.012  1.00  0.00    -0.376 OA
BRANCH   5   6
ATOM      6  C   UNL A   1      33.526  28.192  24.544  1.00  0.00     0.202 C 
BRANCH   6   7
ATOM      7  C   UNL A   1      34.075  28.458  23.123  1.00  0.00     0.261 C 
BRANCH   7   8
ATOM      8  O   UNL A   1      33.310  27.891  22.034  1.00  0.00    -0.462 OA
BRANCH   8   9
ATOM      9  C   UNL A   1      33.210  26.547  21.929  1.00  0.00     0.326 C 
ATOM     10  O   UNL A   1      34.178  25.796  21.863  1.00  0.00    -0.250 OA
BRANCH   9  11
ATOM     11  C   UNL A   1      31.745  26.016  21.953  1.00  0.00     0.248 C 
BRANCH  11  12
ATOM     12  N   UNL A   1      30.984  25.779  23.203  1.00  0.00    -0.295 N 
ATOM     13  C   UNL A   1      32.287  22.533  24.775  1.00  0.00     0.042 A 
ATOM     14  C   UNL A   1      31.420  22.439  25.867  1.00  0.00     0.018 A 
ATOM     15  C   UNL A   1      32.089  23.572  23.829  1.00  0.00     0.044 A 
ATOM     16  C   UNL A   1      30.447  23.416  26.072  1.00  0.00     0.049 A 
ATOM     17  C   UNL A   1      31.119  24.600  24.035  1.00  0.00     0.087 A 
ATOM     18  C   UNL A   1      30.315  24.494  25.187  1.00  0.00     0.143 A 
ATOM     19  O   UNL A   1      29.404  25.419  25.601  1.00  0.00    -0.482 OA
ATOM     20  C   UNL A   1      30.033  26.750  23.520  1.00  0.00     0.265 C 
ATOM     21  C   UNL A   1      29.096  26.435  24.678  1.00  0.00     0.330 C 
ATOM     22  O   UNL A   1      29.900  27.788  22.870  1.00  0.00    -0.270 OA
BRANCH  13  23
ATOM     23  C   UNL A   1      33.280  21.415  24.618  1.00  0.00     0.254 C 
ATOM     24  C   UNL A   1      38.613  22.345  25.588  1.00  0.00     0.332 C 
ATOM     25  N   UNL A   1      37.306  21.792  25.929  1.00  0.00    -0.334 N 
ATOM     26  C   UNL A   1      36.874  20.753  24.964  1.00  0.00     0.283 C 
ATOM     27  C   UNL A   1      36.300  22.868  26.021  1.00  0.00     0.283 C 
ATOM     28  H   UNL A   1      37.392  21.341  26.840  1.00  0.00     0.347 HD
ATOM     29  C   UNL A   1      35.415  20.248  25.163  1.00  0.00     0.181 C 
ATOM     30  C   UNL A   1      34.946  22.255  26.377  1.00  0.00     0.181 C 
ATOM     31  N   UNL A   1      34.479  21.360  25.333  1.00  0.00    -0.327 N 
ATOM     32  O   UNL A   1      32.932  20.509  23.859  1.00  0.00    -0.269 OA
ENDBRANCH  13  23
ENDBRANCH  11  12
ENDBRANCH   9  11
ENDBRANCH   8   9
ENDBRANCH   7   8
ENDBRANCH   6   7
ENDBRANCH   5   6
ENDBRANCH   4   5
ENDBRANCH   3   4
ENDBRANCH   2   3
ENDBRANCH   1   2
BRANCH   1  33
ATOM     33  C   UNL A   1      34.486  33.454  27.928  1.00  0.00     0.188 C 
BRANCH  33  34
ATOM     34  O   UNL A   1      33.876  34.232  28.966  1.00  0.00    -0.376 OA
BRANCH  34  35
ATOM     35  C   UNL A   1      33.649  35.624  28.812  1.00  0.00     0.202 C 
BRANCH  35  36
ATOM     36  C   UNL A   1      32.942  36.254  30.009  1.00  0.00     0.261 C 
BRANCH  36  37
ATOM     37  O   UNL A   1      33.779  36.203  31.155  1.00  0.00    -0.460 OA
BRANCH  37  38
ATOM     38  C   UNL A   1      33.363  35.338  32.112  1.00  0.00     0.338 C 
ATOM     39  O   UNL A   1      32.227  34.956  32.339  1.00  0.00    -0.246 OA
BRANCH  38  40
ATOM     40  C   UNL A   1      34.577  34.763  32.703  1.00  0.00     0.060 A 
ATOM     41  C   UNL A   1      35.811  35.041  32.099  1.00  0.00     0.016 A 
ATOM     42  C   UNL A   1      34.497  34.051  33.905  1.00  0.00     0.016 A 
ATOM     43  C   UNL A   1      36.980  34.590  32.696  1.00  0.00     0.010 A 
ATOM     44  C   UNL A   1      35.659  33.574  34.486  1.00  0.00     0.010 A 
ATOM     45  C   UNL A   1      36.889  33.808  33.853  1.00  0.00    -0.014 A 
BRANCH  45  46
ATOM     46  C   UNL A   1      38.008  32.926  34.204  1.00  0.00     0.031 A 
ATOM     47  C   UNL A   1      38.711  33.244  35.492  1.00  0.00     0.074 A 
ATOM     48  C   UNL A   1      38.380  31.925  33.395  1.00  0.00     0.049 A 
ATOM     49  N   UNL A   1      39.801  32.730  35.986  1.00  0.00    -0.248 NA
ATOM     50  C   UNL A   1      38.109  34.301  36.330  1.00  0.00     0.031 C 
ATOM     51  C   UNL A   1      37.706  31.536  32.155  1.00  0.00     0.029 A 
ATOM     52  N   UNL A   1      39.435  31.061  33.495  1.00  0.00    -0.354 N 
ATOM     53  C   UNL A   1      40.012  33.401  37.184  1.00  0.00     0.074 A 
ATOM     54  C   UNL A   1      38.969  34.385  37.331  1.00  0.00     0.031 C 
ATOM     55  C   UNL A   1      38.380  30.512  31.600  1.00  0.00     0.029 A 
ATOM     56  C   UNL A   1      39.549  30.211  32.422  1.00  0.00     0.049 A 
ATOM     57  H   UNL A   1      40.053  31.050  34.261  1.00  0.00     0.167 HD
ATOM     58  C   UNL A   1      40.994  33.200  38.088  1.00  0.00     0.031 A 
ATOM     59  C   UNL A   1      40.518  29.319  32.142  1.00  0.00     0.031 A 
ATOM     60  C   UNL A   1      42.034  32.232  37.895  1.00  0.00     0.049 A 
ATOM     61  C   UNL A   1      41.657  29.181  33.122  1.00  0.00     0.074 A 
ATOM     62  C   UNL A   1      43.101  31.939  38.719  1.00  0.00     0.029 A 
ATOM     63  N   UNL A   1      42.127  31.397  36.790  1.00  0.00    -0.354 N 
ATOM     64  N   UNL A   1      41.851  29.815  34.256  1.00  0.00    -0.248 NA
ATOM     65  C   UNL A   1      42.703  28.204  32.791  1.00  0.00     0.031 C 
ATOM     66  C   UNL A   1      43.870  30.960  38.087  1.00  0.00     0.029 A 
ATOM     67  C   UNL A   1      43.240  30.592  36.905  1.00  0.00     0.049 A 
ATOM     68  H   UNL A   1      41.492  31.383  36.037  1.00  0.00     0.167 HD
ATOM     69  C   UNL A   1      43.012  29.277  34.800  1.00  0.00     0.074 A 
ATOM     70  C   UNL A   1      43.476  28.268  33.868  1.00  0.00     0.031 C 
ATOM     71  C   UNL A   1      43.638  29.576  35.964  1.00  0.00     0.031 A 
BRANCH  58  72
ATOM     72  C   UNL A   1      40.993  34.050  39.326  1.00  0.00    -0.014 A 
ATOM     73  C   UNL A   1      41.734  35.245  39.386  1.00  0.00     0.010 A 
ATOM     74  C   UNL A   1      40.214  33.669  40.434  1.00  0.00     0.010 A 
ATOM     75  C   UNL A   1      41.706  36.037  40.535  1.00  0.00     0.020 A 
ATOM     76  C   UNL A   1      40.160  34.475  41.574  1.00  0.00     0.020 A 
ATOM     77  C   UNL A   1      40.911  35.652  41.619  1.00  0.00     0.054 A 
BRANCH  77  78
ATOM     78  S   UNL A   1      40.839  36.738  43.069  1.00  0.00     0.124 S 
ATOM     79  O   UNL A   1      39.415  36.710  43.398  1.00  0.00    -0.237 OA
ATOM     80  O   UNL A   1      41.716  36.057  44.018  1.00  0.00    -0.237 OA
ATOM     81  O   UNL A   1      41.337  38.018  42.571  1.00  0.00    -0.744 OA
ENDBRANCH  77  78
ENDBRANCH  58  72
BRANCH  59  82
ATOM     82  C   UNL A   1      40.468  28.513  30.892  1.00  0.00    -0.014 A 
ATOM     83  C   UNL A   1      39.502  27.504  30.727  1.00  0.00     0.010 A 
ATOM     84  C   UNL A   1      41.404  28.732  29.863  1.00  0.00     0.010 A 
ATOM     85  C   UNL A   1      39.501  26.702  29.581  1.00  0.00     0.020 A 
ATOM     86  C   UNL A   1      41.385  27.955  28.702  1.00  0.00     0.020 A 
ATOM     87  C   UNL A   1      40.446  26.929  28.578  1.00  0.00     0.054 A 
BRANCH  87  88
ATOM     88  S   UNL A   1      40.425  25.873  27.103  1.00  0.00     0.124 S 
ATOM     89  O   UNL A   1      39.074  25.323  27.145  1.00  0.00    -0.237 OA
ATOM     90  O   UNL A   1      40.688  26.827  26.029  1.00  0.00    -0.237 OA
ATOM     91  O   UNL A   1      41.499  24.914  27.354  1.00  0.00    -0.744 OA
ENDBRANCH  87  88
ENDBRANCH  59  82
BRANCH  71  92
ATOM     92  C   UNL A   1      44.835  28.751  36.344  1.00  0.00    -0.014 A 
ATOM     93  C   UNL A   1      46.142  29.242  36.196  1.00  0.00     0.010 A 
ATOM     94  C   UNL A   1      44.627  27.508  36.972  1.00  0.00     0.010 A 
ATOM     95  C   UNL A   1      47.225  28.495  36.663  1.00  0.00     0.020 A 
ATOM     96  C   UNL A   1      45.704  26.776  37.468  1.00  0.00     0.020 A 
ATOM     97  C   UNL A   1      46.998  27.272  37.305  1.00  0.00     0.054 A 
BRANCH  97  98
ATOM     98  S   UNL A   1      48.416  26.369  37.981  1.00  0.00     0.124 S 
ATOM     99  O   UNL A   1      47.984  26.107  39.351  1.00  0.00    -0.237 OA
ATOM    100  O   UNL A   1      48.492  25.198  37.110  1.00  0.00    -0.237 OA
ATOM    101  O   UNL A   1      49.525  27.312  37.846  1.00  0.00    -0.744 OA
ENDBRANCH  97  98
ENDBRANCH  71  92
ENDBRANCH  45  46
ENDBRANCH  38  40
ENDBRANCH  37  38
ENDBRANCH  36  37
ENDBRANCH  35  36
ENDBRANCH  34  35
ENDBRANCH  33  34
ENDBRANCH   1  33
TORSDOF 25
ENDMDL
MODEL 3
REMARK VINA RESULT:      -8.8      5.085     10.293
REMARK SMILES C[NH+]1CCN(C(=O)c2ccc3c(c2)N(CC(=O)OCCOCCOCCOCCOC(=O)c2ccc(-c4c5nc(c(-c6ccc(S(=O)(=O)[O-])cc6)c6ccc([nH]6)c(-c6ccc(S(=O)(=O)[O-])cc6)c6nc(c(-c7ccc(S(=O)(=O)[O-])cc7)c7ccc4[nH]7)C=C6)C=C5)cc2)C(=O)CO3)CC1
REMARK SMILES IDX 25 1 24 2 23 3 22 4 21 5 20 6 19 7 18 8 16 9 17 10 15 11
REMARK SMILES IDX 14 12 8 13 9 14 13 15 10 16 12 17 11 18 96 19 93 20 95 21
REMARK SMILES IDX 94 22 6 23 1 24 2 25 3 26 98 27 4 29 97 30 5 31 7 32 26 33
REMARK SMILES IDX 27 34 28 35 29 36 30 37 31 38 32 39 33 40 34 41 92 42 35 43
REMARK SMILES IDX 91 44 36 45 37 46 38 47 85 48 39 49 90 50 84 51 86 52 40 53
REMARK SMILES IDX 89 54 83 55 82 56 41 58 71 59 52 60 70 61 53 62 56 63 69 64
REMARK SMILES IDX 87 65 54 66 55 67 68 69 88 70 57 71 42 72 43 73 51 74 44 75
REMARK SMILES IDX 50 76 45 77 46 78 47 79 48 80 49 81 72 82 73 83 81 84 74 85
REMARK SMILES IDX 80 86 75 87 76 88 77 89 78 90 79 91 58 92 59 93 67 94 60 95
REMARK SMILES IDX 66 96 61 97 62 98 63 99 64 100 65 101
REMARK H PARENT 2 28 86 57 56 68
REMARK Flexibility Score: inf
ROOT
ATOM      1  C   UNL A   1      38.529  21.799  25.754  1.00  0.00     0.188 C 
ENDROOT
BRANCH   1   2
ATOM      2  O   UNL A   1      37.387  22.571  26.110  1.00  0.00    -0.377 OA
BRANCH   2   3
ATOM      3  C   UNL A   1      36.608  22.958  25.001  1.00  0.00     0.188 C 
BRANCH   3   4
ATOM      4  C   UNL A   1      35.332  23.641  25.461  1.00  0.00     0.188 C 
BRANCH   4   5
ATOM      5  O   UNL A   1      34.855  23.523  26.779  1.00  0.00    -0.376 OA
BRANCH   5   6
ATOM      6  C   UNL A   1      34.285  22.287  27.173  1.00  0.00     0.202 C 
BRANCH   6   7
ATOM      7  C   UNL A   1      32.766  22.164  27.437  1.00  0.00     0.261 C 
BRANCH   7   8
ATOM      8  O   UNL A   1      32.042  23.410  27.562  1.00  0.00    -0.462 OA
BRANCH   8   9
ATOM      9  C   UNL A   1      30.727  23.442  27.248  1.00  0.00     0.326 C 
ATOM     10  O   UNL A   1      29.880  22.742  27.795  1.00  0.00    -0.250 OA
BRANCH   9  11
ATOM     11  C   UNL A   1      30.360  24.493  26.159  1.00  0.00     0.248 C 
BRANCH  11  12
ATOM     12  N   UNL A   1      31.348  25.075  25.220  1.00  0.00    -0.295 N 
ATOM     13  C   UNL A   1      32.363  22.334  22.737  1.00  0.00     0.042 A 
ATOM     14  C   UNL A   1      33.330  23.030  22.006  1.00  0.00     0.018 A 
ATOM     15  C   UNL A   1      31.775  22.961  23.866  1.00  0.00     0.044 A 
ATOM     16  C   UNL A   1      33.627  24.354  22.323  1.00  0.00     0.049 A 
ATOM     17  C   UNL A   1      32.043  24.326  24.191  1.00  0.00     0.087 A 
ATOM     18  C   UNL A   1      32.974  25.002  23.381  1.00  0.00     0.143 A 
ATOM     19  O   UNL A   1      33.290  26.325  23.474  1.00  0.00    -0.482 OA
ATOM     20  C   UNL A   1      31.651  26.422  25.425  1.00  0.00     0.265 C 
ATOM     21  C   UNL A   1      32.808  26.992  24.615  1.00  0.00     0.330 C 
ATOM     22  O   UNL A   1      31.067  27.115  26.259  1.00  0.00    -0.270 OA
BRANCH  13  23
ATOM     23  C   UNL A   1      32.137  20.901  22.342  1.00  0.00     0.254 C 
ATOM     24  C   UNL A   1      35.069  16.914  24.742  1.00  0.00     0.332 C 
ATOM     25  N   UNL A   1      33.844  17.678  24.526  1.00  0.00    -0.334 N 
ATOM     26  C   UNL A   1      33.329  17.523  23.145  1.00  0.00     0.283 C 
ATOM     27  C   UNL A   1      34.064  19.102  24.843  1.00  0.00     0.283 C 
ATOM     28  H   UNL A   1      33.135  17.305  25.157  1.00  0.00     0.347 HD
ATOM     29  C   UNL A   1      32.128  18.448  22.792  1.00  0.00     0.181 C 
ATOM     30  C   UNL A   1      32.764  19.872  24.605  1.00  0.00     0.181 C 
ATOM     31  N   UNL A   1      32.372  19.830  23.207  1.00  0.00    -0.327 N 
ATOM     32  O   UNL A   1      31.665  20.737  21.216  1.00  0.00    -0.269 OA
ENDBRANCH  13  23
ENDBRANCH  11  12
ENDBRANCH   9  11
ENDBRANCH   8   9
ENDBRANCH   7   8
ENDBRANCH   6   7
ENDBRANCH   5   6
ENDBRANCH   4   5
ENDBRANCH   3   4
ENDBRANCH   2   3
ENDBRANCH   1   2
BRANCH   1  33
ATOM     33  C   UNL A   1      39.784  22.052  26.610  1.00  0.00     0.188 C 
BRANCH  33  34
ATOM     34  O   UNL A   1      39.799  23.096  27.592  1.00  0.00    -0.376 OA
BRANCH  34  35
ATOM     35  C   UNL A   1      40.243  24.406  27.274  1.00  0.00     0.202 C 
BRANCH  35  36
ATOM     36  C   UNL A   1      41.699  24.454  26.821  1.00  0.00     0.261 C 
BRANCH  36  37
ATOM     37  O   UNL A   1      42.490  25.133  27.786  1.00  0.00    -0.460 OA
BRANCH  37  38
ATOM     38  C   UNL A   1      42.963  26.335  27.374  1.00  0.00     0.338 C 
ATOM     39  O   UNL A   1      43.529  26.603  26.326  1.00  0.00    -0.246 OA
BRANCH  38  40
ATOM     40  C   UNL A   1      42.471  27.324  28.339  1.00  0.00     0.060 A 
ATOM     41  C   UNL A   1      43.087  28.582  28.381  1.00  0.00     0.016 A 
ATOM     42  C   UNL A   1      41.338  27.041  29.111  1.00  0.00     0.016 A 
ATOM     43  C   UNL A   1      42.575  29.566  29.215  1.00  0.00     0.010 A 
ATOM     44  C   UNL A   1      40.844  28.010  29.967  1.00  0.00     0.010 A 
ATOM     45  C   UNL A   1      41.494  29.251  30.046  1.00  0.00    -0.014 A 
BRANCH  45  46
ATOM     46  C   UNL A   1      41.266  30.057  31.251  1.00  0.00     0.031 A 
ATOM     47  C   UNL A   1      42.223  29.825  32.383  1.00  0.00     0.074 A 
ATOM     48  C   UNL A   1      40.242  30.918  31.323  1.00  0.00     0.049 A 
ATOM     49  N   UNL A   1      42.190  30.286  33.601  1.00  0.00    -0.248 NA
ATOM     50  C   UNL A   1      43.369  28.933  32.108  1.00  0.00     0.031 C 
ATOM     51  C   UNL A   1      39.307  31.224  30.240  1.00  0.00     0.029 A 
ATOM     52  N   UNL A   1      39.811  31.684  32.371  1.00  0.00    -0.354 N 
ATOM     53  C   UNL A   1      43.302  29.741  34.230  1.00  0.00     0.074 A 
ATOM     54  C   UNL A   1      43.971  28.885  33.284  1.00  0.00     0.031 C 
ATOM     55  C   UNL A   1      38.398  32.109  30.690  1.00  0.00     0.029 A 
ATOM     56  C   UNL A   1      38.665  32.390  32.097  1.00  0.00     0.049 A 
ATOM     57  H   UNL A   1      40.277  31.725  33.237  1.00  0.00     0.167 HD
ATOM     58  C   UNL A   1      43.729  29.951  35.493  1.00  0.00     0.031 A 
ATOM     59  C   UNL A   1      37.915  33.148  32.919  1.00  0.00     0.031 A 
ATOM     60  C   UNL A   1      43.022  30.787  36.418  1.00  0.00     0.049 A 
ATOM     61  C   UNL A   1      38.362  33.290  34.354  1.00  0.00     0.074 A 
ATOM     62  C   UNL A   1      43.330  31.071  37.732  1.00  0.00     0.029 A 
ATOM     63  N   UNL A   1      41.856  31.477  36.112  1.00  0.00    -0.354 N 
ATOM     64  N   UNL A   1      39.416  32.775  34.945  1.00  0.00    -0.248 NA
ATOM     65  C   UNL A   1      37.524  34.118  35.232  1.00  0.00     0.031 C 
ATOM     66  C   UNL A   1      42.321  31.893  38.238  1.00  0.00     0.029 A 
ATOM     67  C   UNL A   1      41.425  32.180  37.216  1.00  0.00     0.049 A 
ATOM     68  H   UNL A   1      41.405  31.464  35.236  1.00  0.00     0.167 HD
ATOM     69  C   UNL A   1      39.397  33.260  36.248  1.00  0.00     0.074 A 
ATOM     70  C   UNL A   1      38.226  34.105  36.358  1.00  0.00     0.031 C 
ATOM     71  C   UNL A   1      40.269  33.039  37.262  1.00  0.00     0.031 A 
BRANCH  58  72
ATOM     72  C   UNL A   1      44.983  29.254  35.935  1.00  0.00    -0.014 A 
ATOM     73  C   UNL A   1      46.246  29.849  35.756  1.00  0.00     0.010 A 
ATOM     74  C   UNL A   1      44.900  28.002  36.570  1.00  0.00     0.010 A 
ATOM     75  C   UNL A   1      47.402  29.201  36.192  1.00  0.00     0.020 A 
ATOM     76  C   UNL A   1      46.053  27.363  37.035  1.00  0.00     0.020 A 
ATOM     77  C   UNL A   1      47.298  27.966  36.837  1.00  0.00     0.054 A 
BRANCH  77  78
ATOM     78  S   UNL A   1      48.811  27.182  37.457  1.00  0.00     0.124 S 
ATOM     79  O   UNL A   1      48.319  26.456  38.627  1.00  0.00    -0.237 OA
ATOM     80  O   UNL A   1      49.220  26.349  36.329  1.00  0.00    -0.237 OA
ATOM     81  O   UNL A   1      49.693  28.309  37.749  1.00  0.00    -0.744 OA
ENDBRANCH  77  78
ENDBRANCH  58  72
BRANCH  59  82
ATOM     82  C   UNL A   1      36.675  33.806  32.425  1.00  0.00    -0.014 A 
ATOM     83  C   UNL A   1      36.307  35.082  32.888  1.00  0.00     0.010 A 
ATOM     84  C   UNL A   1      35.838  33.150  31.502  1.00  0.00     0.010 A 
ATOM     85  C   UNL A   1      35.107  35.668  32.474  1.00  0.00     0.020 A 
ATOM     86  C   UNL A   1      34.655  33.747  31.060  1.00  0.00     0.020 A 
ATOM     87  C   UNL A   1      34.285  34.994  31.567  1.00  0.00     0.054 A 
BRANCH  87  88
ATOM     88  S   UNL A   1      32.732  35.775  31.048  1.00  0.00     0.124 S 
ATOM     89  O   UNL A   1      33.158  37.145  30.780  1.00  0.00    -0.237 OA
ATOM     90  O   UNL A   1      32.359  34.986  29.877  1.00  0.00    -0.237 OA
ATOM     91  O   UNL A   1      31.860  35.607  32.209  1.00  0.00    -0.744 OA
ENDBRANCH  87  88
ENDBRANCH  59  82
BRANCH  71  92
ATOM     92  C   UNL A   1      40.047  33.785  38.547  1.00  0.00    -0.014 A 
ATOM     93  C   UNL A   1      39.323  33.218  39.609  1.00  0.00     0.010 A 
ATOM     94  C   UNL A   1      40.681  35.029  38.725  1.00  0.00     0.010 A 
ATOM     95  C   UNL A   1      39.231  33.892  40.828  1.00  0.00     0.020 A 
ATOM     96  C   UNL A   1      40.617  35.687  39.951  1.00  0.00     0.020 A 
ATOM     97  C   UNL A   1      39.887  35.117  40.995  1.00  0.00     0.054 A 
BRANCH  97  98
ATOM     98  S   UNL A   1      39.825  35.923  42.616  1.00  0.00     0.124 S 
ATOM     99  O   UNL A   1      40.440  37.218  42.335  1.00  0.00    -0.237 OA
ATOM    100  O   UNL A   1      38.393  35.955  42.901  1.00  0.00    -0.237 OA
ATOM    101  O   UNL A   1      40.606  35.036  43.476  1.00  0.00    -0.744 OA
ENDBRANCH  97  98
ENDBRANCH  71  92
ENDBRANCH  45  46
ENDBRANCH  38  40
ENDBRANCH  37  38
ENDBRANCH  36  37
ENDBRANCH  35  36
ENDBRANCH  34  35
ENDBRANCH  33  34
ENDBRANCH   1  33
TORSDOF 25
ENDMDL
