MODEL 1
REMARK VINA RESULT:      -7.7      0.000      0.000
REMARK SMILES CCCC[C@H](NS(=O)(=O)c1cccc(F)c1)C(=O)OCCOCCOCCOCCOC(=O)c1ccc(-c2c3nc(c(-c4ccc(S(=O)(=O)[O-])cc4)c4ccc([nH]4)c(-c4ccc(S(=O)(=O)[O-])cc4)c4nc(c(-c5ccc(S(=O)(=O)[O-])cc5)c5ccc2[nH]5)C=C4)C=C3)cc1
REMARK SMILES IDX 25 1 24 2 23 3 22 4 21 5 20 6 19 7 17 8 18 9 5 10 4 11 3 12
REMARK SMILES IDX 2 13 1 14 6 15 7 17 8 18 9 19 10 20 11 21 16 22 12 23 14 24
REMARK SMILES IDX 13 25 15 26 26 27 27 28 28 29 29 30 30 31 31 32 32 33 33 34
REMARK SMILES IDX 34 35 35 36 93 37 36 38 92 39 37 40 38 41 39 42 86 43 40 44
REMARK SMILES IDX 91 45 85 46 87 47 41 48 90 49 84 50 83 51 42 53 72 54 53 55
REMARK SMILES IDX 71 56 54 57 57 58 70 59 88 60 55 61 56 62 69 64 89 65 58 66
REMARK SMILES IDX 43 67 44 68 52 69 45 70 51 71 46 72 47 73 48 74 49 75 50 76
REMARK SMILES IDX 73 77 74 78 82 79 75 80 81 81 76 82 77 83 78 84 79 85 80 86
REMARK SMILES IDX 59 87 60 88 68 89 61 90 67 91 62 92 63 93 64 94 65 95 66 96
REMARK H PARENT 6 16 87 52 57 63
REMARK Flexibility Score: inf
ROOT
ATOM      1  O   UNL A   1      33.826  32.978  28.853  1.00  0.00    -0.377 OA
ENDROOT
BRANCH   1   2
ATOM      2  C   UNL A   1      35.024  32.398  28.363  1.00  0.00     0.188 C 
BRANCH   2   3
ATOM      3  C   UNL A   1      34.820  31.079  27.597  1.00  0.00     0.188 C 
BRANCH   3   4
ATOM      4  O   UNL A   1      33.508  30.512  27.624  1.00  0.00    -0.376 OA
BRANCH   4   5
ATOM      5  C   UNL A   1      32.489  31.184  26.891  1.00  0.00     0.202 C 
BRANCH   5   6
ATOM      6  C   UNL A   1      31.722  30.365  25.840  1.00  0.00     0.261 C 
BRANCH   6   7
ATOM      7  O   UNL A   1      32.224  29.023  25.618  1.00  0.00    -0.462 OA
BRANCH   7   8
ATOM      8  C   UNL A   1      32.488  28.694  24.315  1.00  0.00     0.324 C 
ATOM      9  O   UNL A   1      33.239  29.331  23.583  1.00  0.00    -0.250 OA
BRANCH   8  10
ATOM     10  C   UNL A   1      31.692  27.487  23.806  1.00  0.00     0.179 C 
BRANCH  10  11
ATOM     11  C   UNL A   1      30.833  27.929  22.616  1.00  0.00     0.032 C 
BRANCH  11  12
ATOM     12  C   UNL A   1      29.388  28.371  22.896  1.00  0.00     0.002 C 
BRANCH  12  13
ATOM     13  C   UNL A   1      29.082  29.878  22.867  1.00  0.00    -0.003 C 
ATOM     14  C   UNL A   1      27.644  30.263  23.173  1.00  0.00     0.004 C 
ENDBRANCH  12  13
ENDBRANCH  11  12
ENDBRANCH  10  11
BRANCH  10  15
ATOM     15  N   UNL A   1      30.900  26.785  24.829  1.00  0.00    -0.197 NA
ATOM     16  H   UNL A   1      29.933  27.088  24.721  1.00  0.00     0.142 HD
BRANCH  15  17
ATOM     17  S   UNL A   1      30.898  25.089  24.826  1.00  0.00     0.241 S 
ATOM     18  O   UNL A   1      30.526  24.651  26.149  1.00  0.00    -0.207 OA
ATOM     19  O   UNL A   1      30.249  24.587  23.635  1.00  0.00    -0.207 OA
BRANCH  17  20
ATOM     20  C   UNL A   1      32.629  24.847  24.655  1.00  0.00     0.085 A 
ATOM     21  C   UNL A   1      33.505  24.941  25.741  1.00  0.00     0.022 A 
ATOM     22  C   UNL A   1      33.029  24.321  23.443  1.00  0.00     0.061 A 
ATOM     23  C   UNL A   1      34.784  24.394  25.631  1.00  0.00     0.004 A 
ATOM     24  C   UNL A   1      34.270  23.750  23.380  1.00  0.00     0.124 A 
ATOM     25  C   UNL A   1      35.156  23.762  24.450  1.00  0.00     0.039 A 
ATOM     26  F   UNL A   1      34.518  23.057  22.282  1.00  0.00    -0.207 F 
ENDBRANCH  17  20
ENDBRANCH  15  17
ENDBRANCH  10  15
ENDBRANCH   8  10
ENDBRANCH   7   8
ENDBRANCH   6   7
ENDBRANCH   5   6
ENDBRANCH   4   5
ENDBRANCH   3   4
ENDBRANCH   2   3
ENDBRANCH   1   2
BRANCH   1  27
ATOM     27  C   UNL A   1      33.987  34.135  29.655  1.00  0.00     0.188 C 
BRANCH  27  28
ATOM     28  C   UNL A   1      35.445  34.307  30.132  1.00  0.00     0.188 C 
BRANCH  28  29
ATOM     29  O   UNL A   1      35.565  34.698  31.497  1.00  0.00    -0.376 OA
BRANCH  29  30
ATOM     30  C   UNL A   1      34.481  34.366  32.370  1.00  0.00     0.202 C 
BRANCH  30  31
ATOM     31  C   UNL A   1      34.670  33.098  33.239  1.00  0.00     0.261 C 
BRANCH  31  32
ATOM     32  O   UNL A   1      35.623  32.184  32.693  1.00  0.00    -0.460 OA
BRANCH  32  33
ATOM     33  C   UNL A   1      36.720  32.091  33.466  1.00  0.00     0.338 C 
ATOM     34  O   UNL A   1      36.759  32.082  34.686  1.00  0.00    -0.246 OA
BRANCH  33  35
ATOM     35  C   UNL A   1      37.886  31.784  32.641  1.00  0.00     0.060 A 
ATOM     36  C   UNL A   1      39.009  31.331  33.335  1.00  0.00     0.016 A 
ATOM     37  C   UNL A   1      37.929  32.063  31.273  1.00  0.00     0.016 A 
ATOM     38  C   UNL A   1      40.217  31.226  32.680  1.00  0.00     0.010 A 
ATOM     39  C   UNL A   1      39.158  31.997  30.618  1.00  0.00     0.010 A 
ATOM     40  C   UNL A   1      40.306  31.642  31.347  1.00  0.00    -0.014 A 
BRANCH  40  41
ATOM     41  C   UNL A   1      41.664  31.951  30.872  1.00  0.00     0.031 A 
ATOM     42  C   UNL A   1      42.341  30.941  29.987  1.00  0.00     0.074 A 
ATOM     43  C   UNL A   1      42.161  33.183  31.049  1.00  0.00     0.049 A 
ATOM     44  N   UNL A   1      43.439  31.058  29.292  1.00  0.00    -0.248 NA
ATOM     45  C   UNL A   1      41.674  29.634  29.843  1.00  0.00     0.031 C 
ATOM     46  C   UNL A   1      41.511  34.251  31.810  1.00  0.00     0.029 A 
ATOM     47  N   UNL A   1      43.303  33.755  30.562  1.00  0.00    -0.354 N 
ATOM     48  C   UNL A   1      43.596  29.844  28.632  1.00  0.00     0.074 A 
ATOM     49  C   UNL A   1      42.496  28.995  29.024  1.00  0.00     0.031 C 
ATOM     50  C   UNL A   1      42.263  35.361  31.725  1.00  0.00     0.029 A 
ATOM     51  C   UNL A   1      43.455  35.067  30.933  1.00  0.00     0.049 A 
ATOM     52  H   UNL A   1      43.952  33.274  30.000  1.00  0.00     0.167 HD
ATOM     53  C   UNL A   1      44.575  29.476  27.774  1.00  0.00     0.031 A 
ATOM     54  C   UNL A   1      44.456  35.926  30.667  1.00  0.00     0.031 A 
ATOM     55  C   UNL A   1      45.675  30.333  27.417  1.00  0.00     0.049 A 
ATOM     56  C   UNL A   1      45.578  35.462  29.779  1.00  0.00     0.074 A 
ATOM     57  C   UNL A   1      46.739  30.066  26.578  1.00  0.00     0.029 A 
ATOM     58  N   UNL A   1      45.851  31.626  27.893  1.00  0.00    -0.354 N 
ATOM     59  N   UNL A   1      45.726  34.308  29.170  1.00  0.00    -0.248 NA
ATOM     60  C   UNL A   1      46.657  36.423  29.528  1.00  0.00     0.031 C 
ATOM     61  C   UNL A   1      47.597  31.171  26.602  1.00  0.00     0.029 A 
ATOM     62  C   UNL A   1      47.026  32.159  27.390  1.00  0.00     0.049 A 
ATOM     63  H   UNL A   1      45.233  32.095  28.499  1.00  0.00     0.167 HD
ATOM     64  C   UNL A   1      46.905  34.412  28.442  1.00  0.00     0.074 A 
ATOM     65  C   UNL A   1      47.412  35.752  28.670  1.00  0.00     0.031 C 
ATOM     66  C   UNL A   1      47.515  33.490  27.653  1.00  0.00     0.031 A 
BRANCH  53  67
ATOM     67  C   UNL A   1      44.537  28.071  27.233  1.00  0.00    -0.014 A 
ATOM     68  C   UNL A   1      43.927  27.763  26.003  1.00  0.00     0.010 A 
ATOM     69  C   UNL A   1      45.141  27.036  27.972  1.00  0.00     0.010 A 
ATOM     70  C   UNL A   1      43.892  26.443  25.540  1.00  0.00     0.020 A 
ATOM     71  C   UNL A   1      45.135  25.722  27.498  1.00  0.00     0.020 A 
ATOM     72  C   UNL A   1      44.498  25.431  26.291  1.00  0.00     0.054 A 
BRANCH  72  73
ATOM     73  S   UNL A   1      44.461  23.732  25.657  1.00  0.00     0.124 S 
ATOM     74  O   UNL A   1      44.924  23.911  24.284  1.00  0.00    -0.237 OA
ATOM     75  O   UNL A   1      45.389  23.039  26.548  1.00  0.00    -0.237 OA
ATOM     76  O   UNL A   1      43.060  23.339  25.794  1.00  0.00    -0.744 OA
ENDBRANCH  72  73
ENDBRANCH  53  67
BRANCH  54  77
ATOM     77  C   UNL A   1      44.444  37.282  31.277  1.00  0.00    -0.014 A 
ATOM     78  C   UNL A   1      43.955  38.397  30.578  1.00  0.00     0.010 A 
ATOM     79  C   UNL A   1      44.917  37.454  32.592  1.00  0.00     0.010 A 
ATOM     80  C   UNL A   1      43.952  39.661  31.178  1.00  0.00     0.020 A 
ATOM     81  C   UNL A   1      44.885  38.706  33.207  1.00  0.00     0.020 A 
ATOM     82  C   UNL A   1      44.412  39.806  32.491  1.00  0.00     0.054 A 
BRANCH  82  83
ATOM     83  S   UNL A   1      44.344  41.441  33.271  1.00  0.00     0.124 S 
ATOM     84  O   UNL A   1      43.020  41.431  33.883  1.00  0.00    -0.237 OA
ATOM     85  O   UNL A   1      45.473  41.393  34.196  1.00  0.00    -0.237 OA
ATOM     86  O   UNL A   1      44.510  42.362  32.148  1.00  0.00    -0.744 OA
ENDBRANCH  82  83
ENDBRANCH  54  77
BRANCH  66  87
ATOM     87  C   UNL A   1      48.779  33.922  26.957  1.00  0.00    -0.014 A 
ATOM     88  C   UNL A   1      50.047  33.672  27.511  1.00  0.00     0.010 A 
ATOM     89  C   UNL A   1      48.691  34.585  25.719  1.00  0.00     0.010 A 
ATOM     90  C   UNL A   1      51.199  34.138  26.874  1.00  0.00     0.020 A 
ATOM     91  C   UNL A   1      49.842  35.017  25.059  1.00  0.00     0.020 A 
ATOM     92  C   UNL A   1      51.087  34.816  25.656  1.00  0.00     0.054 A 
BRANCH  92  93
ATOM     93  S   UNL A   1      52.595  35.424  24.854  1.00  0.00     0.124 S 
ATOM     94  O   UNL A   1      53.633  34.953  25.767  1.00  0.00    -0.237 OA
ATOM     95  O   UNL A   1      52.554  34.763  23.553  1.00  0.00    -0.237 OA
ATOM     96  O   UNL A   1      52.409  36.873  24.819  1.00  0.00    -0.744 OA
ENDBRANCH  92  93
ENDBRANCH  66  87
ENDBRANCH  40  41
ENDBRANCH  33  35
ENDBRANCH  32  33
ENDBRANCH  31  32
ENDBRANCH  30  31
ENDBRANCH  29  30
ENDBRANCH  28  29
ENDBRANCH  27  28
ENDBRANCH   1  27
TORSDOF 29
ENDMDL
MODEL 2
REMARK VINA RESULT:      -7.2      5.452      7.735
REMARK SMILES CCCC[C@H](NS(=O)(=O)c1cccc(F)c1)C(=O)OCCOCCOCCOCCOC(=O)c1ccc(-c2c3nc(c(-c4ccc(S(=O)(=O)[O-])cc4)c4ccc([nH]4)c(-c4ccc(S(=O)(=O)[O-])cc4)c4nc(c(-c5ccc(S(=O)(=O)[O-])cc5)c5ccc2[nH]5)C=C4)C=C3)cc1
REMARK SMILES IDX 25 1 24 2 23 3 22 4 21 5 20 6 19 7 17 8 18 9 5 10 4 11 3 12
REMARK SMILES IDX 2 13 1 14 6 15 7 17 8 18 9 19 10 20 11 21 16 22 12 23 14 24
REMARK SMILES IDX 13 25 15 26 26 27 27 28 28 29 29 30 30 31 31 32 32 33 33 34
REMARK SMILES IDX 34 35 35 36 93 37 36 38 92 39 37 40 38 41 39 42 86 43 40 44
REMARK SMILES IDX 91 45 85 46 87 47 41 48 90 49 84 50 83 51 42 53 72 54 53 55
REMARK SMILES IDX 71 56 54 57 57 58 70 59 88 60 55 61 56 62 69 64 89 65 58 66
REMARK SMILES IDX 43 67 44 68 52 69 45 70 51 71 46 72 47 73 48 74 49 75 50 76
REMARK SMILES IDX 73 77 74 78 82 79 75 80 81 81 76 82 77 83 78 84 79 85 80 86
REMARK SMILES IDX 59 87 60 88 68 89 61 90 67 91 62 92 63 93 64 94 65 95 66 96
REMARK H PARENT 6 16 87 52 57 63
REMARK Flexibility Score: inf
ROOT
ATOM      1  O   UNL A   1      38.968  30.443  31.003  1.00  0.00    -0.377 OA
ENDROOT
BRANCH   1   2
ATOM      2  C   UNL A   1      39.547  30.018  29.780  1.00  0.00     0.188 C 
BRANCH   2   3
ATOM      3  C   UNL A   1      39.634  28.489  29.620  1.00  0.00     0.188 C 
BRANCH   3   4
ATOM      4  O   UNL A   1      39.513  27.970  28.295  1.00  0.00    -0.376 OA
BRANCH   4   5
ATOM      5  C   UNL A   1      39.849  28.839  27.218  1.00  0.00     0.202 C 
BRANCH   5   6
ATOM      6  C   UNL A   1      41.328  28.903  26.802  1.00  0.00     0.261 C 
BRANCH   6   7
ATOM      7  O   UNL A   1      42.050  27.649  26.896  1.00  0.00    -0.462 OA
BRANCH   7   8
ATOM      8  C   UNL A   1      42.426  27.089  25.705  1.00  0.00     0.324 C 
ATOM      9  O   UNL A   1      42.277  27.628  24.613  1.00  0.00    -0.250 OA
BRANCH   8  10
ATOM     10  C   UNL A   1      42.987  25.668  25.836  1.00  0.00     0.179 C 
BRANCH  10  11
ATOM     11  C   UNL A   1      44.371  25.622  25.178  1.00  0.00     0.032 C 
BRANCH  11  12
ATOM     12  C   UNL A   1      45.575  25.253  26.059  1.00  0.00     0.002 C 
BRANCH  12  13
ATOM     13  C   UNL A   1      46.606  24.267  25.487  1.00  0.00    -0.003 C 
ATOM     14  C   UNL A   1      47.574  24.844  24.466  1.00  0.00     0.004 C 
ENDBRANCH  12  13
ENDBRANCH  11  12
ENDBRANCH  10  11
BRANCH  10  15
ATOM     15  N   UNL A   1      42.105  24.600  25.342  1.00  0.00    -0.197 NA
ATOM     16  H   UNL A   1      42.697  23.908  24.884  1.00  0.00     0.142 HD
BRANCH  15  17
ATOM     17  S   UNL A   1      41.136  23.770  26.459  1.00  0.00     0.241 S 
ATOM     18  O   UNL A   1      40.101  24.674  26.896  1.00  0.00    -0.207 OA
ATOM     19  O   UNL A   1      40.846  22.435  25.983  1.00  0.00    -0.207 OA
BRANCH  17  20
ATOM     20  C   UNL A   1      42.316  23.649  27.755  1.00  0.00     0.085 A 
ATOM     21  C   UNL A   1      43.417  22.791  27.681  1.00  0.00     0.022 A 
ATOM     22  C   UNL A   1      42.220  24.625  28.726  1.00  0.00     0.061 A 
ATOM     23  C   UNL A   1      44.495  22.992  28.545  1.00  0.00     0.004 A 
ATOM     24  C   UNL A   1      43.310  24.831  29.526  1.00  0.00     0.124 A 
ATOM     25  C   UNL A   1      44.453  24.045  29.453  1.00  0.00     0.039 A 
ATOM     26  F   UNL A   1      43.263  25.919  30.275  1.00  0.00    -0.207 F 
ENDBRANCH  17  20
ENDBRANCH  15  17
ENDBRANCH  10  15
ENDBRANCH   8  10
ENDBRANCH   7   8
ENDBRANCH   6   7
ENDBRANCH   5   6
ENDBRANCH   4   5
ENDBRANCH   3   4
ENDBRANCH   2   3
ENDBRANCH   1   2
BRANCH   1  27
ATOM     27  C   UNL A   1      38.016  31.489  30.900  1.00  0.00     0.188 C 
BRANCH  27  28
ATOM     28  C   UNL A   1      36.633  31.062  31.437  1.00  0.00     0.188 C 
BRANCH  28  29
ATOM     29  O   UNL A   1      36.285  31.665  32.680  1.00  0.00    -0.376 OA
BRANCH  29  30
ATOM     30  C   UNL A   1      36.973  32.866  33.040  1.00  0.00     0.202 C 
BRANCH  30  31
ATOM     31  C   UNL A   1      38.061  32.726  34.134  1.00  0.00     0.261 C 
BRANCH  31  32
ATOM     32  O   UNL A   1      37.572  33.011  35.447  1.00  0.00    -0.460 OA
BRANCH  32  33
ATOM     33  C   UNL A   1      37.961  32.077  36.333  1.00  0.00     0.338 C 
ATOM     34  O   UNL A   1      37.401  31.776  37.375  1.00  0.00    -0.246 OA
BRANCH  33  35
ATOM     35  C   UNL A   1      39.062  31.293  35.780  1.00  0.00     0.060 A 
ATOM     36  C   UNL A   1      40.337  31.654  36.219  1.00  0.00     0.016 A 
ATOM     37  C   UNL A   1      38.872  30.346  34.770  1.00  0.00     0.016 A 
ATOM     38  C   UNL A   1      41.446  31.128  35.595  1.00  0.00     0.010 A 
ATOM     39  C   UNL A   1      39.993  29.843  34.110  1.00  0.00     0.010 A 
ATOM     40  C   UNL A   1      41.270  30.292  34.486  1.00  0.00    -0.014 A 
BRANCH  40  41
ATOM     41  C   UNL A   1      42.440  30.159  33.604  1.00  0.00     0.031 A 
ATOM     42  C   UNL A   1      43.171  28.845  33.604  1.00  0.00     0.074 A 
ATOM     43  C   UNL A   1      42.684  31.105  32.685  1.00  0.00     0.049 A 
ATOM     44  N   UNL A   1      44.097  28.415  32.791  1.00  0.00    -0.248 NA
ATOM     45  C   UNL A   1      42.783  27.873  34.643  1.00  0.00     0.031 C 
ATOM     46  C   UNL A   1      41.949  32.363  32.557  1.00  0.00     0.029 A 
ATOM     47  N   UNL A   1      43.588  31.130  31.660  1.00  0.00    -0.354 N 
ATOM     48  C   UNL A   1      44.404  27.129  33.220  1.00  0.00     0.074 A 
ATOM     49  C   UNL A   1      43.585  26.853  34.377  1.00  0.00     0.031 C 
ATOM     50  C   UNL A   1      42.424  33.034  31.495  1.00  0.00     0.029 A 
ATOM     51  C   UNL A   1      43.512  32.267  30.896  1.00  0.00     0.049 A 
ATOM     52  H   UNL A   1      44.228  30.403  31.486  1.00  0.00     0.167 HD
ATOM     53  C   UNL A   1      45.293  26.258  32.689  1.00  0.00     0.031 A 
ATOM     54  C   UNL A   1      44.253  32.643  29.837  1.00  0.00     0.031 A 
ATOM     55  C   UNL A   1      46.115  26.567  31.549  1.00  0.00     0.049 A 
ATOM     56  C   UNL A   1      45.296  31.691  29.321  1.00  0.00     0.074 A 
ATOM     57  C   UNL A   1      47.068  25.777  30.934  1.00  0.00     0.029 A 
ATOM     58  N   UNL A   1      46.084  27.771  30.859  1.00  0.00    -0.354 N 
ATOM     59  N   UNL A   1      45.590  30.481  29.740  1.00  0.00    -0.248 NA
ATOM     60  C   UNL A   1      46.092  32.146  28.177  1.00  0.00     0.031 C 
ATOM     61  C   UNL A   1      47.664  26.531  29.918  1.00  0.00     0.029 A 
ATOM     62  C   UNL A   1      47.025  27.759  29.844  1.00  0.00     0.049 A 
ATOM     63  H   UNL A   1      45.482  28.523  31.062  1.00  0.00     0.167 HD
ATOM     64  C   UNL A   1      46.591  30.019  28.894  1.00  0.00     0.074 A 
ATOM     65  C   UNL A   1      46.830  31.074  27.927  1.00  0.00     0.031 C 
ATOM     66  C   UNL A   1      47.253  28.834  28.909  1.00  0.00     0.031 A 
BRANCH  53  67
ATOM     67  C   UNL A   1      45.472  24.934  33.384  1.00  0.00    -0.014 A 
ATOM     68  C   UNL A   1      44.564  23.873  33.209  1.00  0.00     0.010 A 
ATOM     69  C   UNL A   1      46.586  24.745  34.222  1.00  0.00     0.010 A 
ATOM     70  C   UNL A   1      44.749  22.662  33.886  1.00  0.00     0.020 A 
ATOM     71  C   UNL A   1      46.792  23.527  34.876  1.00  0.00     0.020 A 
ATOM     72  C   UNL A   1      45.864  22.497  34.715  1.00  0.00     0.054 A 
BRANCH  72  73
ATOM     73  S   UNL A   1      46.096  20.910  35.560  1.00  0.00     0.124 S 
ATOM     74  O   UNL A   1      45.962  21.291  36.964  1.00  0.00    -0.237 OA
ATOM     75  O   UNL A   1      45.005  20.100  35.022  1.00  0.00    -0.237 OA
ATOM     76  O   UNL A   1      47.436  20.492  35.155  1.00  0.00    -0.744 OA
ENDBRANCH  72  73
ENDBRANCH  53  67
BRANCH  54  77
ATOM     77  C   UNL A   1      44.048  33.987  29.236  1.00  0.00    -0.014 A 
ATOM     78  C   UNL A   1      43.057  34.214  28.267  1.00  0.00     0.010 A 
ATOM     79  C   UNL A   1      44.850  35.065  29.658  1.00  0.00     0.010 A 
ATOM     80  C   UNL A   1      42.883  35.490  27.721  1.00  0.00     0.020 A 
ATOM     81  C   UNL A   1      44.658  36.346  29.140  1.00  0.00     0.020 A 
ATOM     82  C   UNL A   1      43.681  36.549  28.165  1.00  0.00     0.054 A 
BRANCH  82  83
ATOM     83  S   UNL A   1      43.399  38.207  27.487  1.00  0.00     0.124 S 
ATOM     84  O   UNL A   1      43.155  38.991  28.694  1.00  0.00    -0.237 OA
ATOM     85  O   UNL A   1      44.656  38.480  26.796  1.00  0.00    -0.237 OA
ATOM     86  O   UNL A   1      42.243  38.027  26.612  1.00  0.00    -0.744 OA
ENDBRANCH  82  83
ENDBRANCH  54  77
BRANCH  66  87
ATOM     87  C   UNL A   1      48.272  28.612  27.822  1.00  0.00    -0.014 A 
ATOM     88  C   UNL A   1      49.632  28.914  28.014  1.00  0.00     0.010 A 
ATOM     89  C   UNL A   1      47.856  28.082  26.587  1.00  0.00     0.010 A 
ATOM     90  C   UNL A   1      50.544  28.756  26.968  1.00  0.00     0.020 A 
ATOM     91  C   UNL A   1      48.771  27.885  25.552  1.00  0.00     0.020 A 
ATOM     92  C   UNL A   1      50.104  28.250  25.741  1.00  0.00     0.054 A 
BRANCH  92  93
ATOM     93  S   UNL A   1      51.303  28.067  24.394  1.00  0.00     0.124 S 
ATOM     94  O   UNL A   1      51.614  29.457  24.075  1.00  0.00    -0.237 OA
ATOM     95  O   UNL A   1      52.381  27.310  25.025  1.00  0.00    -0.237 OA
ATOM     96  O   UNL A   1      50.560  27.344  23.364  1.00  0.00    -0.744 OA
ENDBRANCH  92  93
ENDBRANCH  66  87
ENDBRANCH  40  41
ENDBRANCH  33  35
ENDBRANCH  32  33
ENDBRANCH  31  32
ENDBRANCH  30  31
ENDBRANCH  29  30
ENDBRANCH  28  29
ENDBRANCH  27  28
ENDBRANCH   1  27
TORSDOF 29
ENDMDL
MODEL 3
REMARK VINA RESULT:      -6.9      5.395     11.512
REMARK SMILES CCCC[C@H](NS(=O)(=O)c1cccc(F)c1)C(=O)OCCOCCOCCOCCOC(=O)c1ccc(-c2c3nc(c(-c4ccc(S(=O)(=O)[O-])cc4)c4ccc([nH]4)c(-c4ccc(S(=O)(=O)[O-])cc4)c4nc(c(-c5ccc(S(=O)(=O)[O-])cc5)c5ccc2[nH]5)C=C4)C=C3)cc1
REMARK SMILES IDX 25 1 24 2 23 3 22 4 21 5 20 6 19 7 17 8 18 9 5 10 4 11 3 12
REMARK SMILES IDX 2 13 1 14 6 15 7 17 8 18 9 19 10 20 11 21 16 22 12 23 14 24
REMARK SMILES IDX 13 25 15 26 26 27 27 28 28 29 29 30 30 31 31 32 32 33 33 34
REMARK SMILES IDX 34 35 35 36 93 37 36 38 92 39 37 40 38 41 39 42 86 43 40 44
REMARK SMILES IDX 91 45 85 46 87 47 41 48 90 49 84 50 83 51 42 53 72 54 53 55
REMARK SMILES IDX 71 56 54 57 57 58 70 59 88 60 55 61 56 62 69 64 89 65 58 66
REMARK SMILES IDX 43 67 44 68 52 69 45 70 51 71 46 72 47 73 48 74 49 75 50 76
REMARK SMILES IDX 73 77 74 78 82 79 75 80 81 81 76 82 77 83 78 84 79 85 80 86
REMARK SMILES IDX 59 87 60 88 68 89 61 90 67 91 62 92 63 93 64 94 65 95 66 96
REMARK H PARENT 6 16 87 52 57 63
REMARK Flexibility Score: inf
ROOT
ATOM      1  O   UNL A   1      41.747  34.893  29.665  1.00  0.00    -0.377 OA
ENDROOT
BRANCH   1   2
ATOM      2  C   UNL A   1      40.912  33.764  29.867  1.00  0.00     0.188 C 
BRANCH   2   3
ATOM      3  C   UNL A   1      39.653  34.052  30.704  1.00  0.00     0.188 C 
BRANCH   3   4
ATOM      4  O   UNL A   1      39.839  34.240  32.108  1.00  0.00    -0.376 OA
BRANCH   4   5
ATOM      5  C   UNL A   1      38.672  34.298  32.921  1.00  0.00     0.202 C 
BRANCH   5   6
ATOM      6  C   UNL A   1      37.377  34.796  32.258  1.00  0.00     0.261 C 
BRANCH   6   7
ATOM      7  O   UNL A   1      36.151  34.264  32.822  1.00  0.00    -0.462 OA
BRANCH   7   8
ATOM      8  C   UNL A   1      35.507  33.323  32.064  1.00  0.00     0.324 C 
ATOM      9  O   UNL A   1      35.338  32.158  32.409  1.00  0.00    -0.250 OA
BRANCH   8  10
ATOM     10  C   UNL A   1      35.073  33.830  30.683  1.00  0.00     0.179 C 
BRANCH  10  11
ATOM     11  C   UNL A   1      34.286  35.134  30.862  1.00  0.00     0.032 C 
BRANCH  11  12
ATOM     12  C   UNL A   1      32.893  35.051  31.507  1.00  0.00     0.002 C 
BRANCH  12  13
ATOM     13  C   UNL A   1      32.401  36.268  32.308  1.00  0.00    -0.003 C 
ATOM     14  C   UNL A   1      30.996  36.157  32.877  1.00  0.00     0.004 C 
ENDBRANCH  12  13
ENDBRANCH  11  12
ENDBRANCH  10  11
BRANCH  10  15
ATOM     15  N   UNL A   1      34.343  32.852  29.861  1.00  0.00    -0.197 NA
ATOM     16  H   UNL A   1      33.430  32.718  30.293  1.00  0.00     0.142 HD
BRANCH  15  17
ATOM     17  S   UNL A   1      34.075  33.212  28.225  1.00  0.00     0.241 S 
ATOM     18  O   UNL A   1      32.727  33.709  28.103  1.00  0.00    -0.207 OA
ATOM     19  O   UNL A   1      35.211  33.915  27.670  1.00  0.00    -0.207 OA
BRANCH  17  20
ATOM     20  C   UNL A   1      34.092  31.567  27.612  1.00  0.00     0.085 A 
ATOM     21  C   UNL A   1      35.227  30.756  27.686  1.00  0.00     0.022 A 
ATOM     22  C   UNL A   1      32.853  31.053  27.283  1.00  0.00     0.061 A 
ATOM     23  C   UNL A   1      35.089  29.376  27.527  1.00  0.00     0.004 A 
ATOM     24  C   UNL A   1      32.738  29.694  27.181  1.00  0.00     0.124 A 
ATOM     25  C   UNL A   1      33.826  28.838  27.307  1.00  0.00     0.039 A 
ATOM     26  F   UNL A   1      31.502  29.236  27.099  1.00  0.00    -0.207 F 
ENDBRANCH  17  20
ENDBRANCH  15  17
ENDBRANCH  10  15
ENDBRANCH   8  10
ENDBRANCH   7   8
ENDBRANCH   6   7
ENDBRANCH   5   6
ENDBRANCH   4   5
ENDBRANCH   3   4
ENDBRANCH   2   3
ENDBRANCH   1   2
BRANCH   1  27
ATOM     27  C   UNL A   1      41.534  35.607  28.460  1.00  0.00     0.188 C 
BRANCH  27  28
ATOM     28  C   UNL A   1      42.397  36.885  28.387  1.00  0.00     0.188 C 
BRANCH  28  29
ATOM     29  O   UNL A   1      43.537  36.765  27.540  1.00  0.00    -0.376 OA
BRANCH  29  30
ATOM     30  C   UNL A   1      44.507  37.815  27.595  1.00  0.00     0.202 C 
BRANCH  30  31
ATOM     31  C   UNL A   1      45.676  37.718  26.585  1.00  0.00     0.261 C 
BRANCH  31  32
ATOM     32  O   UNL A   1      45.859  36.398  26.068  1.00  0.00    -0.460 OA
BRANCH  32  33
ATOM     33  C   UNL A   1      46.889  35.772  26.665  1.00  0.00     0.338 C 
ATOM     34  O   UNL A   1      48.073  36.056  26.574  1.00  0.00    -0.246 OA
BRANCH  33  35
ATOM     35  C   UNL A   1      46.387  34.800  27.634  1.00  0.00     0.060 A 
ATOM     36  C   UNL A   1      46.892  34.928  28.928  1.00  0.00     0.016 A 
ATOM     37  C   UNL A   1      45.574  33.727  27.263  1.00  0.00     0.016 A 
ATOM     38  C   UNL A   1      46.653  33.936  29.853  1.00  0.00     0.010 A 
ATOM     39  C   UNL A   1      45.365  32.701  28.185  1.00  0.00     0.010 A 
ATOM     40  C   UNL A   1      45.965  32.785  29.453  1.00  0.00    -0.014 A 
BRANCH  40  41
ATOM     41  C   UNL A   1      46.157  31.604  30.310  1.00  0.00     0.031 A 
ATOM     42  C   UNL A   1      45.079  31.282  31.308  1.00  0.00     0.074 A 
ATOM     43  C   UNL A   1      47.148  30.744  30.036  1.00  0.00     0.049 A 
ATOM     44  N   UNL A   1      44.920  30.208  32.032  1.00  0.00    -0.248 NA
ATOM     45  C   UNL A   1      44.023  32.294  31.491  1.00  0.00     0.031 C 
ATOM     46  C   UNL A   1      48.173  30.941  29.009  1.00  0.00     0.029 A 
ATOM     47  N   UNL A   1      47.425  29.515  30.566  1.00  0.00    -0.354 N 
ATOM     48  C   UNL A   1      43.752  30.415  32.757  1.00  0.00     0.074 A 
ATOM     49  C   UNL A   1      43.252  31.723  32.404  1.00  0.00     0.031 C 
ATOM     50  C   UNL A   1      48.962  29.855  28.975  1.00  0.00     0.029 A 
ATOM     51  C   UNL A   1      48.516  28.910  29.994  1.00  0.00     0.049 A 
ATOM     52  H   UNL A   1      46.895  29.105  31.286  1.00  0.00     0.167 HD
ATOM     53  C   UNL A   1      43.152  29.581  33.637  1.00  0.00     0.031 A 
ATOM     54  C   UNL A   1      49.090  27.726  30.278  1.00  0.00     0.031 A 
ATOM     55  C   UNL A   1      43.683  28.291  33.989  1.00  0.00     0.049 A 
ATOM     56  C   UNL A   1      48.452  26.856  31.325  1.00  0.00     0.074 A 
ATOM     57  C   UNL A   1      43.180  27.366  34.885  1.00  0.00     0.029 A 
ATOM     58  N   UNL A   1      44.849  27.750  33.464  1.00  0.00    -0.354 N 
ATOM     59  N   UNL A   1      47.354  27.065  32.016  1.00  0.00    -0.248 NA
ATOM     60  C   UNL A   1      49.118  25.582  31.617  1.00  0.00     0.031 C 
ATOM     61  C   UNL A   1      44.080  26.298  34.954  1.00  0.00     0.029 A 
ATOM     62  C   UNL A   1      45.100  26.517  34.041  1.00  0.00     0.049 A 
ATOM     63  H   UNL A   1      45.414  28.180  32.782  1.00  0.00     0.167 HD
ATOM     64  C   UNL A   1      47.184  25.936  32.809  1.00  0.00     0.074 A 
ATOM     65  C   UNL A   1      48.280  25.040  32.489  1.00  0.00     0.031 C 
ATOM     66  C   UNL A   1      46.213  25.658  33.716  1.00  0.00     0.031 A 
BRANCH  53  67
ATOM     67  C   UNL A   1      41.909  30.075  34.330  1.00  0.00    -0.014 A 
ATOM     68  C   UNL A   1      40.621  29.780  33.846  1.00  0.00     0.010 A 
ATOM     69  C   UNL A   1      42.037  30.842  35.503  1.00  0.00     0.010 A 
ATOM     70  C   UNL A   1      39.487  30.273  34.503  1.00  0.00     0.020 A 
ATOM     71  C   UNL A   1      40.907  31.309  36.179  1.00  0.00     0.020 A 
ATOM     72  C   UNL A   1      39.639  31.033  35.667  1.00  0.00     0.054 A 
BRANCH  72  73
ATOM     73  S   UNL A   1      38.154  31.637  36.515  1.00  0.00     0.124 S 
ATOM     74  O   UNL A   1      38.686  32.740  37.310  1.00  0.00    -0.237 OA
ATOM     75  O   UNL A   1      37.288  32.025  35.403  1.00  0.00    -0.237 OA
ATOM     76  O   UNL A   1      37.697  30.481  37.283  1.00  0.00    -0.744 OA
ENDBRANCH  72  73
ENDBRANCH  53  67
BRANCH  54  77
ATOM     77  C   UNL A   1      50.343  27.331  29.584  1.00  0.00    -0.014 A 
ATOM     78  C   UNL A   1      51.606  27.660  30.103  1.00  0.00     0.010 A 
ATOM     79  C   UNL A   1      50.269  26.593  28.386  1.00  0.00     0.010 A 
ATOM     80  C   UNL A   1      52.769  27.271  29.431  1.00  0.00     0.020 A 
ATOM     81  C   UNL A   1      51.427  26.175  27.730  1.00  0.00     0.020 A 
ATOM     82  C   UNL A   1      52.672  26.527  28.252  1.00  0.00     0.054 A 
BRANCH  82  83
ATOM     83  S   UNL A   1      54.193  25.982  27.428  1.00  0.00     0.124 S 
ATOM     84  O   UNL A   1      54.641  27.208  26.776  1.00  0.00    -0.237 OA
ATOM     85  O   UNL A   1      55.008  25.523  28.549  1.00  0.00    -0.237 OA
ATOM     86  O   UNL A   1      53.735  24.924  26.529  1.00  0.00    -0.744 OA
ENDBRANCH  82  83
ENDBRANCH  54  77
BRANCH  66  87
ATOM     87  C   UNL A   1      46.282  24.315  34.395  1.00  0.00    -0.014 A 
ATOM     88  C   UNL A   1      45.597  23.197  33.888  1.00  0.00     0.010 A 
ATOM     89  C   UNL A   1      47.056  24.174  35.562  1.00  0.00     0.010 A 
ATOM     90  C   UNL A   1      45.629  21.980  34.573  1.00  0.00     0.020 A 
ATOM     91  C   UNL A   1      47.123  22.949  36.228  1.00  0.00     0.020 A 
ATOM     92  C   UNL A   1      46.386  21.868  35.744  1.00  0.00     0.054 A 
BRANCH  92  93
ATOM     93  S   UNL A   1      46.401  20.283  36.624  1.00  0.00     0.124 S 
ATOM     94  O   UNL A   1      45.749  20.631  37.883  1.00  0.00    -0.237 OA
ATOM     95  O   UNL A   1      45.632  19.416  35.735  1.00  0.00    -0.237 OA
ATOM     96  O   UNL A   1      47.822  19.958  36.727  1.00  0.00    -0.744 OA
ENDBRANCH  92  93
ENDBRANCH  66  87
ENDBRANCH  40  41
ENDBRANCH  33  35
ENDBRANCH  32  33
ENDBRANCH  31  32
ENDBRANCH  30  31
ENDBRANCH  29  30
ENDBRANCH  28  29
ENDBRANCH  27  28
ENDBRANCH   1  27
TORSDOF 29
ENDMDL
