MODEL 1
REMARK VINA RESULT:      -8.9      0.000      0.000
REMARK SMILES CSCc1ccc(C(=O)N[C@H]2C=C[C@@H](C(=O)OCCOCCOCCOCCOC(=O)c3ccc(-c4c5nc(c(-c6ccc(S(=O)(=O)[O-])cc6)c6ccc([nH]6)c(-c6ccc(S(=O)(=O)[O-])cc6)c6nc(c(-c7ccc(S(=O)(=O)[O-])cc7)c7ccc4[nH]7)C=C6)C=C5)cc3)C2)o1
REMARK SMILES IDX 22 1 21 2 20 3 19 4 18 5 17 6 15 7 16 8 14 9 11 10 12 11
REMARK SMILES IDX 92 12 13 13 10 14 8 15 9 16 7 18 4 19 5 20 93 21 6 22 3 23
REMARK SMILES IDX 2 24 1 25 23 26 24 27 25 28 26 29 27 30 28 31 29 32 30 33
REMARK SMILES IDX 31 34 32 35 33 36 91 37 34 38 90 39 35 40 36 41 37 42 84 43
REMARK SMILES IDX 38 44 89 45 83 46 85 47 39 48 88 49 82 50 81 51 40 53 70 54
REMARK SMILES IDX 51 55 69 56 52 57 55 58 68 59 86 60 53 61 54 62 67 64 87 65
REMARK SMILES IDX 56 66 41 67 42 68 50 69 43 70 49 71 44 72 45 73 46 74 47 75
REMARK SMILES IDX 48 76 71 77 72 78 80 79 73 80 79 81 74 82 75 83 76 84 77 85
REMARK SMILES IDX 78 86 57 87 58 88 66 89 59 90 65 91 60 92 61 93 62 94 63 95
REMARK SMILES IDX 64 96
REMARK H PARENT 10 17 85 52 55 63
REMARK Flexibility Score: inf
ROOT
ATOM      1  C   UNL A   1      38.927  21.965  26.106  1.00  0.00     0.188 C 
ENDROOT
BRANCH   1   2
ATOM      2  C   UNL A   1      37.963  22.918  25.376  1.00  0.00     0.188 C 
BRANCH   2   3
ATOM      3  O   UNL A   1      37.062  23.750  26.097  1.00  0.00    -0.376 OA
BRANCH   3   4
ATOM      4  C   UNL A   1      35.737  23.950  25.620  1.00  0.00     0.202 C 
BRANCH   4   5
ATOM      5  C   UNL A   1      35.436  23.834  24.118  1.00  0.00     0.261 C 
BRANCH   5   6
ATOM      6  O   UNL A   1      34.451  24.762  23.630  1.00  0.00    -0.463 OA
BRANCH   6   7
ATOM      7  C   UNL A   1      33.205  24.312  23.349  1.00  0.00     0.312 C 
ATOM      8  O   UNL A   1      32.951  23.187  22.933  1.00  0.00    -0.252 OA
BRANCH   7   9
ATOM      9  C   UNL A   1      32.112  25.354  23.672  1.00  0.00     0.124 C 
ATOM     10  C   UNL A   1      30.446  25.460  25.500  1.00  0.00     0.106 C 
ATOM     11  C   UNL A   1      31.665  26.236  25.830  1.00  0.00    -0.006 C 
ATOM     12  C   UNL A   1      30.739  24.828  24.146  1.00  0.00     0.048 C 
ATOM     13  C   UNL A   1      32.541  26.236  24.815  1.00  0.00    -0.014 C 
BRANCH  10  14
ATOM     14  N   UNL A   1      29.981  24.554  26.530  1.00  0.00    -0.343 N 
ATOM     15  C   UNL A   1      30.225  23.257  26.927  1.00  0.00     0.287 C 
ATOM     16  O   UNL A   1      29.397  22.820  27.735  1.00  0.00    -0.266 OA
ATOM     17  H   UNL A   1      29.306  24.983  27.105  1.00  0.00     0.164 HD
BRANCH  15  18
ATOM     18  C   UNL A   1      31.352  22.472  26.455  1.00  0.00     0.191 A 
ATOM     19  C   UNL A   1      32.319  20.930  25.171  1.00  0.00     0.114 A 
ATOM     20  C   UNL A   1      33.312  21.462  25.954  1.00  0.00     0.047 A 
ATOM     21  O   UNL A   1      31.125  21.528  25.469  1.00  0.00    -0.455 OA
ATOM     22  C   UNL A   1      32.677  22.377  26.809  1.00  0.00     0.056 A 
BRANCH  19  23
ATOM     23  C   UNL A   1      32.384  19.822  24.182  1.00  0.00     0.144 C 
BRANCH  23  24
ATOM     24  S   UNL A   1      33.630  18.563  24.516  1.00  0.00    -0.157 SA
ATOM     25  C   UNL A   1      33.227  17.434  23.160  1.00  0.00     0.085 C 
ENDBRANCH  23  24
ENDBRANCH  19  23
ENDBRANCH  15  18
ENDBRANCH  10  14
ENDBRANCH   7   9
ENDBRANCH   6   7
ENDBRANCH   5   6
ENDBRANCH   4   5
ENDBRANCH   3   4
ENDBRANCH   2   3
ENDBRANCH   1   2
BRANCH   1  26
ATOM     26  O   UNL A   1      38.835  20.603  25.740  1.00  0.00    -0.377 OA
BRANCH  26  27
ATOM     27  C   UNL A   1      39.978  19.792  25.996  1.00  0.00     0.188 C 
BRANCH  27  28
ATOM     28  C   UNL A   1      40.901  20.217  27.155  1.00  0.00     0.188 C 
BRANCH  28  29
ATOM     29  O   UNL A   1      42.122  19.488  27.225  1.00  0.00    -0.376 OA
BRANCH  29  30
ATOM     30  C   UNL A   1      42.723  19.021  26.025  1.00  0.00     0.202 C 
BRANCH  30  31
ATOM     31  C   UNL A   1      43.577  20.001  25.199  1.00  0.00     0.261 C 
BRANCH  31  32
ATOM     32  O   UNL A   1      43.934  21.235  25.838  1.00  0.00    -0.460 OA
BRANCH  32  33
ATOM     33  C   UNL A   1      43.692  22.376  25.164  1.00  0.00     0.338 C 
ATOM     34  O   UNL A   1      43.687  22.521  23.949  1.00  0.00    -0.246 OA
BRANCH  33  35
ATOM     35  C   UNL A   1      43.224  23.394  26.123  1.00  0.00     0.060 A 
ATOM     36  C   UNL A   1      43.628  24.721  25.934  1.00  0.00     0.016 A 
ATOM     37  C   UNL A   1      42.425  23.044  27.214  1.00  0.00     0.016 A 
ATOM     38  C   UNL A   1      43.294  25.691  26.874  1.00  0.00     0.010 A 
ATOM     39  C   UNL A   1      42.109  24.016  28.169  1.00  0.00     0.010 A 
ATOM     40  C   UNL A   1      42.589  25.329  28.028  1.00  0.00    -0.014 A 
BRANCH  40  41
ATOM     41  C   UNL A   1      42.575  26.268  29.176  1.00  0.00     0.031 A 
ATOM     42  C   UNL A   1      43.655  26.132  30.218  1.00  0.00     0.074 A 
ATOM     43  C   UNL A   1      41.677  27.267  29.254  1.00  0.00     0.049 A 
ATOM     44  N   UNL A   1      43.872  26.849  31.290  1.00  0.00    -0.248 NA
ATOM     45  C   UNL A   1      44.625  25.039  30.021  1.00  0.00     0.031 C 
ATOM     46  C   UNL A   1      40.621  27.535  28.281  1.00  0.00     0.029 A 
ATOM     47  N   UNL A   1      41.522  28.248  30.201  1.00  0.00    -0.354 N 
ATOM     48  C   UNL A   1      44.993  26.292  31.897  1.00  0.00     0.074 A 
ATOM     49  C   UNL A   1      45.391  25.157  31.095  1.00  0.00     0.031 C 
ATOM     50  C   UNL A   1      39.925  28.615  28.681  1.00  0.00     0.029 A 
ATOM     51  C   UNL A   1      40.466  29.093  29.952  1.00  0.00     0.049 A 
ATOM     52  H   UNL A   1      42.112  28.339  30.985  1.00  0.00     0.167 HD
ATOM     53  C   UNL A   1      45.641  26.695  33.015  1.00  0.00     0.031 A 
ATOM     54  C   UNL A   1      39.985  30.121  30.678  1.00  0.00     0.031 A 
ATOM     55  C   UNL A   1      45.234  27.818  33.817  1.00  0.00     0.049 A 
ATOM     56  C   UNL A   1      40.673  30.499  31.966  1.00  0.00     0.074 A 
ATOM     57  C   UNL A   1      45.829  28.315  34.963  1.00  0.00     0.029 A 
ATOM     58  N   UNL A   1      44.127  28.612  33.563  1.00  0.00    -0.354 N 
ATOM     59  N   UNL A   1      41.748  29.981  32.514  1.00  0.00    -0.248 NA
ATOM     60  C   UNL A   1      40.087  31.609  32.731  1.00  0.00     0.031 C 
ATOM     61  C   UNL A   1      45.041  29.367  35.439  1.00  0.00     0.029 A 
ATOM     62  C   UNL A   1      43.998  29.574  34.549  1.00  0.00     0.049 A 
ATOM     63  H   UNL A   1      43.520  28.507  32.794  1.00  0.00     0.167 HD
ATOM     64  C   UNL A   1      41.981  30.718  33.671  1.00  0.00     0.074 A 
ATOM     65  C   UNL A   1      40.947  31.732  33.731  1.00  0.00     0.031 C 
ATOM     66  C   UNL A   1      42.959  30.573  34.600  1.00  0.00     0.031 A 
BRANCH  53  67
ATOM     67  C   UNL A   1      46.834  25.888  33.458  1.00  0.00    -0.014 A 
ATOM     68  C   UNL A   1      46.695  24.786  34.322  1.00  0.00     0.010 A 
ATOM     69  C   UNL A   1      48.113  26.219  32.976  1.00  0.00     0.010 A 
ATOM     70  C   UNL A   1      47.817  24.055  34.725  1.00  0.00     0.020 A 
ATOM     71  C   UNL A   1      49.234  25.472  33.350  1.00  0.00     0.020 A 
ATOM     72  C   UNL A   1      49.080  24.404  34.235  1.00  0.00     0.054 A 
BRANCH  72  73
ATOM     73  S   UNL A   1      50.514  23.421  34.752  1.00  0.00     0.124 S 
ATOM     74  O   UNL A   1      51.627  24.288  34.372  1.00  0.00    -0.237 OA
ATOM     75  O   UNL A   1      50.297  23.272  36.188  1.00  0.00    -0.237 OA
ATOM     76  O   UNL A   1      50.391  22.190  33.975  1.00  0.00    -0.744 OA
ENDBRANCH  72  73
ENDBRANCH  53  67
BRANCH  54  77
ATOM     77  C   UNL A   1      38.773  30.856  30.219  1.00  0.00    -0.014 A 
ATOM     78  C   UNL A   1      38.856  32.189  29.781  1.00  0.00     0.010 A 
ATOM     79  C   UNL A   1      37.516  30.220  30.229  1.00  0.00     0.010 A 
ATOM     80  C   UNL A   1      37.706  32.878  29.380  1.00  0.00     0.020 A 
ATOM     81  C   UNL A   1      36.370  30.895  29.800  1.00  0.00     0.020 A 
ATOM     82  C   UNL A   1      36.470  32.224  29.389  1.00  0.00     0.054 A 
BRANCH  82  83
ATOM     83  S   UNL A   1      34.999  33.119  28.820  1.00  0.00     0.124 S 
ATOM     84  O   UNL A   1      34.716  32.463  27.547  1.00  0.00    -0.237 OA
ATOM     85  O   UNL A   1      34.037  32.863  29.890  1.00  0.00    -0.237 OA
ATOM     86  O   UNL A   1      35.455  34.504  28.722  1.00  0.00    -0.744 OA
ENDBRANCH  82  83
ENDBRANCH  54  77
BRANCH  66  87
ATOM     87  C   UNL A   1      42.981  31.551  35.749  1.00  0.00    -0.014 A 
ATOM     88  C   UNL A   1      42.318  31.276  36.958  1.00  0.00     0.010 A 
ATOM     89  C   UNL A   1      43.720  32.743  35.630  1.00  0.00     0.010 A 
ATOM     90  C   UNL A   1      42.357  32.195  38.011  1.00  0.00     0.020 A 
ATOM     91  C   UNL A   1      43.791  33.648  36.693  1.00  0.00     0.020 A 
ATOM     92  C   UNL A   1      43.093  33.376  37.871  1.00  0.00     0.054 A 
BRANCH  92  93
ATOM     93  S   UNL A   1      43.153  34.536  39.264  1.00  0.00     0.124 S 
ATOM     94  O   UNL A   1      44.316  34.060  40.007  1.00  0.00    -0.237 OA
ATOM     95  O   UNL A   1      43.317  35.826  38.598  1.00  0.00    -0.237 OA
ATOM     96  O   UNL A   1      41.868  34.345  39.932  1.00  0.00    -0.744 OA
ENDBRANCH  92  93
ENDBRANCH  66  87
ENDBRANCH  40  41
ENDBRANCH  33  35
ENDBRANCH  32  33
ENDBRANCH  31  32
ENDBRANCH  30  31
ENDBRANCH  29  30
ENDBRANCH  28  29
ENDBRANCH  27  28
ENDBRANCH  26  27
ENDBRANCH   1  26
TORSDOF 27
ENDMDL
MODEL 2
REMARK VINA RESULT:      -8.6      5.037      5.882
REMARK SMILES CSCc1ccc(C(=O)N[C@H]2C=C[C@@H](C(=O)OCCOCCOCCOCCOC(=O)c3ccc(-c4c5nc(c(-c6ccc(S(=O)(=O)[O-])cc6)c6ccc([nH]6)c(-c6ccc(S(=O)(=O)[O-])cc6)c6nc(c(-c7ccc(S(=O)(=O)[O-])cc7)c7ccc4[nH]7)C=C6)C=C5)cc3)C2)o1
REMARK SMILES IDX 22 1 21 2 20 3 19 4 18 5 17 6 15 7 16 8 14 9 11 10 12 11
REMARK SMILES IDX 92 12 13 13 10 14 8 15 9 16 7 18 4 19 5 20 93 21 6 22 3 23
REMARK SMILES IDX 2 24 1 25 23 26 24 27 25 28 26 29 27 30 28 31 29 32 30 33
REMARK SMILES IDX 31 34 32 35 33 36 91 37 34 38 90 39 35 40 36 41 37 42 84 43
REMARK SMILES IDX 38 44 89 45 83 46 85 47 39 48 88 49 82 50 81 51 40 53 70 54
REMARK SMILES IDX 51 55 69 56 52 57 55 58 68 59 86 60 53 61 54 62 67 64 87 65
REMARK SMILES IDX 56 66 41 67 42 68 50 69 43 70 49 71 44 72 45 73 46 74 47 75
REMARK SMILES IDX 48 76 71 77 72 78 80 79 73 80 79 81 74 82 75 83 76 84 77 85
REMARK SMILES IDX 78 86 57 87 58 88 66 89 59 90 65 91 60 92 61 93 62 94 63 95
REMARK SMILES IDX 64 96
REMARK H PARENT 10 17 85 52 55 63
REMARK Flexibility Score: inf
ROOT
ATOM      1  C   UNL A   1      38.954  22.180  26.142  1.00  0.00     0.188 C 
ENDROOT
BRANCH   1   2
ATOM      2  C   UNL A   1      37.896  23.067  25.461  1.00  0.00     0.188 C 
BRANCH   2   3
ATOM      3  O   UNL A   1      36.858  23.685  26.212  1.00  0.00    -0.376 OA
BRANCH   3   4
ATOM      4  C   UNL A   1      35.562  23.841  25.644  1.00  0.00     0.202 C 
BRANCH   4   5
ATOM      5  C   UNL A   1      35.412  24.166  24.151  1.00  0.00     0.261 C 
BRANCH   5   6
ATOM      6  O   UNL A   1      34.285  25.000  23.828  1.00  0.00    -0.463 OA
BRANCH   6   7
ATOM      7  C   UNL A   1      33.113  24.417  23.481  1.00  0.00     0.312 C 
ATOM      8  O   UNL A   1      32.998  23.251  23.122  1.00  0.00    -0.252 OA
BRANCH   7   9
ATOM      9  C   UNL A   1      31.907  25.367  23.648  1.00  0.00     0.124 C 
ATOM     10  C   UNL A   1      30.133  25.466  25.372  1.00  0.00     0.106 C 
ATOM     11  C   UNL A   1      31.249  26.389  25.687  1.00  0.00    -0.006 C 
ATOM     12  C   UNL A   1      30.566  24.748  24.101  1.00  0.00     0.048 C 
ATOM     13  C   UNL A   1      32.179  26.387  24.722  1.00  0.00    -0.014 C 
BRANCH  10  14
ATOM     14  N   UNL A   1      29.698  24.613  26.459  1.00  0.00    -0.343 N 
ATOM     15  C   UNL A   1      29.996  23.359  26.947  1.00  0.00     0.287 C 
ATOM     16  O   UNL A   1      29.179  22.942  27.777  1.00  0.00    -0.266 OA
ATOM     17  H   UNL A   1      28.998  25.050  26.997  1.00  0.00     0.164 HD
BRANCH  15  18
ATOM     18  C   UNL A   1      31.161  22.596  26.540  1.00  0.00     0.191 A 
ATOM     19  C   UNL A   1      32.211  21.010  25.378  1.00  0.00     0.114 A 
ATOM     20  C   UNL A   1      33.171  21.645  26.124  1.00  0.00     0.047 A 
ATOM     21  O   UNL A   1      30.987  21.572  25.625  1.00  0.00    -0.455 OA
ATOM     22  C   UNL A   1      32.487  22.588  26.907  1.00  0.00     0.056 A 
BRANCH  19  23
ATOM     23  C   UNL A   1      32.335  19.838  24.473  1.00  0.00     0.144 C 
BRANCH  23  24
ATOM     24  S   UNL A   1      33.932  19.002  24.510  1.00  0.00    -0.157 SA
ATOM     25  C   UNL A   1      33.502  17.576  23.483  1.00  0.00     0.085 C 
ENDBRANCH  23  24
ENDBRANCH  19  23
ENDBRANCH  15  18
ENDBRANCH  10  14
ENDBRANCH   7   9
ENDBRANCH   6   7
ENDBRANCH   5   6
ENDBRANCH   4   5
ENDBRANCH   3   4
ENDBRANCH   2   3
ENDBRANCH   1   2
BRANCH   1  26
ATOM     26  O   UNL A   1      38.907  20.807  25.813  1.00  0.00    -0.377 OA
BRANCH  26  27
ATOM     27  C   UNL A   1      40.129  20.081  25.912  1.00  0.00     0.188 C 
BRANCH  27  28
ATOM     28  C   UNL A   1      41.328  20.800  26.560  1.00  0.00     0.188 C 
BRANCH  28  29
ATOM     29  O   UNL A   1      42.379  19.931  26.966  1.00  0.00    -0.376 OA
BRANCH  29  30
ATOM     30  C   UNL A   1      42.502  18.655  26.353  1.00  0.00     0.202 C 
BRANCH  30  31
ATOM     31  C   UNL A   1      43.520  18.481  25.211  1.00  0.00     0.261 C 
BRANCH  31  32
ATOM     32  O   UNL A   1      44.702  19.292  25.277  1.00  0.00    -0.460 OA
BRANCH  32  33
ATOM     33  C   UNL A   1      44.848  20.254  24.346  1.00  0.00     0.338 C 
ATOM     34  O   UNL A   1      44.915  20.095  23.134  1.00  0.00    -0.246 OA
BRANCH  33  35
ATOM     35  C   UNL A   1      44.706  21.566  25.004  1.00  0.00     0.060 A 
ATOM     36  C   UNL A   1      44.296  22.658  24.229  1.00  0.00     0.016 A 
ATOM     37  C   UNL A   1      45.005  21.731  26.359  1.00  0.00     0.016 A 
ATOM     38  C   UNL A   1      44.251  23.931  24.788  1.00  0.00     0.010 A 
ATOM     39  C   UNL A   1      44.981  23.014  26.914  1.00  0.00     0.010 A 
ATOM     40  C   UNL A   1      44.657  24.125  26.115  1.00  0.00    -0.014 A 
BRANCH  40  41
ATOM     41  C   UNL A   1      44.966  25.502  26.570  1.00  0.00     0.031 A 
ATOM     42  C   UNL A   1      46.365  26.022  26.359  1.00  0.00     0.074 A 
ATOM     43  C   UNL A   1      44.014  26.301  27.084  1.00  0.00     0.049 A 
ATOM     44  N   UNL A   1      46.867  27.196  26.641  1.00  0.00    -0.248 NA
ATOM     45  C   UNL A   1      47.327  25.091  25.742  1.00  0.00     0.031 C 
ATOM     46  C   UNL A   1      42.614  25.931  27.285  1.00  0.00     0.029 A 
ATOM     47  N   UNL A   1      44.087  27.599  27.524  1.00  0.00    -0.354 N 
ATOM     48  C   UNL A   1      48.199  27.143  26.245  1.00  0.00     0.074 A 
ATOM     49  C   UNL A   1      48.438  25.811  25.735  1.00  0.00     0.031 C 
ATOM     50  C   UNL A   1      41.958  26.981  27.809  1.00  0.00     0.029 A 
ATOM     51  C   UNL A   1      42.896  28.085  28.009  1.00  0.00     0.049 A 
ATOM     52  H   UNL A   1      44.915  28.131  27.494  1.00  0.00     0.167 HD
ATOM     53  C   UNL A   1      49.138  28.117  26.291  1.00  0.00     0.031 A 
ATOM     54  C   UNL A   1      42.605  29.278  28.565  1.00  0.00     0.031 A 
ATOM     55  C   UNL A   1      48.899  29.437  26.811  1.00  0.00     0.049 A 
ATOM     56  C   UNL A   1      43.690  30.319  28.683  1.00  0.00     0.074 A 
ATOM     57  C   UNL A   1      49.780  30.501  26.892  1.00  0.00     0.029 A 
ATOM     58  N   UNL A   1      47.695  29.871  27.345  1.00  0.00    -0.354 N 
ATOM     59  N   UNL A   1      44.938  30.264  28.280  1.00  0.00    -0.248 NA
ATOM     60  C   UNL A   1      43.322  31.590  29.325  1.00  0.00     0.031 C 
ATOM     61  C   UNL A   1      49.129  31.556  27.538  1.00  0.00     0.029 A 
ATOM     62  C   UNL A   1      47.820  31.175  27.791  1.00  0.00     0.049 A 
ATOM     63  H   UNL A   1      46.874  29.331  27.399  1.00  0.00     0.167 HD
ATOM     64  C   UNL A   1      45.496  31.500  28.594  1.00  0.00     0.074 A 
ATOM     65  C   UNL A   1      44.442  32.288  29.201  1.00  0.00     0.031 C 
ATOM     66  C   UNL A   1      46.763  31.945  28.400  1.00  0.00     0.031 A 
BRANCH  53  67
ATOM     67  C   UNL A   1      50.522  27.775  25.802  1.00  0.00    -0.014 A 
ATOM     68  C   UNL A   1      51.496  27.243  26.668  1.00  0.00     0.010 A 
ATOM     69  C   UNL A   1      50.844  27.959  24.445  1.00  0.00     0.010 A 
ATOM     70  C   UNL A   1      52.775  26.939  26.193  1.00  0.00     0.020 A 
ATOM     71  C   UNL A   1      52.111  27.627  23.959  1.00  0.00     0.020 A 
ATOM     72  C   UNL A   1      53.074  27.132  24.841  1.00  0.00     0.054 A 
BRANCH  72  73
ATOM     73  S   UNL A   1      54.733  26.702  24.248  1.00  0.00     0.124 S 
ATOM     74  O   UNL A   1      54.935  25.384  24.846  1.00  0.00    -0.237 OA
ATOM     75  O   UNL A   1      54.566  26.713  22.797  1.00  0.00    -0.237 OA
ATOM     76  O   UNL A   1      55.581  27.764  24.783  1.00  0.00    -0.744 OA
ENDBRANCH  72  73
ENDBRANCH  53  67
BRANCH  54  77
ATOM     77  C   UNL A   1      41.232  29.547  29.076  1.00  0.00    -0.014 A 
ATOM     78  C   UNL A   1      40.135  29.627  28.200  1.00  0.00     0.010 A 
ATOM     79  C   UNL A   1      41.017  29.738  30.455  1.00  0.00     0.010 A 
ATOM     80  C   UNL A   1      38.855  29.910  28.689  1.00  0.00     0.020 A 
ATOM     81  C   UNL A   1      39.735  29.991  30.950  1.00  0.00     0.020 A 
ATOM     82  C   UNL A   1      38.663  30.086  30.062  1.00  0.00     0.054 A 
BRANCH  82  83
ATOM     83  S   UNL A   1      36.988  30.405  30.681  1.00  0.00     0.124 S 
ATOM     84  O   UNL A   1      36.635  29.122  31.281  1.00  0.00    -0.237 OA
ATOM     85  O   UNL A   1      37.200  31.504  31.620  1.00  0.00    -0.237 OA
ATOM     86  O   UNL A   1      36.238  30.760  29.478  1.00  0.00    -0.744 OA
ENDBRANCH  82  83
ENDBRANCH  54  77
BRANCH  66  87
ATOM     87  C   UNL A   1      47.077  33.361  28.818  1.00  0.00    -0.014 A 
ATOM     88  C   UNL A   1      46.827  34.450  27.964  1.00  0.00     0.010 A 
ATOM     89  C   UNL A   1      47.585  33.606  30.107  1.00  0.00     0.010 A 
ATOM     90  C   UNL A   1      47.120  35.753  28.376  1.00  0.00     0.020 A 
ATOM     91  C   UNL A   1      47.846  34.910  30.536  1.00  0.00     0.020 A 
ATOM     92  C   UNL A   1      47.628  35.975  29.659  1.00  0.00     0.054 A 
BRANCH  92  93
ATOM     93  S   UNL A   1      47.970  37.679  30.179  1.00  0.00     0.124 S 
ATOM     94  O   UNL A   1      47.757  38.424  28.941  1.00  0.00    -0.237 OA
ATOM     95  O   UNL A   1      46.975  37.900  31.225  1.00  0.00    -0.237 OA
ATOM     96  O   UNL A   1      49.355  37.629  30.643  1.00  0.00    -0.744 OA
ENDBRANCH  92  93
ENDBRANCH  66  87
ENDBRANCH  40  41
ENDBRANCH  33  35
ENDBRANCH  32  33
ENDBRANCH  31  32
ENDBRANCH  30  31
ENDBRANCH  29  30
ENDBRANCH  28  29
ENDBRANCH  27  28
ENDBRANCH  26  27
ENDBRANCH   1  26
TORSDOF 27
ENDMDL
MODEL 3
REMARK VINA RESULT:      -8.4      2.916      9.110
REMARK SMILES CSCc1ccc(C(=O)N[C@H]2C=C[C@@H](C(=O)OCCOCCOCCOCCOC(=O)c3ccc(-c4c5nc(c(-c6ccc(S(=O)(=O)[O-])cc6)c6ccc([nH]6)c(-c6ccc(S(=O)(=O)[O-])cc6)c6nc(c(-c7ccc(S(=O)(=O)[O-])cc7)c7ccc4[nH]7)C=C6)C=C5)cc3)C2)o1
REMARK SMILES IDX 22 1 21 2 20 3 19 4 18 5 17 6 15 7 16 8 14 9 11 10 12 11
REMARK SMILES IDX 92 12 13 13 10 14 8 15 9 16 7 18 4 19 5 20 93 21 6 22 3 23
REMARK SMILES IDX 2 24 1 25 23 26 24 27 25 28 26 29 27 30 28 31 29 32 30 33
REMARK SMILES IDX 31 34 32 35 33 36 91 37 34 38 90 39 35 40 36 41 37 42 84 43
REMARK SMILES IDX 38 44 89 45 83 46 85 47 39 48 88 49 82 50 81 51 40 53 70 54
REMARK SMILES IDX 51 55 69 56 52 57 55 58 68 59 86 60 53 61 54 62 67 64 87 65
REMARK SMILES IDX 56 66 41 67 42 68 50 69 43 70 49 71 44 72 45 73 46 74 47 75
REMARK SMILES IDX 48 76 71 77 72 78 80 79 73 80 79 81 74 82 75 83 76 84 77 85
REMARK SMILES IDX 78 86 57 87 58 88 66 89 59 90 65 91 60 92 61 93 62 94 63 95
REMARK SMILES IDX 64 96
REMARK H PARENT 10 17 85 52 55 63
REMARK Flexibility Score: inf
ROOT
ATOM      1  C   UNL A   1      38.205  20.367  25.133  1.00  0.00     0.188 C 
ENDROOT
BRANCH   1   2
ATOM      2  C   UNL A   1      37.421  21.617  25.574  1.00  0.00     0.188 C 
BRANCH   2   3
ATOM      3  O   UNL A   1      36.071  21.525  26.009  1.00  0.00    -0.376 OA
BRANCH   3   4
ATOM      4  C   UNL A   1      35.069  21.030  25.129  1.00  0.00     0.202 C 
BRANCH   4   5
ATOM      5  C   UNL A   1      34.547  21.913  23.985  1.00  0.00     0.261 C 
BRANCH   5   6
ATOM      6  O   UNL A   1      33.115  22.031  23.924  1.00  0.00    -0.463 OA
BRANCH   6   7
ATOM      7  C   UNL A   1      32.384  21.766  25.033  1.00  0.00     0.312 C 
ATOM      8  O   UNL A   1      31.917  20.667  25.309  1.00  0.00    -0.252 OA
BRANCH   7   9
ATOM      9  C   UNL A   1      32.249  22.993  25.961  1.00  0.00     0.124 C 
ATOM     10  C   UNL A   1      30.614  24.852  25.983  1.00  0.00     0.106 C 
ATOM     11  C   UNL A   1      30.215  23.766  26.910  1.00  0.00    -0.006 C 
ATOM     12  C   UNL A   1      31.883  24.345  25.311  1.00  0.00     0.048 C 
ATOM     13  C   UNL A   1      31.132  22.789  26.951  1.00  0.00    -0.014 C 
BRANCH  10  14
ATOM     14  N   UNL A   1      29.576  25.328  25.092  1.00  0.00    -0.343 N 
ATOM     15  C   UNL A   1      29.345  26.435  24.304  1.00  0.00     0.287 C 
ATOM     16  O   UNL A   1      28.182  26.518  23.892  1.00  0.00    -0.266 OA
ATOM     17  H   UNL A   1      28.833  24.685  25.032  1.00  0.00     0.164 HD
BRANCH  15  18
ATOM     18  C   UNL A   1      30.366  27.412  23.973  1.00  0.00     0.191 A 
ATOM     19  C   UNL A   1      32.056  28.784  24.453  1.00  0.00     0.114 A 
ATOM     20  C   UNL A   1      31.845  28.885  23.101  1.00  0.00     0.047 A 
ATOM     21  O   UNL A   1      31.162  27.900  24.995  1.00  0.00    -0.455 OA
ATOM     22  C   UNL A   1      30.731  28.076  22.825  1.00  0.00     0.056 A 
BRANCH  19  23
ATOM     23  C   UNL A   1      33.010  29.520  25.322  1.00  0.00     0.144 C 
BRANCH  23  24
ATOM     24  S   UNL A   1      32.352  30.047  26.916  1.00  0.00    -0.157 SA
ATOM     25  C   UNL A   1      31.467  31.522  26.356  1.00  0.00     0.085 C 
ENDBRANCH  23  24
ENDBRANCH  19  23
ENDBRANCH  15  18
ENDBRANCH  10  14
ENDBRANCH   7   9
ENDBRANCH   6   7
ENDBRANCH   5   6
ENDBRANCH   4   5
ENDBRANCH   3   4
ENDBRANCH   2   3
ENDBRANCH   1   2
BRANCH   1  26
ATOM     26  O   UNL A   1      39.435  20.151  25.792  1.00  0.00    -0.377 OA
BRANCH  26  27
ATOM     27  C   UNL A   1      39.978  21.253  26.515  1.00  0.00     0.188 C 
BRANCH  27  28
ATOM     28  C   UNL A   1      41.496  21.491  26.405  1.00  0.00     0.188 C 
BRANCH  28  29
ATOM     29  O   UNL A   1      41.867  22.864  26.334  1.00  0.00    -0.376 OA
BRANCH  29  30
ATOM     30  C   UNL A   1      43.196  23.243  26.662  1.00  0.00     0.202 C 
BRANCH  30  31
ATOM     31  C   UNL A   1      43.849  24.395  25.875  1.00  0.00     0.261 C 
BRANCH  31  32
ATOM     32  O   UNL A   1      43.828  25.688  26.496  1.00  0.00    -0.460 OA
BRANCH  32  33
ATOM     33  C   UNL A   1      43.022  26.623  25.958  1.00  0.00     0.338 C 
ATOM     34  O   UNL A   1      42.732  26.745  24.775  1.00  0.00    -0.246 OA
BRANCH  33  35
ATOM     35  C   UNL A   1      42.369  27.363  27.053  1.00  0.00     0.060 A 
ATOM     36  C   UNL A   1      42.537  28.752  27.110  1.00  0.00     0.016 A 
ATOM     37  C   UNL A   1      41.629  26.698  28.033  1.00  0.00     0.016 A 
ATOM     38  C   UNL A   1      42.025  29.472  28.185  1.00  0.00     0.010 A 
ATOM     39  C   UNL A   1      41.134  27.419  29.124  1.00  0.00     0.010 A 
ATOM     40  C   UNL A   1      41.378  28.800  29.229  1.00  0.00    -0.014 A 
BRANCH  40  41
ATOM     41  C   UNL A   1      41.183  29.508  30.517  1.00  0.00     0.031 A 
ATOM     42  C   UNL A   1      40.027  30.469  30.632  1.00  0.00     0.074 A 
ATOM     43  C   UNL A   1      41.961  29.250  31.584  1.00  0.00     0.049 A 
ATOM     44  N   UNL A   1      39.634  31.179  31.657  1.00  0.00    -0.248 NA
ATOM     45  C   UNL A   1      39.200  30.649  29.425  1.00  0.00     0.031 C 
ATOM     46  C   UNL A   1      43.073  28.302  31.612  1.00  0.00     0.029 A 
ATOM     47  N   UNL A   1      41.921  29.764  32.855  1.00  0.00    -0.354 N 
ATOM     48  C   UNL A   1      38.524  31.893  31.220  1.00  0.00     0.074 A 
ATOM     49  C   UNL A   1      38.325  31.559  29.827  1.00  0.00     0.031 C 
ATOM     50  C   UNL A   1      43.611  28.301  32.845  1.00  0.00     0.029 A 
ATOM     51  C   UNL A   1      42.903  29.269  33.681  1.00  0.00     0.049 A 
ATOM     52  H   UNL A   1      41.252  30.425  33.149  1.00  0.00     0.167 HD
ATOM     53  C   UNL A   1      37.732  32.742  31.916  1.00  0.00     0.031 A 
ATOM     54  C   UNL A   1      43.202  29.578  34.958  1.00  0.00     0.031 A 
ATOM     55  C   UNL A   1      37.942  33.082  33.298  1.00  0.00     0.049 A 
ATOM     56  C   UNL A   1      42.357  30.591  35.689  1.00  0.00     0.074 A 
ATOM     57  C   UNL A   1      37.191  33.924  34.099  1.00  0.00     0.029 A 
ATOM     58  N   UNL A   1      38.980  32.603  34.082  1.00  0.00    -0.354 N 
ATOM     59  N   UNL A   1      41.294  31.239  35.271  1.00  0.00    -0.248 NA
ATOM     60  C   UNL A   1      42.749  30.910  37.069  1.00  0.00     0.031 C 
ATOM     61  C   UNL A   1      37.816  34.008  35.347  1.00  0.00     0.029 A 
ATOM     62  C   UNL A   1      38.912  33.160  35.348  1.00  0.00     0.049 A 
ATOM     63  H   UNL A   1      39.665  31.963  33.783  1.00  0.00     0.167 HD
ATOM     64  C   UNL A   1      40.876  32.019  36.345  1.00  0.00     0.074 A 
ATOM     65  C   UNL A   1      41.788  31.745  37.437  1.00  0.00     0.031 C 
ATOM     66  C   UNL A   1      39.832  32.883  36.423  1.00  0.00     0.031 A 
BRANCH  53  67
ATOM     67  C   UNL A   1      36.592  33.396  31.179  1.00  0.00    -0.014 A 
ATOM     68  C   UNL A   1      35.303  33.468  31.737  1.00  0.00     0.010 A 
ATOM     69  C   UNL A   1      36.823  33.976  29.918  1.00  0.00     0.010 A 
ATOM     70  C   UNL A   1      34.258  34.075  31.032  1.00  0.00     0.020 A 
ATOM     71  C   UNL A   1      35.790  34.612  29.224  1.00  0.00     0.020 A 
ATOM     72  C   UNL A   1      34.510  34.643  29.779  1.00  0.00     0.054 A 
BRANCH  72  73
ATOM     73  S   UNL A   1      33.143  35.448  28.900  1.00  0.00     0.124 S 
ATOM     74  O   UNL A   1      32.358  35.998  30.002  1.00  0.00    -0.237 OA
ATOM     75  O   UNL A   1      33.832  36.431  28.069  1.00  0.00    -0.237 OA
ATOM     76  O   UNL A   1      32.507  34.355  28.169  1.00  0.00    -0.744 OA
ENDBRANCH  72  73
ENDBRANCH  53  67
BRANCH  54  77
ATOM     77  C   UNL A   1      44.371  28.937  35.626  1.00  0.00    -0.014 A 
ATOM     78  C   UNL A   1      44.237  27.713  36.304  1.00  0.00     0.010 A 
ATOM     79  C   UNL A   1      45.632  29.563  35.594  1.00  0.00     0.010 A 
ATOM     80  C   UNL A   1      45.334  27.137  36.953  1.00  0.00     0.020 A 
ATOM     81  C   UNL A   1      46.738  28.975  36.214  1.00  0.00     0.020 A 
ATOM     82  C   UNL A   1      46.580  27.770  36.900  1.00  0.00     0.054 A 
BRANCH  82  83
ATOM     83  S   UNL A   1      48.001  26.983  37.706  1.00  0.00     0.124 S 
ATOM     84  O   UNL A   1      47.464  25.673  38.060  1.00  0.00    -0.237 OA
ATOM     85  O   UNL A   1      49.009  26.987  36.648  1.00  0.00    -0.237 OA
ATOM     86  O   UNL A   1      48.290  27.866  38.834  1.00  0.00    -0.744 OA
ENDBRANCH  82  83
ENDBRANCH  54  77
BRANCH  66  87
ATOM     87  C   UNL A   1      39.598  33.576  37.743  1.00  0.00    -0.014 A 
ATOM     88  C   UNL A   1      38.828  32.979  38.757  1.00  0.00     0.010 A 
ATOM     89  C   UNL A   1      40.202  34.823  37.989  1.00  0.00     0.010 A 
ATOM     90  C   UNL A   1      38.630  33.636  39.975  1.00  0.00     0.020 A 
ATOM     91  C   UNL A   1      40.036  35.468  39.217  1.00  0.00     0.020 A 
ATOM     92  C   UNL A   1      39.234  34.877  40.197  1.00  0.00     0.054 A 
BRANCH  92  93
ATOM     93  S   UNL A   1      38.986  35.695  41.797  1.00  0.00     0.124 S 
ATOM     94  O   UNL A   1      39.929  34.979  42.654  1.00  0.00    -0.237 OA
ATOM     95  O   UNL A   1      39.333  37.083  41.504  1.00  0.00    -0.237 OA
ATOM     96  O   UNL A   1      37.575  35.459  42.093  1.00  0.00    -0.744 OA
ENDBRANCH  92  93
ENDBRANCH  66  87
ENDBRANCH  40  41
ENDBRANCH  33  35
ENDBRANCH  32  33
ENDBRANCH  31  32
ENDBRANCH  30  31
ENDBRANCH  29  30
ENDBRANCH  28  29
ENDBRANCH  27  28
ENDBRANCH  26  27
ENDBRANCH   1  26
TORSDOF 27
ENDMDL
