MODEL 1
REMARK VINA RESULT:      -7.9      0.000      0.000
REMARK SMILES CC(C)[NH+](CCNC(=O)N[C@@H]1C=C[C@H](C(=O)OCCOCCOCCOCCOC(=O)c2ccc(-c3c4nc(c(-c5ccc(S(=O)(=O)[O-])cc5)c5ccc([nH]5)c(-c5ccc(S(=O)(=O)[O-])cc5)c5nc(c(-c6ccc(S(=O)(=O)[O-])cc6)c6ccc3[nH]6)C=C5)C=C4)cc2)C1)C(C)C
REMARK SMILES IDX 22 1 21 2 20 3 19 4 18 5 17 6 15 7 16 8 14 9 11 10 12 11
REMARK SMILES IDX 92 12 13 13 10 14 7 15 8 16 9 18 6 20 5 21 4 22 2 24 1 25
REMARK SMILES IDX 3 26 93 27 94 28 95 29 23 30 24 31 25 32 26 33 27 34 28 35
REMARK SMILES IDX 29 36 30 37 31 38 32 39 33 40 91 41 34 42 90 43 35 44 36 45
REMARK SMILES IDX 37 46 84 47 38 48 89 49 83 50 85 51 39 52 88 53 82 54 81 55
REMARK SMILES IDX 40 57 70 58 51 59 69 60 52 61 55 62 68 63 86 64 53 65 54 66
REMARK SMILES IDX 67 68 87 69 56 70 41 71 42 72 50 73 43 74 49 75 44 76 45 77
REMARK SMILES IDX 46 78 47 79 48 80 71 81 72 82 80 83 73 84 79 85 74 86 75 87
REMARK SMILES IDX 76 88 77 89 78 90 57 91 58 92 66 93 59 94 65 95 60 96 61 97
REMARK SMILES IDX 62 98 63 99 64 100
REMARK H PARENT 7 17 10 19 4 23 85 56 55 67
REMARK Flexibility Score: inf
ROOT
ATOM      1  C   UNL A   1      51.103  26.440  25.984  1.00  0.00     0.188 C 
ENDROOT
BRANCH   1   2
ATOM      2  C   UNL A   1      52.180  25.007  25.502  1.00  0.00     0.188 C 
BRANCH   2   3
ATOM      3  O   UNL A   1      53.790  24.595  25.502  1.00  0.00    -0.376 OA
BRANCH   3   4
ATOM      4  C   UNL A   1      55.057  24.819  26.598  1.00  0.00     0.202 C 
BRANCH   4   5
ATOM      5  C   UNL A   1      55.289  26.155  27.896  1.00  0.00     0.261 C 
BRANCH   5   6
ATOM      6  O   UNL A   1      54.063  26.892  29.045  1.00  0.00    -0.463 OA
BRANCH   6   7
ATOM      7  C   UNL A   1      53.359  26.572  30.277  1.00  0.00     0.312 C 
ATOM      8  O   UNL A   1      53.874  26.060  31.286  1.00  0.00    -0.252 OA
BRANCH   7   9
ATOM      9  C   UNL A   1      51.904  26.455  30.689  1.00  0.00     0.124 C 
ATOM     10  C   UNL A   1      50.260  28.062  30.118  1.00  0.00     0.107 C 
ATOM     11  C   UNL A   1      50.058  27.515  31.509  1.00  0.00    -0.006 C 
ATOM     12  C   UNL A   1      50.993  26.916  29.503  1.00  0.00     0.048 C 
ATOM     13  C   UNL A   1      51.062  26.702  31.866  1.00  0.00    -0.014 C 
BRANCH  10  14
ATOM     14  N   UNL A   1      51.033  29.275  30.252  1.00  0.00    -0.332 N 
ATOM     15  N   UNL A   1      51.087  30.661  28.287  1.00  0.00    -0.332 N 
ATOM     16  C   UNL A   1      51.555  30.178  29.434  1.00  0.00     0.315 C 
ATOM     17  H   UNL A   1      51.755  31.318  27.985  1.00  0.00     0.165 HD
ATOM     18  O   UNL A   1      52.647  30.642  29.789  1.00  0.00    -0.249 OA
ATOM     19  H   UNL A   1      51.220  29.486  31.195  1.00  0.00     0.165 HD
BRANCH  15  20
ATOM     20  C   UNL A   1      49.989  30.671  27.216  1.00  0.00     0.179 C 
BRANCH  20  21
ATOM     21  C   UNL A   1      48.385  31.683  27.178  1.00  0.00     0.284 C 
BRANCH  21  22
ATOM     22  N   UNL A   1      46.458  31.635  27.244  1.00  0.00    -0.330 N 
ATOM     23  H   UNL A   1      46.727  31.773  26.269  1.00  0.00     0.348 HD
BRANCH  22  24
ATOM     24  C   UNL A   1      45.469  30.150  27.349  1.00  0.00     0.177 C 
ATOM     25  C   UNL A   1      46.069  28.701  27.339  1.00  0.00     0.075 C 
ATOM     26  C   UNL A   1      44.136  29.795  28.209  1.00  0.00     0.075 C 
ENDBRANCH  22  24
BRANCH  22  27
ATOM     27  C   UNL A   1      45.538  32.886  27.846  1.00  0.00     0.177 C 
ATOM     28  C   UNL A   1      45.473  33.258  29.367  1.00  0.00     0.075 C 
ATOM     29  C   UNL A   1      45.291  34.240  27.125  1.00  0.00     0.075 C 
ENDBRANCH  22  27
ENDBRANCH  21  22
ENDBRANCH  20  21
ENDBRANCH  15  20
ENDBRANCH  10  14
ENDBRANCH   7   9
ENDBRANCH   6   7
ENDBRANCH   5   6
ENDBRANCH   4   5
ENDBRANCH   3   4
ENDBRANCH   2   3
ENDBRANCH   1   2
BRANCH   1  30
ATOM     30  O   UNL A   1      49.700  26.750  25.599  1.00  0.00    -0.377 OA
BRANCH  30  31
ATOM     31  C   UNL A   1      48.803  25.949  24.803  1.00  0.00     0.188 C 
BRANCH  31  32
ATOM     32  C   UNL A   1      47.251  26.047  25.041  1.00  0.00     0.188 C 
BRANCH  32  33
ATOM     33  O   UNL A   1      46.296  25.085  24.634  1.00  0.00    -0.376 OA
BRANCH  33  34
ATOM     34  C   UNL A   1      46.328  23.754  25.092  1.00  0.00     0.202 C 
BRANCH  34  35
ATOM     35  C   UNL A   1      45.005  23.142  25.548  1.00  0.00     0.261 C 
BRANCH  35  36
ATOM     36  O   UNL A   1      43.846  23.733  24.954  1.00  0.00    -0.460 OA
BRANCH  36  37
ATOM     37  C   UNL A   1      42.648  23.324  25.427  1.00  0.00     0.338 C 
ATOM     38  O   UNL A   1      42.141  22.218  25.312  1.00  0.00    -0.246 OA
BRANCH  37  39
ATOM     39  C   UNL A   1      42.111  24.420  26.254  1.00  0.00     0.060 A 
ATOM     40  C   UNL A   1      42.382  25.741  25.880  1.00  0.00     0.016 A 
ATOM     41  C   UNL A   1      41.356  24.142  27.399  1.00  0.00     0.016 A 
ATOM     42  C   UNL A   1      41.968  26.791  26.700  1.00  0.00     0.010 A 
ATOM     43  C   UNL A   1      40.944  25.189  28.220  1.00  0.00     0.010 A 
ATOM     44  C   UNL A   1      41.307  26.510  27.904  1.00  0.00    -0.014 A 
BRANCH  44  45
ATOM     45  C   UNL A   1      41.281  27.523  28.984  1.00  0.00     0.031 A 
ATOM     46  C   UNL A   1      42.313  27.387  30.073  1.00  0.00     0.074 A 
ATOM     47  C   UNL A   1      40.373  28.511  29.016  1.00  0.00     0.049 A 
ATOM     48  N   UNL A   1      42.446  28.065  31.182  1.00  0.00    -0.248 NA
ATOM     49  C   UNL A   1      43.328  26.333  29.887  1.00  0.00     0.031 C 
ATOM     50  C   UNL A   1      39.363  28.775  27.994  1.00  0.00     0.029 A 
ATOM     51  N   UNL A   1      40.153  29.476  29.967  1.00  0.00    -0.354 N 
ATOM     52  C   UNL A   1      43.546  27.511  31.828  1.00  0.00     0.074 A 
ATOM     53  C   UNL A   1      44.028  26.426  31.005  1.00  0.00     0.031 C 
ATOM     54  C   UNL A   1      38.619  29.828  28.380  1.00  0.00     0.029 A 
ATOM     55  C   UNL A   1      39.076  30.283  29.693  1.00  0.00     0.049 A 
ATOM     56  H   UNL A   1      40.715  29.579  30.769  1.00  0.00     0.167 HD
ATOM     57  C   UNL A   1      44.107  27.873  33.004  1.00  0.00     0.031 A 
ATOM     58  C   UNL A   1      38.511  31.256  30.438  1.00  0.00     0.031 A 
ATOM     59  C   UNL A   1      43.611  28.938  33.830  1.00  0.00     0.049 A 
ATOM     60  C   UNL A   1      39.101  31.587  31.787  1.00  0.00     0.074 A 
ATOM     61  C   UNL A   1      44.105  29.391  35.039  1.00  0.00     0.029 A 
ATOM     62  N   UNL A   1      42.499  29.711  33.532  1.00  0.00    -0.354 N 
ATOM     63  N   UNL A   1      40.149  31.066  32.381  1.00  0.00    -0.248 NA
ATOM     64  C   UNL A   1      38.431  32.640  32.564  1.00  0.00     0.031 C 
ATOM     65  C   UNL A   1      43.254  30.400  35.503  1.00  0.00     0.029 A 
ATOM     66  C   UNL A   1      42.273  30.621  34.549  1.00  0.00     0.049 A 
ATOM     67  H   UNL A   1      41.952  29.625  32.718  1.00  0.00     0.167 HD
ATOM     68  C   UNL A   1      40.283  31.751  33.586  1.00  0.00     0.074 A 
ATOM     69  C   UNL A   1      39.215  32.729  33.631  1.00  0.00     0.031 C 
ATOM     70  C   UNL A   1      41.206  31.589  34.569  1.00  0.00     0.031 A 
BRANCH  57  71
ATOM     71  C   UNL A   1      45.292  27.076  33.482  1.00  0.00    -0.014 A 
ATOM     72  C   UNL A   1      45.126  25.869  34.186  1.00  0.00     0.010 A 
ATOM     73  C   UNL A   1      46.593  27.535  33.207  1.00  0.00     0.010 A 
ATOM     74  C   UNL A   1      46.241  25.156  34.637  1.00  0.00     0.020 A 
ATOM     75  C   UNL A   1      47.709  26.810  33.630  1.00  0.00     0.020 A 
ATOM     76  C   UNL A   1      47.525  25.632  34.357  1.00  0.00     0.054 A 
BRANCH  76  77
ATOM     77  S   UNL A   1      48.953  24.673  34.931  1.00  0.00     0.124 S 
ATOM     78  O   UNL A   1      49.331  23.943  33.723  1.00  0.00    -0.237 OA
ATOM     79  O   UNL A   1      49.888  25.712  35.354  1.00  0.00    -0.237 OA
ATOM     80  O   UNL A   1      48.409  23.851  36.010  1.00  0.00    -0.744 OA
ENDBRANCH  76  77
ENDBRANCH  57  71
BRANCH  58  81
ATOM     81  C   UNL A   1      37.304  31.974  29.937  1.00  0.00    -0.014 A 
ATOM     82  C   UNL A   1      36.055  31.796  30.558  1.00  0.00     0.010 A 
ATOM     83  C   UNL A   1      37.397  32.833  28.826  1.00  0.00     0.010 A 
ATOM     84  C   UNL A   1      34.920  32.448  30.066  1.00  0.00     0.020 A 
ATOM     85  C   UNL A   1      36.269  33.510  28.350  1.00  0.00     0.020 A 
ATOM     86  C   UNL A   1      35.034  33.303  28.966  1.00  0.00     0.054 A 
BRANCH  86  87
ATOM     87  S   UNL A   1      33.553  34.165  28.373  1.00  0.00     0.124 S 
ATOM     88  O   UNL A   1      34.128  35.275  27.620  1.00  0.00    -0.237 OA
ATOM     89  O   UNL A   1      32.889  33.137  27.575  1.00  0.00    -0.237 OA
ATOM     90  O   UNL A   1      32.856  34.539  29.601  1.00  0.00    -0.744 OA
ENDBRANCH  86  87
ENDBRANCH  58  81
BRANCH  70  91
ATOM     91  C   UNL A   1      41.137  32.516  35.754  1.00  0.00    -0.014 A 
ATOM     92  C   UNL A   1      41.705  33.802  35.714  1.00  0.00     0.010 A 
ATOM     93  C   UNL A   1      40.425  32.118  36.901  1.00  0.00     0.010 A 
ATOM     94  C   UNL A   1      41.587  34.660  36.811  1.00  0.00     0.020 A 
ATOM     95  C   UNL A   1      40.279  32.984  37.987  1.00  0.00     0.020 A 
ATOM     96  C   UNL A   1      40.873  34.245  37.941  1.00  0.00     0.054 A 
BRANCH  96  97
ATOM     97  S   UNL A   1      40.695  35.395  39.331  1.00  0.00     0.124 S 
ATOM     98  O   UNL A   1      39.293  35.786  39.227  1.00  0.00    -0.237 OA
ATOM     99  O   UNL A   1      41.032  34.561  40.482  1.00  0.00    -0.237 OA
ATOM    100  O   UNL A   1      41.660  36.452  39.033  1.00  0.00    -0.744 OA
ENDBRANCH  96  97
ENDBRANCH  70  91
ENDBRANCH  44  45
ENDBRANCH  37  39
ENDBRANCH  36  37
ENDBRANCH  35  36
ENDBRANCH  34  35
ENDBRANCH  33  34
ENDBRANCH  32  33
ENDBRANCH  31  32
ENDBRANCH  30  31
ENDBRANCH   1  30
TORSDOF 29
ENDMDL
MODEL 2
REMARK VINA RESULT:      -7.8      6.522     12.307
REMARK SMILES CC(C)[NH+](CCNC(=O)N[C@@H]1C=C[C@H](C(=O)OCCOCCOCCOCCOC(=O)c2ccc(-c3c4nc(c(-c5ccc(S(=O)(=O)[O-])cc5)c5ccc([nH]5)c(-c5ccc(S(=O)(=O)[O-])cc5)c5nc(c(-c6ccc(S(=O)(=O)[O-])cc6)c6ccc3[nH]6)C=C5)C=C4)cc2)C1)C(C)C
REMARK SMILES IDX 22 1 21 2 20 3 19 4 18 5 17 6 15 7 16 8 14 9 11 10 12 11
REMARK SMILES IDX 92 12 13 13 10 14 7 15 8 16 9 18 6 20 5 21 4 22 2 24 1 25
REMARK SMILES IDX 3 26 93 27 94 28 95 29 23 30 24 31 25 32 26 33 27 34 28 35
REMARK SMILES IDX 29 36 30 37 31 38 32 39 33 40 91 41 34 42 90 43 35 44 36 45
REMARK SMILES IDX 37 46 84 47 38 48 89 49 83 50 85 51 39 52 88 53 82 54 81 55
REMARK SMILES IDX 40 57 70 58 51 59 69 60 52 61 55 62 68 63 86 64 53 65 54 66
REMARK SMILES IDX 67 68 87 69 56 70 41 71 42 72 50 73 43 74 49 75 44 76 45 77
REMARK SMILES IDX 46 78 47 79 48 80 71 81 72 82 80 83 73 84 79 85 74 86 75 87
REMARK SMILES IDX 76 88 77 89 78 90 57 91 58 92 66 93 59 94 65 95 60 96 61 97
REMARK SMILES IDX 62 98 63 99 64 100
REMARK H PARENT 7 17 10 19 4 23 85 56 55 67
REMARK Flexibility Score: inf
ROOT
ATOM      1  C   UNL A   1      48.480  43.534  29.732  1.00  0.00     0.188 C 
ENDROOT
BRANCH   1   2
ATOM      2  C   UNL A   1      49.099  43.042  28.053  1.00  0.00     0.188 C 
BRANCH   2   3
ATOM      3  O   UNL A   1      49.304  43.712  26.546  1.00  0.00    -0.376 OA
BRANCH   3   4
ATOM      4  C   UNL A   1      50.252  44.976  25.945  1.00  0.00     0.202 C 
BRANCH   4   5
ATOM      5  C   UNL A   1      50.110  45.904  24.320  1.00  0.00     0.261 C 
BRANCH   5   6
ATOM      6  O   UNL A   1      48.661  46.108  23.213  1.00  0.00    -0.463 OA
BRANCH   6   7
ATOM      7  C   UNL A   1      47.425  45.427  22.861  1.00  0.00     0.312 C 
ATOM      8  O   UNL A   1      47.119  45.041  21.719  1.00  0.00    -0.252 OA
BRANCH   7   9
ATOM      9  C   UNL A   1      46.085  45.205  23.536  1.00  0.00     0.124 C 
ATOM     10  C   UNL A   1      45.222  43.056  24.036  1.00  0.00     0.107 C 
ATOM     11  C   UNL A   1      44.144  44.009  23.585  1.00  0.00    -0.006 C 
ATOM     12  C   UNL A   1      46.214  44.037  24.569  1.00  0.00     0.048 C 
ATOM     13  C   UNL A   1      44.659  45.181  23.188  1.00  0.00    -0.014 C 
BRANCH  10  14
ATOM     14  N   UNL A   1      45.657  42.330  22.865  1.00  0.00    -0.332 N 
ATOM     15  N   UNL A   1      47.139  40.489  23.310  1.00  0.00    -0.332 N 
ATOM     16  C   UNL A   1      46.616  41.464  22.572  1.00  0.00     0.315 C 
ATOM     17  H   UNL A   1      47.818  40.062  22.740  1.00  0.00     0.165 HD
ATOM     18  O   UNL A   1      47.101  41.578  21.438  1.00  0.00    -0.249 OA
ATOM     19  H   UNL A   1      45.094  42.531  22.082  1.00  0.00     0.165 HD
BRANCH  15  20
ATOM     20  C   UNL A   1      47.175  39.722  24.637  1.00  0.00     0.179 C 
BRANCH  20  21
ATOM     21  C   UNL A   1      45.764  39.427  25.871  1.00  0.00     0.284 C 
BRANCH  21  22
ATOM     22  N   UNL A   1      44.558  38.138  26.648  1.00  0.00    -0.330 N 
ATOM     23  H   UNL A   1      44.233  38.327  25.699  1.00  0.00     0.348 HD
BRANCH  22  24
ATOM     24  C   UNL A   1      44.879  36.386  26.793  1.00  0.00     0.177 C 
ATOM     25  C   UNL A   1      43.855  35.275  26.374  1.00  0.00     0.075 C 
ATOM     26  C   UNL A   1      46.223  35.507  26.542  1.00  0.00     0.075 C 
ENDBRANCH  22  24
BRANCH  22  27
ATOM     27  C   UNL A   1      43.432  38.533  27.809  1.00  0.00     0.177 C 
ATOM     28  C   UNL A   1      43.484  39.853  28.652  1.00  0.00     0.075 C 
ATOM     29  C   UNL A   1      41.915  38.208  27.729  1.00  0.00     0.075 C 
ENDBRANCH  22  27
ENDBRANCH  21  22
ENDBRANCH  20  21
ENDBRANCH  15  20
ENDBRANCH  10  14
ENDBRANCH   7   9
ENDBRANCH   6   7
ENDBRANCH   5   6
ENDBRANCH   4   5
ENDBRANCH   3   4
ENDBRANCH   2   3
ENDBRANCH   1   2
BRANCH   1  30
ATOM     30  O   UNL A   1      47.186  43.226  30.400  1.00  0.00    -0.377 OA
BRANCH  30  31
ATOM     31  C   UNL A   1      46.919  43.143  31.814  1.00  0.00     0.188 C 
BRANCH  31  32
ATOM     32  C   UNL A   1      45.514  42.641  32.314  1.00  0.00     0.188 C 
BRANCH  32  33
ATOM     33  O   UNL A   1      44.661  41.759  31.610  1.00  0.00    -0.376 OA
BRANCH  33  34
ATOM     34  C   UNL A   1      44.113  40.607  32.208  1.00  0.00     0.202 C 
BRANCH  34  35
ATOM     35  C   UNL A   1      44.750  40.130  33.512  1.00  0.00     0.261 C 
BRANCH  35  36
ATOM     36  O   UNL A   1      45.312  38.816  33.449  1.00  0.00    -0.460 OA
BRANCH  36  37
ATOM     37  C   UNL A   1      46.359  38.644  32.612  1.00  0.00     0.338 C 
ATOM     38  O   UNL A   1      47.305  39.400  32.440  1.00  0.00    -0.246 OA
BRANCH  37  39
ATOM     39  C   UNL A   1      46.241  37.291  32.041  1.00  0.00     0.060 A 
ATOM     40  C   UNL A   1      45.718  37.148  30.751  1.00  0.00     0.016 A 
ATOM     41  C   UNL A   1      46.634  36.170  32.782  1.00  0.00     0.016 A 
ATOM     42  C   UNL A   1      45.505  35.872  30.228  1.00  0.00     0.010 A 
ATOM     43  C   UNL A   1      46.419  34.896  32.262  1.00  0.00     0.010 A 
ATOM     44  C   UNL A   1      45.795  34.746  31.011  1.00  0.00    -0.014 A 
BRANCH  44  45
ATOM     45  C   UNL A   1      45.163  33.445  30.694  1.00  0.00     0.031 A 
ATOM     46  C   UNL A   1      46.066  32.352  30.183  1.00  0.00     0.074 A 
ATOM     47  C   UNL A   1      43.844  33.238  30.832  1.00  0.00     0.049 A 
ATOM     48  N   UNL A   1      45.762  31.164  29.733  1.00  0.00    -0.248 NA
ATOM     49  C   UNL A   1      47.511  32.649  30.170  1.00  0.00     0.031 C 
ATOM     50  C   UNL A   1      42.881  34.199  31.366  1.00  0.00     0.029 A 
ATOM     51  N   UNL A   1      43.086  32.139  30.516  1.00  0.00    -0.354 N 
ATOM     52  C   UNL A   1      46.971  30.581  29.372  1.00  0.00     0.074 A 
ATOM     53  C   UNL A   1      48.011  31.551  29.629  1.00  0.00     0.031 C 
ATOM     54  C   UNL A   1      41.653  33.650  31.328  1.00  0.00     0.029 A 
ATOM     55  C   UNL A   1      41.740  32.318  30.730  1.00  0.00     0.049 A 
ATOM     56  H   UNL A   1      43.470  31.301  30.168  1.00  0.00     0.167 HD
ATOM     57  C   UNL A   1      47.199  29.345  28.870  1.00  0.00     0.031 A 
ATOM     58  C   UNL A   1      40.702  31.506  30.445  1.00  0.00     0.031 A 
ATOM     59  C   UNL A   1      46.159  28.393  28.597  1.00  0.00     0.049 A 
ATOM     60  C   UNL A   1      40.970  30.164  29.806  1.00  0.00     0.074 A 
ATOM     61  C   UNL A   1      46.279  27.111  28.091  1.00  0.00     0.029 A 
ATOM     62  N   UNL A   1      44.808  28.624  28.799  1.00  0.00    -0.354 N 
ATOM     63  N   UNL A   1      42.119  29.618  29.482  1.00  0.00    -0.248 NA
ATOM     64  C   UNL A   1      39.800  29.330  29.496  1.00  0.00     0.031 C 
ATOM     65  C   UNL A   1      44.991  26.589  27.930  1.00  0.00     0.029 A 
ATOM     66  C   UNL A   1      44.077  27.519  28.401  1.00  0.00     0.049 A 
ATOM     67  H   UNL A   1      44.425  29.452  29.170  1.00  0.00     0.167 HD
ATOM     68  C   UNL A   1      41.810  28.364  28.962  1.00  0.00     0.074 A 
ATOM     69  C   UNL A   1      40.370  28.229  29.023  1.00  0.00     0.031 C 
ATOM     70  C   UNL A   1      42.642  27.406  28.477  1.00  0.00     0.031 A 
BRANCH  57  71
ATOM     71  C   UNL A   1      48.624  28.980  28.546  1.00  0.00    -0.014 A 
ATOM     72  C   UNL A   1      49.190  29.284  27.294  1.00  0.00     0.010 A 
ATOM     73  C   UNL A   1      49.411  28.335  29.516  1.00  0.00     0.010 A 
ATOM     74  C   UNL A   1      50.508  28.918  27.008  1.00  0.00     0.020 A 
ATOM     75  C   UNL A   1      50.739  27.994  29.245  1.00  0.00     0.020 A 
ATOM     76  C   UNL A   1      51.273  28.273  27.985  1.00  0.00     0.054 A 
BRANCH  76  77
ATOM     77  S   UNL A   1      52.989  27.833  27.596  1.00  0.00     0.124 S 
ATOM     78  O   UNL A   1      52.932  26.372  27.597  1.00  0.00    -0.237 OA
ATOM     79  O   UNL A   1      53.189  28.451  26.288  1.00  0.00    -0.237 OA
ATOM     80  O   UNL A   1      53.757  28.427  28.687  1.00  0.00    -0.744 OA
ENDBRANCH  76  77
ENDBRANCH  57  71
BRANCH  58  81
ATOM     81  C   UNL A   1      39.308  31.944  30.738  1.00  0.00    -0.014 A 
ATOM     82  C   UNL A   1      38.558  32.642  29.774  1.00  0.00     0.010 A 
ATOM     83  C   UNL A   1      38.726  31.676  31.990  1.00  0.00     0.010 A 
ATOM     84  C   UNL A   1      37.262  33.079  30.064  1.00  0.00     0.020 A 
ATOM     85  C   UNL A   1      37.418  32.084  32.274  1.00  0.00     0.020 A 
ATOM     86  C   UNL A   1      36.699  32.795  31.311  1.00  0.00     0.054 A 
BRANCH  86  87
ATOM     87  S   UNL A   1      35.001  33.340  31.648  1.00  0.00     0.124 S 
ATOM     88  O   UNL A   1      34.797  34.354  30.619  1.00  0.00    -0.237 OA
ATOM     89  O   UNL A   1      34.236  32.106  31.481  1.00  0.00    -0.237 OA
ATOM     90  O   UNL A   1      35.067  33.845  33.017  1.00  0.00    -0.744 OA
ENDBRANCH  86  87
ENDBRANCH  58  81
BRANCH  70  91
ATOM     91  C   UNL A   1      42.027  26.110  28.020  1.00  0.00    -0.014 A 
ATOM     92  C   UNL A   1      41.296  26.028  26.821  1.00  0.00     0.010 A 
ATOM     93  C   UNL A   1      42.248  24.938  28.768  1.00  0.00     0.010 A 
ATOM     94  C   UNL A   1      40.773  24.803  26.395  1.00  0.00     0.020 A 
ATOM     95  C   UNL A   1      41.754  23.707  28.330  1.00  0.00     0.020 A 
ATOM     96  C   UNL A   1      41.008  23.650  27.153  1.00  0.00     0.054 A 
BRANCH  96  97
ATOM     97  S   UNL A   1      40.359  22.066  26.554  1.00  0.00     0.124 S 
ATOM     98  O   UNL A   1      41.339  21.700  25.537  1.00  0.00    -0.237 OA
ATOM     99  O   UNL A   1      40.365  21.241  27.760  1.00  0.00    -0.237 OA
ATOM    100  O   UNL A   1      39.031  22.405  26.046  1.00  0.00    -0.744 OA
ENDBRANCH  96  97
ENDBRANCH  70  91
ENDBRANCH  44  45
ENDBRANCH  37  39
ENDBRANCH  36  37
ENDBRANCH  35  36
ENDBRANCH  34  35
ENDBRANCH  33  34
ENDBRANCH  32  33
ENDBRANCH  31  32
ENDBRANCH  30  31
ENDBRANCH   1  30
TORSDOF 29
ENDMDL
MODEL 3
REMARK VINA RESULT:      -7.1      5.156     10.752
REMARK SMILES CC(C)[NH+](CCNC(=O)N[C@@H]1C=C[C@H](C(=O)OCCOCCOCCOCCOC(=O)c2ccc(-c3c4nc(c(-c5ccc(S(=O)(=O)[O-])cc5)c5ccc([nH]5)c(-c5ccc(S(=O)(=O)[O-])cc5)c5nc(c(-c6ccc(S(=O)(=O)[O-])cc6)c6ccc3[nH]6)C=C5)C=C4)cc2)C1)C(C)C
REMARK SMILES IDX 22 1 21 2 20 3 19 4 18 5 17 6 15 7 16 8 14 9 11 10 12 11
REMARK SMILES IDX 92 12 13 13 10 14 7 15 8 16 9 18 6 20 5 21 4 22 2 24 1 25
REMARK SMILES IDX 3 26 93 27 94 28 95 29 23 30 24 31 25 32 26 33 27 34 28 35
REMARK SMILES IDX 29 36 30 37 31 38 32 39 33 40 91 41 34 42 90 43 35 44 36 45
REMARK SMILES IDX 37 46 84 47 38 48 89 49 83 50 85 51 39 52 88 53 82 54 81 55
REMARK SMILES IDX 40 57 70 58 51 59 69 60 52 61 55 62 68 63 86 64 53 65 54 66
REMARK SMILES IDX 67 68 87 69 56 70 41 71 42 72 50 73 43 74 49 75 44 76 45 77
REMARK SMILES IDX 46 78 47 79 48 80 71 81 72 82 80 83 73 84 79 85 74 86 75 87
REMARK SMILES IDX 76 88 77 89 78 90 57 91 58 92 66 93 59 94 65 95 60 96 61 97
REMARK SMILES IDX 62 98 63 99 64 100
REMARK H PARENT 7 17 10 19 4 23 85 56 55 67
REMARK Flexibility Score: inf
ROOT
ATOM      1  C   UNL A   1      43.081  18.767  25.343  1.00  0.00     0.188 C 
ENDROOT
BRANCH   1   2
ATOM      2  C   UNL A   1      41.837  19.861  26.180  1.00  0.00     0.188 C 
BRANCH   2   3
ATOM      3  O   UNL A   1      41.760  21.371  26.870  1.00  0.00    -0.376 OA
BRANCH   3   4
ATOM      4  C   UNL A   1      42.886  22.362  27.651  1.00  0.00     0.202 C 
BRANCH   4   5
ATOM      5  C   UNL A   1      42.769  23.216  29.318  1.00  0.00     0.261 C 
BRANCH   5   6
ATOM      6  O   UNL A   1      43.761  22.950  30.839  1.00  0.00    -0.463 OA
BRANCH   6   7
ATOM      7  C   UNL A   1      44.161  23.657  32.045  1.00  0.00     0.312 C 
ATOM      8  O   UNL A   1      44.066  24.884  32.222  1.00  0.00    -0.252 OA
BRANCH   7   9
ATOM      9  C   UNL A   1      44.997  23.322  33.265  1.00  0.00     0.124 C 
ATOM     10  C   UNL A   1      44.098  23.159  35.451  1.00  0.00     0.107 C 
ATOM     11  C   UNL A   1      45.469  23.789  35.447  1.00  0.00    -0.006 C 
ATOM     12  C   UNL A   1      44.190  22.356  34.195  1.00  0.00     0.048 C 
ATOM     13  C   UNL A   1      45.914  23.989  34.199  1.00  0.00    -0.014 C 
BRANCH  10  14
ATOM     14  N   UNL A   1      43.140  24.239  35.412  1.00  0.00    -0.332 N 
ATOM     15  N   UNL A   1      42.950  25.496  37.454  1.00  0.00    -0.332 N 
ATOM     16  C   UNL A   1      42.517  25.004  36.297  1.00  0.00     0.315 C 
ATOM     17  H   UNL A   1      42.200  26.022  37.814  1.00  0.00     0.165 HD
ATOM     18  O   UNL A   1      41.353  25.307  36.004  1.00  0.00    -0.249 OA
ATOM     19  H   UNL A   1      42.884  24.467  34.488  1.00  0.00     0.165 HD
BRANCH  15  20
ATOM     20  C   UNL A   1      44.075  25.623  38.488  1.00  0.00     0.179 C 
BRANCH  20  21
ATOM     21  C   UNL A   1      45.856  26.226  38.228  1.00  0.00     0.284 C 
BRANCH  21  22
ATOM     22  N   UNL A   1      47.257  27.397  38.847  1.00  0.00    -0.330 N 
ATOM     23  H   UNL A   1      47.704  26.598  38.396  1.00  0.00     0.348 HD
BRANCH  22  24
ATOM     24  C   UNL A   1      47.797  28.885  38.017  1.00  0.00     0.177 C 
ATOM     25  C   UNL A   1      46.977  30.222  38.005  1.00  0.00     0.075 C 
ATOM     26  C   UNL A   1      49.265  29.563  37.855  1.00  0.00     0.075 C 
ENDBRANCH  22  24
BRANCH  22  27
ATOM     27  C   UNL A   1      47.669  27.550  40.454  1.00  0.00     0.177 C 
ATOM     28  C   UNL A   1      46.625  27.796  41.595  1.00  0.00     0.075 C 
ATOM     29  C   UNL A   1      48.809  26.766  41.161  1.00  0.00     0.075 C 
ENDBRANCH  22  27
ENDBRANCH  21  22
ENDBRANCH  20  21
ENDBRANCH  15  20
ENDBRANCH  10  14
ENDBRANCH   7   9
ENDBRANCH   6   7
ENDBRANCH   5   6
ENDBRANCH   4   5
ENDBRANCH   3   4
ENDBRANCH   2   3
ENDBRANCH   1   2
BRANCH   1  30
ATOM     30  O   UNL A   1      44.056  19.082  24.264  1.00  0.00    -0.377 OA
BRANCH  30  31
ATOM     31  C   UNL A   1      45.463  19.370  24.399  1.00  0.00     0.188 C 
BRANCH  31  32
ATOM     32  C   UNL A   1      45.934  20.851  24.645  1.00  0.00     0.188 C 
BRANCH  32  33
ATOM     33  O   UNL A   1      45.117  21.905  25.117  1.00  0.00    -0.376 OA
BRANCH  33  34
ATOM     34  C   UNL A   1      45.650  23.141  25.532  1.00  0.00     0.202 C 
BRANCH  34  35
ATOM     35  C   UNL A   1      46.330  23.998  24.467  1.00  0.00     0.261 C 
BRANCH  35  36
ATOM     36  O   UNL A   1      47.483  24.708  24.928  1.00  0.00    -0.460 OA
BRANCH  36  37
ATOM     37  C   UNL A   1      47.577  24.912  26.260  1.00  0.00     0.338 C 
ATOM     38  O   UNL A   1      47.691  24.067  27.136  1.00  0.00    -0.246 OA
BRANCH  37  39
ATOM     39  C   UNL A   1      47.673  26.368  26.471  1.00  0.00     0.060 A 
ATOM     40  C   UNL A   1      48.412  26.842  27.561  1.00  0.00     0.016 A 
ATOM     41  C   UNL A   1      47.025  27.256  25.605  1.00  0.00     0.016 A 
ATOM     42  C   UNL A   1      48.436  28.209  27.838  1.00  0.00     0.010 A 
ATOM     43  C   UNL A   1      47.046  28.621  25.882  1.00  0.00     0.010 A 
ATOM     44  C   UNL A   1      47.698  29.092  27.036  1.00  0.00    -0.014 A 
BRANCH  44  45
ATOM     45  C   UNL A   1      47.324  30.426  27.558  1.00  0.00     0.031 A 
ATOM     46  C   UNL A   1      46.006  30.532  28.281  1.00  0.00     0.074 A 
ATOM     47  C   UNL A   1      48.104  31.505  27.387  1.00  0.00     0.049 A 
ATOM     48  N   UNL A   1      45.392  31.590  28.739  1.00  0.00    -0.248 NA
ATOM     49  C   UNL A   1      45.279  29.269  28.507  1.00  0.00     0.031 C 
ATOM     50  C   UNL A   1      49.420  31.514  26.753  1.00  0.00     0.029 A 
ATOM     51  N   UNL A   1      47.883  32.815  27.728  1.00  0.00    -0.354 N 
ATOM     52  C   UNL A   1      44.205  31.122  29.293  1.00  0.00     0.074 A 
ATOM     53  C   UNL A   1      44.170  29.692  29.091  1.00  0.00     0.031 C 
ATOM     54  C   UNL A   1      49.886  32.776  26.740  1.00  0.00     0.029 A 
ATOM     55  C   UNL A   1      48.883  33.666  27.325  1.00  0.00     0.049 A 
ATOM     56  H   UNL A   1      47.082  33.117  28.216  1.00  0.00     0.167 HD
ATOM     57  C   UNL A   1      43.228  31.821  29.915  1.00  0.00     0.031 A 
ATOM     58  C   UNL A   1      48.960  35.011  27.398  1.00  0.00     0.031 A 
ATOM     59  C   UNL A   1      43.258  33.246  30.094  1.00  0.00     0.049 A 
ATOM     60  C   UNL A   1      47.819  35.780  28.020  1.00  0.00     0.074 A 
ATOM     61  C   UNL A   1      42.322  34.055  30.712  1.00  0.00     0.029 A 
ATOM     62  N   UNL A   1      44.275  34.074  29.644  1.00  0.00    -0.354 N 
ATOM     63  N   UNL A   1      46.709  35.326  28.552  1.00  0.00    -0.248 NA
ATOM     64  C   UNL A   1      47.946  37.244  28.052  1.00  0.00     0.031 C 
ATOM     65  C   UNL A   1      42.746  35.381  30.583  1.00  0.00     0.029 A 
ATOM     66  C   UNL A   1      43.978  35.391  29.946  1.00  0.00     0.049 A 
ATOM     67  H   UNL A   1      45.088  33.770  29.178  1.00  0.00     0.167 HD
ATOM     68  C   UNL A   1      46.021  36.446  29.011  1.00  0.00     0.074 A 
ATOM     69  C   UNL A   1      46.844  37.597  28.702  1.00  0.00     0.031 C 
ATOM     70  C   UNL A   1      44.816  36.520  29.634  1.00  0.00     0.031 A 
BRANCH  57  71
ATOM     71  C   UNL A   1      42.029  31.052  30.404  1.00  0.00    -0.014 A 
ATOM     72  C   UNL A   1      41.188  30.363  29.510  1.00  0.00     0.010 A 
ATOM     73  C   UNL A   1      41.750  31.006  31.781  1.00  0.00     0.010 A 
ATOM     74  C   UNL A   1      40.069  29.673  29.985  1.00  0.00     0.020 A 
ATOM     75  C   UNL A   1      40.650  30.292  32.262  1.00  0.00     0.020 A 
ATOM     76  C   UNL A   1      39.806  29.643  31.358  1.00  0.00     0.054 A 
BRANCH  76  77
ATOM     77  S   UNL A   1      38.363  28.718  31.948  1.00  0.00     0.124 S 
ATOM     78  O   UNL A   1      37.778  28.242  30.696  1.00  0.00    -0.237 OA
ATOM     79  O   UNL A   1      38.965  27.687  32.790  1.00  0.00    -0.237 OA
ATOM     80  O   UNL A   1      37.575  29.720  32.662  1.00  0.00    -0.744 OA
ENDBRANCH  76  77
ENDBRANCH  57  71
BRANCH  58  81
ATOM     81  C   UNL A   1      50.147  35.723  26.847  1.00  0.00    -0.014 A 
ATOM     82  C   UNL A   1      50.162  36.167  25.513  1.00  0.00     0.010 A 
ATOM     83  C   UNL A   1      51.279  35.949  27.653  1.00  0.00     0.010 A 
ATOM     84  C   UNL A   1      51.291  36.807  24.991  1.00  0.00     0.020 A 
ATOM     85  C   UNL A   1      52.398  36.616  27.143  1.00  0.00     0.020 A 
ATOM     86  C   UNL A   1      52.401  37.030  25.810  1.00  0.00     0.054 A 
BRANCH  86  87
ATOM     87  S   UNL A   1      53.837  37.896  25.119  1.00  0.00     0.124 S 
ATOM     88  O   UNL A   1      54.048  37.182  23.864  1.00  0.00    -0.237 OA
ATOM     89  O   UNL A   1      53.346  39.266  24.991  1.00  0.00    -0.237 OA
ATOM     90  O   UNL A   1      54.874  37.703  26.129  1.00  0.00    -0.744 OA
ENDBRANCH  86  87
ENDBRANCH  58  81
BRANCH  70  91
ATOM     91  C   UNL A   1      44.334  37.879  30.068  1.00  0.00    -0.014 A 
ATOM     92  C   UNL A   1      44.657  38.402  31.332  1.00  0.00     0.010 A 
ATOM     93  C   UNL A   1      43.608  38.675  29.162  1.00  0.00     0.010 A 
ATOM     94  C   UNL A   1      44.236  39.685  31.693  1.00  0.00     0.020 A 
ATOM     95  C   UNL A   1      43.212  39.969  29.508  1.00  0.00     0.020 A 
ATOM     96  C   UNL A   1      43.516  40.462  30.777  1.00  0.00     0.054 A 
BRANCH  96  97
ATOM     97  S   UNL A   1      43.023  42.140  31.253  1.00  0.00     0.124 S 
ATOM     98  O   UNL A   1      43.523  42.228  32.621  1.00  0.00    -0.237 OA
ATOM     99  O   UNL A   1      43.720  42.969  30.274  1.00  0.00    -0.237 OA
ATOM    100  O   UNL A   1      41.567  42.124  31.122  1.00  0.00    -0.744 OA
ENDBRANCH  96  97
ENDBRANCH  70  91
ENDBRANCH  44  45
ENDBRANCH  37  39
ENDBRANCH  36  37
ENDBRANCH  35  36
ENDBRANCH  34  35
ENDBRANCH  33  34
ENDBRANCH  32  33
ENDBRANCH  31  32
ENDBRANCH  30  31
ENDBRANCH   1  30
TORSDOF 29
ENDMDL
