MODEL 1
REMARK VINA RESULT:      -7.1      0.000      0.000
REMARK SMILES Cc1cc(C)c(C(=O)N[C@H](C(=O)OCCOCCOCCOCCOC(=O)c2ccc(-c3c4nc(c(-c5ccc(S(=O)(=O)[O-])cc5)c5ccc([nH]5)c(-c5ccc(S(=O)(=O)[O-])cc5)c5nc(c(-c6ccc(S(=O)(=O)[O-])cc6)c6ccc3[nH]6)C=C5)C=C4)cc2)C(C)C)c(=O)[nH]1
REMARK SMILES IDX 20 1 19 2 18 3 17 4 16 5 15 6 14 7 13 8 11 9 12 10 10 11
REMARK SMILES IDX 9 12 7 13 8 14 6 16 1 17 2 18 3 19 93 20 4 21 91 22 5 24
REMARK SMILES IDX 92 25 88 26 89 27 90 28 21 29 22 30 23 31 24 32 25 33 26 34
REMARK SMILES IDX 27 35 28 36 29 37 87 38 30 39 86 40 31 41 32 42 33 43 80 44
REMARK SMILES IDX 34 45 85 46 79 47 81 48 35 49 84 50 78 51 77 52 36 54 66 55
REMARK SMILES IDX 47 56 65 57 48 58 51 59 64 60 82 61 49 62 50 63 63 65 83 66
REMARK SMILES IDX 52 67 37 68 38 69 46 70 39 71 45 72 40 73 41 74 42 75 43 76
REMARK SMILES IDX 44 77 67 78 68 79 76 80 69 81 75 82 70 83 71 84 72 85 73 86
REMARK SMILES IDX 74 87 53 88 54 89 62 90 55 91 61 92 56 93 57 94 58 95 59 96
REMARK SMILES IDX 60 97
REMARK H PARENT 9 15 93 23 81 53 51 64
REMARK Flexibility Score: inf
ROOT
ATOM      1  C   UNL A   1      33.807  36.703  32.410  1.00  0.00     0.188 C 
ENDROOT
BRANCH   1   2
ATOM      2  O   UNL A   1      32.787  35.944  31.783  1.00  0.00    -0.377 OA
BRANCH   2   3
ATOM      3  C   UNL A   1      32.933  35.676  30.396  1.00  0.00     0.188 C 
BRANCH   3   4
ATOM      4  C   UNL A   1      34.058  34.755  29.893  1.00  0.00     0.188 C 
BRANCH   4   5
ATOM      5  O   UNL A   1      34.714  34.003  30.908  1.00  0.00    -0.376 OA
BRANCH   5   6
ATOM      6  C   UNL A   1      35.173  32.692  30.625  1.00  0.00     0.202 C 
BRANCH   6   7
ATOM      7  C   UNL A   1      36.662  32.402  30.882  1.00  0.00     0.261 C 
BRANCH   7   8
ATOM      8  O   UNL A   1      37.066  31.570  31.989  1.00  0.00    -0.462 OA
BRANCH   8   9
ATOM      9  C   UNL A   1      37.256  30.241  31.824  1.00  0.00     0.328 C 
ATOM     10  O   UNL A   1      36.637  29.366  32.405  1.00  0.00    -0.250 OA
BRANCH   9  11
ATOM     11  C   UNL A   1      38.370  29.956  30.829  1.00  0.00     0.195 C 
BRANCH  11  12
ATOM     12  N   UNL A   1      39.411  29.051  31.373  1.00  0.00    -0.338 N 
ATOM     13  C   UNL A   1      40.488  28.399  30.820  1.00  0.00     0.257 C 
ATOM     14  O   UNL A   1      41.356  27.971  31.580  1.00  0.00    -0.269 OA
ATOM     15  H   UNL A   1      39.309  28.879  32.337  1.00  0.00     0.164 HD
BRANCH  13  16
ATOM     16  C   UNL A   1      40.496  28.034  29.379  1.00  0.00     0.107 A 
ATOM     17  C   UNL A   1      41.326  26.347  25.505  1.00  0.00     0.064 C 
ATOM     18  C   UNL A   1      40.916  27.048  26.766  1.00  0.00     0.015 A 
ATOM     19  C   UNL A   1      41.410  28.240  27.130  1.00  0.00     0.025 A 
ATOM     20  N   UNL A   1      40.055  26.403  27.621  1.00  0.00    -0.326 N 
ATOM     21  C   UNL A   1      41.179  28.772  28.470  1.00  0.00    -0.031 A 
ATOM     22  C   UNL A   1      39.720  26.861  28.880  1.00  0.00     0.261 A 
ATOM     23  H   UNL A   1      39.650  25.560  27.316  1.00  0.00     0.169 HD
ATOM     24  C   UNL A   1      41.830  30.108  28.713  1.00  0.00     0.045 C 
ATOM     25  O   UNL A   1      38.870  26.302  29.569  1.00  0.00    -0.269 OA
ENDBRANCH  13  16
ENDBRANCH  11  12
BRANCH  11  26
ATOM     26  C   UNL A   1      37.843  29.508  29.429  1.00  0.00     0.017 C 
ATOM     27  C   UNL A   1      36.324  29.264  29.366  1.00  0.00     0.010 C 
ATOM     28  C   UNL A   1      38.152  30.574  28.368  1.00  0.00     0.010 C 
ENDBRANCH  11  26
ENDBRANCH   9  11
ENDBRANCH   8   9
ENDBRANCH   7   8
ENDBRANCH   6   7
ENDBRANCH   5   6
ENDBRANCH   4   5
ENDBRANCH   3   4
ENDBRANCH   2   3
ENDBRANCH   1   2
BRANCH   1  29
ATOM     29  C   UNL A   1      34.418  36.006  33.636  1.00  0.00     0.188 C 
BRANCH  29  30
ATOM     30  O   UNL A   1      35.720  35.480  33.477  1.00  0.00    -0.376 OA
BRANCH  30  31
ATOM     31  C   UNL A   1      36.127  34.262  34.072  1.00  0.00     0.202 C 
BRANCH  31  32
ATOM     32  C   UNL A   1      36.265  33.953  35.578  1.00  0.00     0.261 C 
BRANCH  32  33
ATOM     33  O   UNL A   1      37.556  33.869  36.176  1.00  0.00    -0.460 OA
BRANCH  33  34
ATOM     34  C   UNL A   1      37.838  32.791  36.942  1.00  0.00     0.338 C 
ATOM     35  O   UNL A   1      37.221  32.392  37.901  1.00  0.00    -0.246 OA
BRANCH  34  36
ATOM     36  C   UNL A   1      38.912  32.055  36.222  1.00  0.00     0.060 A 
ATOM     37  C   UNL A   1      40.250  32.339  36.532  1.00  0.00     0.016 A 
ATOM     38  C   UNL A   1      38.598  31.028  35.325  1.00  0.00     0.016 A 
ATOM     39  C   UNL A   1      41.277  31.613  35.933  1.00  0.00     0.010 A 
ATOM     40  C   UNL A   1      39.628  30.339  34.682  1.00  0.00     0.010 A 
ATOM     41  C   UNL A   1      40.969  30.658  34.957  1.00  0.00    -0.014 A 
BRANCH  41  42
ATOM     42  C   UNL A   1      42.026  30.261  33.998  1.00  0.00     0.031 A 
ATOM     43  C   UNL A   1      42.383  31.265  32.933  1.00  0.00     0.074 A 
ATOM     44  C   UNL A   1      42.679  29.089  34.081  1.00  0.00     0.049 A 
ATOM     45  N   UNL A   1      43.248  31.171  31.960  1.00  0.00    -0.248 NA
ATOM     46  C   UNL A   1      41.669  32.554  32.984  1.00  0.00     0.031 C 
ATOM     47  C   UNL A   1      42.482  28.073  35.113  1.00  0.00     0.029 A 
ATOM     48  N   UNL A   1      43.656  28.565  33.272  1.00  0.00    -0.354 N 
ATOM     49  C   UNL A   1      43.189  32.389  31.293  1.00  0.00     0.074 A 
ATOM     50  C   UNL A   1      42.184  33.193  31.948  1.00  0.00     0.031 C 
ATOM     51  C   UNL A   1      43.314  27.043  34.871  1.00  0.00     0.029 A 
ATOM     52  C   UNL A   1      44.075  27.312  33.650  1.00  0.00     0.049 A 
ATOM     53  H   UNL A   1      44.022  29.041  32.491  1.00  0.00     0.167 HD
ATOM     54  C   UNL A   1      43.911  32.807  30.229  1.00  0.00     0.031 A 
ATOM     55  C   UNL A   1      44.961  26.479  33.066  1.00  0.00     0.031 A 
ATOM     56  C   UNL A   1      44.876  31.993  29.550  1.00  0.00     0.049 A 
ATOM     57  C   UNL A   1      45.657  26.914  31.800  1.00  0.00     0.074 A 
ATOM     58  C   UNL A   1      45.635  32.307  28.438  1.00  0.00     0.029 A 
ATOM     59  N   UNL A   1      45.208  30.697  29.914  1.00  0.00    -0.354 N 
ATOM     60  N   UNL A   1      45.582  28.062  31.168  1.00  0.00    -0.248 NA
ATOM     61  C   UNL A   1      46.557  25.939  31.167  1.00  0.00     0.031 C 
ATOM     62  C   UNL A   1      46.388  31.179  28.097  1.00  0.00     0.029 A 
ATOM     63  C   UNL A   1      46.145  30.187  29.034  1.00  0.00     0.049 A 
ATOM     64  H   UNL A   1      44.833  30.213  30.686  1.00  0.00     0.167 HD
ATOM     65  C   UNL A   1      46.442  27.956  30.079  1.00  0.00     0.074 A 
ATOM     66  C   UNL A   1      47.036  26.636  30.145  1.00  0.00     0.031 C 
ATOM     67  C   UNL A   1      46.720  28.868  29.114  1.00  0.00     0.031 A 
BRANCH  54  68
ATOM     68  C   UNL A   1      43.645  34.197  29.723  1.00  0.00    -0.014 A 
ATOM     69  C   UNL A   1      42.874  34.410  28.566  1.00  0.00     0.010 A 
ATOM     70  C   UNL A   1      44.160  35.304  30.420  1.00  0.00     0.010 A 
ATOM     71  C   UNL A   1      42.646  35.706  28.100  1.00  0.00     0.020 A 
ATOM     72  C   UNL A   1      43.910  36.604  29.972  1.00  0.00     0.020 A 
ATOM     73  C   UNL A   1      43.164  36.794  28.807  1.00  0.00     0.054 A 
BRANCH  73  74
ATOM     74  S   UNL A   1      42.822  38.466  28.195  1.00  0.00     0.124 S 
ATOM     75  O   UNL A   1      41.526  38.753  28.807  1.00  0.00    -0.237 OA
ATOM     76  O   UNL A   1      43.947  39.234  28.719  1.00  0.00    -0.237 OA
ATOM     77  O   UNL A   1      42.801  38.307  26.742  1.00  0.00    -0.744 OA
ENDBRANCH  73  74
ENDBRANCH  54  68
BRANCH  55  78
ATOM     78  C   UNL A   1      45.236  25.142  33.662  1.00  0.00    -0.014 A 
ATOM     79  C   UNL A   1      46.278  24.975  34.591  1.00  0.00     0.010 A 
ATOM     80  C   UNL A   1      44.457  24.026  33.304  1.00  0.00     0.010 A 
ATOM     81  C   UNL A   1      46.536  23.720  35.151  1.00  0.00     0.020 A 
ATOM     82  C   UNL A   1      44.695  22.775  33.880  1.00  0.00     0.020 A 
ATOM     83  C   UNL A   1      45.737  22.629  34.798  1.00  0.00     0.054 A 
BRANCH  83  84
ATOM     84  S   UNL A   1      46.046  21.028  35.595  1.00  0.00     0.124 S 
ATOM     85  O   UNL A   1      45.042  20.174  34.967  1.00  0.00    -0.237 OA
ATOM     86  O   UNL A   1      47.433  20.759  35.221  1.00  0.00    -0.237 OA
ATOM     87  O   UNL A   1      45.835  21.305  37.014  1.00  0.00    -0.744 OA
ENDBRANCH  83  84
ENDBRANCH  55  78
BRANCH  67  88
ATOM     88  C   UNL A   1      47.723  28.490  28.057  1.00  0.00    -0.014 A 
ATOM     89  C   UNL A   1      47.316  27.918  26.839  1.00  0.00     0.010 A 
ATOM     90  C   UNL A   1      49.084  28.794  28.251  1.00  0.00     0.010 A 
ATOM     91  C   UNL A   1      48.255  27.635  25.844  1.00  0.00     0.020 A 
ATOM     92  C   UNL A   1      50.021  28.539  27.247  1.00  0.00     0.020 A 
ATOM     93  C   UNL A   1      49.602  27.951  26.054  1.00  0.00     0.054 A 
BRANCH  93  94
ATOM     94  S   UNL A   1      50.790  27.622  24.723  1.00  0.00     0.124 S 
ATOM     95  O   UNL A   1      51.181  28.971  24.325  1.00  0.00    -0.237 OA
ATOM     96  O   UNL A   1      51.822  26.842  25.403  1.00  0.00    -0.237 OA
ATOM     97  O   UNL A   1      50.009  26.883  23.734  1.00  0.00    -0.744 OA
ENDBRANCH  93  94
ENDBRANCH  67  88
ENDBRANCH  41  42
ENDBRANCH  34  36
ENDBRANCH  33  34
ENDBRANCH  32  33
ENDBRANCH  31  32
ENDBRANCH  30  31
ENDBRANCH  29  30
ENDBRANCH   1  29
TORSDOF 26
ENDMDL
MODEL 2
REMARK VINA RESULT:      -7.0      3.103      6.470
REMARK SMILES Cc1cc(C)c(C(=O)N[C@H](C(=O)OCCOCCOCCOCCOC(=O)c2ccc(-c3c4nc(c(-c5ccc(S(=O)(=O)[O-])cc5)c5ccc([nH]5)c(-c5ccc(S(=O)(=O)[O-])cc5)c5nc(c(-c6ccc(S(=O)(=O)[O-])cc6)c6ccc3[nH]6)C=C5)C=C4)cc2)C(C)C)c(=O)[nH]1
REMARK SMILES IDX 20 1 19 2 18 3 17 4 16 5 15 6 14 7 13 8 11 9 12 10 10 11
REMARK SMILES IDX 9 12 7 13 8 14 6 16 1 17 2 18 3 19 93 20 4 21 91 22 5 24
REMARK SMILES IDX 92 25 88 26 89 27 90 28 21 29 22 30 23 31 24 32 25 33 26 34
REMARK SMILES IDX 27 35 28 36 29 37 87 38 30 39 86 40 31 41 32 42 33 43 80 44
REMARK SMILES IDX 34 45 85 46 79 47 81 48 35 49 84 50 78 51 77 52 36 54 66 55
REMARK SMILES IDX 47 56 65 57 48 58 51 59 64 60 82 61 49 62 50 63 63 65 83 66
REMARK SMILES IDX 52 67 37 68 38 69 46 70 39 71 45 72 40 73 41 74 42 75 43 76
REMARK SMILES IDX 44 77 67 78 68 79 76 80 69 81 75 82 70 83 71 84 72 85 73 86
REMARK SMILES IDX 74 87 53 88 54 89 62 90 55 91 61 92 56 93 57 94 58 95 59 96
REMARK SMILES IDX 60 97
REMARK H PARENT 9 15 93 23 81 53 51 64
REMARK Flexibility Score: inf
ROOT
ATOM      1  C   UNL A   1      38.200  33.941  34.961  1.00  0.00     0.188 C 
ENDROOT
BRANCH   1   2
ATOM      2  O   UNL A   1      39.284  33.070  34.683  1.00  0.00    -0.377 OA
BRANCH   2   3
ATOM      3  C   UNL A   1      40.570  33.655  34.538  1.00  0.00     0.188 C 
BRANCH   3   4
ATOM      4  C   UNL A   1      41.703  32.887  33.835  1.00  0.00     0.188 C 
BRANCH   4   5
ATOM      5  O   UNL A   1      42.443  32.011  34.677  1.00  0.00    -0.376 OA
BRANCH   5   6
ATOM      6  C   UNL A   1      43.773  32.343  35.042  1.00  0.00     0.202 C 
BRANCH   6   7
ATOM      7  C   UNL A   1      44.829  31.231  34.922  1.00  0.00     0.261 C 
BRANCH   7   8
ATOM      8  O   UNL A   1      44.627  29.956  35.565  1.00  0.00    -0.462 OA
BRANCH   8   9
ATOM      9  C   UNL A   1      45.625  29.046  35.628  1.00  0.00     0.328 C 
ATOM     10  O   UNL A   1      46.811  29.310  35.733  1.00  0.00    -0.250 OA
BRANCH   9  11
ATOM     11  C   UNL A   1      45.092  27.625  35.525  1.00  0.00     0.195 C 
BRANCH  11  12
ATOM     12  N   UNL A   1      44.024  27.336  36.513  1.00  0.00    -0.338 N 
ATOM     13  C   UNL A   1      43.677  26.222  37.240  1.00  0.00     0.257 C 
ATOM     14  O   UNL A   1      42.940  26.375  38.213  1.00  0.00    -0.269 OA
ATOM     15  H   UNL A   1      43.437  28.107  36.684  1.00  0.00     0.164 HD
BRANCH  13  16
ATOM     16  C   UNL A   1      44.002  24.860  36.742  1.00  0.00     0.107 A 
ATOM     17  C   UNL A   1      45.529  21.457  34.590  1.00  0.00     0.064 C 
ATOM     18  C   UNL A   1      44.889  22.520  35.433  1.00  0.00     0.015 A 
ATOM     19  C   UNL A   1      43.679  23.031  35.164  1.00  0.00     0.025 A 
ATOM     20  N   UNL A   1      45.609  23.046  36.478  1.00  0.00    -0.326 N 
ATOM     21  C   UNL A   1      43.198  24.226  35.853  1.00  0.00    -0.031 A 
ATOM     22  C   UNL A   1      45.207  24.130  37.233  1.00  0.00     0.261 A 
ATOM     23  H   UNL A   1      46.468  22.621  36.704  1.00  0.00     0.169 HD
ATOM     24  C   UNL A   1      41.831  24.674  35.408  1.00  0.00     0.045 C 
ATOM     25  O   UNL A   1      45.837  24.503  38.219  1.00  0.00    -0.269 OA
ENDBRANCH  13  16
ENDBRANCH  11  12
BRANCH  11  26
ATOM     26  C   UNL A   1      44.701  27.221  34.068  1.00  0.00     0.017 C 
ATOM     27  C   UNL A   1      43.268  27.611  33.660  1.00  0.00     0.010 C 
ATOM     28  C   UNL A   1      45.635  27.891  33.051  1.00  0.00     0.010 C 
ENDBRANCH  11  26
ENDBRANCH   9  11
ENDBRANCH   8   9
ENDBRANCH   7   8
ENDBRANCH   6   7
ENDBRANCH   5   6
ENDBRANCH   4   5
ENDBRANCH   3   4
ENDBRANCH   2   3
ENDBRANCH   1   2
BRANCH   1  29
ATOM     29  C   UNL A   1      37.560  34.539  33.698  1.00  0.00     0.188 C 
BRANCH  29  30
ATOM     30  O   UNL A   1      36.223  34.981  33.819  1.00  0.00    -0.376 OA
BRANCH  30  31
ATOM     31  C   UNL A   1      35.126  34.088  33.845  1.00  0.00     0.202 C 
BRANCH  31  32
ATOM     32  C   UNL A   1      34.342  33.530  32.638  1.00  0.00     0.261 C 
BRANCH  32  33
ATOM     33  O   UNL A   1      34.758  32.317  32.015  1.00  0.00    -0.460 OA
BRANCH  33  34
ATOM     34  C   UNL A   1      34.806  32.276  30.664  1.00  0.00     0.338 C 
ATOM     35  O   UNL A   1      34.085  32.856  29.887  1.00  0.00    -0.246 OA
BRANCH  34  36
ATOM     36  C   UNL A   1      36.072  31.573  30.326  1.00  0.00     0.060 A 
ATOM     37  C   UNL A   1      36.788  30.939  31.352  1.00  0.00     0.016 A 
ATOM     38  C   UNL A   1      36.494  31.459  28.997  1.00  0.00     0.016 A 
ATOM     39  C   UNL A   1      37.935  30.206  31.057  1.00  0.00     0.010 A 
ATOM     40  C   UNL A   1      37.676  30.773  28.708  1.00  0.00     0.010 A 
ATOM     41  C   UNL A   1      38.418  30.179  29.743  1.00  0.00    -0.014 A 
BRANCH  41  42
ATOM     42  C   UNL A   1      39.843  29.842  29.521  1.00  0.00     0.031 A 
ATOM     43  C   UNL A   1      40.843  30.940  29.772  1.00  0.00     0.074 A 
ATOM     44  C   UNL A   1      40.250  28.615  29.156  1.00  0.00     0.049 A 
ATOM     45  N   UNL A   1      42.141  30.928  29.635  1.00  0.00    -0.248 NA
ATOM     46  C   UNL A   1      40.299  32.224  30.253  1.00  0.00     0.031 C 
ATOM     47  C   UNL A   1      39.388  27.450  28.964  1.00  0.00     0.029 A 
ATOM     48  N   UNL A   1      41.514  28.147  28.891  1.00  0.00    -0.354 N 
ATOM     49  C   UNL A   1      42.567  32.193  30.022  1.00  0.00     0.074 A 
ATOM     50  C   UNL A   1      41.392  32.957  30.369  1.00  0.00     0.031 C 
ATOM     51  C   UNL A   1      40.151  26.400  28.607  1.00  0.00     0.029 A 
ATOM     52  C   UNL A   1      41.548  26.826  28.513  1.00  0.00     0.049 A 
ATOM     53  H   UNL A   1      42.321  28.706  28.963  1.00  0.00     0.167 HD
ATOM     54  C   UNL A   1      43.827  32.678  30.090  1.00  0.00     0.031 A 
ATOM     55  C   UNL A   1      42.587  26.060  28.124  1.00  0.00     0.031 A 
ATOM     56  C   UNL A   1      44.990  31.934  29.703  1.00  0.00     0.049 A 
ATOM     57  C   UNL A   1      43.970  26.664  28.078  1.00  0.00     0.074 A 
ATOM     58  C   UNL A   1      46.310  32.346  29.697  1.00  0.00     0.029 A 
ATOM     59  N   UNL A   1      44.971  30.626  29.243  1.00  0.00    -0.354 N 
ATOM     60  N   UNL A   1      44.359  27.866  28.431  1.00  0.00    -0.248 NA
ATOM     61  C   UNL A   1      45.054  25.805  27.578  1.00  0.00     0.031 C 
ATOM     62  C   UNL A   1      47.084  31.302  29.181  1.00  0.00     0.029 A 
ATOM     63  C   UNL A   1      46.255  30.221  28.927  1.00  0.00     0.049 A 
ATOM     64  H   UNL A   1      44.164  30.069  29.156  1.00  0.00     0.167 HD
ATOM     65  C   UNL A   1      45.735  27.900  28.220  1.00  0.00     0.074 A 
ATOM     66  C   UNL A   1      46.111  26.594  27.720  1.00  0.00     0.031 C 
ATOM     67  C   UNL A   1      46.608  28.918  28.424  1.00  0.00     0.031 A 
BRANCH  54  68
ATOM     68  C   UNL A   1      43.993  34.093  30.567  1.00  0.00    -0.014 A 
ATOM     69  C   UNL A   1      44.358  34.370  31.897  1.00  0.00     0.010 A 
ATOM     70  C   UNL A   1      43.795  35.159  29.672  1.00  0.00     0.010 A 
ATOM     71  C   UNL A   1      44.496  35.690  32.330  1.00  0.00     0.020 A 
ATOM     72  C   UNL A   1      43.960  36.481  30.095  1.00  0.00     0.020 A 
ATOM     73  C   UNL A   1      44.299  36.737  31.425  1.00  0.00     0.054 A 
BRANCH  73  74
ATOM     74  S   UNL A   1      44.518  38.439  32.010  1.00  0.00     0.124 S 
ATOM     75  O   UNL A   1      44.287  39.210  30.790  1.00  0.00    -0.237 OA
ATOM     76  O   UNL A   1      43.485  38.560  33.033  1.00  0.00    -0.237 OA
ATOM     77  O   UNL A   1      45.892  38.461  32.508  1.00  0.00    -0.744 OA
ENDBRANCH  73  74
ENDBRANCH  54  68
BRANCH  55  78
ATOM     78  C   UNL A   1      42.366  24.639  27.735  1.00  0.00    -0.014 A 
ATOM     79  C   UNL A   1      42.374  23.624  28.708  1.00  0.00     0.010 A 
ATOM     80  C   UNL A   1      42.147  24.293  26.389  1.00  0.00     0.010 A 
ATOM     81  C   UNL A   1      42.165  22.291  28.342  1.00  0.00     0.020 A 
ATOM     82  C   UNL A   1      41.913  22.965  26.023  1.00  0.00     0.020 A 
ATOM     83  C   UNL A   1      41.928  21.970  27.003  1.00  0.00     0.054 A 
BRANCH  83  84
ATOM     84  S   UNL A   1      41.587  20.241  26.567  1.00  0.00     0.124 S 
ATOM     85  O   UNL A   1      40.171  20.287  26.216  1.00  0.00    -0.237 OA
ATOM     86  O   UNL A   1      42.508  20.015  25.455  1.00  0.00    -0.237 OA
ATOM     87  O   UNL A   1      41.908  19.509  27.790  1.00  0.00    -0.744 OA
ENDBRANCH  83  84
ENDBRANCH  55  78
BRANCH  67  88
ATOM     88  C   UNL A   1      48.063  28.665  28.131  1.00  0.00    -0.014 A 
ATOM     89  C   UNL A   1      48.615  28.965  26.874  1.00  0.00     0.010 A 
ATOM     90  C   UNL A   1      48.907  28.201  29.158  1.00  0.00     0.010 A 
ATOM     91  C   UNL A   1      49.981  28.787  26.642  1.00  0.00     0.020 A 
ATOM     92  C   UNL A   1      50.279  28.048  28.939  1.00  0.00     0.020 A 
ATOM     93  C   UNL A   1      50.805  28.331  27.678  1.00  0.00     0.054 A 
BRANCH  93  94
ATOM     94  S   UNL A   1      52.583  28.159  27.363  1.00  0.00     0.124 S 
ATOM     95  O   UNL A   1      52.666  28.432  25.931  1.00  0.00    -0.237 OA
ATOM     96  O   UNL A   1      53.161  29.182  28.232  1.00  0.00    -0.237 OA
ATOM     97  O   UNL A   1      52.874  26.782  27.753  1.00  0.00    -0.744 OA
ENDBRANCH  93  94
ENDBRANCH  67  88
ENDBRANCH  41  42
ENDBRANCH  34  36
ENDBRANCH  33  34
ENDBRANCH  32  33
ENDBRANCH  31  32
ENDBRANCH  30  31
ENDBRANCH  29  30
ENDBRANCH   1  29
TORSDOF 26
ENDMDL
MODEL 3
REMARK VINA RESULT:      -7.0      6.912     14.390
REMARK SMILES Cc1cc(C)c(C(=O)N[C@H](C(=O)OCCOCCOCCOCCOC(=O)c2ccc(-c3c4nc(c(-c5ccc(S(=O)(=O)[O-])cc5)c5ccc([nH]5)c(-c5ccc(S(=O)(=O)[O-])cc5)c5nc(c(-c6ccc(S(=O)(=O)[O-])cc6)c6ccc3[nH]6)C=C5)C=C4)cc2)C(C)C)c(=O)[nH]1
REMARK SMILES IDX 20 1 19 2 18 3 17 4 16 5 15 6 14 7 13 8 11 9 12 10 10 11
REMARK SMILES IDX 9 12 7 13 8 14 6 16 1 17 2 18 3 19 93 20 4 21 91 22 5 24
REMARK SMILES IDX 92 25 88 26 89 27 90 28 21 29 22 30 23 31 24 32 25 33 26 34
REMARK SMILES IDX 27 35 28 36 29 37 87 38 30 39 86 40 31 41 32 42 33 43 80 44
REMARK SMILES IDX 34 45 85 46 79 47 81 48 35 49 84 50 78 51 77 52 36 54 66 55
REMARK SMILES IDX 47 56 65 57 48 58 51 59 64 60 82 61 49 62 50 63 63 65 83 66
REMARK SMILES IDX 52 67 37 68 38 69 46 70 39 71 45 72 40 73 41 74 42 75 43 76
REMARK SMILES IDX 44 77 67 78 68 79 76 80 69 81 75 82 70 83 71 84 72 85 73 86
REMARK SMILES IDX 74 87 53 88 54 89 62 90 55 91 61 92 56 93 57 94 58 95 59 96
REMARK SMILES IDX 60 97
REMARK H PARENT 9 15 93 23 81 53 51 64
REMARK Flexibility Score: inf
ROOT
ATOM      1  C   UNL A   1      46.583  22.357  37.711  1.00  0.00     0.188 C 
ENDROOT
BRANCH   1   2
ATOM      2  O   UNL A   1      45.716  21.243  37.854  1.00  0.00    -0.377 OA
BRANCH   2   3
ATOM      3  C   UNL A   1      46.169  19.996  37.347  1.00  0.00     0.188 C 
BRANCH   3   4
ATOM      4  C   UNL A   1      46.069  18.722  38.205  1.00  0.00     0.188 C 
BRANCH   4   5
ATOM      5  O   UNL A   1      46.033  18.948  39.609  1.00  0.00    -0.376 OA
BRANCH   5   6
ATOM      6  C   UNL A   1      45.547  17.933  40.472  1.00  0.00     0.202 C 
BRANCH   6   7
ATOM      7  C   UNL A   1      44.668  16.839  39.840  1.00  0.00     0.261 C 
BRANCH   7   8
ATOM      8  O   UNL A   1      43.305  16.653  40.273  1.00  0.00    -0.462 OA
BRANCH   8   9
ATOM      9  C   UNL A   1      42.952  15.572  41.003  1.00  0.00     0.328 C 
ATOM     10  O   UNL A   1      42.933  14.423  40.594  1.00  0.00    -0.250 OA
BRANCH   9  11
ATOM     11  C   UNL A   1      42.545  15.960  42.416  1.00  0.00     0.195 C 
BRANCH  11  12
ATOM     12  N   UNL A   1      41.370  15.200  42.909  1.00  0.00    -0.338 N 
ATOM     13  C   UNL A   1      41.190  14.267  43.903  1.00  0.00     0.257 C 
ATOM     14  O   UNL A   1      40.042  14.047  44.286  1.00  0.00    -0.269 OA
ATOM     15  H   UNL A   1      40.543  15.407  42.418  1.00  0.00     0.164 HD
BRANCH  13  16
ATOM     16  C   UNL A   1      42.315  13.401  44.343  1.00  0.00     0.107 A 
ATOM     17  C   UNL A   1      46.160  11.612  45.090  1.00  0.00     0.064 C 
ATOM     18  C   UNL A   1      44.747  12.083  44.910  1.00  0.00     0.015 A 
ATOM     19  C   UNL A   1      43.958  11.654  43.915  1.00  0.00     0.025 A 
ATOM     20  N   UNL A   1      44.269  13.052  45.758  1.00  0.00    -0.326 N 
ATOM     21  C   UNL A   1      42.686  12.312  43.627  1.00  0.00    -0.031 A 
ATOM     22  C   UNL A   1      43.051  13.684  45.611  1.00  0.00     0.261 A 
ATOM     23  H   UNL A   1      44.833  13.313  46.522  1.00  0.00     0.169 HD
ATOM     24  C   UNL A   1      41.945  11.716  42.459  1.00  0.00     0.045 C 
ATOM     25  O   UNL A   1      42.624  14.474  46.449  1.00  0.00    -0.269 OA
ENDBRANCH  13  16
ENDBRANCH  11  12
BRANCH  11  26
ATOM     26  C   UNL A   1      43.740  15.955  43.422  1.00  0.00     0.017 C 
ATOM     27  C   UNL A   1      45.039  15.342  42.868  1.00  0.00     0.010 C 
ATOM     28  C   UNL A   1      44.090  17.387  43.853  1.00  0.00     0.010 C 
ENDBRANCH  11  26
ENDBRANCH   9  11
ENDBRANCH   8   9
ENDBRANCH   7   8
ENDBRANCH   6   7
ENDBRANCH   5   6
ENDBRANCH   4   5
ENDBRANCH   3   4
ENDBRANCH   2   3
ENDBRANCH   1   2
BRANCH   1  29
ATOM     29  C   UNL A   1      48.042  22.042  38.078  1.00  0.00     0.188 C 
BRANCH  29  30
ATOM     30  O   UNL A   1      49.033  22.553  37.209  1.00  0.00    -0.376 OA
BRANCH  30  31
ATOM     31  C   UNL A   1      49.424  23.913  37.216  1.00  0.00     0.202 C 
BRANCH  31  32
ATOM     32  C   UNL A   1      48.873  25.044  38.110  1.00  0.00     0.261 C 
BRANCH  32  33
ATOM     33  O   UNL A   1      47.963  26.000  37.572  1.00  0.00    -0.460 OA
BRANCH  33  34
ATOM     34  C   UNL A   1      48.452  27.199  37.181  1.00  0.00     0.338 C 
ATOM     35  O   UNL A   1      49.613  27.519  37.079  1.00  0.00    -0.246 OA
BRANCH  34  36
ATOM     36  C   UNL A   1      47.284  27.964  36.668  1.00  0.00     0.060 A 
ATOM     37  C   UNL A   1      45.994  27.466  36.904  1.00  0.00     0.016 A 
ATOM     38  C   UNL A   1      47.459  29.206  36.049  1.00  0.00     0.016 A 
ATOM     39  C   UNL A   1      44.877  28.197  36.505  1.00  0.00     0.010 A 
ATOM     40  C   UNL A   1      46.341  29.912  35.598  1.00  0.00     0.010 A 
ATOM     41  C   UNL A   1      45.051  29.389  35.792  1.00  0.00    -0.014 A 
BRANCH  41  42
ATOM     42  C   UNL A   1      43.928  29.887  34.964  1.00  0.00     0.031 A 
ATOM     43  C   UNL A   1      43.105  31.007  35.544  1.00  0.00     0.074 A 
ATOM     44  C   UNL A   1      43.666  29.409  33.735  1.00  0.00     0.049 A 
ATOM     45  N   UNL A   1      42.060  31.612  35.049  1.00  0.00    -0.248 NA
ATOM     46  C   UNL A   1      43.531  31.517  36.861  1.00  0.00     0.031 C 
ATOM     47  C   UNL A   1      44.438  28.387  33.033  1.00  0.00     0.029 A 
ATOM     48  N   UNL A   1      42.664  29.740  32.856  1.00  0.00    -0.354 N 
ATOM     49  C   UNL A   1      41.712  32.577  35.987  1.00  0.00     0.074 A 
ATOM     50  C   UNL A   1      42.634  32.459  37.092  1.00  0.00     0.031 C 
ATOM     51  C   UNL A   1      43.878  28.172  31.828  1.00  0.00     0.029 A 
ATOM     52  C   UNL A   1      42.690  29.015  31.689  1.00  0.00     0.049 A 
ATOM     53  H   UNL A   1      41.989  30.432  33.044  1.00  0.00     0.167 HD
ATOM     54  C   UNL A   1      40.716  33.489  35.933  1.00  0.00     0.031 A 
ATOM     55  C   UNL A   1      41.842  29.026  30.640  1.00  0.00     0.031 A 
ATOM     56  C   UNL A   1      39.772  33.577  34.857  1.00  0.00     0.049 A 
ATOM     57  C   UNL A   1      40.656  29.959  30.662  1.00  0.00     0.074 A 
ATOM     58  C   UNL A   1      38.700  34.440  34.722  1.00  0.00     0.029 A 
ATOM     59  N   UNL A   1      39.782  32.765  33.733  1.00  0.00    -0.354 N 
ATOM     60  N   UNL A   1      40.328  30.857  31.561  1.00  0.00    -0.248 NA
ATOM     61  C   UNL A   1      39.725  29.878  29.527  1.00  0.00     0.031 C 
ATOM     62  C   UNL A   1      38.029  34.112  33.540  1.00  0.00     0.029 A 
ATOM     63  C   UNL A   1      38.720  33.090  32.909  1.00  0.00     0.049 A 
ATOM     64  H   UNL A   1      40.447  32.063  33.548  1.00  0.00     0.167 HD
ATOM     65  C   UNL A   1      39.167  31.464  31.088  1.00  0.00     0.074 A 
ATOM     66  C   UNL A   1      38.859  30.840  29.818  1.00  0.00     0.031 C 
ATOM     67  C   UNL A   1      38.426  32.452  31.651  1.00  0.00     0.031 A 
BRANCH  54  68
ATOM     68  C   UNL A   1      40.584  34.432  37.095  1.00  0.00    -0.014 A 
ATOM     69  C   UNL A   1      41.311  35.636  37.136  1.00  0.00     0.010 A 
ATOM     70  C   UNL A   1      39.713  34.118  38.154  1.00  0.00     0.010 A 
ATOM     71  C   UNL A   1      41.188  36.497  38.228  1.00  0.00     0.020 A 
ATOM     72  C   UNL A   1      39.567  34.991  39.235  1.00  0.00     0.020 A 
ATOM     73  C   UNL A   1      40.315  36.169  39.269  1.00  0.00     0.054 A 
BRANCH  73  74
ATOM     74  S   UNL A   1      40.154  37.324  40.658  1.00  0.00     0.124 S 
ATOM     75  O   UNL A   1      41.184  36.840  41.575  1.00  0.00    -0.237 OA
ATOM     76  O   UNL A   1      40.427  38.614  40.032  1.00  0.00    -0.237 OA
ATOM     77  O   UNL A   1      38.778  37.132  41.112  1.00  0.00    -0.744 OA
ENDBRANCH  73  74
ENDBRANCH  54  68
BRANCH  55  78
ATOM     78  C   UNL A   1      42.071  28.117  29.483  1.00  0.00    -0.014 A 
ATOM     79  C   UNL A   1      42.836  28.544  28.382  1.00  0.00     0.010 A 
ATOM     80  C   UNL A   1      41.526  26.820  29.473  1.00  0.00     0.010 A 
ATOM     81  C   UNL A   1      43.052  27.691  27.296  1.00  0.00     0.020 A 
ATOM     82  C   UNL A   1      41.761  25.956  28.400  1.00  0.00     0.020 A 
ATOM     83  C   UNL A   1      42.520  26.398  27.315  1.00  0.00     0.054 A 
BRANCH  83  84
ATOM     84  S   UNL A   1      42.877  25.287  25.925  1.00  0.00     0.124 S 
ATOM     85  O   UNL A   1      42.159  25.927  24.828  1.00  0.00    -0.237 OA
ATOM     86  O   UNL A   1      44.336  25.346  25.849  1.00  0.00    -0.237 OA
ATOM     87  O   UNL A   1      42.337  24.003  26.366  1.00  0.00    -0.744 OA
ENDBRANCH  83  84
ENDBRANCH  55  78
BRANCH  67  88
ATOM     88  C   UNL A   1      37.218  32.941  30.897  1.00  0.00    -0.014 A 
ATOM     89  C   UNL A   1      35.918  32.607  31.312  1.00  0.00     0.010 A 
ATOM     90  C   UNL A   1      37.388  33.819  29.810  1.00  0.00     0.010 A 
ATOM     91  C   UNL A   1      34.808  33.125  30.639  1.00  0.00     0.020 A 
ATOM     92  C   UNL A   1      36.281  34.362  29.153  1.00  0.00     0.020 A 
ATOM     93  C   UNL A   1      34.997  34.001  29.565  1.00  0.00     0.054 A 
BRANCH  93  94
ATOM     94  S   UNL A   1      33.538  34.700  28.745  1.00  0.00     0.124 S 
ATOM     95  O   UNL A   1      34.073  35.930  28.169  1.00  0.00    -0.237 OA
ATOM     96  O   UNL A   1      33.183  33.658  27.784  1.00  0.00    -0.237 OA
ATOM     97  O   UNL A   1      32.582  34.886  29.834  1.00  0.00    -0.744 OA
ENDBRANCH  93  94
ENDBRANCH  67  88
ENDBRANCH  41  42
ENDBRANCH  34  36
ENDBRANCH  33  34
ENDBRANCH  32  33
ENDBRANCH  31  32
ENDBRANCH  30  31
ENDBRANCH  29  30
ENDBRANCH   1  29
TORSDOF 26
ENDMDL
