MODEL 1
REMARK VINA RESULT:      -8.4      0.000      0.000
REMARK SMILES COc1cc(NS(=O)(=O)c2cc(C)c(C(=O)OCCOCCOCCOCCOC(=O)c3ccc(-c4c5nc(c(-c6ccc(S(=O)(=O)[O-])cc6)c6ccc([nH]6)c(-c6ccc(S(=O)(=O)[O-])cc6)c6nc(c(-c7ccc(S(=O)(=O)[O-])cc7)c7ccc4[nH]7)C=C6)C=C5)cc3)s2)cc(OC)c1
REMARK SMILES IDX 22 1 21 2 20 3 19 4 18 5 17 6 15 7 16 8 14 9 10 10 11 11
REMARK SMILES IDX 92 12 12 13 13 14 7 15 8 16 9 17 6 18 5 20 3 21 4 22 97 23
REMARK SMILES IDX 94 24 93 25 2 26 1 27 95 28 96 29 23 30 24 31 25 32 26 33
REMARK SMILES IDX 27 34 28 35 29 36 30 37 31 38 32 39 33 40 91 41 34 42 90 43
REMARK SMILES IDX 35 44 36 45 37 46 84 47 38 48 89 49 83 50 85 51 39 52 88 53
REMARK SMILES IDX 82 54 81 55 40 57 70 58 51 59 69 60 52 61 55 62 68 63 86 64
REMARK SMILES IDX 53 65 54 66 67 68 87 69 56 70 41 71 42 72 50 73 43 74 49 75
REMARK SMILES IDX 44 76 45 77 46 78 47 79 48 80 71 81 72 82 80 83 73 84 79 85
REMARK SMILES IDX 74 86 75 87 76 88 77 89 78 90 57 91 58 92 66 93 59 94 65 95
REMARK SMILES IDX 60 96 61 97 62 98 63 99 64 100
REMARK H PARENT 6 19 85 56 55 67
REMARK Flexibility Score: inf
ROOT
ATOM      1  C   UNL A   1      35.739  21.208  25.680  1.00  0.00     0.188 C 
ENDROOT
BRANCH   1   2
ATOM      2  C   UNL A   1      34.400  21.608  26.326  1.00  0.00     0.188 C 
BRANCH   2   3
ATOM      3  O   UNL A   1      33.298  20.781  25.963  1.00  0.00    -0.376 OA
BRANCH   3   4
ATOM      4  C   UNL A   1      32.508  21.241  24.874  1.00  0.00     0.202 C 
BRANCH   4   5
ATOM      5  C   UNL A   1      32.432  22.771  24.774  1.00  0.00     0.261 C 
BRANCH   5   6
ATOM      6  O   UNL A   1      31.140  23.316  25.069  1.00  0.00    -0.459 OA
BRANCH   6   7
ATOM      7  C   UNL A   1      31.074  24.220  26.077  1.00  0.00     0.348 C 
ATOM      8  O   UNL A   1      31.043  23.912  27.266  1.00  0.00    -0.245 OA
BRANCH   7   9
ATOM      9  C   UNL A   1      31.170  25.567  25.544  1.00  0.00     0.116 A 
ATOM     10  C   UNL A   1      31.694  27.973  25.484  1.00  0.00     0.141 A 
ATOM     11  C   UNL A   1      30.878  27.599  24.434  1.00  0.00     0.038 A 
ATOM     12  S   UNL A   1      32.323  26.607  26.285  1.00  0.00    -0.115 S 
ATOM     13  C   UNL A   1      30.512  26.206  24.494  1.00  0.00    -0.024 A 
ATOM     14  C   UNL A   1      29.457  25.613  23.610  1.00  0.00     0.046 C 
BRANCH  10  15
ATOM     15  S   UNL A   1      32.041  29.554  26.220  1.00  0.00     0.271 S 
ATOM     16  O   UNL A   1      31.748  29.388  27.628  1.00  0.00    -0.200 OA
ATOM     17  O   UNL A   1      31.359  30.567  25.442  1.00  0.00    -0.200 OA
BRANCH  15  18
ATOM     18  N   UNL A   1      33.726  29.858  26.108  1.00  0.00    -0.279 N 
ATOM     19  H   UNL A   1      34.217  29.699  25.269  1.00  0.00     0.180 HD
BRANCH  18  20
ATOM     20  C   UNL A   1      34.396  30.356  27.280  1.00  0.00     0.056 A 
ATOM     21  C   UNL A   1      36.166  30.096  28.929  1.00  0.00     0.124 A 
ATOM     22  C   UNL A   1      35.381  29.585  27.895  1.00  0.00     0.073 A 
ATOM     23  C   UNL A   1      35.840  31.330  29.475  1.00  0.00     0.093 A 
ATOM     24  C   UNL A   1      34.752  32.051  28.964  1.00  0.00     0.124 A 
ATOM     25  C   UNL A   1      34.070  31.592  27.828  1.00  0.00     0.073 A 
BRANCH  21  26
ATOM     26  O   UNL A   1      37.210  29.292  29.287  1.00  0.00    -0.497 OA
ATOM     27  C   UNL A   1      38.253  29.844  30.082  1.00  0.00     0.278 C 
ENDBRANCH  21  26
BRANCH  24  28
ATOM     28  O   UNL A   1      34.280  33.223  29.498  1.00  0.00    -0.497 OA
ATOM     29  C   UNL A   1      33.751  34.156  28.556  1.00  0.00     0.278 C 
ENDBRANCH  24  28
ENDBRANCH  18  20
ENDBRANCH  15  18
ENDBRANCH  10  15
ENDBRANCH   7   9
ENDBRANCH   6   7
ENDBRANCH   5   6
ENDBRANCH   4   5
ENDBRANCH   3   4
ENDBRANCH   2   3
ENDBRANCH   1   2
BRANCH   1  30
ATOM     30  O   UNL A   1      36.539  22.231  25.119  1.00  0.00    -0.377 OA
BRANCH  30  31
ATOM     31  C   UNL A   1      37.787  22.553  25.724  1.00  0.00     0.188 C 
BRANCH  31  32
ATOM     32  C   UNL A   1      38.867  21.476  25.966  1.00  0.00     0.188 C 
BRANCH  32  33
ATOM     33  O   UNL A   1      39.945  21.867  26.808  1.00  0.00    -0.376 OA
BRANCH  33  34
ATOM     34  C   UNL A   1      41.005  20.932  26.956  1.00  0.00     0.202 C 
BRANCH  34  35
ATOM     35  C   UNL A   1      42.245  21.249  26.114  1.00  0.00     0.261 C 
BRANCH  35  36
ATOM     36  O   UNL A   1      42.131  22.419  25.291  1.00  0.00    -0.460 OA
BRANCH  36  37
ATOM     37  C   UNL A   1      43.275  23.054  24.952  1.00  0.00     0.338 C 
ATOM     38  O   UNL A   1      43.909  22.945  23.920  1.00  0.00    -0.246 OA
BRANCH  37  39
ATOM     39  C   UNL A   1      43.536  24.060  25.997  1.00  0.00     0.060 A 
ATOM     40  C   UNL A   1      44.849  24.500  26.209  1.00  0.00     0.016 A 
ATOM     41  C   UNL A   1      42.475  24.583  26.738  1.00  0.00     0.016 A 
ATOM     42  C   UNL A   1      45.105  25.460  27.187  1.00  0.00     0.010 A 
ATOM     43  C   UNL A   1      42.736  25.524  27.730  1.00  0.00     0.010 A 
ATOM     44  C   UNL A   1      44.054  25.949  27.974  1.00  0.00    -0.014 A 
BRANCH  44  45
ATOM     45  C   UNL A   1      44.330  26.764  29.177  1.00  0.00     0.031 A 
ATOM     46  C   UNL A   1      44.614  26.046  30.466  1.00  0.00     0.074 A 
ATOM     47  C   UNL A   1      44.286  28.106  29.135  1.00  0.00     0.049 A 
ATOM     48  N   UNL A   1      44.782  26.536  31.664  1.00  0.00    -0.248 NA
ATOM     49  C   UNL A   1      44.720  24.579  30.389  1.00  0.00     0.031 C 
ATOM     50  C   UNL A   1      44.060  28.910  27.935  1.00  0.00     0.029 A 
ATOM     51  N   UNL A   1      44.413  29.027  30.143  1.00  0.00    -0.354 N 
ATOM     52  C   UNL A   1      45.008  25.439  32.487  1.00  0.00     0.074 A 
ATOM     53  C   UNL A   1      44.937  24.258  31.655  1.00  0.00     0.031 C 
ATOM     54  C   UNL A   1      44.048  30.211  28.282  1.00  0.00     0.029 A 
ATOM     55  C   UNL A   1      44.226  30.324  29.729  1.00  0.00     0.049 A 
ATOM     56  H   UNL A   1      44.620  28.784  31.074  1.00  0.00     0.167 HD
ATOM     57  C   UNL A   1      45.252  25.417  33.818  1.00  0.00     0.031 A 
ATOM     58  C   UNL A   1      44.172  31.466  30.444  1.00  0.00     0.031 A 
ATOM     59  C   UNL A   1      45.283  26.589  34.647  1.00  0.00     0.049 A 
ATOM     60  C   UNL A   1      44.346  31.408  31.940  1.00  0.00     0.074 A 
ATOM     61  C   UNL A   1      45.523  26.674  36.008  1.00  0.00     0.029 A 
ATOM     62  N   UNL A   1      45.052  27.880  34.198  1.00  0.00    -0.354 N 
ATOM     63  N   UNL A   1      44.584  30.368  32.703  1.00  0.00    -0.248 NA
ATOM     64  C   UNL A   1      44.238  32.679  32.671  1.00  0.00     0.031 C 
ATOM     65  C   UNL A   1      45.383  28.013  36.389  1.00  0.00     0.029 A 
ATOM     66  C   UNL A   1      45.112  28.767  35.258  1.00  0.00     0.049 A 
ATOM     67  H   UNL A   1      44.870  28.128  33.263  1.00  0.00     0.167 HD
ATOM     68  C   UNL A   1      44.678  30.862  34.000  1.00  0.00     0.074 A 
ATOM     69  C   UNL A   1      44.480  32.294  33.918  1.00  0.00     0.031 C 
ATOM     70  C   UNL A   1      44.910  30.191  35.156  1.00  0.00     0.031 A 
BRANCH  57  71
ATOM     71  C   UNL A   1      45.461  24.072  34.455  1.00  0.00    -0.014 A 
ATOM     72  C   UNL A   1      44.415  23.136  34.529  1.00  0.00     0.010 A 
ATOM     73  C   UNL A   1      46.722  23.739  34.979  1.00  0.00     0.010 A 
ATOM     74  C   UNL A   1      44.616  21.902  35.154  1.00  0.00     0.020 A 
ATOM     75  C   UNL A   1      46.934  22.496  35.583  1.00  0.00     0.020 A 
ATOM     76  C   UNL A   1      45.874  21.593  35.682  1.00  0.00     0.054 A 
BRANCH  76  77
ATOM     77  S   UNL A   1      46.110  19.981  36.479  1.00  0.00     0.124 S 
ATOM     78  O   UNL A   1      45.819  20.291  37.875  1.00  0.00    -0.237 OA
ATOM     79  O   UNL A   1      45.124  19.141  35.804  1.00  0.00    -0.237 OA
ATOM     80  O   UNL A   1      47.504  19.654  36.190  1.00  0.00    -0.744 OA
ENDBRANCH  76  77
ENDBRANCH  57  71
BRANCH  58  81
ATOM     81  C   UNL A   1      43.916  32.761  29.758  1.00  0.00    -0.014 A 
ATOM     82  C   UNL A   1      42.608  33.261  29.639  1.00  0.00     0.010 A 
ATOM     83  C   UNL A   1      44.983  33.504  29.220  1.00  0.00     0.010 A 
ATOM     84  C   UNL A   1      42.369  34.475  28.988  1.00  0.00     0.020 A 
ATOM     85  C   UNL A   1      44.752  34.729  28.590  1.00  0.00     0.020 A 
ATOM     86  C   UNL A   1      43.444  35.204  28.471  1.00  0.00     0.054 A 
BRANCH  86  87
ATOM     87  S   UNL A   1      43.120  36.809  27.687  1.00  0.00     0.124 S 
ATOM     88  O   UNL A   1      44.375  37.067  26.991  1.00  0.00    -0.237 OA
ATOM     89  O   UNL A   1      41.970  36.517  26.835  1.00  0.00    -0.237 OA
ATOM     90  O   UNL A   1      42.836  37.689  28.819  1.00  0.00    -0.744 OA
ENDBRANCH  86  87
ENDBRANCH  58  81
BRANCH  70  91
ATOM     91  C   UNL A   1      44.992  30.994  36.426  1.00  0.00    -0.014 A 
ATOM     92  C   UNL A   1      46.203  31.569  36.844  1.00  0.00     0.010 A 
ATOM     93  C   UNL A   1      43.819  31.247  37.163  1.00  0.00     0.010 A 
ATOM     94  C   UNL A   1      46.245  32.370  37.988  1.00  0.00     0.020 A 
ATOM     95  C   UNL A   1      43.853  32.065  38.294  1.00  0.00     0.020 A 
ATOM     96  C   UNL A   1      45.069  32.616  38.705  1.00  0.00     0.054 A 
BRANCH  96  97
ATOM     97  S   UNL A   1      45.137  33.712  40.148  1.00  0.00     0.124 S 
ATOM     98  O   UNL A   1      43.792  34.281  40.161  1.00  0.00    -0.237 OA
ATOM     99  O   UNL A   1      45.438  32.790  41.240  1.00  0.00    -0.237 OA
ATOM    100  O   UNL A   1      46.208  34.650  39.821  1.00  0.00    -0.744 OA
ENDBRANCH  96  97
ENDBRANCH  70  91
ENDBRANCH  44  45
ENDBRANCH  37  39
ENDBRANCH  36  37
ENDBRANCH  35  36
ENDBRANCH  34  35
ENDBRANCH  33  34
ENDBRANCH  32  33
ENDBRANCH  31  32
ENDBRANCH  30  31
ENDBRANCH   1  30
TORSDOF 28
ENDMDL
MODEL 2
REMARK VINA RESULT:      -8.4      5.459      8.236
REMARK SMILES COc1cc(NS(=O)(=O)c2cc(C)c(C(=O)OCCOCCOCCOCCOC(=O)c3ccc(-c4c5nc(c(-c6ccc(S(=O)(=O)[O-])cc6)c6ccc([nH]6)c(-c6ccc(S(=O)(=O)[O-])cc6)c6nc(c(-c7ccc(S(=O)(=O)[O-])cc7)c7ccc4[nH]7)C=C6)C=C5)cc3)s2)cc(OC)c1
REMARK SMILES IDX 22 1 21 2 20 3 19 4 18 5 17 6 15 7 16 8 14 9 10 10 11 11
REMARK SMILES IDX 92 12 12 13 13 14 7 15 8 16 9 17 6 18 5 20 3 21 4 22 97 23
REMARK SMILES IDX 94 24 93 25 2 26 1 27 95 28 96 29 23 30 24 31 25 32 26 33
REMARK SMILES IDX 27 34 28 35 29 36 30 37 31 38 32 39 33 40 91 41 34 42 90 43
REMARK SMILES IDX 35 44 36 45 37 46 84 47 38 48 89 49 83 50 85 51 39 52 88 53
REMARK SMILES IDX 82 54 81 55 40 57 70 58 51 59 69 60 52 61 55 62 68 63 86 64
REMARK SMILES IDX 53 65 54 66 67 68 87 69 56 70 41 71 42 72 50 73 43 74 49 75
REMARK SMILES IDX 44 76 45 77 46 78 47 79 48 80 71 81 72 82 80 83 73 84 79 85
REMARK SMILES IDX 74 86 75 87 76 88 77 89 78 90 57 91 58 92 66 93 59 94 65 95
REMARK SMILES IDX 60 96 61 97 62 98 63 99 64 100
REMARK H PARENT 6 19 85 56 55 67
REMARK Flexibility Score: inf
ROOT
ATOM      1  C   UNL A   1      35.550  20.429  24.957  1.00  0.00     0.188 C 
ENDROOT
BRANCH   1   2
ATOM      2  C   UNL A   1      34.307  20.859  25.757  1.00  0.00     0.188 C 
BRANCH   2   3
ATOM      3  O   UNL A   1      33.114  20.158  25.418  1.00  0.00    -0.376 OA
BRANCH   3   4
ATOM      4  C   UNL A   1      32.328  20.732  24.381  1.00  0.00     0.202 C 
BRANCH   4   5
ATOM      5  C   UNL A   1      31.927  22.188  24.650  1.00  0.00     0.261 C 
BRANCH   5   6
ATOM      6  O   UNL A   1      31.091  22.366  25.801  1.00  0.00    -0.459 OA
BRANCH   6   7
ATOM      7  C   UNL A   1      31.582  23.143  26.798  1.00  0.00     0.348 C 
ATOM      8  O   UNL A   1      32.171  22.699  27.780  1.00  0.00    -0.245 OA
BRANCH   7   9
ATOM      9  C   UNL A   1      31.412  24.546  26.463  1.00  0.00     0.116 A 
ATOM     10  C   UNL A   1      32.008  26.918  26.175  1.00  0.00     0.141 A 
ATOM     11  C   UNL A   1      30.644  26.717  26.094  1.00  0.00     0.038 A 
ATOM     12  S   UNL A   1      32.846  25.435  26.128  1.00  0.00    -0.115 S 
ATOM     13  C   UNL A   1      30.277  25.343  26.325  1.00  0.00    -0.024 A 
ATOM     14  C   UNL A   1      28.855  24.912  26.520  1.00  0.00     0.046 C 
BRANCH  10  15
ATOM     15  S   UNL A   1      32.985  28.371  26.483  1.00  0.00     0.271 S 
ATOM     16  O   UNL A   1      34.358  27.915  26.465  1.00  0.00    -0.200 OA
ATOM     17  O   UNL A   1      32.445  29.030  27.654  1.00  0.00    -0.200 OA
BRANCH  15  18
ATOM     18  N   UNL A   1      32.812  29.446  25.156  1.00  0.00    -0.279 N 
ATOM     19  H   UNL A   1      33.357  30.263  25.089  1.00  0.00     0.180 HD
BRANCH  18  20
ATOM     20  C   UNL A   1      31.846  29.110  24.144  1.00  0.00     0.056 A 
ATOM     21  C   UNL A   1      29.780  29.658  22.980  1.00  0.00     0.124 A 
ATOM     22  C   UNL A   1      30.664  29.842  24.044  1.00  0.00     0.073 A 
ATOM     23  C   UNL A   1      29.993  28.602  22.104  1.00  0.00     0.093 A 
ATOM     24  C   UNL A   1      31.100  27.760  22.284  1.00  0.00     0.124 A 
ATOM     25  C   UNL A   1      32.058  28.052  23.266  1.00  0.00     0.073 A 
BRANCH  21  26
ATOM     26  O   UNL A   1      28.778  30.582  22.921  1.00  0.00    -0.497 OA
ATOM     27  C   UNL A   1      27.487  30.218  23.396  1.00  0.00     0.278 C 
ENDBRANCH  21  26
BRANCH  24  28
ATOM     28  O   UNL A   1      31.342  26.631  21.545  1.00  0.00    -0.497 OA
ATOM     29  C   UNL A   1      32.613  26.019  21.761  1.00  0.00     0.278 C 
ENDBRANCH  24  28
ENDBRANCH  18  20
ENDBRANCH  15  18
ENDBRANCH  10  15
ENDBRANCH   7   9
ENDBRANCH   6   7
ENDBRANCH   5   6
ENDBRANCH   4   5
ENDBRANCH   3   4
ENDBRANCH   2   3
ENDBRANCH   1   2
BRANCH   1  30
ATOM     30  O   UNL A   1      36.437  21.437  24.512  1.00  0.00    -0.377 OA
BRANCH  30  31
ATOM     31  C   UNL A   1      37.752  21.499  25.054  1.00  0.00     0.188 C 
BRANCH  31  32
ATOM     32  C   UNL A   1      38.527  20.220  25.439  1.00  0.00     0.188 C 
BRANCH  32  33
ATOM     33  O   UNL A   1      39.931  20.379  25.602  1.00  0.00    -0.376 OA
BRANCH  33  34
ATOM     34  C   UNL A   1      40.570  19.487  26.505  1.00  0.00     0.202 C 
BRANCH  34  35
ATOM     35  C   UNL A   1      42.056  19.254  26.212  1.00  0.00     0.261 C 
BRANCH  35  36
ATOM     36  O   UNL A   1      42.554  19.928  25.047  1.00  0.00    -0.460 OA
BRANCH  36  37
ATOM     37  C   UNL A   1      43.884  20.160  24.984  1.00  0.00     0.338 C 
ATOM     38  O   UNL A   1      44.739  19.452  24.486  1.00  0.00    -0.246 OA
BRANCH  37  39
ATOM     39  C   UNL A   1      44.107  21.531  25.474  1.00  0.00     0.060 A 
ATOM     40  C   UNL A   1      43.961  22.605  24.587  1.00  0.00     0.016 A 
ATOM     41  C   UNL A   1      44.428  21.746  26.815  1.00  0.00     0.016 A 
ATOM     42  C   UNL A   1      44.158  23.908  25.042  1.00  0.00     0.010 A 
ATOM     43  C   UNL A   1      44.647  23.046  27.263  1.00  0.00     0.010 A 
ATOM     44  C   UNL A   1      44.536  24.129  26.373  1.00  0.00    -0.014 A 
BRANCH  44  45
ATOM     45  C   UNL A   1      44.999  25.464  26.812  1.00  0.00     0.031 A 
ATOM     46  C   UNL A   1      43.980  26.417  27.370  1.00  0.00     0.074 A 
ATOM     47  C   UNL A   1      46.283  25.835  26.678  1.00  0.00     0.049 A 
ATOM     48  N   UNL A   1      44.123  27.666  27.721  1.00  0.00    -0.248 NA
ATOM     49  C   UNL A   1      42.617  25.887  27.551  1.00  0.00     0.031 C 
ATOM     50  C   UNL A   1      47.366  24.983  26.189  1.00  0.00     0.029 A 
ATOM     51  N   UNL A   1      46.887  27.041  26.928  1.00  0.00    -0.354 N 
ATOM     52  C   UNL A   1      42.870  28.075  28.161  1.00  0.00     0.074 A 
ATOM     53  C   UNL A   1      41.976  26.948  28.014  1.00  0.00     0.031 C 
ATOM     54  C   UNL A   1      48.503  25.702  26.159  1.00  0.00     0.029 A 
ATOM     55  C   UNL A   1      48.218  27.070  26.589  1.00  0.00     0.049 A 
ATOM     56  H   UNL A   1      46.413  27.812  27.315  1.00  0.00     0.167 HD
ATOM     57  C   UNL A   1      42.497  29.283  28.642  1.00  0.00     0.031 A 
ATOM     58  C   UNL A   1      49.094  28.095  26.594  1.00  0.00     0.031 A 
ATOM     59  C   UNL A   1      43.379  30.412  28.751  1.00  0.00     0.049 A 
ATOM     60  C   UNL A   1      48.632  29.458  27.040  1.00  0.00     0.074 A 
ATOM     61  C   UNL A   1      43.098  31.680  29.228  1.00  0.00     0.029 A 
ATOM     62  N   UNL A   1      44.709  30.412  28.362  1.00  0.00    -0.354 N 
ATOM     63  N   UNL A   1      47.451  29.827  27.477  1.00  0.00    -0.248 NA
ATOM     64  C   UNL A   1      49.620  30.545  26.989  1.00  0.00     0.031 C 
ATOM     65  C   UNL A   1      44.247  32.463  29.077  1.00  0.00     0.029 A 
ATOM     66  C   UNL A   1      45.258  31.668  28.559  1.00  0.00     0.049 A 
ATOM     67  H   UNL A   1      45.192  29.635  27.999  1.00  0.00     0.167 HD
ATOM     68  C   UNL A   1      47.561  31.182  27.774  1.00  0.00     0.074 A 
ATOM     69  C   UNL A   1      48.925  31.565  27.476  1.00  0.00     0.031 C 
ATOM     70  C   UNL A   1      46.618  32.031  28.253  1.00  0.00     0.031 A 
BRANCH  57  71
ATOM     71  C   UNL A   1      41.058  29.446  29.047  1.00  0.00    -0.014 A 
ATOM     72  C   UNL A   1      40.097  29.908  28.131  1.00  0.00     0.010 A 
ATOM     73  C   UNL A   1      40.663  29.125  30.357  1.00  0.00     0.010 A 
ATOM     74  C   UNL A   1      38.770  30.085  28.531  1.00  0.00     0.020 A 
ATOM     75  C   UNL A   1      39.331  29.278  30.754  1.00  0.00     0.020 A 
ATOM     76  C   UNL A   1      38.397  29.774  29.843  1.00  0.00     0.054 A 
BRANCH  76  77
ATOM     77  S   UNL A   1      36.667  30.004  30.334  1.00  0.00     0.124 S 
ATOM     78  O   UNL A   1      36.623  29.307  31.616  1.00  0.00    -0.237 OA
ATOM     79  O   UNL A   1      36.543  31.458  30.405  1.00  0.00    -0.237 OA
ATOM     80  O   UNL A   1      35.914  29.371  29.255  1.00  0.00    -0.744 OA
ENDBRANCH  76  77
ENDBRANCH  57  71
BRANCH  58  81
ATOM     81  C   UNL A   1      50.494  27.879  26.138  1.00  0.00    -0.014 A 
ATOM     82  C   UNL A   1      51.492  27.495  27.050  1.00  0.00     0.010 A 
ATOM     83  C   UNL A   1      50.835  28.055  24.785  1.00  0.00     0.010 A 
ATOM     84  C   UNL A   1      52.808  27.299  26.619  1.00  0.00     0.020 A 
ATOM     85  C   UNL A   1      52.144  27.837  24.346  1.00  0.00     0.020 A 
ATOM     86  C   UNL A   1      53.125  27.468  25.268  1.00  0.00     0.054 A 
BRANCH  86  87
ATOM     87  S   UNL A   1      54.824  27.145  24.719  1.00  0.00     0.124 S 
ATOM     88  O   UNL A   1      54.853  27.802  23.417  1.00  0.00    -0.237 OA
ATOM     89  O   UNL A   1      55.620  27.779  25.767  1.00  0.00    -0.237 OA
ATOM     90  O   UNL A   1      54.901  25.686  24.690  1.00  0.00    -0.744 OA
ENDBRANCH  86  87
ENDBRANCH  58  81
BRANCH  70  91
ATOM     91  C   UNL A   1      47.030  33.455  28.514  1.00  0.00    -0.014 A 
ATOM     92  C   UNL A   1      47.649  33.822  29.720  1.00  0.00     0.010 A 
ATOM     93  C   UNL A   1      46.870  34.419  27.501  1.00  0.00     0.010 A 
ATOM     94  C   UNL A   1      48.087  35.135  29.916  1.00  0.00     0.020 A 
ATOM     95  C   UNL A   1      47.328  35.726  27.684  1.00  0.00     0.020 A 
ATOM     96  C   UNL A   1      47.927  36.078  28.896  1.00  0.00     0.054 A 
BRANCH  96  97
ATOM     97  S   UNL A   1      48.563  37.758  29.149  1.00  0.00     0.124 S 
ATOM     98  O   UNL A   1      49.869  37.689  28.498  1.00  0.00    -0.237 OA
ATOM     99  O   UNL A   1      47.568  38.585  28.472  1.00  0.00    -0.237 OA
ATOM    100  O   UNL A   1      48.597  37.900  30.602  1.00  0.00    -0.744 OA
ENDBRANCH  96  97
ENDBRANCH  70  91
ENDBRANCH  44  45
ENDBRANCH  37  39
ENDBRANCH  36  37
ENDBRANCH  35  36
ENDBRANCH  34  35
ENDBRANCH  33  34
ENDBRANCH  32  33
ENDBRANCH  31  32
ENDBRANCH  30  31
ENDBRANCH   1  30
TORSDOF 28
ENDMDL
MODEL 3
REMARK VINA RESULT:      -7.9      4.799     10.210
REMARK SMILES COc1cc(NS(=O)(=O)c2cc(C)c(C(=O)OCCOCCOCCOCCOC(=O)c3ccc(-c4c5nc(c(-c6ccc(S(=O)(=O)[O-])cc6)c6ccc([nH]6)c(-c6ccc(S(=O)(=O)[O-])cc6)c6nc(c(-c7ccc(S(=O)(=O)[O-])cc7)c7ccc4[nH]7)C=C6)C=C5)cc3)s2)cc(OC)c1
REMARK SMILES IDX 22 1 21 2 20 3 19 4 18 5 17 6 15 7 16 8 14 9 10 10 11 11
REMARK SMILES IDX 92 12 12 13 13 14 7 15 8 16 9 17 6 18 5 20 3 21 4 22 97 23
REMARK SMILES IDX 94 24 93 25 2 26 1 27 95 28 96 29 23 30 24 31 25 32 26 33
REMARK SMILES IDX 27 34 28 35 29 36 30 37 31 38 32 39 33 40 91 41 34 42 90 43
REMARK SMILES IDX 35 44 36 45 37 46 84 47 38 48 89 49 83 50 85 51 39 52 88 53
REMARK SMILES IDX 82 54 81 55 40 57 70 58 51 59 69 60 52 61 55 62 68 63 86 64
REMARK SMILES IDX 53 65 54 66 67 68 87 69 56 70 41 71 42 72 50 73 43 74 49 75
REMARK SMILES IDX 44 76 45 77 46 78 47 79 48 80 71 81 72 82 80 83 73 84 79 85
REMARK SMILES IDX 74 86 75 87 76 88 77 89 78 90 57 91 58 92 66 93 59 94 65 95
REMARK SMILES IDX 60 96 61 97 62 98 63 99 64 100
REMARK H PARENT 6 19 85 56 55 67
REMARK Flexibility Score: inf
ROOT
ATOM      1  C   UNL A   1      44.582  29.525  27.019  1.00  0.00     0.188 C 
ENDROOT
BRANCH   1   2
ATOM      2  C   UNL A   1      44.311  31.017  26.757  1.00  0.00     0.188 C 
BRANCH   2   3
ATOM      3  O   UNL A   1      45.244  31.643  25.880  1.00  0.00    -0.376 OA
BRANCH   3   4
ATOM      4  C   UNL A   1      45.786  32.879  26.329  1.00  0.00     0.202 C 
BRANCH   4   5
ATOM      5  C   UNL A   1      45.457  33.198  27.793  1.00  0.00     0.261 C 
BRANCH   5   6
ATOM      6  O   UNL A   1      46.511  32.889  28.714  1.00  0.00    -0.459 OA
BRANCH   6   7
ATOM      7  C   UNL A   1      46.161  32.735  30.015  1.00  0.00     0.348 C 
ATOM      8  O   UNL A   1      45.243  33.351  30.550  1.00  0.00    -0.245 OA
BRANCH   7   9
ATOM      9  C   UNL A   1      46.939  31.667  30.616  1.00  0.00     0.116 A 
ATOM     10  C   UNL A   1      47.676  29.368  31.106  1.00  0.00     0.141 A 
ATOM     11  C   UNL A   1      48.208  30.280  31.998  1.00  0.00     0.038 A 
ATOM     12  S   UNL A   1      46.952  30.161  29.784  1.00  0.00    -0.115 S 
ATOM     13  C   UNL A   1      47.733  31.620  31.761  1.00  0.00    -0.024 A 
ATOM     14  C   UNL A   1      47.976  32.741  32.725  1.00  0.00     0.046 C 
BRANCH  10  15
ATOM     15  S   UNL A   1      47.470  27.604  31.183  1.00  0.00     0.271 S 
ATOM     16  O   UNL A   1      48.625  27.121  31.911  1.00  0.00    -0.200 OA
ATOM     17  O   UNL A   1      47.195  27.129  29.843  1.00  0.00    -0.200 OA
BRANCH  15  18
ATOM     18  N   UNL A   1      46.100  27.249  32.153  1.00  0.00    -0.279 N 
ATOM     19  H   UNL A   1      45.727  27.918  32.771  1.00  0.00     0.180 HD
BRANCH  18  20
ATOM     20  C   UNL A   1      45.516  25.939  32.031  1.00  0.00     0.056 A 
ATOM     21  C   UNL A   1      45.124  23.740  32.996  1.00  0.00     0.124 A 
ATOM     22  C   UNL A   1      45.796  24.963  32.986  1.00  0.00     0.073 A 
ATOM     23  C   UNL A   1      44.293  23.420  31.931  1.00  0.00     0.093 A 
ATOM     24  C   UNL A   1      44.121  24.335  30.883  1.00  0.00     0.124 A 
ATOM     25  C   UNL A   1      44.683  25.617  30.964  1.00  0.00     0.073 A 
BRANCH  21  26
ATOM     26  O   UNL A   1      45.368  22.979  34.103  1.00  0.00    -0.497 OA
ATOM     27  C   UNL A   1      44.260  22.462  34.830  1.00  0.00     0.278 C 
ENDBRANCH  21  26
BRANCH  24  28
ATOM     28  O   UNL A   1      43.412  24.077  29.738  1.00  0.00    -0.497 OA
ATOM     29  C   UNL A   1      43.834  22.930  29.001  1.00  0.00     0.278 C 
ENDBRANCH  24  28
ENDBRANCH  18  20
ENDBRANCH  15  18
ENDBRANCH  10  15
ENDBRANCH   7   9
ENDBRANCH   6   7
ENDBRANCH   5   6
ENDBRANCH   4   5
ENDBRANCH   3   4
ENDBRANCH   2   3
ENDBRANCH   1   2
BRANCH   1  30
ATOM     30  O   UNL A   1      44.342  28.610  25.967  1.00  0.00    -0.377 OA
BRANCH  30  31
ATOM     31  C   UNL A   1      45.442  27.941  25.359  1.00  0.00     0.188 C 
BRANCH  31  32
ATOM     32  C   UNL A   1      45.552  26.400  25.364  1.00  0.00     0.188 C 
BRANCH  32  33
ATOM     33  O   UNL A   1      44.338  25.698  25.123  1.00  0.00    -0.376 OA
BRANCH  33  34
ATOM     34  C   UNL A   1      43.577  25.338  26.268  1.00  0.00     0.202 C 
BRANCH  34  35
ATOM     35  C   UNL A   1      42.060  25.412  26.062  1.00  0.00     0.261 C 
BRANCH  35  36
ATOM     36  O   UNL A   1      41.278  25.063  27.213  1.00  0.00    -0.460 OA
BRANCH  36  37
ATOM     37  C   UNL A   1      40.004  25.511  27.257  1.00  0.00     0.338 C 
ATOM     38  O   UNL A   1      39.039  25.069  26.662  1.00  0.00    -0.246 OA
BRANCH  37  39
ATOM     39  C   UNL A   1      39.944  26.539  28.310  1.00  0.00     0.060 A 
ATOM     40  C   UNL A   1      40.665  27.729  28.146  1.00  0.00     0.016 A 
ATOM     41  C   UNL A   1      39.151  26.331  29.440  1.00  0.00     0.016 A 
ATOM     42  C   UNL A   1      40.607  28.713  29.132  1.00  0.00     0.010 A 
ATOM     43  C   UNL A   1      39.112  27.305  30.434  1.00  0.00     0.010 A 
ATOM     44  C   UNL A   1      39.857  28.488  30.295  1.00  0.00    -0.014 A 
BRANCH  44  45
ATOM     45  C   UNL A   1      39.984  29.393  31.458  1.00  0.00     0.031 A 
ATOM     46  C   UNL A   1      41.122  29.163  32.411  1.00  0.00     0.074 A 
ATOM     47  C   UNL A   1      39.086  30.366  31.685  1.00  0.00     0.049 A 
ATOM     48  N   UNL A   1      41.381  29.752  33.547  1.00  0.00    -0.248 NA
ATOM     49  C   UNL A   1      42.096  28.125  32.030  1.00  0.00     0.031 C 
ATOM     50  C   UNL A   1      37.966  30.709  30.810  1.00  0.00     0.029 A 
ATOM     51  N   UNL A   1      38.971  31.235  32.740  1.00  0.00    -0.354 N 
ATOM     52  C   UNL A   1      42.543  29.156  34.020  1.00  0.00     0.074 A 
ATOM     53  C   UNL A   1      42.929  28.146  33.059  1.00  0.00     0.031 C 
ATOM     54  C   UNL A   1      37.264  31.708  31.377  1.00  0.00     0.029 A 
ATOM     55  C   UNL A   1      37.864  32.045  32.667  1.00  0.00     0.049 A 
ATOM     56  H   UNL A   1      39.619  31.275  33.480  1.00  0.00     0.167 HD
ATOM     57  C   UNL A   1      43.228  29.424  35.156  1.00  0.00     0.031 A 
ATOM     58  C   UNL A   1      37.375  32.932  33.557  1.00  0.00     0.031 A 
ATOM     59  C   UNL A   1      42.821  30.400  36.127  1.00  0.00     0.049 A 
ATOM     60  C   UNL A   1      38.098  33.144  34.862  1.00  0.00     0.074 A 
ATOM     61  C   UNL A   1      43.447  30.749  37.311  1.00  0.00     0.029 A 
ATOM     62  N   UNL A   1      41.675  31.174  36.035  1.00  0.00    -0.354 N 
ATOM     63  N   UNL A   1      39.211  32.592  35.287  1.00  0.00    -0.248 NA
ATOM     64  C   UNL A   1      37.499  34.094  35.809  1.00  0.00     0.031 C 
ATOM     65  C   UNL A   1      42.649  31.697  37.961  1.00  0.00     0.029 A 
ATOM     66  C   UNL A   1      41.556  31.978  37.155  1.00  0.00     0.049 A 
ATOM     67  H   UNL A   1      41.039  31.154  35.284  1.00  0.00     0.167 HD
ATOM     68  C   UNL A   1      39.455  33.145  36.540  1.00  0.00     0.074 A 
ATOM     69  C   UNL A   1      38.381  34.081  36.800  1.00  0.00     0.031 C 
ATOM     70  C   UNL A   1      40.477  32.903  37.397  1.00  0.00     0.031 A 
BRANCH  57  71
ATOM     71  C   UNL A   1      44.466  28.612  35.418  1.00  0.00    -0.014 A 
ATOM     72  C   UNL A   1      44.393  27.377  36.085  1.00  0.00     0.010 A 
ATOM     73  C   UNL A   1      45.716  29.090  34.986  1.00  0.00     0.010 A 
ATOM     74  C   UNL A   1      45.557  26.649  36.350  1.00  0.00     0.020 A 
ATOM     75  C   UNL A   1      46.879  28.353  35.229  1.00  0.00     0.020 A 
ATOM     76  C   UNL A   1      46.793  27.146  35.925  1.00  0.00     0.054 A 
BRANCH  76  77
ATOM     77  S   UNL A   1      48.287  26.178  36.274  1.00  0.00     0.124 S 
ATOM     78  O   UNL A   1      48.930  26.981  37.310  1.00  0.00    -0.237 OA
ATOM     79  O   UNL A   1      47.743  24.898  36.720  1.00  0.00    -0.237 OA
ATOM     80  O   UNL A   1      48.983  26.142  34.991  1.00  0.00    -0.744 OA
ENDBRANCH  76  77
ENDBRANCH  57  71
BRANCH  58  81
ATOM     81  C   UNL A   1      36.118  33.671  33.256  1.00  0.00    -0.014 A 
ATOM     82  C   UNL A   1      36.158  35.023  32.874  1.00  0.00     0.010 A 
ATOM     83  C   UNL A   1      34.873  33.023  33.350  1.00  0.00     0.010 A 
ATOM     84  C   UNL A   1      34.975  35.716  32.599  1.00  0.00     0.020 A 
ATOM     85  C   UNL A   1      33.690  33.705  33.054  1.00  0.00     0.020 A 
ATOM     86  C   UNL A   1      33.748  35.051  32.687  1.00  0.00     0.054 A 
BRANCH  86  87
ATOM     87  S   UNL A   1      32.230  35.951  32.262  1.00  0.00     0.124 S 
ATOM     88  O   UNL A   1      32.358  36.098  30.816  1.00  0.00    -0.237 OA
ATOM     89  O   UNL A   1      31.185  35.038  32.717  1.00  0.00    -0.237 OA
ATOM     90  O   UNL A   1      32.341  37.188  33.033  1.00  0.00    -0.744 OA
ENDBRANCH  86  87
ENDBRANCH  58  81
BRANCH  70  91
ATOM     91  C   UNL A   1      40.506  33.677  38.687  1.00  0.00    -0.014 A 
ATOM     92  C   UNL A   1      41.023  34.983  38.737  1.00  0.00     0.010 A 
ATOM     93  C   UNL A   1      39.929  33.120  39.843  1.00  0.00     0.010 A 
ATOM     94  C   UNL A   1      40.978  35.713  39.928  1.00  0.00     0.020 A 
ATOM     95  C   UNL A   1      39.861  33.855  41.028  1.00  0.00     0.020 A 
ATOM     96  C   UNL A   1      40.394  35.146  41.066  1.00  0.00     0.054 A 
BRANCH  96  97
ATOM     97  S   UNL A   1      40.287  36.137  42.581  1.00  0.00     0.124 S 
ATOM     98  O   UNL A   1      40.669  35.168  43.606  1.00  0.00    -0.237 OA
ATOM     99  O   UNL A   1      41.253  37.205  42.337  1.00  0.00    -0.237 OA
ATOM    100  O   UNL A   1      38.891  36.566  42.618  1.00  0.00    -0.744 OA
ENDBRANCH  96  97
ENDBRANCH  70  91
ENDBRANCH  44  45
ENDBRANCH  37  39
ENDBRANCH  36  37
ENDBRANCH  35  36
ENDBRANCH  34  35
ENDBRANCH  33  34
ENDBRANCH  32  33
ENDBRANCH  31  32
ENDBRANCH  30  31
ENDBRANCH   1  30
TORSDOF 28
ENDMDL
