MODEL 1
REMARK VINA RESULT:      -8.5      0.000      0.000
REMARK SMILES O=C(/C=C/c1c(Cl)cccc1Cl)NCC(=O)OCCOCCOCCOCCOC(=O)c1ccc(-c2c3nc(c(-c4ccc(S(=O)(=O)[O-])cc4)c4ccc([nH]4)c(-c4ccc(S(=O)(=O)[O-])cc4)c4nc(c(-c5ccc(S(=O)(=O)[O-])cc5)c5ccc2[nH]5)C=C4)C=C3)cc1
REMARK SMILES IDX 23 1 22 2 21 3 20 4 19 5 18 6 17 7 15 8 16 9 14 10 13 11
REMARK SMILES IDX 1 12 2 13 3 15 4 16 5 17 6 18 11 19 7 20 8 21 10 22 12 23
REMARK SMILES IDX 9 24 24 25 25 26 26 27 27 28 28 29 29 30 30 31 31 32 32 33
REMARK SMILES IDX 33 34 91 35 34 36 90 37 35 38 36 39 37 40 84 41 38 42 89 43
REMARK SMILES IDX 83 44 85 45 39 46 88 47 82 48 81 49 40 51 70 52 51 53 69 54
REMARK SMILES IDX 52 55 55 56 68 57 86 58 53 59 54 60 67 62 87 63 56 64 41 65
REMARK SMILES IDX 42 66 50 67 43 68 49 69 44 70 45 71 46 72 47 73 48 74 71 75
REMARK SMILES IDX 72 76 80 77 73 78 79 79 74 80 75 81 76 82 77 83 78 84 57 85
REMARK SMILES IDX 58 86 66 87 59 88 65 89 60 90 61 91 62 92 63 93 64 94
REMARK H PARENT 13 14 85 50 55 61
REMARK Flexibility Score: inf
ROOT
ATOM      1  O   UNL A   1      30.504  28.828  24.371  1.00  0.00    -0.377 OA
ENDROOT
BRANCH   1   2
ATOM      2  C   UNL A   1      30.345  27.615  23.672  1.00  0.00     0.188 C 
BRANCH   2   3
ATOM      3  C   UNL A   1      31.226  27.470  22.420  1.00  0.00     0.188 C 
BRANCH   3   4
ATOM      4  O   UNL A   1      32.480  28.130  22.338  1.00  0.00    -0.376 OA
BRANCH   4   5
ATOM      5  C   UNL A   1      33.685  27.419  22.605  1.00  0.00     0.202 C 
BRANCH   5   6
ATOM      6  C   UNL A   1      33.836  26.494  23.826  1.00  0.00     0.261 C 
BRANCH   6   7
ATOM      7  O   UNL A   1      33.910  25.086  23.536  1.00  0.00    -0.462 OA
BRANCH   7   8
ATOM      8  C   UNL A   1      33.115  24.272  24.269  1.00  0.00     0.325 C 
ATOM      9  O   UNL A   1      31.937  24.511  24.528  1.00  0.00    -0.250 OA
BRANCH   8  10
ATOM     10  C   UNL A   1      33.744  22.915  24.621  1.00  0.00     0.239 C 
BRANCH  10  11
ATOM     11  N   UNL A   1      35.058  22.760  25.238  1.00  0.00    -0.342 N 
ATOM     12  O   UNL A   1      36.239  23.035  23.311  1.00  0.00    -0.270 OA
ATOM     13  C   UNL A   1      36.215  22.878  24.525  1.00  0.00     0.244 C 
ATOM     14  H   UNL A   1      35.111  22.562  26.201  1.00  0.00     0.164 HD
BRANCH  13  15
ATOM     15  C   UNL A   1      37.493  22.921  25.302  1.00  0.00     0.072 C 
ATOM     16  C   UNL A   1      38.231  21.897  25.764  1.00  0.00     0.017 C 
BRANCH  16  17
ATOM     17  C   UNL A   1      39.511  22.089  26.501  1.00  0.00     0.012 A 
ATOM     18  C   UNL A   1      39.830  23.265  27.209  1.00  0.00     0.049 A 
ATOM     19  C   UNL A   1      40.461  21.048  26.539  1.00  0.00     0.049 A 
ATOM     20  Cl  UNL A   1      38.719  24.586  27.350  1.00  0.00    -0.084 Cl
ATOM     21  C   UNL A   1      41.058  23.403  27.876  1.00  0.00     0.021 A 
ATOM     22  C   UNL A   1      41.682  21.181  27.216  1.00  0.00     0.021 A 
ATOM     23  Cl  UNL A   1      40.176  19.547  25.747  1.00  0.00    -0.084 Cl
ATOM     24  C   UNL A   1      41.987  22.365  27.876  1.00  0.00     0.003 A 
ENDBRANCH  16  17
ENDBRANCH  13  15
ENDBRANCH  10  11
ENDBRANCH   8  10
ENDBRANCH   7   8
ENDBRANCH   6   7
ENDBRANCH   5   6
ENDBRANCH   4   5
ENDBRANCH   3   4
ENDBRANCH   2   3
ENDBRANCH   1   2
BRANCH   1  25
ATOM     25  C   UNL A   1      31.399  28.847  25.477  1.00  0.00     0.188 C 
BRANCH  25  26
ATOM     26  C   UNL A   1      32.422  29.997  25.589  1.00  0.00     0.188 C 
BRANCH  26  27
ATOM     27  O   UNL A   1      33.171  29.999  26.799  1.00  0.00    -0.376 OA
BRANCH  27  28
ATOM     28  C   UNL A   1      34.468  29.421  26.791  1.00  0.00     0.202 C 
BRANCH  28  29
ATOM     29  C   UNL A   1      35.499  29.959  27.792  1.00  0.00     0.261 C 
BRANCH  29  30
ATOM     30  O   UNL A   1      36.614  29.106  28.083  1.00  0.00    -0.460 OA
BRANCH  30  31
ATOM     31  C   UNL A   1      37.459  29.423  29.082  1.00  0.00     0.338 C 
ATOM     32  O   UNL A   1      37.163  29.756  30.215  1.00  0.00    -0.246 OA
BRANCH  31  33
ATOM     33  C   UNL A   1      38.824  29.115  28.599  1.00  0.00     0.060 A 
ATOM     34  C   UNL A   1      39.784  28.610  29.488  1.00  0.00     0.016 A 
ATOM     35  C   UNL A   1      39.146  29.304  27.254  1.00  0.00     0.016 A 
ATOM     36  C   UNL A   1      41.080  28.332  29.039  1.00  0.00     0.010 A 
ATOM     37  C   UNL A   1      40.436  29.020  26.804  1.00  0.00     0.010 A 
ATOM     38  C   UNL A   1      41.424  28.579  27.704  1.00  0.00    -0.014 A 
BRANCH  38  39
ATOM     39  C   UNL A   1      42.844  28.648  27.274  1.00  0.00     0.031 A 
ATOM     40  C   UNL A   1      43.458  27.388  26.719  1.00  0.00     0.074 A 
ATOM     41  C   UNL A   1      43.589  29.760  27.411  1.00  0.00     0.049 A 
ATOM     42  N   UNL A   1      44.707  27.118  26.453  1.00  0.00    -0.248 NA
ATOM     43  C   UNL A   1      42.529  26.275  26.450  1.00  0.00     0.031 C 
ATOM     44  C   UNL A   1      43.107  31.057  27.877  1.00  0.00     0.029 A 
ATOM     45  N   UNL A   1      44.931  29.959  27.187  1.00  0.00    -0.354 N 
ATOM     46  C   UNL A   1      44.720  25.797  26.018  1.00  0.00     0.074 A 
ATOM     47  C   UNL A   1      43.359  25.313  26.080  1.00  0.00     0.031 C 
ATOM     48  C   UNL A   1      44.142  31.915  27.923  1.00  0.00     0.029 A 
ATOM     49  C   UNL A   1      45.369  31.214  27.541  1.00  0.00     0.049 A 
ATOM     50  H   UNL A   1      45.523  29.269  26.809  1.00  0.00     0.167 HD
ATOM     51  C   UNL A   1      45.770  25.051  25.604  1.00  0.00     0.031 A 
ATOM     52  C   UNL A   1      46.618  31.724  27.588  1.00  0.00     0.031 A 
ATOM     53  C   UNL A   1      47.121  25.537  25.547  1.00  0.00     0.049 A 
ATOM     54  C   UNL A   1      47.789  30.852  27.197  1.00  0.00     0.074 A 
ATOM     55  C   UNL A   1      48.256  24.867  25.128  1.00  0.00     0.029 A 
ATOM     56  N   UNL A   1      47.518  26.810  25.923  1.00  0.00    -0.354 N 
ATOM     57  N   UNL A   1      47.788  29.606  26.783  1.00  0.00    -0.248 NA
ATOM     58  C   UNL A   1      49.128  31.454  27.276  1.00  0.00     0.031 C 
ATOM     59  C   UNL A   1      49.351  25.715  25.312  1.00  0.00     0.029 A 
ATOM     60  C   UNL A   1      48.886  26.940  25.768  1.00  0.00     0.049 A 
ATOM     61  H   UNL A   1      46.917  27.517  26.253  1.00  0.00     0.167 HD
ATOM     62  C   UNL A   1      49.117  29.294  26.510  1.00  0.00     0.074 A 
ATOM     63  C   UNL A   1      49.895  30.477  26.808  1.00  0.00     0.031 C 
ATOM     64  C   UNL A   1      49.644  28.135  26.042  1.00  0.00     0.031 A 
BRANCH  51  65
ATOM     65  C   UNL A   1      45.503  23.619  25.222  1.00  0.00    -0.014 A 
ATOM     66  C   UNL A   1      45.147  23.265  23.908  1.00  0.00     0.010 A 
ATOM     67  C   UNL A   1      45.643  22.607  26.189  1.00  0.00     0.010 A 
ATOM     68  C   UNL A   1      44.897  21.929  23.580  1.00  0.00     0.020 A 
ATOM     69  C   UNL A   1      45.428  21.268  25.857  1.00  0.00     0.020 A 
ATOM     70  C   UNL A   1      45.038  20.939  24.557  1.00  0.00     0.054 A 
BRANCH  70  71
ATOM     71  S   UNL A   1      44.731  19.214  24.096  1.00  0.00     0.124 S 
ATOM     72  O   UNL A   1      45.971  18.565  24.520  1.00  0.00    -0.237 OA
ATOM     73  O   UNL A   1      43.547  18.878  24.883  1.00  0.00    -0.237 OA
ATOM     74  O   UNL A   1      44.523  19.270  22.652  1.00  0.00    -0.744 OA
ENDBRANCH  70  71
ENDBRANCH  51  65
BRANCH  52  75
ATOM     75  C   UNL A   1      46.838  33.127  28.045  1.00  0.00    -0.014 A 
ATOM     76  C   UNL A   1      46.966  33.422  29.414  1.00  0.00     0.010 A 
ATOM     77  C   UNL A   1      46.914  34.178  27.113  1.00  0.00     0.010 A 
ATOM     78  C   UNL A   1      47.146  34.742  29.842  1.00  0.00     0.020 A 
ATOM     79  C   UNL A   1      47.126  35.494  27.534  1.00  0.00     0.020 A 
ATOM     80  C   UNL A   1      47.229  35.769  28.899  1.00  0.00     0.054 A 
BRANCH  80  81
ATOM     81  S   UNL A   1      47.509  37.465  29.480  1.00  0.00     0.124 S 
ATOM     82  O   UNL A   1      46.285  37.736  30.229  1.00  0.00    -0.237 OA
ATOM     83  O   UNL A   1      48.722  37.327  30.280  1.00  0.00    -0.237 OA
ATOM     84  O   UNL A   1      47.668  38.229  28.245  1.00  0.00    -0.744 OA
ENDBRANCH  80  81
ENDBRANCH  52  75
BRANCH  64  85
ATOM     85  C   UNL A   1      51.120  28.089  25.739  1.00  0.00    -0.014 A 
ATOM     86  C   UNL A   1      51.617  28.291  24.441  1.00  0.00     0.010 A 
ATOM     87  C   UNL A   1      52.028  27.968  26.810  1.00  0.00     0.010 A 
ATOM     88  C   UNL A   1      52.995  28.368  24.218  1.00  0.00     0.020 A 
ATOM     89  C   UNL A   1      53.403  28.075  26.595  1.00  0.00     0.020 A 
ATOM     90  C   UNL A   1      53.879  28.272  25.298  1.00  0.00     0.054 A 
BRANCH  90  91
ATOM     91  S   UNL A   1      55.656  28.477  24.996  1.00  0.00     0.124 S 
ATOM     92  O   UNL A   1      55.914  27.453  23.987  1.00  0.00    -0.237 OA
ATOM     93  O   UNL A   1      55.741  29.858  24.526  1.00  0.00    -0.237 OA
ATOM     94  O   UNL A   1      56.263  28.230  26.302  1.00  0.00    -0.744 OA
ENDBRANCH  90  91
ENDBRANCH  64  85
ENDBRANCH  38  39
ENDBRANCH  31  33
ENDBRANCH  30  31
ENDBRANCH  29  30
ENDBRANCH  28  29
ENDBRANCH  27  28
ENDBRANCH  26  27
ENDBRANCH  25  26
ENDBRANCH   1  25
TORSDOF 26
ENDMDL
MODEL 2
REMARK VINA RESULT:      -8.2      7.438     14.135
REMARK SMILES O=C(/C=C/c1c(Cl)cccc1Cl)NCC(=O)OCCOCCOCCOCCOC(=O)c1ccc(-c2c3nc(c(-c4ccc(S(=O)(=O)[O-])cc4)c4ccc([nH]4)c(-c4ccc(S(=O)(=O)[O-])cc4)c4nc(c(-c5ccc(S(=O)(=O)[O-])cc5)c5ccc2[nH]5)C=C4)C=C3)cc1
REMARK SMILES IDX 23 1 22 2 21 3 20 4 19 5 18 6 17 7 15 8 16 9 14 10 13 11
REMARK SMILES IDX 1 12 2 13 3 15 4 16 5 17 6 18 11 19 7 20 8 21 10 22 12 23
REMARK SMILES IDX 9 24 24 25 25 26 26 27 27 28 28 29 29 30 30 31 31 32 32 33
REMARK SMILES IDX 33 34 91 35 34 36 90 37 35 38 36 39 37 40 84 41 38 42 89 43
REMARK SMILES IDX 83 44 85 45 39 46 88 47 82 48 81 49 40 51 70 52 51 53 69 54
REMARK SMILES IDX 52 55 55 56 68 57 86 58 53 59 54 60 67 62 87 63 56 64 41 65
REMARK SMILES IDX 42 66 50 67 43 68 49 69 44 70 45 71 46 72 47 73 48 74 71 75
REMARK SMILES IDX 72 76 80 77 73 78 79 79 74 80 75 81 76 82 77 83 78 84 57 85
REMARK SMILES IDX 58 86 66 87 59 88 65 89 60 90 61 91 62 92 63 93 64 94
REMARK H PARENT 13 14 85 50 55 61
REMARK Flexibility Score: inf
ROOT
ATOM      1  O   UNL A   1      47.201  28.652  24.959  1.00  0.00    -0.377 OA
ENDROOT
BRANCH   1   2
ATOM      2  C   UNL A   1      47.092  28.949  26.332  1.00  0.00     0.188 C 
BRANCH   2   3
ATOM      3  C   UNL A   1      46.944  30.444  26.660  1.00  0.00     0.188 C 
BRANCH   3   4
ATOM      4  O   UNL A   1      45.957  31.232  26.012  1.00  0.00    -0.376 OA
BRANCH   4   5
ATOM      5  C   UNL A   1      45.615  32.517  26.521  1.00  0.00     0.202 C 
BRANCH   5   6
ATOM      6  C   UNL A   1      44.197  33.101  26.385  1.00  0.00     0.261 C 
BRANCH   6   7
ATOM      7  O   UNL A   1      43.873  34.171  27.292  1.00  0.00    -0.462 OA
BRANCH   7   8
ATOM      8  C   UNL A   1      42.930  35.051  26.880  1.00  0.00     0.325 C 
ATOM      9  O   UNL A   1      42.584  35.193  25.709  1.00  0.00    -0.250 OA
BRANCH   8  10
ATOM     10  C   UNL A   1      42.180  35.760  28.019  1.00  0.00     0.239 C 
BRANCH  10  11
ATOM     11  N   UNL A   1      42.570  35.686  29.424  1.00  0.00    -0.342 N 
ATOM     12  O   UNL A   1      41.608  33.659  29.813  1.00  0.00    -0.270 OA
ATOM     13  C   UNL A   1      42.283  34.604  30.203  1.00  0.00     0.244 C 
ATOM     14  H   UNL A   1      43.055  36.444  29.822  1.00  0.00     0.164 HD
BRANCH  13  15
ATOM     15  C   UNL A   1      42.925  34.547  31.554  1.00  0.00     0.072 C 
ATOM     16  C   UNL A   1      42.528  33.868  32.644  1.00  0.00     0.017 C 
BRANCH  16  17
ATOM     17  C   UNL A   1      43.289  33.878  33.925  1.00  0.00     0.012 A 
ATOM     18  C   UNL A   1      44.343  32.987  34.207  1.00  0.00     0.049 A 
ATOM     19  C   UNL A   1      42.983  34.834  34.915  1.00  0.00     0.049 A 
ATOM     20  Cl  UNL A   1      44.910  31.831  33.048  1.00  0.00    -0.084 Cl
ATOM     21  C   UNL A   1      45.020  33.027  35.437  1.00  0.00     0.021 A 
ATOM     22  C   UNL A   1      43.667  34.881  36.138  1.00  0.00     0.021 A 
ATOM     23  Cl  UNL A   1      41.742  36.002  34.677  1.00  0.00    -0.084 Cl
ATOM     24  C   UNL A   1      44.680  33.968  36.406  1.00  0.00     0.003 A 
ENDBRANCH  16  17
ENDBRANCH  13  15
ENDBRANCH  10  11
ENDBRANCH   8  10
ENDBRANCH   7   8
ENDBRANCH   6   7
ENDBRANCH   5   6
ENDBRANCH   4   5
ENDBRANCH   3   4
ENDBRANCH   2   3
ENDBRANCH   1   2
BRANCH   1  25
ATOM     25  C   UNL A   1      46.398  27.598  24.440  1.00  0.00     0.188 C 
BRANCH  25  26
ATOM     26  C   UNL A   1      46.592  26.171  24.997  1.00  0.00     0.188 C 
BRANCH  26  27
ATOM     27  O   UNL A   1      45.473  25.667  25.717  1.00  0.00    -0.376 OA
BRANCH  27  28
ATOM     28  C   UNL A   1      44.482  24.941  25.005  1.00  0.00     0.202 C 
BRANCH  28  29
ATOM     29  C   UNL A   1      43.098  24.793  25.651  1.00  0.00     0.261 C 
BRANCH  29  30
ATOM     30  O   UNL A   1      42.118  25.776  25.294  1.00  0.00    -0.460 OA
BRANCH  30  31
ATOM     31  C   UNL A   1      42.410  27.086  25.403  1.00  0.00     0.338 C 
ATOM     32  O   UNL A   1      42.623  27.868  24.495  1.00  0.00    -0.246 OA
BRANCH  31  33
ATOM     33  C   UNL A   1      42.245  27.442  26.831  1.00  0.00     0.060 A 
ATOM     34  C   UNL A   1      41.269  26.798  27.605  1.00  0.00     0.016 A 
ATOM     35  C   UNL A   1      43.080  28.399  27.410  1.00  0.00     0.016 A 
ATOM     36  C   UNL A   1      41.100  27.143  28.951  1.00  0.00     0.010 A 
ATOM     37  C   UNL A   1      42.917  28.737  28.754  1.00  0.00     0.010 A 
ATOM     38  C   UNL A   1      41.894  28.147  29.519  1.00  0.00    -0.014 A 
BRANCH  38  39
ATOM     39  C   UNL A   1      41.520  28.791  30.804  1.00  0.00     0.031 A 
ATOM     40  C   UNL A   1      40.333  29.721  30.789  1.00  0.00     0.074 A 
ATOM     41  C   UNL A   1      42.223  28.611  31.936  1.00  0.00     0.049 A 
ATOM     42  N   UNL A   1      39.913  30.549  31.707  1.00  0.00    -0.248 NA
ATOM     43  C   UNL A   1      39.527  29.728  29.555  1.00  0.00     0.031 C 
ATOM     44  C   UNL A   1      43.352  27.698  32.103  1.00  0.00     0.029 A 
ATOM     45  N   UNL A   1      42.095  29.216  33.164  1.00  0.00    -0.354 N 
ATOM     46  C   UNL A   1      38.815  31.198  31.151  1.00  0.00     0.074 A 
ATOM     47  C   UNL A   1      38.652  30.687  29.809  1.00  0.00     0.031 C 
ATOM     48  C   UNL A   1      43.827  27.818  33.356  1.00  0.00     0.029 A 
ATOM     49  C   UNL A   1      43.071  28.853  34.063  1.00  0.00     0.049 A 
ATOM     50  H   UNL A   1      41.374  29.851  33.380  1.00  0.00     0.167 HD
ATOM     51  C   UNL A   1      38.015  32.136  31.706  1.00  0.00     0.031 A 
ATOM     52  C   UNL A   1      43.344  29.327  35.297  1.00  0.00     0.031 A 
ATOM     53  C   UNL A   1      38.185  32.642  33.040  1.00  0.00     0.049 A 
ATOM     54  C   UNL A   1      42.487  30.431  35.872  1.00  0.00     0.074 A 
ATOM     55  C   UNL A   1      37.419  33.582  33.704  1.00  0.00     0.029 A 
ATOM     56  N   UNL A   1      39.190  32.252  33.910  1.00  0.00    -0.354 N 
ATOM     57  N   UNL A   1      41.451  31.034  35.339  1.00  0.00    -0.248 NA
ATOM     58  C   UNL A   1      42.835  30.918  37.216  1.00  0.00     0.031 C 
ATOM     59  C   UNL A   1      38.000  33.809  34.955  1.00  0.00     0.029 A 
ATOM     60  C   UNL A   1      39.079  32.949  35.099  1.00  0.00     0.049 A 
ATOM     61  H   UNL A   1      39.881  31.579  33.712  1.00  0.00     0.167 HD
ATOM     62  C   UNL A   1      40.997  31.935  36.299  1.00  0.00     0.074 A 
ATOM     63  C   UNL A   1      41.872  31.803  37.444  1.00  0.00     0.031 C 
ATOM     64  C   UNL A   1      39.942  32.785  36.242  1.00  0.00     0.031 A 
BRANCH  51  65
ATOM     65  C   UNL A   1      36.910  32.706  30.855  1.00  0.00    -0.014 A 
ATOM     66  C   UNL A   1      37.143  33.774  29.970  1.00  0.00     0.010 A 
ATOM     67  C   UNL A   1      35.624  32.141  30.923  1.00  0.00     0.010 A 
ATOM     68  C   UNL A   1      36.098  34.290  29.197  1.00  0.00     0.020 A 
ATOM     69  C   UNL A   1      34.586  32.631  30.127  1.00  0.00     0.020 A 
ATOM     70  C   UNL A   1      34.827  33.716  29.282  1.00  0.00     0.054 A 
BRANCH  70  71
ATOM     71  S   UNL A   1      33.499  34.391  28.249  1.00  0.00     0.124 S 
ATOM     72  O   UNL A   1      34.240  35.265  27.341  1.00  0.00    -0.237 OA
ATOM     73  O   UNL A   1      32.927  33.193  27.640  1.00  0.00    -0.237 OA
ATOM     74  O   UNL A   1      32.631  35.079  29.202  1.00  0.00    -0.744 OA
ENDBRANCH  70  71
ENDBRANCH  51  65
BRANCH  52  75
ATOM     75  C   UNL A   1      44.496  28.781  36.072  1.00  0.00    -0.014 A 
ATOM     76  C   UNL A   1      45.734  29.447  36.080  1.00  0.00     0.010 A 
ATOM     77  C   UNL A   1      44.363  27.585  36.801  1.00  0.00     0.010 A 
ATOM     78  C   UNL A   1      46.821  28.920  36.785  1.00  0.00     0.020 A 
ATOM     79  C   UNL A   1      45.437  27.071  37.535  1.00  0.00     0.020 A 
ATOM     80  C   UNL A   1      46.664  27.737  37.512  1.00  0.00     0.054 A 
BRANCH  80  81
ATOM     81  S   UNL A   1      48.077  27.100  38.455  1.00  0.00     0.124 S 
ATOM     82  O   UNL A   1      48.088  25.691  38.073  1.00  0.00    -0.237 OA
ATOM     83  O   UNL A   1      49.183  27.903  37.943  1.00  0.00    -0.237 OA
ATOM     84  O   UNL A   1      47.711  27.367  39.845  1.00  0.00    -0.744 OA
ENDBRANCH  80  81
ENDBRANCH  52  75
BRANCH  64  85
ATOM     85  C   UNL A   1      39.607  33.596  37.468  1.00  0.00    -0.014 A 
ATOM     86  C   UNL A   1      38.839  33.066  38.519  1.00  0.00     0.010 A 
ATOM     87  C   UNL A   1      40.188  34.870  37.619  1.00  0.00     0.010 A 
ATOM     88  C   UNL A   1      38.655  33.798  39.696  1.00  0.00     0.020 A 
ATOM     89  C   UNL A   1      40.031  35.591  38.804  1.00  0.00     0.020 A 
ATOM     90  C   UNL A   1      39.262  35.051  39.835  1.00  0.00     0.054 A 
BRANCH  90  91
ATOM     91  S   UNL A   1      39.090  35.935  41.410  1.00  0.00     0.124 S 
ATOM     92  O   UNL A   1      37.746  35.550  41.832  1.00  0.00    -0.237 OA
ATOM     93  O   UNL A   1      40.183  35.381  42.206  1.00  0.00    -0.237 OA
ATOM     94  O   UNL A   1      39.247  37.340  41.040  1.00  0.00    -0.744 OA
ENDBRANCH  90  91
ENDBRANCH  64  85
ENDBRANCH  38  39
ENDBRANCH  31  33
ENDBRANCH  30  31
ENDBRANCH  29  30
ENDBRANCH  28  29
ENDBRANCH  27  28
ENDBRANCH  26  27
ENDBRANCH  25  26
ENDBRANCH   1  25
TORSDOF 26
ENDMDL
MODEL 3
REMARK VINA RESULT:      -7.8      1.082      8.025
REMARK SMILES O=C(/C=C/c1c(Cl)cccc1Cl)NCC(=O)OCCOCCOCCOCCOC(=O)c1ccc(-c2c3nc(c(-c4ccc(S(=O)(=O)[O-])cc4)c4ccc([nH]4)c(-c4ccc(S(=O)(=O)[O-])cc4)c4nc(c(-c5ccc(S(=O)(=O)[O-])cc5)c5ccc2[nH]5)C=C4)C=C3)cc1
REMARK SMILES IDX 23 1 22 2 21 3 20 4 19 5 18 6 17 7 15 8 16 9 14 10 13 11
REMARK SMILES IDX 1 12 2 13 3 15 4 16 5 17 6 18 11 19 7 20 8 21 10 22 12 23
REMARK SMILES IDX 9 24 24 25 25 26 26 27 27 28 28 29 29 30 30 31 31 32 32 33
REMARK SMILES IDX 33 34 91 35 34 36 90 37 35 38 36 39 37 40 84 41 38 42 89 43
REMARK SMILES IDX 83 44 85 45 39 46 88 47 82 48 81 49 40 51 70 52 51 53 69 54
REMARK SMILES IDX 52 55 55 56 68 57 86 58 53 59 54 60 67 62 87 63 56 64 41 65
REMARK SMILES IDX 42 66 50 67 43 68 49 69 44 70 45 71 46 72 47 73 48 74 71 75
REMARK SMILES IDX 72 76 80 77 73 78 79 79 74 80 75 81 76 82 77 83 78 84 57 85
REMARK SMILES IDX 58 86 66 87 59 88 65 89 60 90 61 91 62 92 63 93 64 94
REMARK H PARENT 13 14 85 50 55 61
REMARK Flexibility Score: inf
ROOT
ATOM      1  O   UNL A   1      30.499  28.255  24.392  1.00  0.00    -0.377 OA
ENDROOT
BRANCH   1   2
ATOM      2  C   UNL A   1      29.862  27.008  24.232  1.00  0.00     0.188 C 
BRANCH   2   3
ATOM      3  C   UNL A   1      30.024  26.374  22.841  1.00  0.00     0.188 C 
BRANCH   3   4
ATOM      4  O   UNL A   1      30.911  26.938  21.888  1.00  0.00    -0.376 OA
BRANCH   4   5
ATOM      5  C   UNL A   1      31.869  26.120  21.224  1.00  0.00     0.202 C 
BRANCH   5   6
ATOM      6  C   UNL A   1      33.108  25.560  21.946  1.00  0.00     0.261 C 
BRANCH   6   7
ATOM      7  O   UNL A   1      32.885  24.386  22.748  1.00  0.00    -0.462 OA
BRANCH   7   8
ATOM      8  C   UNL A   1      33.085  24.514  24.081  1.00  0.00     0.325 C 
ATOM      9  O   UNL A   1      32.794  25.518  24.729  1.00  0.00    -0.250 OA
BRANCH   8  10
ATOM     10  C   UNL A   1      33.555  23.229  24.782  1.00  0.00     0.239 C 
BRANCH  10  11
ATOM     11  N   UNL A   1      34.942  22.956  25.142  1.00  0.00    -0.342 N 
ATOM     12  O   UNL A   1      35.039  20.923  24.121  1.00  0.00    -0.270 OA
ATOM     13  C   UNL A   1      35.591  21.827  24.738  1.00  0.00     0.244 C 
ATOM     14  H   UNL A   1      35.427  23.610  25.697  1.00  0.00     0.164 HD
BRANCH  13  15
ATOM     15  C   UNL A   1      37.067  21.764  24.978  1.00  0.00     0.072 C 
ATOM     16  C   UNL A   1      37.725  21.668  26.146  1.00  0.00     0.017 C 
BRANCH  16  17
ATOM     17  C   UNL A   1      39.209  21.582  26.235  1.00  0.00     0.012 A 
ATOM     18  C   UNL A   1      40.029  22.673  26.585  1.00  0.00     0.049 A 
ATOM     19  C   UNL A   1      39.856  20.354  25.991  1.00  0.00     0.049 A 
ATOM     20  Cl  UNL A   1      39.376  24.216  27.023  1.00  0.00    -0.084 Cl
ATOM     21  C   UNL A   1      41.427  22.545  26.640  1.00  0.00     0.021 A 
ATOM     22  C   UNL A   1      41.251  20.223  26.059  1.00  0.00     0.021 A 
ATOM     23  Cl  UNL A   1      38.965  18.937  25.592  1.00  0.00    -0.084 Cl
ATOM     24  C   UNL A   1      42.039  21.323  26.372  1.00  0.00     0.003 A 
ENDBRANCH  16  17
ENDBRANCH  13  15
ENDBRANCH  10  11
ENDBRANCH   8  10
ENDBRANCH   7   8
ENDBRANCH   6   7
ENDBRANCH   5   6
ENDBRANCH   4   5
ENDBRANCH   3   4
ENDBRANCH   2   3
ENDBRANCH   1   2
BRANCH   1  25
ATOM     25  C   UNL A   1      31.675  28.303  25.191  1.00  0.00     0.188 C 
BRANCH  25  26
ATOM     26  C   UNL A   1      32.691  29.441  24.953  1.00  0.00     0.188 C 
BRANCH  26  27
ATOM     27  O   UNL A   1      33.260  29.976  26.143  1.00  0.00    -0.376 OA
BRANCH  27  28
ATOM     28  C   UNL A   1      34.480  29.424  26.616  1.00  0.00     0.202 C 
BRANCH  28  29
ATOM     29  C   UNL A   1      35.199  30.150  27.761  1.00  0.00     0.261 C 
BRANCH  29  30
ATOM     30  O   UNL A   1      36.188  29.396  28.474  1.00  0.00    -0.460 OA
BRANCH  30  31
ATOM     31  C   UNL A   1      37.044  30.025  29.301  1.00  0.00     0.338 C 
ATOM     32  O   UNL A   1      36.760  30.783  30.212  1.00  0.00    -0.246 OA
BRANCH  31  33
ATOM     33  C   UNL A   1      38.391  29.483  29.015  1.00  0.00     0.060 A 
ATOM     34  C   UNL A   1      39.145  28.901  30.044  1.00  0.00     0.016 A 
ATOM     35  C   UNL A   1      38.898  29.531  27.715  1.00  0.00     0.016 A 
ATOM     36  C   UNL A   1      40.426  28.401  29.780  1.00  0.00     0.010 A 
ATOM     37  C   UNL A   1      40.171  29.026  27.450  1.00  0.00     0.010 A 
ATOM     38  C   UNL A   1      40.962  28.503  28.490  1.00  0.00    -0.014 A 
BRANCH  38  39
ATOM     39  C   UNL A   1      42.416  28.328  28.245  1.00  0.00     0.031 A 
ATOM     40  C   UNL A   1      43.310  29.511  28.518  1.00  0.00     0.074 A 
ATOM     41  C   UNL A   1      42.936  27.189  27.752  1.00  0.00     0.049 A 
ATOM     42  N   UNL A   1      44.566  29.693  28.214  1.00  0.00    -0.248 NA
ATOM     43  C   UNL A   1      42.684  30.652  29.211  1.00  0.00     0.031 C 
ATOM     44  C   UNL A   1      42.196  25.954  27.499  1.00  0.00     0.029 A 
ATOM     45  N   UNL A   1      44.219  26.901  27.352  1.00  0.00    -0.354 N 
ATOM     46  C   UNL A   1      44.873  30.979  28.647  1.00  0.00     0.074 A 
ATOM     47  C   UNL A   1      43.665  31.540  29.210  1.00  0.00     0.031 C 
ATOM     48  C   UNL A   1      43.035  25.046  26.968  1.00  0.00     0.029 A 
ATOM     49  C   UNL A   1      44.356  25.651  26.794  1.00  0.00     0.049 A 
ATOM     50  H   UNL A   1      44.970  27.530  27.454  1.00  0.00     0.167 HD
ATOM     51  C   UNL A   1      46.053  31.636  28.581  1.00  0.00     0.031 A 
ATOM     52  C   UNL A   1      45.413  25.078  26.181  1.00  0.00     0.031 A 
ATOM     53  C   UNL A   1      47.249  31.074  28.017  1.00  0.00     0.049 A 
ATOM     54  C   UNL A   1      46.702  25.855  26.047  1.00  0.00     0.074 A 
ATOM     55  C   UNL A   1      48.502  31.650  27.916  1.00  0.00     0.029 A 
ATOM     56  N   UNL A   1      47.339  29.810  27.457  1.00  0.00    -0.354 N 
ATOM     57  N   UNL A   1      46.982  27.068  26.464  1.00  0.00    -0.248 NA
ATOM     58  C   UNL A   1      47.820  25.187  25.362  1.00  0.00     0.031 C 
ATOM     59  C   UNL A   1      49.335  30.758  27.236  1.00  0.00     0.029 A 
ATOM     60  C   UNL A   1      48.622  29.595  26.987  1.00  0.00     0.049 A 
ATOM     61  H   UNL A   1      46.601  29.161  27.401  1.00  0.00     0.167 HD
ATOM     62  C   UNL A   1      48.317  27.287  26.133  1.00  0.00     0.074 A 
ATOM     63  C   UNL A   1      48.788  26.087  25.478  1.00  0.00     0.031 C 
ATOM     64  C   UNL A   1      49.085  28.381  26.363  1.00  0.00     0.031 A 
BRANCH  51  65
ATOM     65  C   UNL A   1      46.096  33.051  29.095  1.00  0.00    -0.014 A 
ATOM     66  C   UNL A   1      45.792  34.144  28.263  1.00  0.00     0.010 A 
ATOM     67  C   UNL A   1      46.416  33.287  30.444  1.00  0.00     0.010 A 
ATOM     68  C   UNL A   1      45.847  35.448  28.762  1.00  0.00     0.020 A 
ATOM     69  C   UNL A   1      46.438  34.587  30.956  1.00  0.00     0.020 A 
ATOM     70  C   UNL A   1      46.171  35.661  30.105  1.00  0.00     0.054 A 
BRANCH  70  71
ATOM     71  S   UNL A   1      46.209  37.363  30.730  1.00  0.00     0.124 S 
ATOM     72  O   UNL A   1      45.164  37.999  29.930  1.00  0.00    -0.237 OA
ATOM     73  O   UNL A   1      45.898  37.190  32.146  1.00  0.00    -0.237 OA
ATOM     74  O   UNL A   1      47.570  37.809  30.441  1.00  0.00    -0.744 OA
ENDBRANCH  70  71
ENDBRANCH  51  65
BRANCH  52  75
ATOM     75  C   UNL A   1      45.300  23.699  25.622  1.00  0.00    -0.014 A 
ATOM     76  C   UNL A   1      44.790  23.491  24.329  1.00  0.00     0.010 A 
ATOM     77  C   UNL A   1      45.693  22.584  26.386  1.00  0.00     0.010 A 
ATOM     78  C   UNL A   1      44.659  22.196  23.816  1.00  0.00     0.020 A 
ATOM     79  C   UNL A   1      45.594  21.290  25.865  1.00  0.00     0.020 A 
ATOM     80  C   UNL A   1      45.066  21.104  24.587  1.00  0.00     0.054 A 
BRANCH  80  81
ATOM     81  S   UNL A   1      44.927  19.438  23.879  1.00  0.00     0.124 S 
ATOM     82  O   UNL A   1      44.430  19.719  22.536  1.00  0.00    -0.237 OA
ATOM     83  O   UNL A   1      46.300  18.949  23.957  1.00  0.00    -0.237 OA
ATOM     84  O   UNL A   1      43.980  18.767  24.768  1.00  0.00    -0.744 OA
ENDBRANCH  80  81
ENDBRANCH  52  75
BRANCH  64  85
ATOM     85  C   UNL A   1      50.543  28.326  25.983  1.00  0.00    -0.014 A 
ATOM     86  C   UNL A   1      51.003  28.795  24.741  1.00  0.00     0.010 A 
ATOM     87  C   UNL A   1      51.480  27.911  26.949  1.00  0.00     0.010 A 
ATOM     88  C   UNL A   1      52.374  28.848  24.472  1.00  0.00     0.020 A 
ATOM     89  C   UNL A   1      52.851  27.991  26.695  1.00  0.00     0.020 A 
ATOM     90  C   UNL A   1      53.289  28.457  25.455  1.00  0.00     0.054 A 
BRANCH  90  91
ATOM     91  S   UNL A   1      55.063  28.630  25.117  1.00  0.00     0.124 S 
ATOM     92  O   UNL A   1      55.426  29.764  25.962  1.00  0.00    -0.237 OA
ATOM     93  O   UNL A   1      55.595  27.335  25.537  1.00  0.00    -0.237 OA
ATOM     94  O   UNL A   1      55.121  28.883  23.678  1.00  0.00    -0.744 OA
ENDBRANCH  90  91
ENDBRANCH  64  85
ENDBRANCH  38  39
ENDBRANCH  31  33
ENDBRANCH  30  31
ENDBRANCH  29  30
ENDBRANCH  28  29
ENDBRANCH  27  28
ENDBRANCH  26  27
ENDBRANCH  25  26
ENDBRANCH   1  25
TORSDOF 26
ENDMDL
