MODEL 1
REMARK VINA RESULT:      -9.0      0.000      0.000
REMARK SMILES O=C(OCCOCCOCCOCCOC(=O)[C@H]1CC2(CC[NH+](C(=O)c3cccc(O)c3)CC2)CN1C(=O)C1CC1)c1ccc(-c2c3nc(c(-c4ccc(S(=O)(=O)[O-])cc4)c4ccc([nH]4)c(-c4ccc(S(=O)(=O)[O-])cc4)c4nc(c(-c5ccc(S(=O)(=O)[O-])cc5)c5ccc2[nH]5)C=C4)C=C3)cc1
REMARK SMILES IDX 9 1 8 2 7 3 6 4 5 5 4 6 3 7 2 8 1 9 42 10 43 11 101 12 44 13
REMARK SMILES IDX 100 14 45 15 46 16 47 17 94 18 48 19 99 20 93 21 95 22 49 23
REMARK SMILES IDX 98 24 92 25 91 26 50 28 80 29 61 30 79 31 62 32 65 33 78 34
REMARK SMILES IDX 96 35 63 36 64 37 77 39 97 40 66 41 51 42 52 43 60 44 53 45
REMARK SMILES IDX 59 46 54 47 55 48 56 49 57 50 58 51 81 52 82 53 90 54 83 55
REMARK SMILES IDX 89 56 84 57 85 58 86 59 87 60 88 61 67 62 68 63 76 64 69 65
REMARK SMILES IDX 75 66 70 67 71 68 72 69 73 70 74 71 10 72 11 73 12 74 13 75
REMARK SMILES IDX 14 76 15 77 16 78 17 79 18 80 19 81 36 82 20 83 35 84 21 85
REMARK SMILES IDX 34 86 22 87 33 88 23 89 37 91 38 92 39 93 40 94 41 95 24 96
REMARK SMILES IDX 25 97 26 98 27 99 32 100 28 101 30 102 29 103 31 104
REMARK H PARENT 95 27 65 38 23 90 31 105
REMARK Flexibility Score: inf
ROOT
ATOM      1  O   UNL A   1      34.820  34.353  33.806  1.00  0.00    -0.377 OA
ENDROOT
BRANCH   1   2
ATOM      2  C   UNL A   1      35.176  33.168  33.100  1.00  0.00     0.188 C 
BRANCH   2   3
ATOM      3  C   UNL A   1      36.462  32.528  33.588  1.00  0.00     0.188 C 
BRANCH   3   4
ATOM      4  O   UNL A   1      37.033  33.363  34.578  1.00  0.00    -0.376 OA
BRANCH   4   5
ATOM      5  C   UNL A   1      37.582  32.753  35.734  1.00  0.00     0.202 C 
BRANCH   5   6
ATOM      6  C   UNL A   1      39.077  32.521  35.652  1.00  0.00     0.261 C 
BRANCH   6   7
ATOM      7  O   UNL A   1      39.463  31.148  35.472  1.00  0.00    -0.460 OA
BRANCH   7   8
ATOM      8  C   UNL A   1      39.493  30.359  34.375  1.00  0.00     0.338 C 
ATOM      9  O   UNL A   1      38.493  29.680  34.134  1.00  0.00    -0.246 OA
BRANCH   8  10
ATOM     10  C   UNL A   1      40.614  30.275  33.394  1.00  0.00     0.060 A 
ATOM     11  C   UNL A   1      40.558  30.606  32.041  1.00  0.00     0.016 A 
ATOM     12  C   UNL A   1      41.871  29.950  33.930  1.00  0.00     0.016 A 
ATOM     13  C   UNL A   1      41.675  30.585  31.227  1.00  0.00     0.010 A 
ATOM     14  C   UNL A   1      43.011  29.926  33.124  1.00  0.00     0.010 A 
ATOM     15  C   UNL A   1      42.899  30.219  31.762  1.00  0.00    -0.014 A 
BRANCH  15  16
ATOM     16  C   UNL A   1      43.967  29.920  30.805  1.00  0.00     0.031 A 
ATOM     17  C   UNL A   1      43.779  28.707  29.951  1.00  0.00     0.074 A 
ATOM     18  C   UNL A   1      44.959  30.803  30.603  1.00  0.00     0.049 A 
ATOM     19  N   UNL A   1      44.604  28.150  29.114  1.00  0.00    -0.248 NA
ATOM     20  C   UNL A   1      42.467  28.033  30.046  1.00  0.00     0.031 C 
ATOM     21  C   UNL A   1      45.079  32.109  31.262  1.00  0.00     0.029 A 
ATOM     22  N   UNL A   1      46.035  30.753  29.765  1.00  0.00    -0.354 N 
ATOM     23  C   UNL A   1      43.939  27.031  28.632  1.00  0.00     0.074 A 
ATOM     24  C   UNL A   1      42.637  26.990  29.250  1.00  0.00     0.031 C 
ATOM     25  C   UNL A   1      46.174  32.734  30.798  1.00  0.00     0.029 A 
ATOM     26  C   UNL A   1      46.871  31.836  29.887  1.00  0.00     0.049 A 
ATOM     27  H   UNL A   1      46.196  30.013  29.135  1.00  0.00     0.167 HD
ATOM     28  C   UNL A   1      44.407  26.108  27.764  1.00  0.00     0.031 A 
ATOM     29  C   UNL A   1      48.096  32.030  29.365  1.00  0.00     0.031 A 
ATOM     30  C   UNL A   1      45.718  26.199  27.188  1.00  0.00     0.049 A 
ATOM     31  C   UNL A   1      48.653  30.926  28.505  1.00  0.00     0.074 A 
ATOM     32  C   UNL A   1      46.363  25.309  26.356  1.00  0.00     0.029 A 
ATOM     33  N   UNL A   1      46.585  27.265  27.401  1.00  0.00    -0.354 N 
ATOM     34  N   UNL A   1      48.070  29.811  28.121  1.00  0.00    -0.248 NA
ATOM     35  C   UNL A   1      50.028  31.086  28.027  1.00  0.00     0.031 C 
ATOM     36  C   UNL A   1      47.647  25.809  26.116  1.00  0.00     0.029 A 
ATOM     37  C   UNL A   1      47.775  27.044  26.739  1.00  0.00     0.049 A 
ATOM     38  H   UNL A   1      46.381  28.060  27.944  1.00  0.00     0.167 HD
ATOM     39  C   UNL A   1      49.002  29.143  27.342  1.00  0.00     0.074 A 
ATOM     40  C   UNL A   1      50.179  29.991  27.293  1.00  0.00     0.031 C 
ATOM     41  C   UNL A   1      48.907  27.938  26.724  1.00  0.00     0.031 A 
BRANCH  28  42
ATOM     42  C   UNL A   1      43.544  24.904  27.508  1.00  0.00    -0.014 A 
ATOM     43  C   UNL A   1      42.725  24.800  26.369  1.00  0.00     0.010 A 
ATOM     44  C   UNL A   1      43.525  23.869  28.460  1.00  0.00     0.010 A 
ATOM     45  C   UNL A   1      41.878  23.700  26.207  1.00  0.00     0.020 A 
ATOM     46  C   UNL A   1      42.700  22.755  28.288  1.00  0.00     0.020 A 
ATOM     47  C   UNL A   1      41.870  22.684  27.169  1.00  0.00     0.054 A 
BRANCH  47  48
ATOM     48  S   UNL A   1      40.775  21.259  26.924  1.00  0.00     0.124 S 
ATOM     49  O   UNL A   1      39.509  21.905  26.588  1.00  0.00    -0.237 OA
ATOM     50  O   UNL A   1      41.425  20.544  25.830  1.00  0.00    -0.237 OA
ATOM     51  O   UNL A   1      40.801  20.576  28.215  1.00  0.00    -0.744 OA
ENDBRANCH  47  48
ENDBRANCH  28  42
BRANCH  29  52
ATOM     52  C   UNL A   1      48.891  33.239  29.721  1.00  0.00    -0.014 A 
ATOM     53  C   UNL A   1      48.838  34.404  28.937  1.00  0.00     0.010 A 
ATOM     54  C   UNL A   1      49.719  33.230  30.862  1.00  0.00     0.010 A 
ATOM     55  C   UNL A   1      49.610  35.523  29.273  1.00  0.00     0.020 A 
ATOM     56  C   UNL A   1      50.466  34.354  31.220  1.00  0.00     0.020 A 
ATOM     57  C   UNL A   1      50.419  35.491  30.414  1.00  0.00     0.054 A 
BRANCH  57  58
ATOM     58  S   UNL A   1      51.391  36.962  30.844  1.00  0.00     0.124 S 
ATOM     59  O   UNL A   1      50.740  37.408  32.071  1.00  0.00    -0.237 OA
ATOM     60  O   UNL A   1      52.736  36.413  31.003  1.00  0.00    -0.237 OA
ATOM     61  O   UNL A   1      51.217  37.837  29.687  1.00  0.00    -0.744 OA
ENDBRANCH  57  58
ENDBRANCH  29  52
BRANCH  41  62
ATOM     62  C   UNL A   1      50.092  27.499  25.915  1.00  0.00    -0.014 A 
ATOM     63  C   UNL A   1      50.275  27.944  24.596  1.00  0.00     0.010 A 
ATOM     64  C   UNL A   1      51.079  26.706  26.527  1.00  0.00     0.010 A 
ATOM     65  C   UNL A   1      51.424  27.586  23.892  1.00  0.00     0.020 A 
ATOM     66  C   UNL A   1      52.244  26.375  25.838  1.00  0.00     0.020 A 
ATOM     67  C   UNL A   1      52.404  26.810  24.521  1.00  0.00     0.054 A 
BRANCH  67  68
ATOM     68  S   UNL A   1      53.922  26.426  23.612  1.00  0.00     0.124 S 
ATOM     69  O   UNL A   1      53.399  26.009  22.313  1.00  0.00    -0.237 OA
ATOM     70  O   UNL A   1      54.633  27.701  23.625  1.00  0.00    -0.237 OA
ATOM     71  O   UNL A   1      54.541  25.365  24.403  1.00  0.00    -0.744 OA
ENDBRANCH  67  68
ENDBRANCH  41  62
ENDBRANCH  15  16
ENDBRANCH   8  10
ENDBRANCH   7   8
ENDBRANCH   6   7
ENDBRANCH   5   6
ENDBRANCH   4   5
ENDBRANCH   3   4
ENDBRANCH   2   3
ENDBRANCH   1   2
BRANCH   1  72
ATOM     72  C   UNL A   1      34.723  35.592  33.108  1.00  0.00     0.188 C 
BRANCH  72  73
ATOM     73  C   UNL A   1      33.367  35.992  32.516  1.00  0.00     0.188 C 
BRANCH  73  74
ATOM     74  O   UNL A   1      33.439  36.311  31.136  1.00  0.00    -0.376 OA
BRANCH  74  75
ATOM     75  C   UNL A   1      32.913  35.343  30.246  1.00  0.00     0.202 C 
BRANCH  75  76
ATOM     76  C   UNL A   1      33.732  34.944  28.991  1.00  0.00     0.261 C 
BRANCH  76  77
ATOM     77  O   UNL A   1      34.125  33.575  28.763  1.00  0.00    -0.462 OA
BRANCH  77  78
ATOM     78  C   UNL A   1      33.309  32.837  27.981  1.00  0.00     0.328 C 
ATOM     79  O   UNL A   1      32.395  33.352  27.334  1.00  0.00    -0.250 OA
BRANCH  78  80
ATOM     80  C   UNL A   1      33.644  31.328  27.880  1.00  0.00     0.195 C 
ATOM     81  C   UNL A   1      32.837  30.617  26.779  1.00  0.00     0.046 C 
ATOM     82  N   UNL A   1      34.975  30.728  27.718  1.00  0.00    -0.328 N 
ATOM     83  C   UNL A   1      33.382  29.189  26.665  1.00  0.00     0.001 C 
ATOM     84  C   UNL A   1      34.792  29.336  27.264  1.00  0.00     0.128 C 
ATOM     85  C   UNL A   1      33.417  28.753  25.187  1.00  0.00     0.071 C 
ATOM     86  C   UNL A   1      32.509  28.159  27.451  1.00  0.00     0.071 C 
ATOM     87  C   UNL A   1      32.004  28.601  24.622  1.00  0.00     0.271 C 
ATOM     88  C   UNL A   1      31.150  27.835  26.795  1.00  0.00     0.271 C 
ATOM     89  N   UNL A   1      31.288  27.568  25.366  1.00  0.00    -0.267 N 
ATOM     90  H   UNL A   1      31.231  27.183  24.461  1.00  0.00     0.357 HD
BRANCH  82  91
ATOM     91  C   UNL A   1      36.148  30.939  28.455  1.00  0.00     0.226 C 
ATOM     92  O   UNL A   1      36.066  31.438  29.581  1.00  0.00    -0.275 OA
BRANCH  91  93
ATOM     93  C   UNL A   1      37.527  30.504  28.083  1.00  0.00     0.079 C 
ATOM     94  C   UNL A   1      38.781  30.292  28.862  1.00  0.00     0.014 C 
ATOM     95  C   UNL A   1      37.984  29.101  28.386  1.00  0.00     0.014 C 
ENDBRANCH  91  93
ENDBRANCH  82  91
BRANCH  89  96
ATOM     96  C   UNL A   1      30.598  26.497  24.788  1.00  0.00     0.344 C 
ATOM     97  O   UNL A   1      29.662  26.630  24.004  1.00  0.00    -0.226 OA
BRANCH  96  98
ATOM     98  C   UNL A   1      31.001  25.116  25.148  1.00  0.00     0.083 A 
ATOM     99  C   UNL A   1      32.018  24.468  24.432  1.00  0.00     0.018 A 
ATOM    100  C   UNL A   1      30.367  24.465  26.209  1.00  0.00     0.064 A 
ATOM    101  C   UNL A   1      32.336  23.141  24.718  1.00  0.00     0.005 A 
ATOM    102  C   UNL A   1      30.704  23.145  26.495  1.00  0.00     0.116 A 
ATOM    103  C   UNL A   1      31.670  22.473  25.747  1.00  0.00     0.046 A 
BRANCH 102 104
ATOM    104  O   UNL A   1      30.052  22.527  27.521  1.00  0.00    -0.508 OA
ATOM    105  H   UNL A   1      29.203  22.824  27.782  1.00  0.00     0.293 HD
ENDBRANCH 102 104
ENDBRANCH  96  98
ENDBRANCH  89  96
ENDBRANCH  78  80
ENDBRANCH  77  78
ENDBRANCH  76  77
ENDBRANCH  75  76
ENDBRANCH  74  75
ENDBRANCH  73  74
ENDBRANCH  72  73
ENDBRANCH   1  72
TORSDOF 28
ENDMDL
MODEL 2
REMARK VINA RESULT:      -8.8      6.020     12.269
REMARK SMILES O=C(OCCOCCOCCOCCOC(=O)[C@H]1CC2(CC[NH+](C(=O)c3cccc(O)c3)CC2)CN1C(=O)C1CC1)c1ccc(-c2c3nc(c(-c4ccc(S(=O)(=O)[O-])cc4)c4ccc([nH]4)c(-c4ccc(S(=O)(=O)[O-])cc4)c4nc(c(-c5ccc(S(=O)(=O)[O-])cc5)c5ccc2[nH]5)C=C4)C=C3)cc1
REMARK SMILES IDX 9 1 8 2 7 3 6 4 5 5 4 6 3 7 2 8 1 9 42 10 43 11 101 12 44 13
REMARK SMILES IDX 100 14 45 15 46 16 47 17 94 18 48 19 99 20 93 21 95 22 49 23
REMARK SMILES IDX 98 24 92 25 91 26 50 28 80 29 61 30 79 31 62 32 65 33 78 34
REMARK SMILES IDX 96 35 63 36 64 37 77 39 97 40 66 41 51 42 52 43 60 44 53 45
REMARK SMILES IDX 59 46 54 47 55 48 56 49 57 50 58 51 81 52 82 53 90 54 83 55
REMARK SMILES IDX 89 56 84 57 85 58 86 59 87 60 88 61 67 62 68 63 76 64 69 65
REMARK SMILES IDX 75 66 70 67 71 68 72 69 73 70 74 71 10 72 11 73 12 74 13 75
REMARK SMILES IDX 14 76 15 77 16 78 17 79 18 80 19 81 36 82 20 83 35 84 21 85
REMARK SMILES IDX 34 86 22 87 33 88 23 89 37 91 38 92 39 93 40 94 41 95 24 96
REMARK SMILES IDX 25 97 26 98 27 99 32 100 28 101 30 102 29 103 31 104
REMARK H PARENT 95 27 65 38 23 90 31 105
REMARK Flexibility Score: inf
ROOT
ATOM      1  O   UNL A   1      42.676  19.619  24.980  1.00  0.00    -0.377 OA
ENDROOT
BRANCH   1   2
ATOM      2  C   UNL A   1      41.781  19.382  26.063  1.00  0.00     0.188 C 
BRANCH   2   3
ATOM      3  C   UNL A   1      42.365  19.719  27.423  1.00  0.00     0.188 C 
BRANCH   3   4
ATOM      4  O   UNL A   1      42.136  21.090  27.684  1.00  0.00    -0.376 OA
BRANCH   4   5
ATOM      5  C   UNL A   1      43.215  21.994  27.515  1.00  0.00     0.202 C 
BRANCH   5   6
ATOM      6  C   UNL A   1      43.340  23.012  28.630  1.00  0.00     0.261 C 
BRANCH   6   7
ATOM      7  O   UNL A   1      44.683  23.237  29.092  1.00  0.00    -0.460 OA
BRANCH   7   8
ATOM      8  C   UNL A   1      45.339  24.368  29.433  1.00  0.00     0.338 C 
ATOM      9  O   UNL A   1      46.358  24.650  28.800  1.00  0.00    -0.246 OA
BRANCH   8  10
ATOM     10  C   UNL A   1      44.908  25.342  30.479  1.00  0.00     0.060 A 
ATOM     11  C   UNL A   1      44.367  25.032  31.726  1.00  0.00     0.016 A 
ATOM     12  C   UNL A   1      45.201  26.690  30.218  1.00  0.00     0.016 A 
ATOM     13  C   UNL A   1      44.082  26.000  32.671  1.00  0.00     0.010 A 
ATOM     14  C   UNL A   1      44.923  27.681  31.160  1.00  0.00     0.010 A 
ATOM     15  C   UNL A   1      44.336  27.329  32.379  1.00  0.00    -0.014 A 
BRANCH  15  16
ATOM     16  C   UNL A   1      43.740  28.322  33.277  1.00  0.00     0.031 A 
ATOM     17  C   UNL A   1      42.457  28.945  32.826  1.00  0.00     0.074 A 
ATOM     18  C   UNL A   1      44.243  28.505  34.509  1.00  0.00     0.049 A 
ATOM     19  N   UNL A   1      41.781  29.920  33.359  1.00  0.00    -0.248 NA
ATOM     20  C   UNL A   1      41.844  28.380  31.606  1.00  0.00     0.031 C 
ATOM     21  C   UNL A   1      45.374  27.765  35.082  1.00  0.00     0.029 A 
ATOM     22  N   UNL A   1      43.851  29.345  35.512  1.00  0.00    -0.354 N 
ATOM     23  C   UNL A   1      40.702  30.127  32.511  1.00  0.00     0.074 A 
ATOM     24  C   UNL A   1      40.796  29.168  31.436  1.00  0.00     0.031 C 
ATOM     25  C   UNL A   1      45.582  28.190  36.339  1.00  0.00     0.029 A 
ATOM     26  C   UNL A   1      44.663  29.286  36.618  1.00  0.00     0.049 A 
ATOM     27  H   UNL A   1      43.065  29.934  35.447  1.00  0.00     0.167 HD
ATOM     28  C   UNL A   1      39.737  31.063  32.623  1.00  0.00     0.031 A 
ATOM     29  C   UNL A   1      44.688  30.087  37.699  1.00  0.00     0.031 A 
ATOM     30  C   UNL A   1      39.702  31.995  33.713  1.00  0.00     0.049 A 
ATOM     31  C   UNL A   1      43.685  31.210  37.739  1.00  0.00     0.074 A 
ATOM     32  C   UNL A   1      38.837  33.048  33.927  1.00  0.00     0.029 A 
ATOM     33  N   UNL A   1      40.594  31.974  34.779  1.00  0.00    -0.354 N 
ATOM     34  N   UNL A   1      42.718  31.477  36.889  1.00  0.00    -0.248 NA
ATOM     35  C   UNL A   1      43.782  32.148  38.860  1.00  0.00     0.031 C 
ATOM     36  C   UNL A   1      39.247  33.702  35.094  1.00  0.00     0.029 A 
ATOM     37  C   UNL A   1      40.320  33.013  35.644  1.00  0.00     0.049 A 
ATOM     38  H   UNL A   1      41.314  31.314  34.899  1.00  0.00     0.167 HD
ATOM     39  C   UNL A   1      42.080  32.606  37.380  1.00  0.00     0.074 A 
ATOM     40  C   UNL A   1      42.760  32.957  38.614  1.00  0.00     0.031 C 
ATOM     41  C   UNL A   1      41.033  33.301  36.865  1.00  0.00     0.031 A 
BRANCH  28  42
ATOM     42  C   UNL A   1      38.753  31.177  31.492  1.00  0.00    -0.014 A 
ATOM     43  C   UNL A   1      39.040  31.902  30.322  1.00  0.00     0.010 A 
ATOM     44  C   UNL A   1      37.489  30.575  31.630  1.00  0.00     0.010 A 
ATOM     45  C   UNL A   1      38.068  32.050  29.327  1.00  0.00     0.020 A 
ATOM     46  C   UNL A   1      36.525  30.697  30.627  1.00  0.00     0.020 A 
ATOM     47  C   UNL A   1      36.816  31.448  29.487  1.00  0.00     0.054 A 
BRANCH  47  48
ATOM     48  S   UNL A   1      35.581  31.641  28.173  1.00  0.00     0.124 S 
ATOM     49  O   UNL A   1      35.997  32.894  27.549  1.00  0.00    -0.237 OA
ATOM     50  O   UNL A   1      35.785  30.440  27.367  1.00  0.00    -0.237 OA
ATOM     51  O   UNL A   1      34.312  31.696  28.895  1.00  0.00    -0.744 OA
ENDBRANCH  47  48
ENDBRANCH  28  42
BRANCH  29  52
ATOM     52  C   UNL A   1      45.737  29.920  38.744  1.00  0.00    -0.014 A 
ATOM     53  C   UNL A   1      46.979  30.569  38.641  1.00  0.00     0.010 A 
ATOM     54  C   UNL A   1      45.495  29.099  39.864  1.00  0.00     0.010 A 
ATOM     55  C   UNL A   1      47.962  30.382  39.621  1.00  0.00     0.020 A 
ATOM     56  C   UNL A   1      46.460  28.934  40.860  1.00  0.00     0.020 A 
ATOM     57  C   UNL A   1      47.695  29.566  40.725  1.00  0.00     0.054 A 
BRANCH  57  58
ATOM     58  S   UNL A   1      48.975  29.359  41.995  1.00  0.00     0.124 S 
ATOM     59  O   UNL A   1      50.179  29.193  41.189  1.00  0.00    -0.237 OA
ATOM     60  O   UNL A   1      48.880  30.611  42.743  1.00  0.00    -0.237 OA
ATOM     61  O   UNL A   1      48.542  28.171  42.728  1.00  0.00    -0.744 OA
ENDBRANCH  57  58
ENDBRANCH  29  52
BRANCH  41  62
ATOM     62  C   UNL A   1      40.544  34.474  37.661  1.00  0.00    -0.014 A 
ATOM     63  C   UNL A   1      39.607  34.311  38.694  1.00  0.00     0.010 A 
ATOM     64  C   UNL A   1      41.111  35.740  37.427  1.00  0.00     0.010 A 
ATOM     65  C   UNL A   1      39.228  35.404  39.472  1.00  0.00     0.020 A 
ATOM     66  C   UNL A   1      40.760  36.827  38.225  1.00  0.00     0.020 A 
ATOM     67  C   UNL A   1      39.813  36.653  39.237  1.00  0.00     0.054 A 
BRANCH  67  68
ATOM     68  S   UNL A   1      39.362  38.038  40.311  1.00  0.00     0.124 S 
ATOM     69  O   UNL A   1      40.557  38.876  40.242  1.00  0.00    -0.237 OA
ATOM     70  O   UNL A   1      38.175  38.579  39.654  1.00  0.00    -0.237 OA
ATOM     71  O   UNL A   1      39.118  37.408  41.606  1.00  0.00    -0.744 OA
ENDBRANCH  67  68
ENDBRANCH  41  62
ENDBRANCH  15  16
ENDBRANCH   8  10
ENDBRANCH   7   8
ENDBRANCH   6   7
ENDBRANCH   5   6
ENDBRANCH   4   5
ENDBRANCH   3   4
ENDBRANCH   2   3
ENDBRANCH   1   2
BRANCH   1  72
ATOM     72  C   UNL A   1      44.073  19.400  25.153  1.00  0.00     0.188 C 
BRANCH  72  73
ATOM     73  C   UNL A   1      45.054  20.283  24.374  1.00  0.00     0.188 C 
BRANCH  73  74
ATOM     74  O   UNL A   1      44.521  21.560  24.064  1.00  0.00    -0.376 OA
BRANCH  74  75
ATOM     75  C   UNL A   1      45.298  22.673  24.466  1.00  0.00     0.202 C 
BRANCH  75  76
ATOM     76  C   UNL A   1      44.603  24.040  24.696  1.00  0.00     0.261 C 
BRANCH  76  77
ATOM     77  O   UNL A   1      43.168  24.135  24.812  1.00  0.00    -0.462 OA
BRANCH  77  78
ATOM     78  C   UNL A   1      42.679  25.307  25.269  1.00  0.00     0.328 C 
ATOM     79  O   UNL A   1      43.260  26.375  25.063  1.00  0.00    -0.250 OA
BRANCH  78  80
ATOM     80  C   UNL A   1      41.308  25.238  25.987  1.00  0.00     0.195 C 
ATOM     81  C   UNL A   1      40.582  23.902  25.749  1.00  0.00     0.046 C 
ATOM     82  N   UNL A   1      41.046  25.478  27.413  1.00  0.00    -0.328 N 
ATOM     83  C   UNL A   1      39.339  23.892  26.645  1.00  0.00     0.001 C 
ATOM     84  C   UNL A   1      39.718  24.917  27.730  1.00  0.00     0.128 C 
ATOM     85  C   UNL A   1      39.115  22.482  27.225  1.00  0.00     0.071 C 
ATOM     86  C   UNL A   1      38.047  24.304  25.868  1.00  0.00     0.071 C 
ATOM     87  C   UNL A   1      38.725  21.490  26.129  1.00  0.00     0.271 C 
ATOM     88  C   UNL A   1      37.515  23.234  24.891  1.00  0.00     0.271 C 
ATOM     89  N   UNL A   1      37.471  21.911  25.509  1.00  0.00    -0.267 N 
ATOM     90  H   UNL A   1      37.203  21.017  25.822  1.00  0.00     0.357 HD
BRANCH  82  91
ATOM     91  C   UNL A   1      41.417  26.559  28.223  1.00  0.00     0.226 C 
ATOM     92  O   UNL A   1      42.169  26.360  29.181  1.00  0.00    -0.275 OA
BRANCH  91  93
ATOM     93  C   UNL A   1      41.104  28.000  27.986  1.00  0.00     0.079 C 
ATOM     94  C   UNL A   1      41.904  29.155  27.485  1.00  0.00     0.014 C 
ATOM     95  C   UNL A   1      40.879  28.505  26.585  1.00  0.00     0.014 C 
ENDBRANCH  91  93
ENDBRANCH  82  91
BRANCH  89  96
ATOM     96  C   UNL A   1      36.358  21.088  25.315  1.00  0.00     0.344 C 
ATOM     97  O   UNL A   1      36.411  19.977  24.795  1.00  0.00    -0.226 OA
BRANCH  96  98
ATOM     98  C   UNL A   1      35.026  21.584  25.742  1.00  0.00     0.083 A 
ATOM     99  C   UNL A   1      34.746  21.766  27.104  1.00  0.00     0.018 A 
ATOM    100  C   UNL A   1      34.055  21.875  24.781  1.00  0.00     0.064 A 
ATOM    101  C   UNL A   1      33.467  22.151  27.507  1.00  0.00     0.005 A 
ATOM    102  C   UNL A   1      32.788  22.273  25.196  1.00  0.00     0.116 A 
ATOM    103  C   UNL A   1      32.481  22.396  26.551  1.00  0.00     0.046 A 
BRANCH 102 104
ATOM    104  O   UNL A   1      31.852  22.527  24.237  1.00  0.00    -0.508 OA
ATOM    105  H   UNL A   1      31.334  23.307  24.284  1.00  0.00     0.293 HD
ENDBRANCH 102 104
ENDBRANCH  96  98
ENDBRANCH  89  96
ENDBRANCH  78  80
ENDBRANCH  77  78
ENDBRANCH  76  77
ENDBRANCH  75  76
ENDBRANCH  74  75
ENDBRANCH  73  74
ENDBRANCH  72  73
ENDBRANCH   1  72
TORSDOF 28
ENDMDL
MODEL 3
REMARK VINA RESULT:      -8.7      5.586     14.830
REMARK SMILES O=C(OCCOCCOCCOCCOC(=O)[C@H]1CC2(CC[NH+](C(=O)c3cccc(O)c3)CC2)CN1C(=O)C1CC1)c1ccc(-c2c3nc(c(-c4ccc(S(=O)(=O)[O-])cc4)c4ccc([nH]4)c(-c4ccc(S(=O)(=O)[O-])cc4)c4nc(c(-c5ccc(S(=O)(=O)[O-])cc5)c5ccc2[nH]5)C=C4)C=C3)cc1
REMARK SMILES IDX 9 1 8 2 7 3 6 4 5 5 4 6 3 7 2 8 1 9 42 10 43 11 101 12 44 13
REMARK SMILES IDX 100 14 45 15 46 16 47 17 94 18 48 19 99 20 93 21 95 22 49 23
REMARK SMILES IDX 98 24 92 25 91 26 50 28 80 29 61 30 79 31 62 32 65 33 78 34
REMARK SMILES IDX 96 35 63 36 64 37 77 39 97 40 66 41 51 42 52 43 60 44 53 45
REMARK SMILES IDX 59 46 54 47 55 48 56 49 57 50 58 51 81 52 82 53 90 54 83 55
REMARK SMILES IDX 89 56 84 57 85 58 86 59 87 60 88 61 67 62 68 63 76 64 69 65
REMARK SMILES IDX 75 66 70 67 71 68 72 69 73 70 74 71 10 72 11 73 12 74 13 75
REMARK SMILES IDX 14 76 15 77 16 78 17 79 18 80 19 81 36 82 20 83 35 84 21 85
REMARK SMILES IDX 34 86 22 87 33 88 23 89 37 91 38 92 39 93 40 94 41 95 24 96
REMARK SMILES IDX 25 97 26 98 27 99 32 100 28 101 30 102 29 103 31 104
REMARK H PARENT 95 27 65 38 23 90 31 105
REMARK Flexibility Score: inf
ROOT
ATOM      1  O   UNL A   1      42.061  19.433  25.259  1.00  0.00    -0.377 OA
ENDROOT
BRANCH   1   2
ATOM      2  C   UNL A   1      41.004  19.560  26.206  1.00  0.00     0.188 C 
BRANCH   2   3
ATOM      3  C   UNL A   1      41.478  19.863  27.615  1.00  0.00     0.188 C 
BRANCH   3   4
ATOM      4  O   UNL A   1      40.925  21.099  28.020  1.00  0.00    -0.376 OA
BRANCH   4   5
ATOM      5  C   UNL A   1      41.591  22.290  27.635  1.00  0.00     0.202 C 
BRANCH   5   6
ATOM      6  C   UNL A   1      42.262  23.014  28.784  1.00  0.00     0.261 C 
BRANCH   6   7
ATOM      7  O   UNL A   1      43.696  23.067  28.707  1.00  0.00    -0.460 OA
BRANCH   7   8
ATOM      8  C   UNL A   1      44.581  24.028  29.057  1.00  0.00     0.338 C 
ATOM      9  O   UNL A   1      45.712  23.966  28.573  1.00  0.00    -0.246 OA
BRANCH   8  10
ATOM     10  C   UNL A   1      44.292  25.194  29.942  1.00  0.00     0.060 A 
ATOM     11  C   UNL A   1      43.918  25.144  31.284  1.00  0.00     0.016 A 
ATOM     12  C   UNL A   1      44.551  26.459  29.390  1.00  0.00     0.016 A 
ATOM     13  C   UNL A   1      43.762  26.281  32.053  1.00  0.00     0.010 A 
ATOM     14  C   UNL A   1      44.401  27.620  30.151  1.00  0.00     0.010 A 
ATOM     15  C   UNL A   1      43.977  27.523  31.479  1.00  0.00    -0.014 A 
BRANCH  15  16
ATOM     16  C   UNL A   1      43.506  28.685  32.238  1.00  0.00     0.031 A 
ATOM     17  C   UNL A   1      44.366  29.134  33.375  1.00  0.00     0.074 A 
ATOM     18  C   UNL A   1      42.452  29.394  31.800  1.00  0.00     0.049 A 
ATOM     19  N   UNL A   1      44.138  30.048  34.272  1.00  0.00    -0.248 NA
ATOM     20  C   UNL A   1      45.677  28.465  33.513  1.00  0.00     0.031 C 
ATOM     21  C   UNL A   1      41.698  29.121  30.570  1.00  0.00     0.029 A 
ATOM     22  N   UNL A   1      41.852  30.505  32.320  1.00  0.00    -0.354 N 
ATOM     23  C   UNL A   1      45.242  30.021  35.114  1.00  0.00     0.074 A 
ATOM     24  C   UNL A   1      46.152  29.018  34.617  1.00  0.00     0.031 C 
ATOM     25  C   UNL A   1      40.733  30.046  30.435  1.00  0.00     0.029 A 
ATOM     26  C   UNL A   1      40.748  30.909  31.609  1.00  0.00     0.049 A 
ATOM     27  H   UNL A   1      42.178  30.969  33.124  1.00  0.00     0.167 HD
ATOM     28  C   UNL A   1      45.448  30.764  36.222  1.00  0.00     0.031 A 
ATOM     29  C   UNL A   1      39.823  31.834  31.926  1.00  0.00     0.031 A 
ATOM     30  C   UNL A   1      44.500  31.743  36.670  1.00  0.00     0.049 A 
ATOM     31  C   UNL A   1      40.004  32.558  33.234  1.00  0.00     0.074 A 
ATOM     32  C   UNL A   1      44.528  32.519  37.811  1.00  0.00     0.029 A 
ATOM     33  N   UNL A   1      43.340  32.072  35.979  1.00  0.00    -0.354 N 
ATOM     34  N   UNL A   1      40.997  32.469  34.091  1.00  0.00    -0.248 NA
ATOM     35  C   UNL A   1      38.941  33.484  33.633  1.00  0.00     0.031 C 
ATOM     36  C   UNL A   1      43.350  33.272  37.838  1.00  0.00     0.029 A 
ATOM     37  C   UNL A   1      42.625  33.020  36.681  1.00  0.00     0.049 A 
ATOM     38  H   UNL A   1      43.068  31.684  35.116  1.00  0.00     0.167 HD
ATOM     39  C   UNL A   1      40.688  33.340  35.125  1.00  0.00     0.074 A 
ATOM     40  C   UNL A   1      39.424  33.961  34.772  1.00  0.00     0.031 C 
ATOM     41  C   UNL A   1      41.373  33.605  36.266  1.00  0.00     0.031 A 
BRANCH  28  42
ATOM     42  C   UNL A   1      46.663  30.446  37.048  1.00  0.00    -0.014 A 
ATOM     43  C   UNL A   1      47.919  31.021  36.782  1.00  0.00     0.010 A 
ATOM     44  C   UNL A   1      46.547  29.511  38.092  1.00  0.00     0.010 A 
ATOM     45  C   UNL A   1      49.042  30.639  37.523  1.00  0.00     0.020 A 
ATOM     46  C   UNL A   1      47.661  29.147  38.853  1.00  0.00     0.020 A 
ATOM     47  C   UNL A   1      48.905  29.703  38.554  1.00  0.00     0.054 A 
BRANCH  47  48
ATOM     48  S   UNL A   1      50.374  29.239  39.512  1.00  0.00     0.124 S 
ATOM     49  O   UNL A   1      50.157  29.959  40.764  1.00  0.00    -0.237 OA
ATOM     50  O   UNL A   1      50.255  27.786  39.593  1.00  0.00    -0.237 OA
ATOM     51  O   UNL A   1      51.486  29.727  38.699  1.00  0.00    -0.744 OA
ENDBRANCH  47  48
ENDBRANCH  28  42
BRANCH  29  52
ATOM     52  C   UNL A   1      38.627  32.040  31.061  1.00  0.00    -0.014 A 
ATOM     53  C   UNL A   1      37.415  31.382  31.325  1.00  0.00     0.010 A 
ATOM     54  C   UNL A   1      38.698  32.907  29.952  1.00  0.00     0.010 A 
ATOM     55  C   UNL A   1      36.307  31.569  30.488  1.00  0.00     0.020 A 
ATOM     56  C   UNL A   1      37.588  33.123  29.133  1.00  0.00     0.020 A 
ATOM     57  C   UNL A   1      36.401  32.440  29.397  1.00  0.00     0.054 A 
BRANCH  57  58
ATOM     58  S   UNL A   1      34.946  32.687  28.342  1.00  0.00     0.124 S 
ATOM     59  O   UNL A   1      34.886  31.428  27.607  1.00  0.00    -0.237 OA
ATOM     60  O   UNL A   1      33.882  32.902  29.320  1.00  0.00    -0.237 OA
ATOM     61  O   UNL A   1      35.295  33.861  27.545  1.00  0.00    -0.744 OA
ENDBRANCH  57  58
ENDBRANCH  29  52
BRANCH  41  62
ATOM     62  C   UNL A   1      40.786  34.638  37.182  1.00  0.00    -0.014 A 
ATOM     63  C   UNL A   1      39.796  34.298  38.119  1.00  0.00     0.010 A 
ATOM     64  C   UNL A   1      41.308  35.944  37.162  1.00  0.00     0.010 A 
ATOM     65  C   UNL A   1      39.323  35.258  39.014  1.00  0.00     0.020 A 
ATOM     66  C   UNL A   1      40.862  36.895  38.077  1.00  0.00     0.020 A 
ATOM     67  C   UNL A   1      39.865  36.548  38.991  1.00  0.00     0.054 A 
BRANCH  67  68
ATOM     68  S   UNL A   1      39.290  37.752  40.214  1.00  0.00     0.124 S 
ATOM     69  O   UNL A   1      40.469  38.597  40.384  1.00  0.00    -0.237 OA
ATOM     70  O   UNL A   1      38.158  38.378  39.537  1.00  0.00    -0.237 OA
ATOM     71  O   UNL A   1      38.940  36.931  41.371  1.00  0.00    -0.744 OA
ENDBRANCH  67  68
ENDBRANCH  41  62
ENDBRANCH  15  16
ENDBRANCH   8  10
ENDBRANCH   7   8
ENDBRANCH   6   7
ENDBRANCH   5   6
ENDBRANCH   4   5
ENDBRANCH   3   4
ENDBRANCH   2   3
ENDBRANCH   1   2
BRANCH   1  72
ATOM     72  C   UNL A   1      43.290  18.824  25.646  1.00  0.00     0.188 C 
BRANCH  72  73
ATOM     73  C   UNL A   1      44.578  19.263  24.940  1.00  0.00     0.188 C 
BRANCH  73  74
ATOM     74  O   UNL A   1      44.395  20.400  24.113  1.00  0.00    -0.376 OA
BRANCH  74  75
ATOM     75  C   UNL A   1      45.254  21.498  24.365  1.00  0.00     0.202 C 
BRANCH  75  76
ATOM     76  C   UNL A   1      44.672  22.935  24.346  1.00  0.00     0.261 C 
BRANCH  76  77
ATOM     77  O   UNL A   1      44.153  23.544  25.546  1.00  0.00    -0.462 OA
BRANCH  77  78
ATOM     78  C   UNL A   1      43.520  24.726  25.396  1.00  0.00     0.328 C 
ATOM     79  O   UNL A   1      42.403  24.800  24.879  1.00  0.00    -0.250 OA
BRANCH  78  80
ATOM     80  C   UNL A   1      44.240  25.965  25.985  1.00  0.00     0.195 C 
ATOM     81  C   UNL A   1      45.655  26.155  25.409  1.00  0.00     0.046 C 
ATOM     82  N   UNL A   1      43.737  27.345  26.020  1.00  0.00    -0.328 N 
ATOM     83  C   UNL A   1      46.183  27.495  25.933  1.00  0.00     0.001 C 
ATOM     84  C   UNL A   1      44.882  28.238  26.284  1.00  0.00     0.128 C 
ATOM     85  C   UNL A   1      46.988  28.214  24.832  1.00  0.00     0.071 C 
ATOM     86  C   UNL A   1      47.117  27.318  27.174  1.00  0.00     0.071 C 
ATOM     87  C   UNL A   1      48.282  27.463  24.515  1.00  0.00     0.271 C 
ATOM     88  C   UNL A   1      48.512  26.741  26.852  1.00  0.00     0.271 C 
ATOM     89  N   UNL A   1      49.124  27.411  25.707  1.00  0.00    -0.267 N 
ATOM     90  H   UNL A   1      49.742  27.871  25.094  1.00  0.00     0.357 HD
BRANCH  82  91
ATOM     91  C   UNL A   1      42.509  27.839  26.480  1.00  0.00     0.226 C 
ATOM     92  O   UNL A   1      42.409  29.039  26.749  1.00  0.00    -0.275 OA
BRANCH  91  93
ATOM     93  C   UNL A   1      41.222  27.088  26.571  1.00  0.00     0.079 C 
ATOM     94  C   UNL A   1      40.599  26.243  27.631  1.00  0.00     0.014 C 
ATOM     95  C   UNL A   1      40.080  27.639  27.383  1.00  0.00     0.014 C 
ENDBRANCH  91  93
ENDBRANCH  82  91
BRANCH  89  96
ATOM     96  C   UNL A   1      50.474  27.770  25.751  1.00  0.00     0.344 C 
ATOM     97  O   UNL A   1      50.877  28.875  26.103  1.00  0.00    -0.226 OA
BRANCH  96  98
ATOM     98  C   UNL A   1      51.488  26.771  25.332  1.00  0.00     0.083 A 
ATOM     99  C   UNL A   1      51.898  25.768  26.222  1.00  0.00     0.018 A 
ATOM    100  C   UNL A   1      52.028  26.831  24.046  1.00  0.00     0.064 A 
ATOM    101  C   UNL A   1      52.911  24.882  25.856  1.00  0.00     0.005 A 
ATOM    102  C   UNL A   1      53.028  25.931  23.687  1.00  0.00     0.116 A 
ATOM    103  C   UNL A   1      53.486  24.969  24.587  1.00  0.00     0.046 A 
BRANCH 102 104
ATOM    104  O   UNL A   1      53.554  26.027  22.432  1.00  0.00    -0.508 OA
ATOM    105  H   UNL A   1      53.140  26.572  21.792  1.00  0.00     0.293 HD
ENDBRANCH 102 104
ENDBRANCH  96  98
ENDBRANCH  89  96
ENDBRANCH  78  80
ENDBRANCH  77  78
ENDBRANCH  76  77
ENDBRANCH  75  76
ENDBRANCH  74  75
ENDBRANCH  73  74
ENDBRANCH  72  73
ENDBRANCH   1  72
TORSDOF 28
ENDMDL
