MODEL 1
REMARK VINA RESULT:      -7.7      0.000      0.000
REMARK SMILES CC[N@@H+](CCC(=O)OCCOCCOCCOCCOC(=O)c1ccc(-c2c3nc(c(-c4ccc(S(=O)(=O)[O-])cc4)c4ccc([nH]4)c(-c4ccc(S(=O)(=O)[O-])cc4)c4nc(c(-c5ccc(S(=O)(=O)[O-])cc5)c5ccc2[nH]5)C=C4)C=C3)cc1)[C@@H]1CSCC(C)(C)C1
REMARK SMILES IDX 14 1 13 2 12 3 11 4 10 5 9 6 8 7 6 8 7 9 5 10 4 11 3 12 2 14
REMARK SMILES IDX 1 15 83 16 84 17 90 18 85 19 87 20 86 21 88 22 89 23 15 24
REMARK SMILES IDX 16 25 17 26 18 27 19 28 20 29 21 30 22 31 23 32 24 33 82 34
REMARK SMILES IDX 25 35 81 36 26 37 27 38 28 39 75 40 29 41 80 42 74 43 76 44
REMARK SMILES IDX 30 45 79 46 73 47 72 48 31 50 61 51 42 52 60 53 43 54 46 55
REMARK SMILES IDX 59 56 77 57 44 58 45 59 58 61 78 62 47 63 32 64 33 65 41 66
REMARK SMILES IDX 34 67 40 68 35 69 36 70 37 71 38 72 39 73 62 74 63 75 71 76
REMARK SMILES IDX 64 77 70 78 65 79 66 80 67 81 68 82 69 83 48 84 49 85 57 86
REMARK SMILES IDX 50 87 56 88 51 89 52 90 53 91 54 92 55 93
REMARK H PARENT 3 13 76 49 46 60
REMARK Flexibility Score: inf
ROOT
ATOM      1  O   UNL A   1      36.036  22.212  26.193  1.00  0.00    -0.377 OA
ENDROOT
BRANCH   1   2
ATOM      2  C   UNL A   1      34.646  21.956  26.023  1.00  0.00     0.188 C 
BRANCH   2   3
ATOM      3  C   UNL A   1      34.415  20.616  25.313  1.00  0.00     0.188 C 
BRANCH   3   4
ATOM      4  O   UNL A   1      33.280  19.893  25.785  1.00  0.00    -0.376 OA
BRANCH   4   5
ATOM      5  C   UNL A   1      32.469  19.294  24.762  1.00  0.00     0.202 C 
BRANCH   5   6
ATOM      6  C   UNL A   1      32.709  19.872  23.358  1.00  0.00     0.261 C 
BRANCH   6   7
ATOM      7  O   UNL A   1      31.806  20.955  23.006  1.00  0.00    -0.463 OA
BRANCH   7   8
ATOM      8  C   UNL A   1      32.331  22.206  22.939  1.00  0.00     0.311 C 
ATOM      9  O   UNL A   1      33.369  22.484  22.347  1.00  0.00    -0.252 OA
BRANCH   8  10
ATOM     10  C   UNL A   1      31.588  23.230  23.784  1.00  0.00     0.184 C 
BRANCH  10  11
ATOM     11  C   UNL A   1      31.778  24.761  23.674  1.00  0.00     0.274 C 
BRANCH  11  12
ATOM     12  N   UNL A   1      30.804  25.680  23.041  1.00  0.00    -0.332 N 
ATOM     13  H   UNL A   1      30.040  25.117  22.668  1.00  0.00     0.348 HD
BRANCH  12  14
ATOM     14  C   UNL A   1      31.464  26.372  21.908  1.00  0.00     0.259 C 
ATOM     15  C   UNL A   1      32.615  25.677  21.192  1.00  0.00     0.071 C 
ENDBRANCH  12  14
BRANCH  12  16
ATOM     16  C   UNL A   1      30.038  26.555  23.965  1.00  0.00     0.194 C 
ATOM     17  C   UNL A   1      29.332  27.774  23.344  1.00  0.00     0.134 C 
ATOM     18  C   UNL A   1      30.822  27.048  25.228  1.00  0.00     0.073 C 
ATOM     19  S   UNL A   1      30.369  29.161  22.833  1.00  0.00    -0.155 SA
ATOM     20  C   UNL A   1      31.648  28.378  25.177  1.00  0.00    -0.021 C 
ATOM     21  C   UNL A   1      30.929  29.545  24.485  1.00  0.00     0.076 C 
ATOM     22  C   UNL A   1      33.026  28.146  24.541  1.00  0.00     0.012 C 
ATOM     23  C   UNL A   1      31.863  28.860  26.628  1.00  0.00     0.012 C 
ENDBRANCH  12  16
ENDBRANCH  11  12
ENDBRANCH  10  11
ENDBRANCH   8  10
ENDBRANCH   7   8
ENDBRANCH   6   7
ENDBRANCH   5   6
ENDBRANCH   4   5
ENDBRANCH   3   4
ENDBRANCH   2   3
ENDBRANCH   1   2
BRANCH   1  24
ATOM     24  C   UNL A   1      36.578  23.071  25.195  1.00  0.00     0.188 C 
BRANCH  24  25
ATOM     25  C   UNL A   1      37.467  24.116  25.849  1.00  0.00     0.188 C 
BRANCH  25  26
ATOM     26  O   UNL A   1      38.463  23.599  26.728  1.00  0.00    -0.376 OA
BRANCH  26  27
ATOM     27  C   UNL A   1      39.783  24.098  26.485  1.00  0.00     0.202 C 
BRANCH  27  28
ATOM     28  C   UNL A   1      40.108  25.509  27.026  1.00  0.00     0.261 C 
BRANCH  28  29
ATOM     29  O   UNL A   1      41.079  26.227  26.230  1.00  0.00    -0.460 OA
BRANCH  29  30
ATOM     30  C   UNL A   1      42.127  26.743  26.922  1.00  0.00     0.338 C 
ATOM     31  O   UNL A   1      43.303  26.726  26.579  1.00  0.00    -0.246 OA
BRANCH  30  32
ATOM     32  C   UNL A   1      41.655  27.560  28.062  1.00  0.00     0.060 A 
ATOM     33  C   UNL A   1      42.031  28.909  28.093  1.00  0.00     0.016 A 
ATOM     34  C   UNL A   1      40.936  27.016  29.127  1.00  0.00     0.016 A 
ATOM     35  C   UNL A   1      41.737  29.703  29.199  1.00  0.00     0.010 A 
ATOM     36  C   UNL A   1      40.640  27.815  30.243  1.00  0.00     0.010 A 
ATOM     37  C   UNL A   1      41.090  29.147  30.309  1.00  0.00    -0.014 A 
BRANCH  37  38
ATOM     38  C   UNL A   1      41.137  29.899  31.592  1.00  0.00     0.031 A 
ATOM     39  C   UNL A   1      40.007  30.852  31.903  1.00  0.00     0.074 A 
ATOM     40  C   UNL A   1      42.079  29.655  32.522  1.00  0.00     0.049 A 
ATOM     41  N   UNL A   1      39.772  31.532  32.996  1.00  0.00    -0.248 NA
ATOM     42  C   UNL A   1      39.003  31.057  30.844  1.00  0.00     0.031 C 
ATOM     43  C   UNL A   1      43.201  28.728  32.373  1.00  0.00     0.029 A 
ATOM     44  N   UNL A   1      42.229  30.160  33.792  1.00  0.00    -0.354 N 
ATOM     45  C   UNL A   1      38.594  32.233  32.760  1.00  0.00     0.074 A 
ATOM     46  C   UNL A   1      38.191  31.940  31.404  1.00  0.00     0.031 C 
ATOM     47  C   UNL A   1      43.921  28.729  33.510  1.00  0.00     0.029 A 
ATOM     48  C   UNL A   1      43.325  29.667  34.460  1.00  0.00     0.049 A 
ATOM     49  H   UNL A   1      41.608  30.815  34.186  1.00  0.00     0.167 HD
ATOM     50  C   UNL A   1      37.892  33.030  33.599  1.00  0.00     0.031 A 
ATOM     51  C   UNL A   1      43.798  29.944  35.693  1.00  0.00     0.031 A 
ATOM     52  C   UNL A   1      38.290  33.339  34.947  1.00  0.00     0.049 A 
ATOM     53  C   UNL A   1      43.040  30.900  36.583  1.00  0.00     0.074 A 
ATOM     54  C   UNL A   1      37.644  34.142  35.871  1.00  0.00     0.029 A 
ATOM     55  N   UNL A   1      39.436  32.863  35.563  1.00  0.00    -0.354 N 
ATOM     56  N   UNL A   1      41.912  31.530  36.349  1.00  0.00    -0.248 NA
ATOM     57  C   UNL A   1      43.612  31.167  37.910  1.00  0.00     0.031 C 
ATOM     58  C   UNL A   1      38.431  34.201  37.024  1.00  0.00     0.029 A 
ATOM     59  C   UNL A   1      39.531  33.378  36.846  1.00  0.00     0.049 A 
ATOM     60  H   UNL A   1      40.087  32.251  35.150  1.00  0.00     0.167 HD
ATOM     61  C   UNL A   1      41.629  32.245  37.511  1.00  0.00     0.074 A 
ATOM     62  C   UNL A   1      42.685  31.944  38.453  1.00  0.00     0.031 C 
ATOM     63  C   UNL A   1      40.592  33.080  37.773  1.00  0.00     0.031 A 
BRANCH  50  64
ATOM     64  C   UNL A   1      36.618  33.640  33.076  1.00  0.00    -0.014 A 
ATOM     65  C   UNL A   1      36.392  35.027  33.151  1.00  0.00     0.010 A 
ATOM     66  C   UNL A   1      35.657  32.824  32.451  1.00  0.00     0.010 A 
ATOM     67  C   UNL A   1      35.221  35.583  32.630  1.00  0.00     0.020 A 
ATOM     68  C   UNL A   1      34.498  33.379  31.903  1.00  0.00     0.020 A 
ATOM     69  C   UNL A   1      34.283  34.755  32.005  1.00  0.00     0.054 A 
BRANCH  69  70
ATOM     70  S   UNL A   1      32.797  35.512  31.293  1.00  0.00     0.124 S 
ATOM     71  O   UNL A   1      31.788  35.206  32.305  1.00  0.00    -0.237 OA
ATOM     72  O   UNL A   1      33.176  36.919  31.189  1.00  0.00    -0.237 OA
ATOM     73  O   UNL A   1      32.629  34.818  30.019  1.00  0.00    -0.744 OA
ENDBRANCH  69  70
ENDBRANCH  50  64
BRANCH  51  74
ATOM     74  C   UNL A   1      45.077  29.336  36.163  1.00  0.00    -0.014 A 
ATOM     75  C   UNL A   1      45.087  28.198  36.990  1.00  0.00     0.010 A 
ATOM     76  C   UNL A   1      46.303  29.935  35.817  1.00  0.00     0.010 A 
ATOM     77  C   UNL A   1      46.294  27.693  37.488  1.00  0.00     0.020 A 
ATOM     78  C   UNL A   1      47.513  29.412  36.283  1.00  0.00     0.020 A 
ATOM     79  C   UNL A   1      47.500  28.303  37.130  1.00  0.00     0.054 A 
BRANCH  79  80
ATOM     80  S   UNL A   1      49.055  27.616  37.761  1.00  0.00     0.124 S 
ATOM     81  O   UNL A   1      49.550  28.701  38.601  1.00  0.00    -0.237 OA
ATOM     82  O   UNL A   1      48.604  26.420  38.469  1.00  0.00    -0.237 OA
ATOM     83  O   UNL A   1      49.830  27.357  36.549  1.00  0.00    -0.744 OA
ENDBRANCH  79  80
ENDBRANCH  51  74
BRANCH  63  84
ATOM     84  C   UNL A   1      40.534  33.708  39.146  1.00  0.00    -0.014 A 
ATOM     85  C   UNL A   1      40.921  35.043  39.358  1.00  0.00     0.010 A 
ATOM     86  C   UNL A   1      40.065  32.953  40.237  1.00  0.00     0.010 A 
ATOM     87  C   UNL A   1      40.900  35.592  40.643  1.00  0.00     0.020 A 
ATOM     88  C   UNL A   1      40.006  33.509  41.518  1.00  0.00     0.020 A 
ATOM     89  C   UNL A   1      40.448  34.818  41.717  1.00  0.00     0.054 A 
BRANCH  89  90
ATOM     90  S   UNL A   1      40.431  35.553  43.375  1.00  0.00     0.124 S 
ATOM     91  O   UNL A   1      40.022  34.423  44.203  1.00  0.00    -0.237 OA
ATOM     92  O   UNL A   1      41.815  35.990  43.546  1.00  0.00    -0.237 OA
ATOM     93  O   UNL A   1      39.451  36.633  43.267  1.00  0.00    -0.744 OA
ENDBRANCH  89  90
ENDBRANCH  63  84
ENDBRANCH  37  38
ENDBRANCH  30  32
ENDBRANCH  29  30
ENDBRANCH  28  29
ENDBRANCH  27  28
ENDBRANCH  26  27
ENDBRANCH  25  26
ENDBRANCH  24  25
ENDBRANCH   1  24
TORSDOF 27
ENDMDL
MODEL 2
REMARK VINA RESULT:      -7.7      5.410      9.802
REMARK SMILES CC[N@@H+](CCC(=O)OCCOCCOCCOCCOC(=O)c1ccc(-c2c3nc(c(-c4ccc(S(=O)(=O)[O-])cc4)c4ccc([nH]4)c(-c4ccc(S(=O)(=O)[O-])cc4)c4nc(c(-c5ccc(S(=O)(=O)[O-])cc5)c5ccc2[nH]5)C=C4)C=C3)cc1)[C@@H]1CSCC(C)(C)C1
REMARK SMILES IDX 14 1 13 2 12 3 11 4 10 5 9 6 8 7 6 8 7 9 5 10 4 11 3 12 2 14
REMARK SMILES IDX 1 15 83 16 84 17 90 18 85 19 87 20 86 21 88 22 89 23 15 24
REMARK SMILES IDX 16 25 17 26 18 27 19 28 20 29 21 30 22 31 23 32 24 33 82 34
REMARK SMILES IDX 25 35 81 36 26 37 27 38 28 39 75 40 29 41 80 42 74 43 76 44
REMARK SMILES IDX 30 45 79 46 73 47 72 48 31 50 61 51 42 52 60 53 43 54 46 55
REMARK SMILES IDX 59 56 77 57 44 58 45 59 58 61 78 62 47 63 32 64 33 65 41 66
REMARK SMILES IDX 34 67 40 68 35 69 36 70 37 71 38 72 39 73 62 74 63 75 71 76
REMARK SMILES IDX 64 77 70 78 65 79 66 80 67 81 68 82 69 83 48 84 49 85 57 86
REMARK SMILES IDX 50 87 56 88 51 89 52 90 53 91 54 92 55 93
REMARK H PARENT 3 13 76 49 46 60
REMARK Flexibility Score: inf
ROOT
ATOM      1  O   UNL A   1      36.310  21.884  26.152  1.00  0.00    -0.377 OA
ENDROOT
BRANCH   1   2
ATOM      2  C   UNL A   1      34.954  21.965  25.728  1.00  0.00     0.188 C 
BRANCH   2   3
ATOM      3  C   UNL A   1      34.462  20.615  25.191  1.00  0.00     0.188 C 
BRANCH   3   4
ATOM      4  O   UNL A   1      33.152  20.255  25.626  1.00  0.00    -0.376 OA
BRANCH   4   5
ATOM      5  C   UNL A   1      32.310  19.681  24.615  1.00  0.00     0.202 C 
BRANCH   5   6
ATOM      6  C   UNL A   1      32.693  20.083  23.182  1.00  0.00     0.261 C 
BRANCH   6   7
ATOM      7  O   UNL A   1      31.876  21.152  22.633  1.00  0.00    -0.463 OA
BRANCH   7   8
ATOM      8  C   UNL A   1      32.318  22.424  22.805  1.00  0.00     0.311 C 
ATOM      9  O   UNL A   1      33.435  22.813  22.477  1.00  0.00    -0.252 OA
BRANCH   8  10
ATOM     10  C   UNL A   1      31.350  23.314  23.572  1.00  0.00     0.184 C 
BRANCH  10  11
ATOM     11  C   UNL A   1      31.644  24.774  23.988  1.00  0.00     0.274 C 
BRANCH  11  12
ATOM     12  N   UNL A   1      32.224  25.170  25.293  1.00  0.00    -0.332 N 
ATOM     13  H   UNL A   1      32.621  24.336  25.724  1.00  0.00     0.348 HD
BRANCH  12  14
ATOM     14  C   UNL A   1      31.138  25.672  26.168  1.00  0.00     0.259 C 
ATOM     15  C   UNL A   1      29.719  25.731  25.618  1.00  0.00     0.071 C 
ENDBRANCH  12  14
BRANCH  12  16
ATOM     16  C   UNL A   1      33.441  26.021  25.233  1.00  0.00     0.194 C 
ATOM     17  C   UNL A   1      33.531  27.178  26.245  1.00  0.00     0.134 C 
ATOM     18  C   UNL A   1      33.790  26.593  23.818  1.00  0.00     0.073 C 
ATOM     19  S   UNL A   1      32.471  28.611  25.960  1.00  0.00    -0.155 SA
ATOM     20  C   UNL A   1      33.203  27.970  23.354  1.00  0.00    -0.021 C 
ATOM     21  C   UNL A   1      33.251  29.071  24.421  1.00  0.00     0.076 C 
ATOM     22  C   UNL A   1      31.774  27.805  22.818  1.00  0.00     0.012 C 
ATOM     23  C   UNL A   1      34.089  28.502  22.206  1.00  0.00     0.012 C 
ENDBRANCH  12  16
ENDBRANCH  11  12
ENDBRANCH  10  11
ENDBRANCH   8  10
ENDBRANCH   7   8
ENDBRANCH   6   7
ENDBRANCH   5   6
ENDBRANCH   4   5
ENDBRANCH   3   4
ENDBRANCH   2   3
ENDBRANCH   1   2
BRANCH   1  24
ATOM     24  C   UNL A   1      37.221  22.513  25.256  1.00  0.00     0.188 C 
BRANCH  24  25
ATOM     25  C   UNL A   1      38.574  22.673  25.930  1.00  0.00     0.188 C 
BRANCH  25  26
ATOM     26  O   UNL A   1      39.111  21.480  26.499  1.00  0.00    -0.376 OA
BRANCH  26  27
ATOM     27  C   UNL A   1      40.504  21.277  26.241  1.00  0.00     0.202 C 
BRANCH  27  28
ATOM     28  C   UNL A   1      41.472  22.385  26.713  1.00  0.00     0.261 C 
BRANCH  28  29
ATOM     29  O   UNL A   1      42.624  22.557  25.855  1.00  0.00    -0.460 OA
BRANCH  29  30
ATOM     30  C   UNL A   1      43.724  23.073  26.459  1.00  0.00     0.338 C 
ATOM     31  O   UNL A   1      44.876  22.674  26.336  1.00  0.00    -0.246 OA
BRANCH  30  32
ATOM     32  C   UNL A   1      43.407  24.358  27.122  1.00  0.00     0.060 A 
ATOM     33  C   UNL A   1      43.283  25.494  26.310  1.00  0.00     0.016 A 
ATOM     34  C   UNL A   1      43.316  24.484  28.509  1.00  0.00     0.016 A 
ATOM     35  C   UNL A   1      43.119  26.756  26.876  1.00  0.00     0.010 A 
ATOM     36  C   UNL A   1      43.151  25.756  29.080  1.00  0.00     0.010 A 
ATOM     37  C   UNL A   1      43.110  26.905  28.267  1.00  0.00    -0.014 A 
BRANCH  37  38
ATOM     38  C   UNL A   1      43.318  28.269  28.823  1.00  0.00     0.031 A 
ATOM     39  C   UNL A   1      44.728  28.807  28.886  1.00  0.00     0.074 A 
ATOM     40  C   UNL A   1      42.284  29.069  29.143  1.00  0.00     0.049 A 
ATOM     41  N   UNL A   1      45.147  30.000  29.227  1.00  0.00    -0.248 NA
ATOM     42  C   UNL A   1      45.808  27.880  28.506  1.00  0.00     0.031 C 
ATOM     43  C   UNL A   1      40.871  28.696  29.086  1.00  0.00     0.029 A 
ATOM     44  N   UNL A   1      42.267  30.378  29.565  1.00  0.00    -0.354 N 
ATOM     45  C   UNL A   1      46.530  29.968  29.091  1.00  0.00     0.074 A 
ATOM     46  C   UNL A   1      46.887  28.626  28.690  1.00  0.00     0.031 C 
ATOM     47  C   UNL A   1      40.125  29.754  29.456  1.00  0.00     0.029 A 
ATOM     48  C   UNL A   1      41.004  30.872  29.793  1.00  0.00     0.049 A 
ATOM     49  H   UNL A   1      43.084  30.912  29.692  1.00  0.00     0.167 HD
ATOM     50  C   UNL A   1      47.429  30.967  29.258  1.00  0.00     0.031 A 
ATOM     51  C   UNL A   1      40.602  32.084  30.229  1.00  0.00     0.031 A 
ATOM     52  C   UNL A   1      47.087  32.303  29.668  1.00  0.00     0.049 A 
ATOM     53  C   UNL A   1      41.630  33.160  30.487  1.00  0.00     0.074 A 
ATOM     54  C   UNL A   1      47.931  33.382  29.869  1.00  0.00     0.029 A 
ATOM     55  N   UNL A   1      45.803  32.744  29.943  1.00  0.00    -0.354 N 
ATOM     56  N   UNL A   1      42.932  33.116  30.324  1.00  0.00    -0.248 NA
ATOM     57  C   UNL A   1      41.130  34.455  30.969  1.00  0.00     0.031 C 
ATOM     58  C   UNL A   1      47.164  34.458  30.325  1.00  0.00     0.029 A 
ATOM     59  C   UNL A   1      45.834  34.071  30.339  1.00  0.00     0.049 A 
ATOM     60  H   UNL A   1      44.989  32.194  29.870  1.00  0.00     0.167 HD
ATOM     61  C   UNL A   1      43.399  34.385  30.660  1.00  0.00     0.074 A 
ATOM     62  C   UNL A   1      42.239  35.179  31.002  1.00  0.00     0.031 C 
ATOM     63  C   UNL A   1      44.674  34.850  30.688  1.00  0.00     0.031 A 
BRANCH  50  64
ATOM     64  C   UNL A   1      48.880  30.648  29.008  1.00  0.00    -0.014 A 
ATOM     65  C   UNL A   1      49.407  30.643  27.704  1.00  0.00     0.010 A 
ATOM     66  C   UNL A   1      49.739  30.407  30.095  1.00  0.00     0.010 A 
ATOM     67  C   UNL A   1      50.763  30.379  27.490  1.00  0.00     0.020 A 
ATOM     68  C   UNL A   1      51.101  30.173  29.888  1.00  0.00     0.020 A 
ATOM     69  C   UNL A   1      51.602  30.150  28.585  1.00  0.00     0.054 A 
BRANCH  69  70
ATOM     70  S   UNL A   1      53.366  29.862  28.279  1.00  0.00     0.124 S 
ATOM     71  O   UNL A   1      53.942  30.083  29.604  1.00  0.00    -0.237 OA
ATOM     72  O   UNL A   1      53.386  28.480  27.808  1.00  0.00    -0.237 OA
ATOM     73  O   UNL A   1      53.714  30.865  27.276  1.00  0.00    -0.744 OA
ENDBRANCH  69  70
ENDBRANCH  50  64
BRANCH  51  74
ATOM     74  C   UNL A   1      39.157  32.351  30.487  1.00  0.00    -0.014 A 
ATOM     75  C   UNL A   1      38.249  32.551  29.432  1.00  0.00     0.010 A 
ATOM     76  C   UNL A   1      38.691  32.454  31.812  1.00  0.00     0.010 A 
ATOM     77  C   UNL A   1      36.915  32.882  29.695  1.00  0.00     0.020 A 
ATOM     78  C   UNL A   1      37.352  32.748  32.079  1.00  0.00     0.020 A 
ATOM     79  C   UNL A   1      36.475  32.978  31.019  1.00  0.00     0.054 A 
BRANCH  79  80
ATOM     80  S   UNL A   1      34.735  33.378  31.340  1.00  0.00     0.124 S 
ATOM     81  O   UNL A   1      34.839  34.656  32.036  1.00  0.00    -0.237 OA
ATOM     82  O   UNL A   1      34.172  33.433  29.993  1.00  0.00    -0.237 OA
ATOM     83  O   UNL A   1      34.272  32.256  32.155  1.00  0.00    -0.744 OA
ENDBRANCH  79  80
ENDBRANCH  51  74
BRANCH  63  84
ATOM     84  C   UNL A   1      44.878  36.295  31.077  1.00  0.00    -0.014 A 
ATOM     85  C   UNL A   1      45.080  36.672  32.417  1.00  0.00     0.010 A 
ATOM     86  C   UNL A   1      44.888  37.290  30.081  1.00  0.00     0.010 A 
ATOM     87  C   UNL A   1      45.225  38.019  32.760  1.00  0.00     0.020 A 
ATOM     88  C   UNL A   1      45.071  38.635  30.415  1.00  0.00     0.020 A 
ATOM     89  C   UNL A   1      45.214  38.993  31.757  1.00  0.00     0.054 A 
BRANCH  89  90
ATOM     90  S   UNL A   1      45.403  40.734  32.229  1.00  0.00     0.124 S 
ATOM     91  O   UNL A   1      45.040  40.706  33.643  1.00  0.00    -0.237 OA
ATOM     92  O   UNL A   1      46.813  40.991  31.947  1.00  0.00    -0.237 OA
ATOM     93  O   UNL A   1      44.461  41.434  31.359  1.00  0.00    -0.744 OA
ENDBRANCH  89  90
ENDBRANCH  63  84
ENDBRANCH  37  38
ENDBRANCH  30  32
ENDBRANCH  29  30
ENDBRANCH  28  29
ENDBRANCH  27  28
ENDBRANCH  26  27
ENDBRANCH  25  26
ENDBRANCH  24  25
ENDBRANCH   1  24
TORSDOF 27
ENDMDL
MODEL 3
REMARK VINA RESULT:      -7.6      1.544      2.302
REMARK SMILES CC[N@@H+](CCC(=O)OCCOCCOCCOCCOC(=O)c1ccc(-c2c3nc(c(-c4ccc(S(=O)(=O)[O-])cc4)c4ccc([nH]4)c(-c4ccc(S(=O)(=O)[O-])cc4)c4nc(c(-c5ccc(S(=O)(=O)[O-])cc5)c5ccc2[nH]5)C=C4)C=C3)cc1)[C@@H]1CSCC(C)(C)C1
REMARK SMILES IDX 14 1 13 2 12 3 11 4 10 5 9 6 8 7 6 8 7 9 5 10 4 11 3 12 2 14
REMARK SMILES IDX 1 15 83 16 84 17 90 18 85 19 87 20 86 21 88 22 89 23 15 24
REMARK SMILES IDX 16 25 17 26 18 27 19 28 20 29 21 30 22 31 23 32 24 33 82 34
REMARK SMILES IDX 25 35 81 36 26 37 27 38 28 39 75 40 29 41 80 42 74 43 76 44
REMARK SMILES IDX 30 45 79 46 73 47 72 48 31 50 61 51 42 52 60 53 43 54 46 55
REMARK SMILES IDX 59 56 77 57 44 58 45 59 58 61 78 62 47 63 32 64 33 65 41 66
REMARK SMILES IDX 34 67 40 68 35 69 36 70 37 71 38 72 39 73 62 74 63 75 71 76
REMARK SMILES IDX 64 77 70 78 65 79 66 80 67 81 68 82 69 83 48 84 49 85 57 86
REMARK SMILES IDX 50 87 56 88 51 89 52 90 53 91 54 92 55 93
REMARK H PARENT 3 13 76 49 46 60
REMARK Flexibility Score: inf
ROOT
ATOM      1  O   UNL A   1      36.082  21.920  26.057  1.00  0.00    -0.377 OA
ENDROOT
BRANCH   1   2
ATOM      2  C   UNL A   1      34.701  21.748  25.759  1.00  0.00     0.188 C 
BRANCH   2   3
ATOM      3  C   UNL A   1      34.449  20.399  25.073  1.00  0.00     0.188 C 
BRANCH   3   4
ATOM      4  O   UNL A   1      33.277  19.724  25.526  1.00  0.00    -0.376 OA
BRANCH   4   5
ATOM      5  C   UNL A   1      32.523  19.056  24.502  1.00  0.00     0.202 C 
BRANCH   5   6
ATOM      6  C   UNL A   1      32.757  19.617  23.090  1.00  0.00     0.261 C 
BRANCH   6   7
ATOM      7  O   UNL A   1      31.778  20.611  22.683  1.00  0.00    -0.463 OA
BRANCH   7   8
ATOM      8  C   UNL A   1      32.151  21.915  22.750  1.00  0.00     0.311 C 
ATOM      9  O   UNL A   1      33.082  22.397  22.112  1.00  0.00    -0.252 OA
BRANCH   8  10
ATOM     10  C   UNL A   1      31.395  22.718  23.800  1.00  0.00     0.184 C 
BRANCH  10  11
ATOM     11  C   UNL A   1      31.362  24.262  23.866  1.00  0.00     0.274 C 
BRANCH  11  12
ATOM     12  N   UNL A   1      32.560  25.128  23.759  1.00  0.00    -0.332 N 
ATOM     13  H   UNL A   1      33.357  24.533  23.540  1.00  0.00     0.348 HD
BRANCH  12  14
ATOM     14  C   UNL A   1      32.807  25.769  25.074  1.00  0.00     0.259 C 
ATOM     15  C   UNL A   1      31.933  25.377  26.258  1.00  0.00     0.071 C 
ENDBRANCH  12  14
BRANCH  12  16
ATOM     16  C   UNL A   1      32.601  26.040  22.587  1.00  0.00     0.194 C 
ATOM     17  C   UNL A   1      33.810  26.989  22.486  1.00  0.00     0.134 C 
ATOM     18  C   UNL A   1      31.306  26.886  22.347  1.00  0.00     0.073 C 
ATOM     19  S   UNL A   1      33.858  28.391  23.623  1.00  0.00    -0.155 SA
ATOM     20  C   UNL A   1      31.143  28.291  23.020  1.00  0.00    -0.021 C 
ATOM     21  C   UNL A   1      32.397  29.174  22.956  1.00  0.00     0.076 C 
ATOM     22  C   UNL A   1      30.659  28.154  24.471  1.00  0.00     0.012 C 
ATOM     23  C   UNL A   1      30.074  29.077  22.229  1.00  0.00     0.012 C 
ENDBRANCH  12  16
ENDBRANCH  11  12
ENDBRANCH  10  11
ENDBRANCH   8  10
ENDBRANCH   7   8
ENDBRANCH   6   7
ENDBRANCH   5   6
ENDBRANCH   4   5
ENDBRANCH   3   4
ENDBRANCH   2   3
ENDBRANCH   1   2
BRANCH   1  24
ATOM     24  C   UNL A   1      36.788  22.651  25.060  1.00  0.00     0.188 C 
BRANCH  24  25
ATOM     25  C   UNL A   1      38.005  23.319  25.680  1.00  0.00     0.188 C 
BRANCH  25  26
ATOM     26  O   UNL A   1      38.823  22.465  26.476  1.00  0.00    -0.376 OA
BRANCH  26  27
ATOM     27  C   UNL A   1      40.228  22.598  26.235  1.00  0.00     0.202 C 
BRANCH  27  28
ATOM     28  C   UNL A   1      40.894  23.915  26.694  1.00  0.00     0.261 C 
BRANCH  28  29
ATOM     29  O   UNL A   1      42.139  24.205  26.014  1.00  0.00    -0.460 OA
BRANCH  29  30
ATOM     30  C   UNL A   1      43.100  24.774  26.785  1.00  0.00     0.338 C 
ATOM     31  O   UNL A   1      44.310  24.624  26.667  1.00  0.00    -0.246 OA
BRANCH  30  32
ATOM     32  C   UNL A   1      42.522  25.813  27.668  1.00  0.00     0.060 A 
ATOM     33  C   UNL A   1      43.076  27.098  27.606  1.00  0.00     0.016 A 
ATOM     34  C   UNL A   1      41.522  25.533  28.600  1.00  0.00     0.016 A 
ATOM     35  C   UNL A   1      42.673  28.088  28.498  1.00  0.00     0.010 A 
ATOM     36  C   UNL A   1      41.116  26.530  29.501  1.00  0.00     0.010 A 
ATOM     37  C   UNL A   1      41.732  27.796  29.492  1.00  0.00    -0.014 A 
BRANCH  37  38
ATOM     38  C   UNL A   1      41.616  28.736  30.640  1.00  0.00     0.031 A 
ATOM     39  C   UNL A   1      40.518  29.772  30.606  1.00  0.00     0.074 A 
ATOM     40  C   UNL A   1      42.372  28.600  31.746  1.00  0.00     0.049 A 
ATOM     41  N   UNL A   1      40.151  30.622  31.531  1.00  0.00    -0.248 NA
ATOM     42  C   UNL A   1      39.720  29.852  29.370  1.00  0.00     0.031 C 
ATOM     43  C   UNL A   1      43.436  27.615  31.933  1.00  0.00     0.029 A 
ATOM     44  N   UNL A   1      42.341  29.289  32.935  1.00  0.00    -0.354 N 
ATOM     45  C   UNL A   1      39.079  31.327  30.993  1.00  0.00     0.074 A 
ATOM     46  C   UNL A   1      38.888  30.844  29.644  1.00  0.00     0.031 C 
ATOM     47  C   UNL A   1      43.955  27.761  33.166  1.00  0.00     0.029 A 
ATOM     48  C   UNL A   1      43.275  28.860  33.850  1.00  0.00     0.049 A 
ATOM     49  H   UNL A   1      41.710  30.022  33.116  1.00  0.00     0.167 HD
ATOM     50  C   UNL A   1      38.303  32.274  31.571  1.00  0.00     0.031 A 
ATOM     51  C   UNL A   1      43.553  29.305  35.093  1.00  0.00     0.031 A 
ATOM     52  C   UNL A   1      38.491  32.771  32.907  1.00  0.00     0.049 A 
ATOM     53  C   UNL A   1      42.725  30.419  35.687  1.00  0.00     0.074 A 
ATOM     54  C   UNL A   1      37.756  33.734  33.577  1.00  0.00     0.029 A 
ATOM     55  N   UNL A   1      39.483  32.349  33.777  1.00  0.00    -0.354 N 
ATOM     56  N   UNL A   1      41.697  31.052  35.170  1.00  0.00    -0.248 NA
ATOM     57  C   UNL A   1      43.084  30.864  37.041  1.00  0.00     0.031 C 
ATOM     58  C   UNL A   1      38.343  33.939  34.829  1.00  0.00     0.029 A 
ATOM     59  C   UNL A   1      39.398  33.053  34.968  1.00  0.00     0.049 A 
ATOM     60  H   UNL A   1      40.151  31.654  33.578  1.00  0.00     0.167 HD
ATOM     61  C   UNL A   1      41.275  31.950  36.147  1.00  0.00     0.074 A 
ATOM     62  C   UNL A   1      42.136  31.754  37.294  1.00  0.00     0.031 C 
ATOM     63  C   UNL A   1      40.267  32.858  36.100  1.00  0.00     0.031 A 
BRANCH  50  64
ATOM     64  C   UNL A   1      37.178  32.849  30.749  1.00  0.00    -0.014 A 
ATOM     65  C   UNL A   1      35.839  32.722  31.163  1.00  0.00     0.010 A 
ATOM     66  C   UNL A   1      37.467  33.574  29.579  1.00  0.00     0.010 A 
ATOM     67  C   UNL A   1      34.809  33.290  30.408  1.00  0.00     0.020 A 
ATOM     68  C   UNL A   1      36.442  34.169  28.838  1.00  0.00     0.020 A 
ATOM     69  C   UNL A   1      35.119  34.014  29.253  1.00  0.00     0.054 A 
BRANCH  69  70
ATOM     70  S   UNL A   1      33.764  34.783  28.324  1.00  0.00     0.124 S 
ATOM     71  O   UNL A   1      33.422  35.920  29.176  1.00  0.00    -0.237 OA
ATOM     72  O   UNL A   1      34.402  35.120  27.054  1.00  0.00    -0.237 OA
ATOM     73  O   UNL A   1      32.752  33.733  28.251  1.00  0.00    -0.744 OA
ENDBRANCH  69  70
ENDBRANCH  50  64
BRANCH  51  74
ATOM     74  C   UNL A   1      44.692  28.724  35.863  1.00  0.00    -0.014 A 
ATOM     75  C   UNL A   1      46.015  29.146  35.644  1.00  0.00     0.010 A 
ATOM     76  C   UNL A   1      44.453  27.698  36.797  1.00  0.00     0.010 A 
ATOM     77  C   UNL A   1      47.078  28.530  36.316  1.00  0.00     0.020 A 
ATOM     78  C   UNL A   1      45.507  27.105  37.497  1.00  0.00     0.020 A 
ATOM     79  C   UNL A   1      46.816  27.514  37.239  1.00  0.00     0.054 A 
BRANCH  79  80
ATOM     80  S   UNL A   1      48.204  26.749  38.122  1.00  0.00     0.124 S 
ATOM     81  O   UNL A   1      49.313  26.978  37.204  1.00  0.00    -0.237 OA
ATOM     82  O   UNL A   1      48.242  27.513  39.367  1.00  0.00    -0.237 OA
ATOM     83  O   UNL A   1      47.788  25.355  38.269  1.00  0.00    -0.744 OA
ENDBRANCH  79  80
ENDBRANCH  51  74
BRANCH  63  84
ATOM     84  C   UNL A   1      40.025  33.693  37.335  1.00  0.00    -0.014 A 
ATOM     85  C   UNL A   1      40.237  35.083  37.333  1.00  0.00     0.010 A 
ATOM     86  C   UNL A   1      39.556  33.077  38.511  1.00  0.00     0.010 A 
ATOM     87  C   UNL A   1      40.047  35.831  38.498  1.00  0.00     0.020 A 
ATOM     88  C   UNL A   1      39.328  33.827  39.668  1.00  0.00     0.020 A 
ATOM     89  C   UNL A   1      39.599  35.196  39.661  1.00  0.00     0.054 A 
BRANCH  89  90
ATOM     90  S   UNL A   1      39.361  36.189  41.160  1.00  0.00     0.124 S 
ATOM     91  O   UNL A   1      38.589  37.321  40.655  1.00  0.00    -0.237 OA
ATOM     92  O   UNL A   1      38.635  35.274  42.038  1.00  0.00    -0.237 OA
ATOM     93  O   UNL A   1      40.723  36.505  41.587  1.00  0.00    -0.744 OA
ENDBRANCH  89  90
ENDBRANCH  63  84
ENDBRANCH  37  38
ENDBRANCH  30  32
ENDBRANCH  29  30
ENDBRANCH  28  29
ENDBRANCH  27  28
ENDBRANCH  26  27
ENDBRANCH  25  26
ENDBRANCH  24  25
ENDBRANCH   1  24
TORSDOF 27
ENDMDL
