MODEL 1
REMARK VINA RESULT:     -10.0      0.000      0.000
REMARK SMILES O=C(OCCOCCOCCOCCOC(=O)[C@@H]1CN(Cc2ccccc2)c2ccccc2O1)c1ccc(-c2c3nc(c(-c4ccc(S(=O)(=O)[O-])cc4)c4ccc([nH]4)c(-c4ccc(S(=O)(=O)[O-])cc4)c4nc(c(-c5ccc(S(=O)(=O)[O-])cc5)c5ccc2[nH]5)C=C4)C=C3)cc1
REMARK SMILES IDX 8 1 7 2 6 3 5 4 4 5 3 6 2 7 1 8 35 9 36 10 94 11 37 12 93 13
REMARK SMILES IDX 38 14 39 15 40 16 87 17 41 18 92 19 86 20 88 21 42 22 91 23
REMARK SMILES IDX 85 24 84 25 43 27 73 28 54 29 72 30 55 31 58 32 71 33 89 34
REMARK SMILES IDX 56 35 57 36 70 38 90 39 59 40 44 41 45 42 53 43 46 44 52 45
REMARK SMILES IDX 47 46 48 47 49 48 50 49 51 50 74 51 75 52 83 53 76 54 82 55
REMARK SMILES IDX 77 56 78 57 79 58 80 59 81 60 60 61 61 62 69 63 62 64 68 65
REMARK SMILES IDX 63 66 64 67 65 68 66 69 67 70 9 71 10 72 11 73 12 74 13 75
REMARK SMILES IDX 14 76 15 77 16 78 17 79 18 80 19 81 34 82 20 83 33 84 28 85
REMARK SMILES IDX 32 86 29 87 31 88 30 89 21 90 22 91 23 92 27 93 24 94 26 95
REMARK SMILES IDX 25 96
REMARK H PARENT 88 26 58 37
REMARK Flexibility Score: inf
ROOT
ATOM      1  C   UNL A   1      32.796  30.434  26.660  1.00  0.00     0.188 C 
ENDROOT
BRANCH   1   2
ATOM      2  C   UNL A   1      32.915  31.749  27.426  1.00  0.00     0.188 C 
BRANCH   2   3
ATOM      3  O   UNL A   1      34.017  31.750  28.336  1.00  0.00    -0.376 OA
BRANCH   3   4
ATOM      4  C   UNL A   1      35.317  31.609  27.758  1.00  0.00     0.202 C 
BRANCH   4   5
ATOM      5  C   UNL A   1      36.437  31.338  28.763  1.00  0.00     0.261 C 
BRANCH   5   6
ATOM      6  O   UNL A   1      36.224  30.141  29.526  1.00  0.00    -0.460 OA
BRANCH   6   7
ATOM      7  C   UNL A   1      37.152  29.374  30.156  1.00  0.00     0.338 C 
ATOM      8  O   UNL A   1      36.893  28.972  31.291  1.00  0.00    -0.246 OA
BRANCH   7   9
ATOM      9  C   UNL A   1      38.475  28.993  29.566  1.00  0.00     0.060 A 
ATOM     10  C   UNL A   1      39.514  28.367  30.252  1.00  0.00     0.016 A 
ATOM     11  C   UNL A   1      38.667  29.249  28.196  1.00  0.00     0.016 A 
ATOM     12  C   UNL A   1      40.723  28.083  29.654  1.00  0.00     0.010 A 
ATOM     13  C   UNL A   1      39.881  28.948  27.569  1.00  0.00     0.010 A 
ATOM     14  C   UNL A   1      40.924  28.397  28.319  1.00  0.00    -0.014 A 
BRANCH  14  15
ATOM     15  C   UNL A   1      42.318  28.330  27.860  1.00  0.00     0.031 A 
ATOM     16  C   UNL A   1      43.209  29.485  28.207  1.00  0.00     0.074 A 
ATOM     17  C   UNL A   1      42.804  27.160  27.406  1.00  0.00     0.049 A 
ATOM     18  N   UNL A   1      44.481  29.644  27.972  1.00  0.00    -0.248 NA
ATOM     19  C   UNL A   1      42.590  30.601  28.950  1.00  0.00     0.031 C 
ATOM     20  C   UNL A   1      42.018  25.930  27.233  1.00  0.00     0.029 A 
ATOM     21  N   UNL A   1      44.075  26.791  27.070  1.00  0.00    -0.354 N 
ATOM     22  C   UNL A   1      44.807  30.880  28.517  1.00  0.00     0.074 A 
ATOM     23  C   UNL A   1      43.605  31.438  29.086  1.00  0.00     0.031 C 
ATOM     24  C   UNL A   1      42.835  24.939  26.843  1.00  0.00     0.029 A 
ATOM     25  C   UNL A   1      44.177  25.481  26.666  1.00  0.00     0.049 A 
ATOM     26  H   UNL A   1      44.844  27.403  27.113  1.00  0.00     0.167 HD
ATOM     27  C   UNL A   1      46.012  31.488  28.535  1.00  0.00     0.031 A 
ATOM     28  C   UNL A   1      45.235  24.817  26.165  1.00  0.00     0.031 A 
ATOM     29  C   UNL A   1      47.182  30.905  27.941  1.00  0.00     0.049 A 
ATOM     30  C   UNL A   1      46.531  25.575  26.053  1.00  0.00     0.074 A 
ATOM     31  C   UNL A   1      48.437  31.454  27.777  1.00  0.00     0.029 A 
ATOM     32  N   UNL A   1      47.226  29.619  27.415  1.00  0.00    -0.354 N 
ATOM     33  N   UNL A   1      46.808  26.793  26.465  1.00  0.00    -0.248 NA
ATOM     34  C   UNL A   1      47.650  24.883  25.406  1.00  0.00     0.031 C 
ATOM     35  C   UNL A   1      49.229  30.516  27.103  1.00  0.00     0.029 A 
ATOM     36  C   UNL A   1      48.485  29.361  26.909  1.00  0.00     0.049 A 
ATOM     37  H   UNL A   1      46.472  28.987  27.405  1.00  0.00     0.167 HD
ATOM     38  C   UNL A   1      48.139  27.010  26.135  1.00  0.00     0.074 A 
ATOM     39  C   UNL A   1      48.617  25.783  25.524  1.00  0.00     0.031 C 
ATOM     40  C   UNL A   1      48.903  28.119  26.306  1.00  0.00     0.031 A 
BRANCH  27  41
ATOM     41  C   UNL A   1      46.080  32.867  29.132  1.00  0.00    -0.014 A 
ATOM     42  C   UNL A   1      45.792  34.013  28.370  1.00  0.00     0.010 A 
ATOM     43  C   UNL A   1      46.467  33.016  30.475  1.00  0.00     0.010 A 
ATOM     44  C   UNL A   1      45.916  35.286  28.937  1.00  0.00     0.020 A 
ATOM     45  C   UNL A   1      46.568  34.285  31.052  1.00  0.00     0.020 A 
ATOM     46  C   UNL A   1      46.302  35.413  30.275  1.00  0.00     0.054 A 
BRANCH  46  47
ATOM     47  S   UNL A   1      46.427  37.075  30.991  1.00  0.00     0.124 S 
ATOM     48  O   UNL A   1      45.090  37.610  30.747  1.00  0.00    -0.237 OA
ATOM     49  O   UNL A   1      46.744  36.795  32.389  1.00  0.00    -0.237 OA
ATOM     50  O   UNL A   1      47.499  37.704  30.224  1.00  0.00    -0.744 OA
ENDBRANCH  46  47
ENDBRANCH  27  41
BRANCH  28  51
ATOM     51  C   UNL A   1      45.084  23.430  25.637  1.00  0.00    -0.014 A 
ATOM     52  C   UNL A   1      45.367  22.302  26.427  1.00  0.00     0.010 A 
ATOM     53  C   UNL A   1      44.688  23.233  24.299  1.00  0.00     0.010 A 
ATOM     54  C   UNL A   1      45.294  21.016  25.881  1.00  0.00     0.020 A 
ATOM     55  C   UNL A   1      44.579  21.950  23.760  1.00  0.00     0.020 A 
ATOM     56  C   UNL A   1      44.905  20.849  24.548  1.00  0.00     0.054 A 
BRANCH  56  57
ATOM     57  S   UNL A   1      44.822  19.174  23.854  1.00  0.00     0.124 S 
ATOM     58  O   UNL A   1      44.544  19.443  22.446  1.00  0.00    -0.237 OA
ATOM     59  O   UNL A   1      46.151  18.644  24.146  1.00  0.00    -0.237 OA
ATOM     60  O   UNL A   1      43.731  18.548  24.599  1.00  0.00    -0.744 OA
ENDBRANCH  56  57
ENDBRANCH  28  51
BRANCH  40  61
ATOM     61  C   UNL A   1      50.331  28.028  25.852  1.00  0.00    -0.014 A 
ATOM     62  C   UNL A   1      51.355  27.664  26.743  1.00  0.00     0.010 A 
ATOM     63  C   UNL A   1      50.640  28.274  24.503  1.00  0.00     0.010 A 
ATOM     64  C   UNL A   1      52.676  27.592  26.300  1.00  0.00     0.020 A 
ATOM     65  C   UNL A   1      51.954  28.167  24.049  1.00  0.00     0.020 A 
ATOM     66  C   UNL A   1      52.966  27.847  24.956  1.00  0.00     0.054 A 
BRANCH  66  67
ATOM     67  S   UNL A   1      54.685  27.722  24.399  1.00  0.00     0.124 S 
ATOM     68  O   UNL A   1      55.416  27.770  25.663  1.00  0.00    -0.237 OA
ATOM     69  O   UNL A   1      54.705  26.435  23.708  1.00  0.00    -0.237 OA
ATOM     70  O   UNL A   1      54.854  28.888  23.536  1.00  0.00    -0.744 OA
ENDBRANCH  66  67
ENDBRANCH  40  61
ENDBRANCH  14  15
ENDBRANCH   7   9
ENDBRANCH   6   7
ENDBRANCH   5   6
ENDBRANCH   4   5
ENDBRANCH   3   4
ENDBRANCH   2   3
ENDBRANCH   1   2
BRANCH   1  71
ATOM     71  O   UNL A   1      31.649  30.331  25.827  1.00  0.00    -0.377 OA
BRANCH  71  72
ATOM     72  C   UNL A   1      31.424  29.060  25.238  1.00  0.00     0.188 C 
BRANCH  72  73
ATOM     73  C   UNL A   1      30.649  28.964  23.896  1.00  0.00     0.188 C 
BRANCH  73  74
ATOM     74  O   UNL A   1      30.097  27.690  23.618  1.00  0.00    -0.376 OA
BRANCH  74  75
ATOM     75  C   UNL A   1      30.623  26.616  24.396  1.00  0.00     0.202 C 
BRANCH  75  76
ATOM     76  C   UNL A   1      30.332  25.205  23.858  1.00  0.00     0.261 C 
BRANCH  76  77
ATOM     77  O   UNL A   1      30.695  24.131  24.751  1.00  0.00    -0.460 OA
BRANCH  77  78
ATOM     78  C   UNL A   1      32.020  23.822  24.867  1.00  0.00     0.349 C 
ATOM     79  O   UNL A   1      32.596  23.780  25.939  1.00  0.00    -0.248 OA
BRANCH  78  80
ATOM     80  C   UNL A   1      32.618  23.500  23.465  1.00  0.00     0.301 C 
ATOM     81  C   UNL A   1      32.573  22.017  23.033  1.00  0.00     0.174 C 
ATOM     82  O   UNL A   1      33.951  23.967  23.335  1.00  0.00    -0.475 OA
ATOM     83  N   UNL A   1      33.360  21.147  23.919  1.00  0.00    -0.360 N 
ATOM     84  C   UNL A   1      34.799  23.161  24.059  1.00  0.00     0.144 A 
ATOM     85  C   UNL A   1      34.537  21.794  24.353  1.00  0.00     0.080 A 
ATOM     86  C   UNL A   1      35.907  23.852  24.548  1.00  0.00     0.049 A 
ATOM     87  C   UNL A   1      35.517  21.158  25.110  1.00  0.00     0.030 A 
ATOM     88  C   UNL A   1      36.790  23.205  25.391  1.00  0.00     0.004 A 
ATOM     89  C   UNL A   1      36.604  21.856  25.659  1.00  0.00     0.002 A 
BRANCH  83  90
ATOM     90  C   UNL A   1      32.582  20.245  24.811  1.00  0.00     0.152 C 
BRANCH  90  91
ATOM     91  C   UNL A   1      32.836  18.757  24.684  1.00  0.00    -0.029 A 
ATOM     92  C   UNL A   1      33.327  18.182  23.502  1.00  0.00     0.005 A 
ATOM     93  C   UNL A   1      32.516  17.903  25.752  1.00  0.00     0.005 A 
ATOM     94  C   UNL A   1      33.559  16.803  23.424  1.00  0.00     0.000 A 
ATOM     95  C   UNL A   1      32.801  16.538  25.695  1.00  0.00     0.000 A 
ATOM     96  C   UNL A   1      33.327  15.989  24.531  1.00  0.00     0.000 A 
ENDBRANCH  90  91
ENDBRANCH  83  90
ENDBRANCH  78  80
ENDBRANCH  77  78
ENDBRANCH  76  77
ENDBRANCH  75  76
ENDBRANCH  74  75
ENDBRANCH  73  74
ENDBRANCH  72  73
ENDBRANCH  71  72
ENDBRANCH   1  71
TORSDOF 25
ENDMDL
MODEL 2
REMARK VINA RESULT:      -9.9      1.014      2.668
REMARK SMILES O=C(OCCOCCOCCOCCOC(=O)[C@@H]1CN(Cc2ccccc2)c2ccccc2O1)c1ccc(-c2c3nc(c(-c4ccc(S(=O)(=O)[O-])cc4)c4ccc([nH]4)c(-c4ccc(S(=O)(=O)[O-])cc4)c4nc(c(-c5ccc(S(=O)(=O)[O-])cc5)c5ccc2[nH]5)C=C4)C=C3)cc1
REMARK SMILES IDX 8 1 7 2 6 3 5 4 4 5 3 6 2 7 1 8 35 9 36 10 94 11 37 12 93 13
REMARK SMILES IDX 38 14 39 15 40 16 87 17 41 18 92 19 86 20 88 21 42 22 91 23
REMARK SMILES IDX 85 24 84 25 43 27 73 28 54 29 72 30 55 31 58 32 71 33 89 34
REMARK SMILES IDX 56 35 57 36 70 38 90 39 59 40 44 41 45 42 53 43 46 44 52 45
REMARK SMILES IDX 47 46 48 47 49 48 50 49 51 50 74 51 75 52 83 53 76 54 82 55
REMARK SMILES IDX 77 56 78 57 79 58 80 59 81 60 60 61 61 62 69 63 62 64 68 65
REMARK SMILES IDX 63 66 64 67 65 68 66 69 67 70 9 71 10 72 11 73 12 74 13 75
REMARK SMILES IDX 14 76 15 77 16 78 17 79 18 80 19 81 34 82 20 83 33 84 28 85
REMARK SMILES IDX 32 86 29 87 31 88 30 89 21 90 22 91 23 92 27 93 24 94 26 95
REMARK SMILES IDX 25 96
REMARK H PARENT 88 26 58 37
REMARK Flexibility Score: inf
ROOT
ATOM      1  C   UNL A   1      33.046  30.545  26.707  1.00  0.00     0.188 C 
ENDROOT
BRANCH   1   2
ATOM      2  C   UNL A   1      33.157  31.858  27.476  1.00  0.00     0.188 C 
BRANCH   2   3
ATOM      3  O   UNL A   1      34.277  31.876  28.363  1.00  0.00    -0.376 OA
BRANCH   3   4
ATOM      4  C   UNL A   1      35.545  31.549  27.788  1.00  0.00     0.202 C 
BRANCH   4   5
ATOM      5  C   UNL A   1      36.647  31.246  28.805  1.00  0.00     0.261 C 
BRANCH   5   6
ATOM      6  O   UNL A   1      36.386  30.063  29.575  1.00  0.00    -0.460 OA
BRANCH   6   7
ATOM      7  C   UNL A   1      37.285  29.225  30.152  1.00  0.00     0.338 C 
ATOM      8  O   UNL A   1      36.985  28.712  31.231  1.00  0.00    -0.246 OA
BRANCH   7   9
ATOM      9  C   UNL A   1      38.623  28.890  29.569  1.00  0.00     0.060 A 
ATOM     10  C   UNL A   1      39.670  28.274  30.252  1.00  0.00     0.016 A 
ATOM     11  C   UNL A   1      38.824  29.182  28.208  1.00  0.00     0.016 A 
ATOM     12  C   UNL A   1      40.892  28.034  29.662  1.00  0.00     0.010 A 
ATOM     13  C   UNL A   1      40.052  28.925  27.588  1.00  0.00     0.010 A 
ATOM     14  C   UNL A   1      41.100  28.384  28.337  1.00  0.00    -0.014 A 
BRANCH  14  15
ATOM     15  C   UNL A   1      42.500  28.361  27.892  1.00  0.00     0.031 A 
ATOM     16  C   UNL A   1      43.360  29.528  28.278  1.00  0.00     0.074 A 
ATOM     17  C   UNL A   1      43.018  27.215  27.414  1.00  0.00     0.049 A 
ATOM     18  N   UNL A   1      44.630  29.722  28.062  1.00  0.00    -0.248 NA
ATOM     19  C   UNL A   1      42.706  30.609  29.043  1.00  0.00     0.031 C 
ATOM     20  C   UNL A   1      42.264  25.971  27.201  1.00  0.00     0.029 A 
ATOM     21  N   UNL A   1      44.302  26.885  27.083  1.00  0.00    -0.354 N 
ATOM     22  C   UNL A   1      44.920  30.952  28.643  1.00  0.00     0.074 A 
ATOM     23  C   UNL A   1      43.699  31.466  29.212  1.00  0.00     0.031 C 
ATOM     24  C   UNL A   1      43.109  25.011  26.795  1.00  0.00     0.029 A 
ATOM     25  C   UNL A   1      44.439  25.588  26.646  1.00  0.00     0.049 A 
ATOM     26  H   UNL A   1      45.056  27.514  27.150  1.00  0.00     0.167 HD
ATOM     27  C   UNL A   1      46.110  31.587  28.689  1.00  0.00     0.031 A 
ATOM     28  C   UNL A   1      45.519  24.963  26.141  1.00  0.00     0.031 A 
ATOM     29  C   UNL A   1      47.300  31.047  28.095  1.00  0.00     0.049 A 
ATOM     30  C   UNL A   1      46.797  25.754  26.064  1.00  0.00     0.074 A 
ATOM     31  C   UNL A   1      48.544  31.630  27.959  1.00  0.00     0.029 A 
ATOM     32  N   UNL A   1      47.381  29.777  27.536  1.00  0.00    -0.354 N 
ATOM     33  N   UNL A   1      47.041  26.967  26.510  1.00  0.00    -0.248 NA
ATOM     34  C   UNL A   1      47.939  25.106  25.412  1.00  0.00     0.031 C 
ATOM     35  C   UNL A   1      49.364  30.729  27.270  1.00  0.00     0.029 A 
ATOM     36  C   UNL A   1      48.651  29.562  27.038  1.00  0.00     0.049 A 
ATOM     37  H   UNL A   1      46.642  29.127  27.501  1.00  0.00     0.167 HD
ATOM     38  C   UNL A   1      48.370  27.225  26.201  1.00  0.00     0.074 A 
ATOM     39  C   UNL A   1      48.883  26.025  25.564  1.00  0.00     0.031 C 
ATOM     40  C   UNL A   1      49.104  28.346  26.409  1.00  0.00     0.031 A 
BRANCH  27  41
ATOM     41  C   UNL A   1      46.138  32.951  29.323  1.00  0.00    -0.014 A 
ATOM     42  C   UNL A   1      45.887  34.114  28.574  1.00  0.00     0.010 A 
ATOM     43  C   UNL A   1      46.450  33.069  30.689  1.00  0.00     0.010 A 
ATOM     44  C   UNL A   1      45.973  35.374  29.177  1.00  0.00     0.020 A 
ATOM     45  C   UNL A   1      46.513  34.324  31.300  1.00  0.00     0.020 A 
ATOM     46  C   UNL A   1      46.285  35.469  30.537  1.00  0.00     0.054 A 
BRANCH  46  47
ATOM     47  S   UNL A   1      46.362  37.114  31.299  1.00  0.00     0.124 S 
ATOM     48  O   UNL A   1      46.727  37.957  30.163  1.00  0.00    -0.237 OA
ATOM     49  O   UNL A   1      45.003  37.294  31.803  1.00  0.00    -0.237 OA
ATOM     50  O   UNL A   1      47.392  36.973  32.326  1.00  0.00    -0.744 OA
ENDBRANCH  46  47
ENDBRANCH  27  41
BRANCH  28  51
ATOM     51  C   UNL A   1      45.407  23.587  25.576  1.00  0.00    -0.014 A 
ATOM     52  C   UNL A   1      45.170  23.364  24.209  1.00  0.00     0.010 A 
ATOM     53  C   UNL A   1      45.499  22.473  26.436  1.00  0.00     0.010 A 
ATOM     54  C   UNL A   1      44.989  22.064  23.723  1.00  0.00     0.020 A 
ATOM     55  C   UNL A   1      45.356  21.172  25.949  1.00  0.00     0.020 A 
ATOM     56  C   UNL A   1      45.078  20.976  24.598  1.00  0.00     0.054 A 
BRANCH  56  57
ATOM     57  S   UNL A   1      44.835  19.298  23.950  1.00  0.00     0.124 S 
ATOM     58  O   UNL A   1      44.357  19.563  22.596  1.00  0.00    -0.237 OA
ATOM     59  O   UNL A   1      46.174  18.724  24.048  1.00  0.00    -0.237 OA
ATOM     60  O   UNL A   1      43.848  18.720  24.860  1.00  0.00    -0.744 OA
ENDBRANCH  56  57
ENDBRANCH  28  51
BRANCH  40  61
ATOM     61  C   UNL A   1      50.540  28.300  25.969  1.00  0.00    -0.014 A 
ATOM     62  C   UNL A   1      51.565  27.965  26.870  1.00  0.00     0.010 A 
ATOM     63  C   UNL A   1      50.854  28.560  24.624  1.00  0.00     0.010 A 
ATOM     64  C   UNL A   1      52.892  27.936  26.440  1.00  0.00     0.020 A 
ATOM     65  C   UNL A   1      52.175  28.495  24.183  1.00  0.00     0.020 A 
ATOM     66  C   UNL A   1      53.188  28.203  25.099  1.00  0.00     0.054 A 
BRANCH  66  67
ATOM     67  S   UNL A   1      54.915  28.134  24.559  1.00  0.00     0.124 S 
ATOM     68  O   UNL A   1      55.398  29.463  24.922  1.00  0.00    -0.237 OA
ATOM     69  O   UNL A   1      55.453  27.030  25.351  1.00  0.00    -0.237 OA
ATOM     70  O   UNL A   1      54.819  27.875  23.125  1.00  0.00    -0.744 OA
ENDBRANCH  66  67
ENDBRANCH  40  61
ENDBRANCH  14  15
ENDBRANCH   7   9
ENDBRANCH   6   7
ENDBRANCH   5   6
ENDBRANCH   4   5
ENDBRANCH   3   4
ENDBRANCH   2   3
ENDBRANCH   1   2
BRANCH   1  71
ATOM     71  O   UNL A   1      31.920  30.451  25.846  1.00  0.00    -0.377 OA
BRANCH  71  72
ATOM     72  C   UNL A   1      31.721  29.192  25.221  1.00  0.00     0.188 C 
BRANCH  72  73
ATOM     73  C   UNL A   1      30.885  29.109  23.916  1.00  0.00     0.188 C 
BRANCH  73  74
ATOM     74  O   UNL A   1      31.370  28.187  22.957  1.00  0.00    -0.376 OA
BRANCH  74  75
ATOM     75  C   UNL A   1      32.237  27.177  23.469  1.00  0.00     0.202 C 
BRANCH  75  76
ATOM     76  C   UNL A   1      32.644  26.084  22.467  1.00  0.00     0.261 C 
BRANCH  76  77
ATOM     77  O   UNL A   1      33.749  25.258  22.889  1.00  0.00    -0.460 OA
BRANCH  77  78
ATOM     78  C   UNL A   1      33.484  23.959  23.215  1.00  0.00     0.349 C 
ATOM     79  O   UNL A   1      33.544  23.050  22.406  1.00  0.00    -0.248 OA
BRANCH  78  80
ATOM     80  C   UNL A   1      33.157  23.844  24.734  1.00  0.00     0.301 C 
ATOM     81  C   UNL A   1      34.369  23.872  25.692  1.00  0.00     0.174 C 
ATOM     82  O   UNL A   1      32.377  22.696  25.026  1.00  0.00    -0.475 OA
ATOM     83  N   UNL A   1      35.282  22.739  25.480  1.00  0.00    -0.360 N 
ATOM     84  C   UNL A   1      33.162  21.569  24.947  1.00  0.00     0.144 A 
ATOM     85  C   UNL A   1      34.568  21.563  25.163  1.00  0.00     0.080 A 
ATOM     86  C   UNL A   1      32.444  20.443  24.546  1.00  0.00     0.049 A 
ATOM     87  C   UNL A   1      35.179  20.320  25.024  1.00  0.00     0.030 A 
ATOM     88  C   UNL A   1      33.117  19.260  24.309  1.00  0.00     0.004 A 
ATOM     89  C   UNL A   1      34.480  19.195  24.563  1.00  0.00     0.002 A 
BRANCH  83  90
ATOM     90  C   UNL A   1      36.590  23.062  24.847  1.00  0.00     0.152 C 
BRANCH  90  91
ATOM     91  C   UNL A   1      37.818  23.017  25.732  1.00  0.00    -0.029 A 
ATOM     92  C   UNL A   1      38.203  24.106  26.528  1.00  0.00     0.005 A 
ATOM     93  C   UNL A   1      38.645  21.882  25.720  1.00  0.00     0.005 A 
ATOM     94  C   UNL A   1      39.341  24.027  27.342  1.00  0.00     0.000 A 
ATOM     95  C   UNL A   1      39.745  21.780  26.572  1.00  0.00     0.000 A 
ATOM     96  C   UNL A   1      40.090  22.853  27.387  1.00  0.00     0.000 A 
ENDBRANCH  90  91
ENDBRANCH  83  90
ENDBRANCH  78  80
ENDBRANCH  77  78
ENDBRANCH  76  77
ENDBRANCH  75  76
ENDBRANCH  74  75
ENDBRANCH  73  74
ENDBRANCH  72  73
ENDBRANCH  71  72
ENDBRANCH   1  71
TORSDOF 25
ENDMDL
MODEL 3
REMARK VINA RESULT:      -9.4      4.795      5.837
REMARK SMILES O=C(OCCOCCOCCOCCOC(=O)[C@@H]1CN(Cc2ccccc2)c2ccccc2O1)c1ccc(-c2c3nc(c(-c4ccc(S(=O)(=O)[O-])cc4)c4ccc([nH]4)c(-c4ccc(S(=O)(=O)[O-])cc4)c4nc(c(-c5ccc(S(=O)(=O)[O-])cc5)c5ccc2[nH]5)C=C4)C=C3)cc1
REMARK SMILES IDX 8 1 7 2 6 3 5 4 4 5 3 6 2 7 1 8 35 9 36 10 94 11 37 12 93 13
REMARK SMILES IDX 38 14 39 15 40 16 87 17 41 18 92 19 86 20 88 21 42 22 91 23
REMARK SMILES IDX 85 24 84 25 43 27 73 28 54 29 72 30 55 31 58 32 71 33 89 34
REMARK SMILES IDX 56 35 57 36 70 38 90 39 59 40 44 41 45 42 53 43 46 44 52 45
REMARK SMILES IDX 47 46 48 47 49 48 50 49 51 50 74 51 75 52 83 53 76 54 82 55
REMARK SMILES IDX 77 56 78 57 79 58 80 59 81 60 60 61 61 62 69 63 62 64 68 65
REMARK SMILES IDX 63 66 64 67 65 68 66 69 67 70 9 71 10 72 11 73 12 74 13 75
REMARK SMILES IDX 14 76 15 77 16 78 17 79 18 80 19 81 34 82 20 83 33 84 28 85
REMARK SMILES IDX 32 86 29 87 31 88 30 89 21 90 22 91 23 92 27 93 24 94 26 95
REMARK SMILES IDX 25 96
REMARK H PARENT 88 26 58 37
REMARK Flexibility Score: inf
ROOT
ATOM      1  C   UNL A   1      31.780  28.410  27.535  1.00  0.00     0.188 C 
ENDROOT
BRANCH   1   2
ATOM      2  C   UNL A   1      33.150  29.074  27.421  1.00  0.00     0.188 C 
BRANCH   2   3
ATOM      3  O   UNL A   1      33.055  30.486  27.227  1.00  0.00    -0.376 OA
BRANCH   3   4
ATOM      4  C   UNL A   1      34.191  31.258  27.626  1.00  0.00     0.202 C 
BRANCH   4   5
ATOM      5  C   UNL A   1      33.867  32.677  28.095  1.00  0.00     0.261 C 
BRANCH   5   6
ATOM      6  O   UNL A   1      34.734  33.130  29.146  1.00  0.00    -0.460 OA
BRANCH   6   7
ATOM      7  C   UNL A   1      35.123  32.455  30.258  1.00  0.00     0.338 C 
ATOM      8  O   UNL A   1      34.346  32.421  31.213  1.00  0.00    -0.246 OA
BRANCH   7   9
ATOM      9  C   UNL A   1      36.441  31.757  30.406  1.00  0.00     0.060 A 
ATOM     10  C   UNL A   1      36.667  30.615  31.170  1.00  0.00     0.016 A 
ATOM     11  C   UNL A   1      37.528  32.275  29.680  1.00  0.00     0.016 A 
ATOM     12  C   UNL A   1      37.918  30.049  31.294  1.00  0.00     0.010 A 
ATOM     13  C   UNL A   1      38.801  31.700  29.778  1.00  0.00     0.010 A 
ATOM     14  C   UNL A   1      38.997  30.604  30.624  1.00  0.00    -0.014 A 
BRANCH  14  15
ATOM     15  C   UNL A   1      40.318  30.119  31.046  1.00  0.00     0.031 A 
ATOM     16  C   UNL A   1      40.882  30.689  32.313  1.00  0.00     0.074 A 
ATOM     17  C   UNL A   1      40.832  29.023  30.459  1.00  0.00     0.049 A 
ATOM     18  N   UNL A   1      41.992  30.390  32.928  1.00  0.00    -0.248 NA
ATOM     19  C   UNL A   1      40.069  31.712  33.001  1.00  0.00     0.031 C 
ATOM     20  C   UNL A   1      40.219  28.299  29.337  1.00  0.00     0.029 A 
ATOM     21  N   UNL A   1      41.944  28.288  30.760  1.00  0.00    -0.354 N 
ATOM     22  C   UNL A   1      42.019  31.200  34.057  1.00  0.00     0.074 A 
ATOM     23  C   UNL A   1      40.826  32.010  34.044  1.00  0.00     0.031 C 
ATOM     24  C   UNL A   1      40.957  27.213  29.061  1.00  0.00     0.029 A 
ATOM     25  C   UNL A   1      42.127  27.207  29.930  1.00  0.00     0.049 A 
ATOM     26  H   UNL A   1      42.555  28.511  31.498  1.00  0.00     0.167 HD
ATOM     27  C   UNL A   1      42.967  31.254  35.017  1.00  0.00     0.031 A 
ATOM     28  C   UNL A   1      43.156  26.343  29.863  1.00  0.00     0.031 A 
ATOM     29  C   UNL A   1      44.149  30.441  34.984  1.00  0.00     0.049 A 
ATOM     30  C   UNL A   1      44.275  26.527  30.853  1.00  0.00     0.074 A 
ATOM     31  C   UNL A   1      45.248  30.472  35.819  1.00  0.00     0.029 A 
ATOM     32  N   UNL A   1      44.374  29.436  34.050  1.00  0.00    -0.354 N 
ATOM     33  N   UNL A   1      44.353  27.376  31.854  1.00  0.00    -0.248 NA
ATOM     34  C   UNL A   1      45.443  25.654  30.704  1.00  0.00     0.031 C 
ATOM     35  C   UNL A   1      46.163  29.519  35.356  1.00  0.00     0.029 A 
ATOM     36  C   UNL A   1      45.604  28.850  34.276  1.00  0.00     0.049 A 
ATOM     37  H   UNL A   1      43.750  29.181  33.333  1.00  0.00     0.167 HD
ATOM     38  C   UNL A   1      45.577  27.131  32.463  1.00  0.00     0.074 A 
ATOM     39  C   UNL A   1      46.184  26.030  31.737  1.00  0.00     0.031 C 
ATOM     40  C   UNL A   1      46.160  27.758  33.517  1.00  0.00     0.031 A 
BRANCH  27  41
ATOM     41  C   UNL A   1      42.787  32.276  36.105  1.00  0.00    -0.014 A 
ATOM     42  C   UNL A   1      43.403  33.538  36.037  1.00  0.00     0.010 A 
ATOM     43  C   UNL A   1      42.009  31.953  37.231  1.00  0.00     0.010 A 
ATOM     44  C   UNL A   1      43.263  34.450  37.089  1.00  0.00     0.020 A 
ATOM     45  C   UNL A   1      41.847  32.870  38.273  1.00  0.00     0.020 A 
ATOM     46  C   UNL A   1      42.485  34.109  38.200  1.00  0.00     0.054 A 
BRANCH  46  47
ATOM     47  S   UNL A   1      42.298  35.322  39.537  1.00  0.00     0.124 S 
ATOM     48  O   UNL A   1      43.161  36.409  39.082  1.00  0.00    -0.237 OA
ATOM     49  O   UNL A   1      40.865  35.605  39.509  1.00  0.00    -0.237 OA
ATOM     50  O   UNL A   1      42.767  34.608  40.721  1.00  0.00    -0.744 OA
ENDBRANCH  46  47
ENDBRANCH  27  41
BRANCH  28  51
ATOM     51  C   UNL A   1      43.227  25.326  28.773  1.00  0.00    -0.014 A 
ATOM     52  C   UNL A   1      43.796  25.619  27.522  1.00  0.00     0.010 A 
ATOM     53  C   UNL A   1      42.673  24.046  28.979  1.00  0.00     0.010 A 
ATOM     54  C   UNL A   1      43.776  24.671  26.492  1.00  0.00     0.020 A 
ATOM     55  C   UNL A   1      42.682  23.085  27.966  1.00  0.00     0.020 A 
ATOM     56  C   UNL A   1      43.213  23.411  26.720  1.00  0.00     0.054 A 
BRANCH  56  57
ATOM     57  S   UNL A   1      43.189  22.197  25.371  1.00  0.00     0.124 S 
ATOM     58  O   UNL A   1      41.905  21.535  25.584  1.00  0.00    -0.237 OA
ATOM     59  O   UNL A   1      43.277  23.041  24.184  1.00  0.00    -0.237 OA
ATOM     60  O   UNL A   1      44.369  21.373  25.632  1.00  0.00    -0.744 OA
ENDBRANCH  56  57
ENDBRANCH  28  51
BRANCH  40  61
ATOM     61  C   UNL A   1      47.500  27.236  33.950  1.00  0.00    -0.014 A 
ATOM     62  C   UNL A   1      48.682  27.657  33.318  1.00  0.00     0.010 A 
ATOM     63  C   UNL A   1      47.572  26.342  35.033  1.00  0.00     0.010 A 
ATOM     64  C   UNL A   1      49.915  27.154  33.733  1.00  0.00     0.020 A 
ATOM     65  C   UNL A   1      48.805  25.866  35.474  1.00  0.00     0.020 A 
ATOM     66  C   UNL A   1      49.968  26.260  34.808  1.00  0.00     0.054 A 
BRANCH  66  67
ATOM     67  S   UNL A   1      51.582  25.640  35.345  1.00  0.00     0.124 S 
ATOM     68  O   UNL A   1      52.308  26.879  35.609  1.00  0.00    -0.237 OA
ATOM     69  O   UNL A   1      51.244  24.845  36.523  1.00  0.00    -0.237 OA
ATOM     70  O   UNL A   1      52.057  24.872  34.197  1.00  0.00    -0.744 OA
ENDBRANCH  66  67
ENDBRANCH  40  61
ENDBRANCH  14  15
ENDBRANCH   7   9
ENDBRANCH   6   7
ENDBRANCH   5   6
ENDBRANCH   4   5
ENDBRANCH   3   4
ENDBRANCH   2   3
ENDBRANCH   1   2
BRANCH   1  71
ATOM     71  O   UNL A   1      31.547  27.360  26.607  1.00  0.00    -0.377 OA
BRANCH  71  72
ATOM     72  C   UNL A   1      32.074  27.557  25.304  1.00  0.00     0.188 C 
BRANCH  72  73
ATOM     73  C   UNL A   1      31.252  28.356  24.258  1.00  0.00     0.188 C 
BRANCH  73  74
ATOM     74  O   UNL A   1      30.709  27.577  23.207  1.00  0.00    -0.376 OA
BRANCH  74  75
ATOM     75  C   UNL A   1      29.684  26.663  23.595  1.00  0.00     0.202 C 
BRANCH  75  76
ATOM     76  C   UNL A   1      30.055  25.173  23.497  1.00  0.00     0.261 C 
BRANCH  76  77
ATOM     77  O   UNL A   1      30.792  24.659  24.627  1.00  0.00    -0.460 OA
BRANCH  77  78
ATOM     78  C   UNL A   1      31.197  23.356  24.581  1.00  0.00     0.349 C 
ATOM     79  O   UNL A   1      30.965  22.562  25.476  1.00  0.00    -0.248 OA
BRANCH  78  80
ATOM     80  C   UNL A   1      31.923  23.069  23.234  1.00  0.00     0.301 C 
ATOM     81  C   UNL A   1      32.195  21.582  22.914  1.00  0.00     0.174 C 
ATOM     82  O   UNL A   1      33.144  23.783  23.124  1.00  0.00    -0.475 OA
ATOM     83  N   UNL A   1      33.087  20.947  23.894  1.00  0.00    -0.360 N 
ATOM     84  C   UNL A   1      34.092  23.212  23.940  1.00  0.00     0.144 A 
ATOM     85  C   UNL A   1      34.088  21.843  24.327  1.00  0.00     0.080 A 
ATOM     86  C   UNL A   1      35.013  24.141  24.422  1.00  0.00     0.049 A 
ATOM     87  C   UNL A   1      35.130  21.467  25.169  1.00  0.00     0.030 A 
ATOM     88  C   UNL A   1      35.959  23.741  25.346  1.00  0.00     0.004 A 
ATOM     89  C   UNL A   1      36.026  22.403  25.708  1.00  0.00     0.002 A 
BRANCH  83  90
ATOM     90  C   UNL A   1      32.453  19.968  24.819  1.00  0.00     0.152 C 
BRANCH  90  91
ATOM     91  C   UNL A   1      32.884  18.520  24.699  1.00  0.00    -0.029 A 
ATOM     92  C   UNL A   1      33.549  18.033  23.563  1.00  0.00     0.005 A 
ATOM     93  C   UNL A   1      32.561  17.611  25.718  1.00  0.00     0.005 A 
ATOM     94  C   UNL A   1      33.941  16.690  23.490  1.00  0.00     0.000 A 
ATOM     95  C   UNL A   1      33.001  16.287  25.671  1.00  0.00     0.000 A 
ATOM     96  C   UNL A   1      33.696  15.828  24.557  1.00  0.00     0.000 A 
ENDBRANCH  90  91
ENDBRANCH  83  90
ENDBRANCH  78  80
ENDBRANCH  77  78
ENDBRANCH  76  77
ENDBRANCH  75  76
ENDBRANCH  74  75
ENDBRANCH  73  74
ENDBRANCH  72  73
ENDBRANCH  71  72
ENDBRANCH   1  71
TORSDOF 25
ENDMDL
