MODEL 1
REMARK VINA RESULT:      -8.5      0.000      0.000
REMARK SMILES C[C@H](CCC(=O)OCCOCCOCCOCCOC(=O)c1ccc(-c2c3nc(c(-c4ccc(S(=O)(=O)[O-])cc4)c4ccc([nH]4)c(-c4ccc(S(=O)(=O)[O-])cc4)c4nc(c(-c5ccc(S(=O)(=O)[O-])cc5)c5ccc2[nH]5)C=C4)C=C3)cc1)NC(=O)OC(C)(C)C
REMARK SMILES IDX 12 1 11 2 10 3 9 4 8 5 7 6 5 7 6 8 4 9 3 10 2 11 1 12 82 13
REMARK SMILES IDX 83 14 84 16 85 17 86 18 87 19 88 20 89 21 13 22 14 23 15 24
REMARK SMILES IDX 16 25 17 26 18 27 19 28 20 29 21 30 22 31 23 32 81 33 24 34
REMARK SMILES IDX 80 35 25 36 26 37 27 38 74 39 28 40 79 41 73 42 75 43 29 44
REMARK SMILES IDX 78 45 72 46 71 47 30 49 60 50 41 51 59 52 42 53 45 54 58 55
REMARK SMILES IDX 76 56 43 57 44 58 57 60 77 61 46 62 31 63 32 64 40 65 33 66
REMARK SMILES IDX 39 67 34 68 35 69 36 70 37 71 38 72 61 73 62 74 70 75 63 76
REMARK SMILES IDX 69 77 64 78 65 79 66 80 67 81 68 82 47 83 48 84 56 85 49 86
REMARK SMILES IDX 55 87 50 88 51 89 52 90 53 91 54 92
REMARK H PARENT 82 15 75 48 45 59
REMARK Flexibility Score: inf
ROOT
ATOM      1  C   UNL A   1      38.392  21.655  25.703  1.00  0.00     0.188 C 
ENDROOT
BRANCH   1   2
ATOM      2  C   UNL A   1      37.406  21.124  24.651  1.00  0.00     0.188 C 
BRANCH   2   3
ATOM      3  O   UNL A   1      36.221  20.552  25.154  1.00  0.00    -0.376 OA
BRANCH   3   4
ATOM      4  C   UNL A   1      35.276  21.295  25.904  1.00  0.00     0.202 C 
BRANCH   4   5
ATOM      5  C   UNL A   1      33.756  21.306  25.677  1.00  0.00     0.261 C 
BRANCH   5   6
ATOM      6  O   UNL A   1      33.041  22.484  26.053  1.00  0.00    -0.463 OA
BRANCH   6   7
ATOM      7  C   UNL A   1      33.258  23.579  25.295  1.00  0.00     0.305 C 
ATOM      8  O   UNL A   1      33.409  23.558  24.078  1.00  0.00    -0.252 OA
BRANCH   7   9
ATOM      9  C   UNL A   1      33.329  24.868  26.085  1.00  0.00     0.125 C 
BRANCH   9  10
ATOM     10  C   UNL A   1      34.004  26.126  25.538  1.00  0.00     0.036 C 
BRANCH  10  11
ATOM     11  C   UNL A   1      33.413  27.551  25.713  1.00  0.00     0.083 C 
ATOM     12  C   UNL A   1      34.248  28.594  26.446  1.00  0.00     0.031 C 
BRANCH  11  13
ATOM     13  N   UNL A   1      33.069  28.086  24.398  1.00  0.00    -0.319 N 
ATOM     14  C   UNL A   1      31.825  28.311  23.881  1.00  0.00     0.407 C 
ATOM     15  H   UNL A   1      33.828  28.313  23.812  1.00  0.00     0.167 HD
ATOM     16  O   UNL A   1      31.709  28.870  22.801  1.00  0.00    -0.225 OA
BRANCH  14  17
ATOM     17  O   UNL A   1      30.806  27.859  24.658  1.00  0.00    -0.444 OA
BRANCH  17  18
ATOM     18  C   UNL A   1      30.125  26.621  24.305  1.00  0.00     0.106 C 
ATOM     19  C   UNL A   1      30.926  25.839  23.256  1.00  0.00     0.056 C 
ATOM     20  C   UNL A   1      29.812  25.767  25.541  1.00  0.00     0.056 C 
ATOM     21  C   UNL A   1      28.785  27.036  23.672  1.00  0.00     0.056 C 
ENDBRANCH  17  18
ENDBRANCH  14  17
ENDBRANCH  11  13
ENDBRANCH  10  11
ENDBRANCH   9  10
ENDBRANCH   7   9
ENDBRANCH   6   7
ENDBRANCH   5   6
ENDBRANCH   4   5
ENDBRANCH   3   4
ENDBRANCH   2   3
ENDBRANCH   1   2
BRANCH   1  22
ATOM     22  O   UNL A   1      39.616  20.978  25.917  1.00  0.00    -0.377 OA
BRANCH  22  23
ATOM     23  C   UNL A   1      40.519  21.452  26.909  1.00  0.00     0.188 C 
BRANCH  23  24
ATOM     24  C   UNL A   1      42.022  21.084  26.897  1.00  0.00     0.188 C 
BRANCH  24  25
ATOM     25  O   UNL A   1      42.919  22.133  26.572  1.00  0.00    -0.376 OA
BRANCH  25  26
ATOM     26  C   UNL A   1      42.463  23.114  25.651  1.00  0.00     0.202 C 
BRANCH  26  27
ATOM     27  C   UNL A   1      43.483  24.179  25.217  1.00  0.00     0.261 C 
BRANCH  27  28
ATOM     28  O   UNL A   1      43.548  25.348  26.049  1.00  0.00    -0.460 OA
BRANCH  28  29
ATOM     29  C   UNL A   1      42.613  26.304  25.845  1.00  0.00     0.338 C 
ATOM     30  O   UNL A   1      41.966  26.504  24.837  1.00  0.00    -0.246 OA
BRANCH  29  31
ATOM     31  C   UNL A   1      42.372  26.956  27.147  1.00  0.00     0.060 A 
ATOM     32  C   UNL A   1      41.498  26.352  28.060  1.00  0.00     0.016 A 
ATOM     33  C   UNL A   1      43.038  28.138  27.474  1.00  0.00     0.016 A 
ATOM     34  C   UNL A   1      41.291  26.933  29.311  1.00  0.00     0.010 A 
ATOM     35  C   UNL A   1      42.807  28.733  28.716  1.00  0.00     0.010 A 
ATOM     36  C   UNL A   1      41.923  28.140  29.635  1.00  0.00    -0.014 A 
BRANCH  36  37
ATOM     37  C   UNL A   1      41.564  28.860  30.879  1.00  0.00     0.031 A 
ATOM     38  C   UNL A   1      40.374  29.778  30.860  1.00  0.00     0.074 A 
ATOM     39  C   UNL A   1      42.292  28.711  32.001  1.00  0.00     0.049 A 
ATOM     40  N   UNL A   1      39.928  30.571  31.799  1.00  0.00    -0.248 NA
ATOM     41  C   UNL A   1      39.583  29.810  29.618  1.00  0.00     0.031 C 
ATOM     42  C   UNL A   1      43.440  27.817  32.154  1.00  0.00     0.029 A 
ATOM     43  N   UNL A   1      42.180  29.324  33.223  1.00  0.00    -0.354 N 
ATOM     44  C   UNL A   1      38.816  31.205  31.258  1.00  0.00     0.074 A 
ATOM     45  C   UNL A   1      38.660  30.715  29.907  1.00  0.00     0.031 C 
ATOM     46  C   UNL A   1      43.940  27.958  33.395  1.00  0.00     0.029 A 
ATOM     47  C   UNL A   1      43.176  28.980  34.108  1.00  0.00     0.049 A 
ATOM     48  H   UNL A   1      41.455  29.952  33.447  1.00  0.00     0.167 HD
ATOM     49  C   UNL A   1      38.003  32.119  31.838  1.00  0.00     0.031 A 
ATOM     50  C   UNL A   1      43.461  29.464  35.334  1.00  0.00     0.031 A 
ATOM     51  C   UNL A   1      38.168  32.609  33.180  1.00  0.00     0.049 A 
ATOM     52  C   UNL A   1      42.586  30.546  35.921  1.00  0.00     0.074 A 
ATOM     53  C   UNL A   1      37.373  33.510  33.867  1.00  0.00     0.029 A 
ATOM     54  N   UNL A   1      39.204  32.260  34.032  1.00  0.00    -0.354 N 
ATOM     55  N   UNL A   1      41.504  31.095  35.421  1.00  0.00    -0.248 NA
ATOM     56  C   UNL A   1      42.973  31.075  37.238  1.00  0.00     0.031 C 
ATOM     57  C   UNL A   1      37.969  33.762  35.105  1.00  0.00     0.029 A 
ATOM     58  C   UNL A   1      39.095  32.964  35.219  1.00  0.00     0.049 A 
ATOM     59  H   UNL A   1      39.912  31.608  33.824  1.00  0.00     0.167 HD
ATOM     60  C   UNL A   1      41.073  32.017  36.371  1.00  0.00     0.074 A 
ATOM     61  C   UNL A   1      41.992  31.932  37.486  1.00  0.00     0.031 C 
ATOM     62  C   UNL A   1      40.017  32.867  36.322  1.00  0.00     0.031 A 
BRANCH  49  63
ATOM     63  C   UNL A   1      36.877  32.688  31.018  1.00  0.00    -0.014 A 
ATOM     64  C   UNL A   1      35.534  32.463  31.363  1.00  0.00     0.010 A 
ATOM     65  C   UNL A   1      37.175  33.544  29.941  1.00  0.00     0.010 A 
ATOM     66  C   UNL A   1      34.508  33.080  30.642  1.00  0.00     0.020 A 
ATOM     67  C   UNL A   1      36.154  34.182  29.234  1.00  0.00     0.020 A 
ATOM     68  C   UNL A   1      34.825  33.942  29.587  1.00  0.00     0.054 A 
BRANCH  68  69
ATOM     69  S   UNL A   1      33.475  34.789  28.720  1.00  0.00     0.124 S 
ATOM     70  O   UNL A   1      32.501  34.977  29.793  1.00  0.00    -0.237 OA
ATOM     71  O   UNL A   1      34.121  36.007  28.239  1.00  0.00    -0.237 OA
ATOM     72  O   UNL A   1      33.081  33.843  27.680  1.00  0.00    -0.744 OA
ENDBRANCH  68  69
ENDBRANCH  49  63
BRANCH  50  73
ATOM     73  C   UNL A   1      44.664  28.986  36.075  1.00  0.00    -0.014 A 
ATOM     74  C   UNL A   1      45.921  29.587  35.882  1.00  0.00     0.010 A 
ATOM     75  C   UNL A   1      44.565  27.882  36.944  1.00  0.00     0.010 A 
ATOM     76  C   UNL A   1      47.058  29.073  36.513  1.00  0.00     0.020 A 
ATOM     77  C   UNL A   1      45.692  27.387  37.604  1.00  0.00     0.020 A 
ATOM     78  C   UNL A   1      46.936  27.975  37.369  1.00  0.00     0.054 A 
BRANCH  78  79
ATOM     79  S   UNL A   1      48.423  27.334  38.190  1.00  0.00     0.124 S 
ATOM     80  O   UNL A   1      49.487  27.843  37.331  1.00  0.00    -0.237 OA
ATOM     81  O   UNL A   1      48.334  27.941  39.516  1.00  0.00    -0.237 OA
ATOM     82  O   UNL A   1      48.232  25.886  38.162  1.00  0.00    -0.744 OA
ENDBRANCH  78  79
ENDBRANCH  50  73
BRANCH  62  83
ATOM     83  C   UNL A   1      39.778  33.759  37.513  1.00  0.00    -0.014 A 
ATOM     84  C   UNL A   1      38.997  33.327  38.599  1.00  0.00     0.010 A 
ATOM     85  C   UNL A   1      40.403  35.018  37.578  1.00  0.00     0.010 A 
ATOM     86  C   UNL A   1      38.824  34.148  39.717  1.00  0.00     0.020 A 
ATOM     87  C   UNL A   1      40.260  35.829  38.708  1.00  0.00     0.020 A 
ATOM     88  C   UNL A   1      39.460  35.392  39.766  1.00  0.00     0.054 A 
BRANCH  88  89
ATOM     89  S   UNL A   1      39.265  36.412  41.253  1.00  0.00     0.124 S 
ATOM     90  O   UNL A   1      38.756  37.664  40.700  1.00  0.00    -0.237 OA
ATOM     91  O   UNL A   1      38.310  35.641  42.046  1.00  0.00    -0.237 OA
ATOM     92  O   UNL A   1      40.615  36.480  41.808  1.00  0.00    -0.744 OA
ENDBRANCH  88  89
ENDBRANCH  62  83
ENDBRANCH  36  37
ENDBRANCH  29  31
ENDBRANCH  28  29
ENDBRANCH  27  28
ENDBRANCH  26  27
ENDBRANCH  25  26
ENDBRANCH  24  25
ENDBRANCH  23  24
ENDBRANCH  22  23
ENDBRANCH   1  22
TORSDOF 28
ENDMDL
MODEL 2
REMARK VINA RESULT:      -7.0      6.540      9.273
REMARK SMILES C[C@H](CCC(=O)OCCOCCOCCOCCOC(=O)c1ccc(-c2c3nc(c(-c4ccc(S(=O)(=O)[O-])cc4)c4ccc([nH]4)c(-c4ccc(S(=O)(=O)[O-])cc4)c4nc(c(-c5ccc(S(=O)(=O)[O-])cc5)c5ccc2[nH]5)C=C4)C=C3)cc1)NC(=O)OC(C)(C)C
REMARK SMILES IDX 12 1 11 2 10 3 9 4 8 5 7 6 5 7 6 8 4 9 3 10 2 11 1 12 82 13
REMARK SMILES IDX 83 14 84 16 85 17 86 18 87 19 88 20 89 21 13 22 14 23 15 24
REMARK SMILES IDX 16 25 17 26 18 27 19 28 20 29 21 30 22 31 23 32 81 33 24 34
REMARK SMILES IDX 80 35 25 36 26 37 27 38 74 39 28 40 79 41 73 42 75 43 29 44
REMARK SMILES IDX 78 45 72 46 71 47 30 49 60 50 41 51 59 52 42 53 45 54 58 55
REMARK SMILES IDX 76 56 43 57 44 58 57 60 77 61 46 62 31 63 32 64 40 65 33 66
REMARK SMILES IDX 39 67 34 68 35 69 36 70 37 71 38 72 61 73 62 74 70 75 63 76
REMARK SMILES IDX 69 77 64 78 65 79 66 80 67 81 68 82 47 83 48 84 56 85 49 86
REMARK SMILES IDX 55 87 50 88 51 89 52 90 53 91 54 92
REMARK H PARENT 82 15 75 48 45 59
REMARK Flexibility Score: inf
ROOT
ATOM      1  C   UNL A   1      38.675  22.432  26.362  1.00  0.00     0.188 C 
ENDROOT
BRANCH   1   2
ATOM      2  C   UNL A   1      37.695  22.204  25.202  1.00  0.00     0.188 C 
BRANCH   2   3
ATOM      3  O   UNL A   1      36.423  21.714  25.559  1.00  0.00    -0.376 OA
BRANCH   3   4
ATOM      4  C   UNL A   1      35.270  22.537  25.586  1.00  0.00     0.202 C 
BRANCH   4   5
ATOM      5  C   UNL A   1      34.160  22.497  26.648  1.00  0.00     0.261 C 
BRANCH   5   6
ATOM      6  O   UNL A   1      32.984  23.269  26.404  1.00  0.00    -0.463 OA
BRANCH   6   7
ATOM      7  C   UNL A   1      31.937  22.607  25.868  1.00  0.00     0.305 C 
ATOM      8  O   UNL A   1      31.882  21.387  25.745  1.00  0.00    -0.252 OA
BRANCH   7   9
ATOM      9  C   UNL A   1      30.818  23.507  25.395  1.00  0.00     0.125 C 
BRANCH   9  10
ATOM     10  C   UNL A   1      31.020  24.558  24.302  1.00  0.00     0.036 C 
BRANCH  10  11
ATOM     11  C   UNL A   1      30.507  26.018  24.425  1.00  0.00     0.083 C 
ATOM     12  C   UNL A   1      29.123  26.346  23.879  1.00  0.00     0.031 C 
BRANCH  11  13
ATOM     13  N   UNL A   1      30.548  26.419  25.829  1.00  0.00    -0.319 N 
ATOM     14  C   UNL A   1      31.562  27.048  26.494  1.00  0.00     0.407 C 
ATOM     15  H   UNL A   1      29.747  26.208  26.362  1.00  0.00     0.167 HD
ATOM     16  O   UNL A   1      31.394  27.415  27.647  1.00  0.00    -0.225 OA
BRANCH  14  17
ATOM     17  O   UNL A   1      32.700  27.197  25.768  1.00  0.00    -0.444 OA
BRANCH  17  18
ATOM     18  C   UNL A   1      33.155  28.533  25.406  1.00  0.00     0.106 C 
ATOM     19  C   UNL A   1      34.084  29.103  26.487  1.00  0.00     0.056 C 
ATOM     20  C   UNL A   1      33.808  28.559  24.017  1.00  0.00     0.056 C 
ATOM     21  C   UNL A   1      31.894  29.412  25.347  1.00  0.00     0.056 C 
ENDBRANCH  17  18
ENDBRANCH  14  17
ENDBRANCH  11  13
ENDBRANCH  10  11
ENDBRANCH   9  10
ENDBRANCH   7   9
ENDBRANCH   6   7
ENDBRANCH   5   6
ENDBRANCH   4   5
ENDBRANCH   3   4
ENDBRANCH   2   3
ENDBRANCH   1   2
BRANCH   1  22
ATOM     22  O   UNL A   1      40.057  22.210  26.162  1.00  0.00    -0.377 OA
BRANCH  22  23
ATOM     23  C   UNL A   1      40.973  22.465  27.221  1.00  0.00     0.188 C 
BRANCH  23  24
ATOM     24  C   UNL A   1      42.325  21.722  27.336  1.00  0.00     0.188 C 
BRANCH  24  25
ATOM     25  O   UNL A   1      43.443  22.513  27.701  1.00  0.00    -0.376 OA
BRANCH  25  26
ATOM     26  C   UNL A   1      44.055  23.284  26.676  1.00  0.00     0.202 C 
BRANCH  26  27
ATOM     27  C   UNL A   1      45.526  22.970  26.362  1.00  0.00     0.261 C 
BRANCH  27  28
ATOM     28  O   UNL A   1      46.484  23.895  26.900  1.00  0.00    -0.460 OA
BRANCH  28  29
ATOM     29  C   UNL A   1      47.144  24.683  26.021  1.00  0.00     0.338 C 
ATOM     30  O   UNL A   1      47.755  24.337  25.030  1.00  0.00    -0.246 OA
BRANCH  29  31
ATOM     31  C   UNL A   1      46.828  26.081  26.374  1.00  0.00     0.060 A 
ATOM     32  C   UNL A   1      47.099  26.534  27.671  1.00  0.00     0.016 A 
ATOM     33  C   UNL A   1      46.302  26.946  25.413  1.00  0.00     0.016 A 
ATOM     34  C   UNL A   1      46.844  27.863  28.010  1.00  0.00     0.010 A 
ATOM     35  C   UNL A   1      46.021  28.268  25.763  1.00  0.00     0.010 A 
ATOM     36  C   UNL A   1      46.280  28.730  27.065  1.00  0.00    -0.014 A 
BRANCH  36  37
ATOM     37  C   UNL A   1      45.831  30.083  27.469  1.00  0.00     0.031 A 
ATOM     38  C   UNL A   1      46.751  31.247  27.229  1.00  0.00     0.074 A 
ATOM     39  C   UNL A   1      44.632  30.270  28.050  1.00  0.00     0.049 A 
ATOM     40  N   UNL A   1      46.606  32.499  27.576  1.00  0.00    -0.248 NA
ATOM     41  C   UNL A   1      48.002  30.962  26.505  1.00  0.00     0.031 C 
ATOM     42  C   UNL A   1      43.635  29.226  28.295  1.00  0.00     0.029 A 
ATOM     43  N   UNL A   1      44.056  31.408  28.557  1.00  0.00    -0.354 N 
ATOM     44  C   UNL A   1      47.750  33.148  27.128  1.00  0.00     0.074 A 
ATOM     45  C   UNL A   1      48.585  32.152  26.494  1.00  0.00     0.031 C 
ATOM     46  C   UNL A   1      42.580  29.772  28.926  1.00  0.00     0.029 A 
ATOM     47  C   UNL A   1      42.843  31.189  29.167  1.00  0.00     0.049 A 
ATOM     48  H   UNL A   1      44.472  32.299  28.491  1.00  0.00     0.167 HD
ATOM     49  C   UNL A   1      48.075  34.457  27.242  1.00  0.00     0.031 A 
ATOM     50  C   UNL A   1      42.056  32.027  29.873  1.00  0.00     0.031 A 
ATOM     51  C   UNL A   1      47.244  35.441  27.882  1.00  0.00     0.049 A 
ATOM     52  C   UNL A   1      42.486  33.463  30.057  1.00  0.00     0.074 A 
ATOM     53  C   UNL A   1      47.474  36.799  28.014  1.00  0.00     0.029 A 
ATOM     54  N   UNL A   1      46.039  35.176  28.512  1.00  0.00    -0.354 N 
ATOM     55  N   UNL A   1      43.543  34.076  29.578  1.00  0.00    -0.248 NA
ATOM     56  C   UNL A   1      41.618  34.319  30.880  1.00  0.00     0.031 C 
ATOM     57  C   UNL A   1      46.446  37.342  28.789  1.00  0.00     0.029 A 
ATOM     58  C   UNL A   1      45.538  36.335  29.078  1.00  0.00     0.049 A 
ATOM     59  H   UNL A   1      45.605  34.293  28.552  1.00  0.00     0.167 HD
ATOM     60  C   UNL A   1      43.453  35.391  30.025  1.00  0.00     0.074 A 
ATOM     61  C   UNL A   1      42.227  35.493  30.788  1.00  0.00     0.031 C 
ATOM     62  C   UNL A   1      44.313  36.422  29.832  1.00  0.00     0.031 A 
BRANCH  49  63
ATOM     63  C   UNL A   1      49.404  34.907  26.700  1.00  0.00    -0.014 A 
ATOM     64  C   UNL A   1      50.567  34.867  27.486  1.00  0.00     0.010 A 
ATOM     65  C   UNL A   1      49.503  35.283  25.347  1.00  0.00     0.010 A 
ATOM     66  C   UNL A   1      51.806  35.201  26.931  1.00  0.00     0.020 A 
ATOM     67  C   UNL A   1      50.743  35.592  24.782  1.00  0.00     0.020 A 
ATOM     68  C   UNL A   1      51.886  35.553  25.580  1.00  0.00     0.054 A 
BRANCH  68  69
ATOM     69  S   UNL A   1      53.518  35.905  24.869  1.00  0.00     0.124 S 
ATOM     70  O   UNL A   1      53.196  36.096  23.457  1.00  0.00    -0.237 OA
ATOM     71  O   UNL A   1      53.925  37.109  25.588  1.00  0.00    -0.237 OA
ATOM     72  O   UNL A   1      54.296  34.707  25.174  1.00  0.00    -0.744 OA
ENDBRANCH  68  69
ENDBRANCH  49  63
BRANCH  50  73
ATOM     73  C   UNL A   1      40.808  31.528  30.521  1.00  0.00    -0.014 A 
ATOM     74  C   UNL A   1      40.822  31.044  31.842  1.00  0.00     0.010 A 
ATOM     75  C   UNL A   1      39.604  31.484  29.793  1.00  0.00     0.010 A 
ATOM     76  C   UNL A   1      39.667  30.495  32.408  1.00  0.00     0.020 A 
ATOM     77  C   UNL A   1      38.439  30.968  30.368  1.00  0.00     0.020 A 
ATOM     78  C   UNL A   1      38.483  30.459  31.666  1.00  0.00     0.054 A 
BRANCH  78  79
ATOM     79  S   UNL A   1      36.993  29.756  32.427  1.00  0.00     0.124 S 
ATOM     80  O   UNL A   1      36.481  30.888  33.193  1.00  0.00    -0.237 OA
ATOM     81  O   UNL A   1      36.200  29.368  31.262  1.00  0.00    -0.237 OA
ATOM     82  O   UNL A   1      37.506  28.642  33.220  1.00  0.00    -0.744 OA
ENDBRANCH  78  79
ENDBRANCH  50  73
BRANCH  62  83
ATOM     83  C   UNL A   1      43.955  37.758  30.432  1.00  0.00    -0.014 A 
ATOM     84  C   UNL A   1      44.268  38.060  31.769  1.00  0.00     0.010 A 
ATOM     85  C   UNL A   1      43.364  38.749  29.626  1.00  0.00     0.010 A 
ATOM     86  C   UNL A   1      43.972  39.320  32.296  1.00  0.00     0.020 A 
ATOM     87  C   UNL A   1      43.096  40.020  30.140  1.00  0.00     0.020 A 
ATOM     88  C   UNL A   1      43.392  40.294  31.477  1.00  0.00     0.054 A 
BRANCH  88  89
ATOM     89  S   UNL A   1      43.072  41.938  32.172  1.00  0.00     0.124 S 
ATOM     90  O   UNL A   1      41.936  41.681  33.053  1.00  0.00    -0.237 OA
ATOM     91  O   UNL A   1      44.330  42.251  32.845  1.00  0.00    -0.237 OA
ATOM     92  O   UNL A   1      42.777  42.760  31.000  1.00  0.00    -0.744 OA
ENDBRANCH  88  89
ENDBRANCH  62  83
ENDBRANCH  36  37
ENDBRANCH  29  31
ENDBRANCH  28  29
ENDBRANCH  27  28
ENDBRANCH  26  27
ENDBRANCH  25  26
ENDBRANCH  24  25
ENDBRANCH  23  24
ENDBRANCH  22  23
ENDBRANCH   1  22
TORSDOF 28
ENDMDL
MODEL 3
REMARK VINA RESULT:      -7.0      3.682     10.098
REMARK SMILES C[C@H](CCC(=O)OCCOCCOCCOCCOC(=O)c1ccc(-c2c3nc(c(-c4ccc(S(=O)(=O)[O-])cc4)c4ccc([nH]4)c(-c4ccc(S(=O)(=O)[O-])cc4)c4nc(c(-c5ccc(S(=O)(=O)[O-])cc5)c5ccc2[nH]5)C=C4)C=C3)cc1)NC(=O)OC(C)(C)C
REMARK SMILES IDX 12 1 11 2 10 3 9 4 8 5 7 6 5 7 6 8 4 9 3 10 2 11 1 12 82 13
REMARK SMILES IDX 83 14 84 16 85 17 86 18 87 19 88 20 89 21 13 22 14 23 15 24
REMARK SMILES IDX 16 25 17 26 18 27 19 28 20 29 21 30 22 31 23 32 81 33 24 34
REMARK SMILES IDX 80 35 25 36 26 37 27 38 74 39 28 40 79 41 73 42 75 43 29 44
REMARK SMILES IDX 78 45 72 46 71 47 30 49 60 50 41 51 59 52 42 53 45 54 58 55
REMARK SMILES IDX 76 56 43 57 44 58 57 60 77 61 46 62 31 63 32 64 40 65 33 66
REMARK SMILES IDX 39 67 34 68 35 69 36 70 37 71 38 72 61 73 62 74 70 75 63 76
REMARK SMILES IDX 69 77 64 78 65 79 66 80 67 81 68 82 47 83 48 84 56 85 49 86
REMARK SMILES IDX 55 87 50 88 51 89 52 90 53 91 54 92
REMARK H PARENT 82 15 75 48 45 59
REMARK Flexibility Score: inf
ROOT
ATOM      1  C   UNL A   1      34.188  32.264  28.140  1.00  0.00     0.188 C 
ENDROOT
BRANCH   1   2
ATOM      2  C   UNL A   1      33.767  30.876  27.634  1.00  0.00     0.188 C 
BRANCH   2   3
ATOM      3  O   UNL A   1      32.765  30.860  26.644  1.00  0.00    -0.376 OA
BRANCH   3   4
ATOM      4  C   UNL A   1      32.841  30.030  25.498  1.00  0.00     0.202 C 
BRANCH   4   5
ATOM      5  C   UNL A   1      31.943  28.818  25.204  1.00  0.00     0.261 C 
BRANCH   5   6
ATOM      6  O   UNL A   1      31.674  28.512  23.835  1.00  0.00    -0.463 OA
BRANCH   6   7
ATOM      7  C   UNL A   1      31.043  27.343  23.599  1.00  0.00     0.305 C 
ATOM      8  O   UNL A   1      30.693  26.959  22.487  1.00  0.00    -0.252 OA
BRANCH   7   9
ATOM      9  C   UNL A   1      30.768  26.531  24.846  1.00  0.00     0.125 C 
BRANCH   9  10
ATOM     10  C   UNL A   1      31.688  25.397  25.302  1.00  0.00     0.036 C 
BRANCH  10  11
ATOM     11  C   UNL A   1      31.893  24.092  24.488  1.00  0.00     0.083 C 
ATOM     12  C   UNL A   1      30.787  23.651  23.537  1.00  0.00     0.031 C 
BRANCH  11  13
ATOM     13  N   UNL A   1      33.133  24.201  23.722  1.00  0.00    -0.319 N 
ATOM     14  C   UNL A   1      34.130  23.276  23.601  1.00  0.00     0.407 C 
ATOM     15  H   UNL A   1      33.265  25.047  23.234  1.00  0.00     0.167 HD
ATOM     16  O   UNL A   1      35.055  23.480  22.829  1.00  0.00    -0.225 OA
BRANCH  14  17
ATOM     17  O   UNL A   1      33.981  22.184  24.395  1.00  0.00    -0.444 OA
BRANCH  17  18
ATOM     18  C   UNL A   1      34.720  22.098  25.647  1.00  0.00     0.106 C 
ATOM     19  C   UNL A   1      35.344  23.452  26.005  1.00  0.00     0.056 C 
ATOM     20  C   UNL A   1      33.851  21.548  26.788  1.00  0.00     0.056 C 
ATOM     21  C   UNL A   1      35.860  21.094  25.402  1.00  0.00     0.056 C 
ENDBRANCH  17  18
ENDBRANCH  14  17
ENDBRANCH  11  13
ENDBRANCH  10  11
ENDBRANCH   9  10
ENDBRANCH   7   9
ENDBRANCH   6   7
ENDBRANCH   5   6
ENDBRANCH   4   5
ENDBRANCH   3   4
ENDBRANCH   2   3
ENDBRANCH   1   2
BRANCH   1  22
ATOM     22  O   UNL A   1      35.559  32.544  28.348  1.00  0.00    -0.377 OA
BRANCH  22  23
ATOM     23  C   UNL A   1      36.069  32.617  29.675  1.00  0.00     0.188 C 
BRANCH  23  24
ATOM     24  C   UNL A   1      35.199  32.284  30.910  1.00  0.00     0.188 C 
BRANCH  24  25
ATOM     25  O   UNL A   1      35.695  32.730  32.161  1.00  0.00    -0.376 OA
BRANCH  25  26
ATOM     26  C   UNL A   1      36.139  34.078  32.240  1.00  0.00     0.202 C 
BRANCH  26  27
ATOM     27  C   UNL A   1      37.581  34.301  32.724  1.00  0.00     0.261 C 
BRANCH  27  28
ATOM     28  O   UNL A   1      37.722  34.609  34.120  1.00  0.00    -0.460 OA
BRANCH  28  29
ATOM     29  C   UNL A   1      37.565  33.591  34.997  1.00  0.00     0.338 C 
ATOM     30  O   UNL A   1      36.550  33.267  35.580  1.00  0.00    -0.246 OA
BRANCH  29  31
ATOM     31  C   UNL A   1      38.816  32.809  34.978  1.00  0.00     0.060 A 
ATOM     32  C   UNL A   1      40.014  33.449  34.637  1.00  0.00     0.016 A 
ATOM     33  C   UNL A   1      38.805  31.459  35.333  1.00  0.00     0.016 A 
ATOM     34  C   UNL A   1      41.212  32.735  34.654  1.00  0.00     0.010 A 
ATOM     35  C   UNL A   1      40.002  30.740  35.321  1.00  0.00     0.010 A 
ATOM     36  C   UNL A   1      41.208  31.370  34.970  1.00  0.00    -0.014 A 
BRANCH  36  37
ATOM     37  C   UNL A   1      42.440  30.563  34.806  1.00  0.00     0.031 A 
ATOM     38  C   UNL A   1      42.687  29.889  33.485  1.00  0.00     0.074 A 
ATOM     39  C   UNL A   1      43.314  30.420  35.819  1.00  0.00     0.049 A 
ATOM     40  N   UNL A   1      43.647  29.070  33.144  1.00  0.00    -0.248 NA
ATOM     41  C   UNL A   1      41.726  30.175  32.407  1.00  0.00     0.031 C 
ATOM     42  C   UNL A   1      43.205  31.059  37.131  1.00  0.00     0.029 A 
ATOM     43  N   UNL A   1      44.463  29.674  35.905  1.00  0.00    -0.354 N 
ATOM     44  C   UNL A   1      43.397  28.730  31.820  1.00  0.00     0.074 A 
ATOM     45  C   UNL A   1      42.192  29.423  31.421  1.00  0.00     0.031 C 
ATOM     46  C   UNL A   1      44.235  30.659  37.898  1.00  0.00     0.029 A 
ATOM     47  C   UNL A   1      45.051  29.705  37.148  1.00  0.00     0.049 A 
ATOM     48  H   UNL A   1      44.833  29.165  35.147  1.00  0.00     0.167 HD
ATOM     49  C   UNL A   1      44.109  27.909  31.013  1.00  0.00     0.031 A 
ATOM     50  C   UNL A   1      46.100  29.012  37.636  1.00  0.00     0.031 A 
ATOM     51  C   UNL A   1      45.302  27.216  31.417  1.00  0.00     0.049 A 
ATOM     52  C   UNL A   1      46.823  28.037  36.737  1.00  0.00     0.074 A 
ATOM     53  C   UNL A   1      46.112  26.390  30.657  1.00  0.00     0.029 A 
ATOM     54  N   UNL A   1      45.848  27.249  32.690  1.00  0.00    -0.354 N 
ATOM     55  N   UNL A   1      46.610  27.770  35.470  1.00  0.00    -0.248 NA
ATOM     56  C   UNL A   1      47.925  27.270  37.335  1.00  0.00     0.031 C 
ATOM     57  C   UNL A   1      47.102  25.864  31.490  1.00  0.00     0.029 A 
ATOM     58  C   UNL A   1      46.954  26.419  32.751  1.00  0.00     0.049 A 
ATOM     59  H   UNL A   1      45.499  27.783  33.441  1.00  0.00     0.167 HD
ATOM     60  C   UNL A   1      47.565  26.820  35.117  1.00  0.00     0.074 A 
ATOM     61  C   UNL A   1      48.373  26.581  36.294  1.00  0.00     0.031 C 
ATOM     62  C   UNL A   1      47.751  26.193  33.929  1.00  0.00     0.031 A 
BRANCH  49  63
ATOM     63  C   UNL A   1      43.602  27.675  29.616  1.00  0.00    -0.014 A 
ATOM     64  C   UNL A   1      43.895  28.567  28.571  1.00  0.00     0.010 A 
ATOM     65  C   UNL A   1      42.903  26.488  29.328  1.00  0.00     0.010 A 
ATOM     66  C   UNL A   1      43.494  28.279  27.264  1.00  0.00     0.020 A 
ATOM     67  C   UNL A   1      42.522  26.184  28.019  1.00  0.00     0.020 A 
ATOM     68  C   UNL A   1      42.816  27.085  26.995  1.00  0.00     0.054 A 
BRANCH  68  69
ATOM     69  S   UNL A   1      42.377  26.702  25.277  1.00  0.00     0.124 S 
ATOM     70  O   UNL A   1      42.551  27.998  24.626  1.00  0.00    -0.237 OA
ATOM     71  O   UNL A   1      43.360  25.683  24.918  1.00  0.00    -0.237 OA
ATOM     72  O   UNL A   1      40.998  26.230  25.366  1.00  0.00    -0.744 OA
ENDBRANCH  68  69
ENDBRANCH  49  63
BRANCH  50  73
ATOM     73  C   UNL A   1      46.502  29.155  39.066  1.00  0.00    -0.014 A 
ATOM     74  C   UNL A   1      45.893  28.382  40.071  1.00  0.00     0.010 A 
ATOM     75  C   UNL A   1      47.467  30.112  39.435  1.00  0.00     0.010 A 
ATOM     76  C   UNL A   1      46.213  28.589  41.416  1.00  0.00     0.020 A 
ATOM     77  C   UNL A   1      47.816  30.296  40.775  1.00  0.00     0.020 A 
ATOM     78  C   UNL A   1      47.171  29.546  41.760  1.00  0.00     0.054 A 
BRANCH  78  79
ATOM     79  S   UNL A   1      47.583  29.786  43.511  1.00  0.00     0.124 S 
ATOM     80  O   UNL A   1      48.797  30.591  43.430  1.00  0.00    -0.237 OA
ATOM     81  O   UNL A   1      46.399  30.475  44.020  1.00  0.00    -0.237 OA
ATOM     82  O   UNL A   1      47.764  28.425  44.009  1.00  0.00    -0.744 OA
ENDBRANCH  78  79
ENDBRANCH  50  73
BRANCH  62  83
ATOM     83  C   UNL A   1      48.883  25.203  33.827  1.00  0.00    -0.014 A 
ATOM     84  C   UNL A   1      48.676  23.835  34.082  1.00  0.00     0.010 A 
ATOM     85  C   UNL A   1      50.153  25.636  33.401  1.00  0.00     0.010 A 
ATOM     86  C   UNL A   1      49.725  22.924  33.937  1.00  0.00     0.020 A 
ATOM     87  C   UNL A   1      51.195  24.722  33.223  1.00  0.00     0.020 A 
ATOM     88  C   UNL A   1      50.977  23.372  33.504  1.00  0.00     0.054 A 
BRANCH  88  89
ATOM     89  S   UNL A   1      52.304  22.158  33.269  1.00  0.00     0.124 S 
ATOM     90  O   UNL A   1      53.421  23.002  32.855  1.00  0.00    -0.237 OA
ATOM     91  O   UNL A   1      52.426  21.558  34.595  1.00  0.00    -0.237 OA
ATOM     92  O   UNL A   1      51.781  21.267  32.235  1.00  0.00    -0.744 OA
ENDBRANCH  88  89
ENDBRANCH  62  83
ENDBRANCH  36  37
ENDBRANCH  29  31
ENDBRANCH  28  29
ENDBRANCH  27  28
ENDBRANCH  26  27
ENDBRANCH  25  26
ENDBRANCH  24  25
ENDBRANCH  23  24
ENDBRANCH  22  23
ENDBRANCH   1  22
TORSDOF 28
ENDMDL
