MODEL 1
REMARK VINA RESULT:     -10.4      0.000      0.000
REMARK SMILES O=C(OCCOCCOCCOCCOC(=O)[C@H]1CCCCN1c1cc(-c2ccccc2)nc(-c2cccc(Cl)c2)n1)c1ccc(-c2c3nc(c(-c4ccc(S(=O)(=O)[O-])cc4)c4ccc([nH]4)c(-c4ccc(S(=O)(=O)[O-])cc4)c4nc(c(-c5ccc(S(=O)(=O)[O-])cc5)c5ccc2[nH]5)C=C4)C=C3)cc1
REMARK SMILES IDX 8 1 7 2 6 3 5 4 4 5 3 6 2 7 1 8 43 9 44 10 102 11 45 12
REMARK SMILES IDX 101 13 46 14 47 15 48 16 95 17 49 18 100 19 94 20 96 21
REMARK SMILES IDX 50 22 99 23 93 24 92 25 51 27 81 28 62 29 80 30 63 31 66 32
REMARK SMILES IDX 79 33 97 34 64 35 65 36 78 38 98 39 67 40 52 41 53 42 61 43
REMARK SMILES IDX 54 44 60 45 55 46 56 47 57 48 58 49 59 50 82 51 83 52 91 53
REMARK SMILES IDX 84 54 90 55 85 56 86 57 87 58 88 59 89 60 68 61 69 62 77 63
REMARK SMILES IDX 70 64 76 65 71 66 72 67 73 68 74 69 75 70 9 71 10 72 11 73
REMARK SMILES IDX 12 74 13 75 14 76 15 77 16 78 17 79 18 80 19 81 23 82 20 83
REMARK SMILES IDX 22 84 21 85 24 86 25 87 42 88 26 89 34 90 33 91 27 92 28 93
REMARK SMILES IDX 32 94 29 95 31 96 30 97 35 98 36 99 41 100 37 101 39 102
REMARK SMILES IDX 38 103 40 104
REMARK H PARENT 96 26 66 37
REMARK Flexibility Score: inf
ROOT
ATOM      1  C   UNL A   1      33.979  29.714  26.285  1.00  0.00     0.188 C 
ENDROOT
BRANCH   1   2
ATOM      2  C   UNL A   1      33.356  30.532  27.424  1.00  0.00     0.188 C 
BRANCH   2   3
ATOM      3  O   UNL A   1      34.174  31.652  27.740  1.00  0.00    -0.376 OA
BRANCH   3   4
ATOM      4  C   UNL A   1      35.587  31.507  27.798  1.00  0.00     0.202 C 
BRANCH   4   5
ATOM      5  C   UNL A   1      36.132  30.860  29.061  1.00  0.00     0.261 C 
BRANCH   5   6
ATOM      6  O   UNL A   1      36.763  29.590  28.849  1.00  0.00    -0.460 OA
BRANCH   6   7
ATOM      7  C   UNL A   1      37.752  28.994  29.554  1.00  0.00     0.338 C 
ATOM      8  O   UNL A   1      37.462  28.485  30.637  1.00  0.00    -0.246 OA
BRANCH   7   9
ATOM      9  C   UNL A   1      39.169  28.887  29.104  1.00  0.00     0.060 A 
ATOM     10  C   UNL A   1      40.242  28.462  29.883  1.00  0.00     0.016 A 
ATOM     11  C   UNL A   1      39.407  29.113  27.739  1.00  0.00     0.016 A 
ATOM     12  C   UNL A   1      41.520  28.335  29.377  1.00  0.00     0.010 A 
ATOM     13  C   UNL A   1      40.684  28.947  27.200  1.00  0.00     0.010 A 
ATOM     14  C   UNL A   1      41.745  28.578  28.034  1.00  0.00    -0.014 A 
BRANCH  14  15
ATOM     15  C   UNL A   1      43.141  28.606  27.590  1.00  0.00     0.031 A 
ATOM     16  C   UNL A   1      43.668  27.369  26.938  1.00  0.00     0.074 A 
ATOM     17  C   UNL A   1      43.838  29.754  27.643  1.00  0.00     0.049 A 
ATOM     18  N   UNL A   1      44.883  27.087  26.572  1.00  0.00    -0.248 NA
ATOM     19  C   UNL A   1      42.684  26.306  26.649  1.00  0.00     0.031 C 
ATOM     20  C   UNL A   1      43.310  31.047  28.095  1.00  0.00     0.029 A 
ATOM     21  N   UNL A   1      45.129  30.028  27.291  1.00  0.00    -0.354 N 
ATOM     22  C   UNL A   1      44.825  25.793  26.076  1.00  0.00     0.074 A 
ATOM     23  C   UNL A   1      43.455  25.349  26.159  1.00  0.00     0.031 C 
ATOM     24  C   UNL A   1      44.276  31.975  27.994  1.00  0.00     0.029 A 
ATOM     25  C   UNL A   1      45.505  31.322  27.563  1.00  0.00     0.049 A 
ATOM     26  H   UNL A   1      45.732  29.364  26.884  1.00  0.00     0.167 HD
ATOM     27  C   UNL A   1      45.852  25.042  25.621  1.00  0.00     0.031 A 
ATOM     28  C   UNL A   1      46.728  31.881  27.532  1.00  0.00     0.031 A 
ATOM     29  C   UNL A   1      47.196  25.540  25.564  1.00  0.00     0.049 A 
ATOM     30  C   UNL A   1      47.875  30.990  27.135  1.00  0.00     0.074 A 
ATOM     31  C   UNL A   1      48.346  24.884  25.176  1.00  0.00     0.029 A 
ATOM     32  N   UNL A   1      47.563  26.833  25.918  1.00  0.00    -0.354 N 
ATOM     33  N   UNL A   1      47.839  29.741  26.728  1.00  0.00    -0.248 NA
ATOM     34  C   UNL A   1      49.222  31.564  27.212  1.00  0.00     0.031 C 
ATOM     35  C   UNL A   1      49.418  25.762  25.361  1.00  0.00     0.029 A 
ATOM     36  C   UNL A   1      48.928  26.987  25.794  1.00  0.00     0.049 A 
ATOM     37  H   UNL A   1      46.940  27.536  26.214  1.00  0.00     0.167 HD
ATOM     38  C   UNL A   1      49.157  29.380  26.489  1.00  0.00     0.074 A 
ATOM     39  C   UNL A   1      49.962  30.555  26.773  1.00  0.00     0.031 C 
ATOM     40  C   UNL A   1      49.668  28.191  26.082  1.00  0.00     0.031 A 
BRANCH  27  41
ATOM     41  C   UNL A   1      45.565  23.609  25.280  1.00  0.00    -0.014 A 
ATOM     42  C   UNL A   1      45.195  23.206  23.985  1.00  0.00     0.010 A 
ATOM     43  C   UNL A   1      45.654  22.642  26.300  1.00  0.00     0.010 A 
ATOM     44  C   UNL A   1      44.896  21.866  23.723  1.00  0.00     0.020 A 
ATOM     45  C   UNL A   1      45.382  21.298  26.035  1.00  0.00     0.020 A 
ATOM     46  C   UNL A   1      44.994  20.920  24.749  1.00  0.00     0.054 A 
BRANCH  46  47
ATOM     47  S   UNL A   1      44.638  19.182  24.371  1.00  0.00     0.124 S 
ATOM     48  O   UNL A   1      43.213  19.092  24.679  1.00  0.00    -0.237 OA
ATOM     49  O   UNL A   1      44.982  19.089  22.955  1.00  0.00    -0.237 OA
ATOM     50  O   UNL A   1      45.517  18.443  25.274  1.00  0.00    -0.744 OA
ENDBRANCH  46  47
ENDBRANCH  27  41
BRANCH  28  51
ATOM     51  C   UNL A   1      46.938  33.283  27.992  1.00  0.00    -0.014 A 
ATOM     52  C   UNL A   1      47.185  33.580  29.343  1.00  0.00     0.010 A 
ATOM     53  C   UNL A   1      46.876  34.347  27.069  1.00  0.00     0.010 A 
ATOM     54  C   UNL A   1      47.333  34.906  29.765  1.00  0.00     0.020 A 
ATOM     55  C   UNL A   1      47.059  35.670  27.478  1.00  0.00     0.020 A 
ATOM     56  C   UNL A   1      47.267  35.944  28.829  1.00  0.00     0.054 A 
BRANCH  56  57
ATOM     57  S   UNL A   1      47.473  37.655  29.396  1.00  0.00     0.124 S 
ATOM     58  O   UNL A   1      48.342  38.214  28.365  1.00  0.00    -0.237 OA
ATOM     59  O   UNL A   1      46.100  38.151  29.406  1.00  0.00    -0.237 OA
ATOM     60  O   UNL A   1      48.083  37.508  30.716  1.00  0.00    -0.744 OA
ENDBRANCH  56  57
ENDBRANCH  28  51
BRANCH  40  61
ATOM     61  C   UNL A   1      51.154  28.121  25.890  1.00  0.00    -0.014 A 
ATOM     62  C   UNL A   1      51.984  27.555  26.873  1.00  0.00     0.010 A 
ATOM     63  C   UNL A   1      51.705  28.532  24.662  1.00  0.00     0.010 A 
ATOM     64  C   UNL A   1      53.349  27.412  26.632  1.00  0.00     0.020 A 
ATOM     65  C   UNL A   1      53.064  28.358  24.408  1.00  0.00     0.020 A 
ATOM     66  C   UNL A   1      53.878  27.804  25.398  1.00  0.00     0.054 A 
BRANCH  66  67
ATOM     67  S   UNL A   1      55.638  27.523  25.079  1.00  0.00     0.124 S 
ATOM     68  O   UNL A   1      56.059  28.815  24.543  1.00  0.00    -0.237 OA
ATOM     69  O   UNL A   1      56.154  27.195  26.406  1.00  0.00    -0.237 OA
ATOM     70  O   UNL A   1      55.646  26.419  24.123  1.00  0.00    -0.744 OA
ENDBRANCH  66  67
ENDBRANCH  40  61
ENDBRANCH  14  15
ENDBRANCH   7   9
ENDBRANCH   6   7
ENDBRANCH   5   6
ENDBRANCH   4   5
ENDBRANCH   3   4
ENDBRANCH   2   3
ENDBRANCH   1   2
BRANCH   1  71
ATOM     71  O   UNL A   1      33.263  29.738  25.047  1.00  0.00    -0.377 OA
BRANCH  71  72
ATOM     72  C   UNL A   1      31.903  30.150  25.136  1.00  0.00     0.188 C 
BRANCH  72  73
ATOM     73  C   UNL A   1      30.843  29.402  24.277  1.00  0.00     0.188 C 
BRANCH  73  74
ATOM     74  O   UNL A   1      30.683  28.033  24.622  1.00  0.00    -0.376 OA
BRANCH  74  75
ATOM     75  C   UNL A   1      30.985  27.639  25.957  1.00  0.00     0.202 C 
BRANCH  75  76
ATOM     76  C   UNL A   1      30.413  26.309  26.481  1.00  0.00     0.261 C 
BRANCH  76  77
ATOM     77  O   UNL A   1      31.300  25.187  26.387  1.00  0.00    -0.462 OA
BRANCH  77  78
ATOM     78  C   UNL A   1      30.770  23.940  26.342  1.00  0.00     0.328 C 
ATOM     79  O   UNL A   1      29.822  23.567  27.038  1.00  0.00    -0.250 OA
BRANCH  78  80
ATOM     80  C   UNL A   1      31.397  23.142  25.174  1.00  0.00     0.193 C 
ATOM     81  C   UNL A   1      30.623  23.287  23.864  1.00  0.00     0.037 C 
ATOM     82  N   UNL A   1      32.787  23.501  24.933  1.00  0.00    -0.343 N 
ATOM     83  C   UNL A   1      30.735  24.722  23.358  1.00  0.00     0.005 C 
ATOM     84  C   UNL A   1      33.071  24.840  24.471  1.00  0.00     0.119 C 
ATOM     85  C   UNL A   1      32.200  25.167  23.248  1.00  0.00     0.022 C 
BRANCH  82  86
ATOM     86  C   UNL A   1      33.731  22.515  25.079  1.00  0.00     0.134 A 
ATOM     87  C   UNL A   1      33.393  21.198  24.855  1.00  0.00     0.076 A 
ATOM     88  N   UNL A   1      35.000  22.877  25.338  1.00  0.00    -0.211 NA
ATOM     89  C   UNL A   1      34.405  20.262  24.940  1.00  0.00     0.076 A 
ATOM     90  C   UNL A   1      35.929  21.900  25.390  1.00  0.00     0.162 A 
ATOM     91  N   UNL A   1      35.685  20.595  25.198  1.00  0.00    -0.228 NA
BRANCH  89  92
ATOM     92  C   UNL A   1      34.129  18.827  24.857  1.00  0.00     0.000 A 
ATOM     93  C   UNL A   1      35.150  17.948  24.456  1.00  0.00     0.010 A 
ATOM     94  C   UNL A   1      32.879  18.287  25.197  1.00  0.00     0.010 A 
ATOM     95  C   UNL A   1      34.939  16.569  24.420  1.00  0.00     0.001 A 
ATOM     96  C   UNL A   1      32.666  16.905  25.153  1.00  0.00     0.001 A 
ATOM     97  C   UNL A   1      33.697  16.048  24.772  1.00  0.00     0.000 A 
ENDBRANCH  89  92
BRANCH  90  98
ATOM     98  C   UNL A   1      37.305  22.279  25.756  1.00  0.00     0.021 A 
ATOM     99  C   UNL A   1      37.614  23.605  26.109  1.00  0.00     0.012 A 
ATOM    100  C   UNL A   1      38.348  21.332  25.796  1.00  0.00     0.032 A 
ATOM    101  C   UNL A   1      38.904  23.976  26.500  1.00  0.00     0.002 A 
ATOM    102  C   UNL A   1      39.640  21.709  26.170  1.00  0.00     0.041 A 
ATOM    103  C   UNL A   1      39.922  23.026  26.527  1.00  0.00     0.020 A 
ATOM    104  Cl  UNL A   1      40.906  20.541  26.190  1.00  0.00    -0.084 Cl
ENDBRANCH  90  98
ENDBRANCH  82  86
ENDBRANCH  78  80
ENDBRANCH  77  78
ENDBRANCH  76  77
ENDBRANCH  75  76
ENDBRANCH  74  75
ENDBRANCH  73  74
ENDBRANCH  72  73
ENDBRANCH  71  72
ENDBRANCH   1  71
TORSDOF 26
ENDMDL
MODEL 2
REMARK VINA RESULT:      -9.8      8.704     13.169
REMARK SMILES O=C(OCCOCCOCCOCCOC(=O)[C@H]1CCCCN1c1cc(-c2ccccc2)nc(-c2cccc(Cl)c2)n1)c1ccc(-c2c3nc(c(-c4ccc(S(=O)(=O)[O-])cc4)c4ccc([nH]4)c(-c4ccc(S(=O)(=O)[O-])cc4)c4nc(c(-c5ccc(S(=O)(=O)[O-])cc5)c5ccc2[nH]5)C=C4)C=C3)cc1
REMARK SMILES IDX 8 1 7 2 6 3 5 4 4 5 3 6 2 7 1 8 43 9 44 10 102 11 45 12
REMARK SMILES IDX 101 13 46 14 47 15 48 16 95 17 49 18 100 19 94 20 96 21
REMARK SMILES IDX 50 22 99 23 93 24 92 25 51 27 81 28 62 29 80 30 63 31 66 32
REMARK SMILES IDX 79 33 97 34 64 35 65 36 78 38 98 39 67 40 52 41 53 42 61 43
REMARK SMILES IDX 54 44 60 45 55 46 56 47 57 48 58 49 59 50 82 51 83 52 91 53
REMARK SMILES IDX 84 54 90 55 85 56 86 57 87 58 88 59 89 60 68 61 69 62 77 63
REMARK SMILES IDX 70 64 76 65 71 66 72 67 73 68 74 69 75 70 9 71 10 72 11 73
REMARK SMILES IDX 12 74 13 75 14 76 15 77 16 78 17 79 18 80 19 81 23 82 20 83
REMARK SMILES IDX 22 84 21 85 24 86 25 87 42 88 26 89 34 90 33 91 27 92 28 93
REMARK SMILES IDX 32 94 29 95 31 96 30 97 35 98 36 99 41 100 37 101 39 102
REMARK SMILES IDX 38 103 40 104
REMARK H PARENT 96 26 66 37
REMARK Flexibility Score: inf
ROOT
ATOM      1  C   UNL A   1      33.853  31.601  27.758  1.00  0.00     0.188 C 
ENDROOT
BRANCH   1   2
ATOM      2  C   UNL A   1      34.641  32.879  28.078  1.00  0.00     0.188 C 
BRANCH   2   3
ATOM      3  O   UNL A   1      36.040  32.645  27.966  1.00  0.00    -0.376 OA
BRANCH   3   4
ATOM      4  C   UNL A   1      36.840  32.543  29.137  1.00  0.00     0.202 C 
BRANCH   4   5
ATOM      5  C   UNL A   1      36.825  31.190  29.830  1.00  0.00     0.261 C 
BRANCH   5   6
ATOM      6  O   UNL A   1      35.846  31.070  30.870  1.00  0.00    -0.460 OA
BRANCH   6   7
ATOM      7  C   UNL A   1      35.432  31.991  31.770  1.00  0.00     0.338 C 
ATOM      8  O   UNL A   1      34.262  32.372  31.709  1.00  0.00    -0.246 OA
BRANCH   7   9
ATOM      9  C   UNL A   1      36.284  32.564  32.851  1.00  0.00     0.060 A 
ATOM     10  C   UNL A   1      36.082  33.787  33.487  1.00  0.00     0.016 A 
ATOM     11  C   UNL A   1      37.298  31.733  33.350  1.00  0.00     0.016 A 
ATOM     12  C   UNL A   1      36.883  34.225  34.521  1.00  0.00     0.010 A 
ATOM     13  C   UNL A   1      38.091  32.141  34.424  1.00  0.00     0.010 A 
ATOM     14  C   UNL A   1      37.892  33.403  34.992  1.00  0.00    -0.014 A 
BRANCH  14  15
ATOM     15  C   UNL A   1      38.823  33.985  35.962  1.00  0.00     0.031 A 
ATOM     16  C   UNL A   1      38.584  33.671  37.402  1.00  0.00     0.074 A 
ATOM     17  C   UNL A   1      39.916  34.640  35.532  1.00  0.00     0.049 A 
ATOM     18  N   UNL A   1      39.174  34.150  38.457  1.00  0.00    -0.248 NA
ATOM     19  C   UNL A   1      37.542  32.666  37.694  1.00  0.00     0.031 C 
ATOM     20  C   UNL A   1      40.302  34.814  34.126  1.00  0.00     0.029 A 
ATOM     21  N   UNL A   1      40.915  35.258  36.228  1.00  0.00    -0.354 N 
ATOM     22  C   UNL A   1      38.530  33.562  39.536  1.00  0.00     0.074 A 
ATOM     23  C   UNL A   1      37.523  32.669  39.017  1.00  0.00     0.031 C 
ATOM     24  C   UNL A   1      41.457  35.497  34.069  1.00  0.00     0.029 A 
ATOM     25  C   UNL A   1      41.834  35.886  35.421  1.00  0.00     0.049 A 
ATOM     26  H   UNL A   1      40.972  35.254  37.211  1.00  0.00     0.167 HD
ATOM     27  C   UNL A   1      38.756  33.788  40.848  1.00  0.00     0.031 A 
ATOM     28  C   UNL A   1      42.821  36.738  35.753  1.00  0.00     0.031 A 
ATOM     29  C   UNL A   1      39.773  34.690  41.305  1.00  0.00     0.049 A 
ATOM     30  C   UNL A   1      42.977  37.065  37.215  1.00  0.00     0.074 A 
ATOM     31  C   UNL A   1      40.087  35.059  42.597  1.00  0.00     0.029 A 
ATOM     32  N   UNL A   1      40.642  35.374  40.462  1.00  0.00    -0.354 N 
ATOM     33  N   UNL A   1      42.326  36.564  38.241  1.00  0.00    -0.248 NA
ATOM     34  C   UNL A   1      43.974  38.080  37.566  1.00  0.00     0.031 C 
ATOM     35  C   UNL A   1      41.102  36.018  42.529  1.00  0.00     0.029 A 
ATOM     36  C   UNL A   1      41.470  36.193  41.202  1.00  0.00     0.049 A 
ATOM     37  H   UNL A   1      40.664  35.287  39.482  1.00  0.00     0.167 HD
ATOM     38  C   UNL A   1      42.841  37.194  39.363  1.00  0.00     0.074 A 
ATOM     39  C   UNL A   1      43.877  38.094  38.889  1.00  0.00     0.031 C 
ATOM     40  C   UNL A   1      42.493  37.058  40.667  1.00  0.00     0.031 A 
BRANCH  27  41
ATOM     41  C   UNL A   1      37.822  33.146  41.833  1.00  0.00    -0.014 A 
ATOM     42  C   UNL A   1      36.557  33.687  42.128  1.00  0.00     0.010 A 
ATOM     43  C   UNL A   1      38.237  31.974  42.492  1.00  0.00     0.010 A 
ATOM     44  C   UNL A   1      35.737  33.079  43.083  1.00  0.00     0.020 A 
ATOM     45  C   UNL A   1      37.410  31.349  43.427  1.00  0.00     0.020 A 
ATOM     46  C   UNL A   1      36.168  31.912  43.725  1.00  0.00     0.054 A 
BRANCH  46  47
ATOM     47  S   UNL A   1      35.067  31.123  44.931  1.00  0.00     0.124 S 
ATOM     48  O   UNL A   1      35.882  30.002  45.394  1.00  0.00    -0.237 OA
ATOM     49  O   UNL A   1      34.851  32.187  45.907  1.00  0.00    -0.237 OA
ATOM     50  O   UNL A   1      33.894  30.755  44.143  1.00  0.00    -0.744 OA
ENDBRANCH  46  47
ENDBRANCH  27  41
BRANCH  28  51
ATOM     51  C   UNL A   1      43.631  37.414  34.700  1.00  0.00    -0.014 A 
ATOM     52  C   UNL A   1      44.822  36.846  34.217  1.00  0.00     0.010 A 
ATOM     53  C   UNL A   1      43.216  38.656  34.179  1.00  0.00     0.010 A 
ATOM     54  C   UNL A   1      45.593  37.517  33.261  1.00  0.00     0.020 A 
ATOM     55  C   UNL A   1      43.964  39.314  33.199  1.00  0.00     0.020 A 
ATOM     56  C   UNL A   1      45.160  38.749  32.760  1.00  0.00     0.054 A 
BRANCH  56  57
ATOM     57  S   UNL A   1      46.171  39.597  31.514  1.00  0.00     0.124 S 
ATOM     58  O   UNL A   1      47.035  38.520  31.040  1.00  0.00    -0.237 OA
ATOM     59  O   UNL A   1      45.169  40.071  30.564  1.00  0.00    -0.237 OA
ATOM     60  O   UNL A   1      46.843  40.648  32.275  1.00  0.00    -0.744 OA
ENDBRANCH  56  57
ENDBRANCH  28  51
BRANCH  40  61
ATOM     61  C   UNL A   1      43.263  37.874  41.664  1.00  0.00    -0.014 A 
ATOM     62  C   UNL A   1      42.782  39.119  42.103  1.00  0.00     0.010 A 
ATOM     63  C   UNL A   1      44.424  37.330  42.241  1.00  0.00     0.010 A 
ATOM     64  C   UNL A   1      43.463  39.814  43.101  1.00  0.00     0.020 A 
ATOM     65  C   UNL A   1      45.087  38.008  43.262  1.00  0.00     0.020 A 
ATOM     66  C   UNL A   1      44.604  39.250  43.681  1.00  0.00     0.054 A 
BRANCH  66  67
ATOM     67  S   UNL A   1      45.416  40.134  45.037  1.00  0.00     0.124 S 
ATOM     68  O   UNL A   1      44.756  41.436  44.986  1.00  0.00    -0.237 OA
ATOM     69  O   UNL A   1      45.089  39.308  46.196  1.00  0.00    -0.237 OA
ATOM     70  O   UNL A   1      46.826  40.134  44.656  1.00  0.00    -0.744 OA
ENDBRANCH  66  67
ENDBRANCH  40  61
ENDBRANCH  14  15
ENDBRANCH   7   9
ENDBRANCH   6   7
ENDBRANCH   5   6
ENDBRANCH   4   5
ENDBRANCH   3   4
ENDBRANCH   2   3
ENDBRANCH   1   2
BRANCH   1  71
ATOM     71  O   UNL A   1      34.645  30.462  27.411  1.00  0.00    -0.377 OA
BRANCH  71  72
ATOM     72  C   UNL A   1      33.925  29.358  26.875  1.00  0.00     0.188 C 
BRANCH  72  73
ATOM     73  C   UNL A   1      32.996  29.599  25.650  1.00  0.00     0.188 C 
BRANCH  73  74
ATOM     74  O   UNL A   1      31.664  29.144  25.837  1.00  0.00    -0.376 OA
BRANCH  74  75
ATOM     75  C   UNL A   1      31.294  27.898  25.254  1.00  0.00     0.202 C 
BRANCH  75  76
ATOM     76  C   UNL A   1      30.637  26.831  26.149  1.00  0.00     0.261 C 
BRANCH  76  77
ATOM     77  O   UNL A   1      30.500  25.537  25.549  1.00  0.00    -0.462 OA
BRANCH  77  78
ATOM     78  C   UNL A   1      31.186  24.496  26.082  1.00  0.00     0.328 C 
ATOM     79  O   UNL A   1      31.258  24.263  27.291  1.00  0.00    -0.250 OA
BRANCH  78  80
ATOM     80  C   UNL A   1      31.687  23.562  24.954  1.00  0.00     0.193 C 
ATOM     81  C   UNL A   1      30.840  23.645  23.685  1.00  0.00     0.037 C 
ATOM     82  N   UNL A   1      33.077  23.807  24.600  1.00  0.00    -0.343 N 
ATOM     83  C   UNL A   1      31.004  25.020  23.048  1.00  0.00     0.005 C 
ATOM     84  C   UNL A   1      33.410  25.080  24.004  1.00  0.00     0.119 C 
ATOM     85  C   UNL A   1      32.482  25.359  22.811  1.00  0.00     0.022 C 
BRANCH  82  86
ATOM     86  C   UNL A   1      33.968  22.777  24.777  1.00  0.00     0.134 A 
ATOM     87  C   UNL A   1      33.598  21.485  24.473  1.00  0.00     0.076 A 
ATOM     88  N   UNL A   1      35.226  23.077  25.148  1.00  0.00    -0.211 NA
ATOM     89  C   UNL A   1      34.564  20.506  24.596  1.00  0.00     0.076 A 
ATOM     90  C   UNL A   1      36.109  22.060  25.231  1.00  0.00     0.162 A 
ATOM     91  N   UNL A   1      35.831  20.775  24.965  1.00  0.00    -0.228 NA
BRANCH  89  92
ATOM     92  C   UNL A   1      34.240  19.088  24.431  1.00  0.00     0.000 A 
ATOM     93  C   UNL A   1      32.935  18.714  24.066  1.00  0.00     0.010 A 
ATOM     94  C   UNL A   1      35.202  18.080  24.595  1.00  0.00     0.010 A 
ATOM     95  C   UNL A   1      32.605  17.376  23.845  1.00  0.00     0.001 A 
ATOM     96  C   UNL A   1      34.869  16.738  24.382  1.00  0.00     0.001 A 
ATOM     97  C   UNL A   1      33.574  16.389  24.000  1.00  0.00     0.000 A 
ENDBRANCH  89  92
BRANCH  90  98
ATOM     98  C   UNL A   1      37.466  22.367  25.717  1.00  0.00     0.021 A 
ATOM     99  C   UNL A   1      37.783  23.651  26.196  1.00  0.00     0.012 A 
ATOM    100  C   UNL A   1      38.479  21.389  25.750  1.00  0.00     0.032 A 
ATOM    101  C   UNL A   1      39.052  23.951  26.702  1.00  0.00     0.002 A 
ATOM    102  C   UNL A   1      39.752  21.696  26.238  1.00  0.00     0.041 A 
ATOM    103  C   UNL A   1      40.041  22.971  26.719  1.00  0.00     0.020 A 
ATOM    104  Cl  UNL A   1      40.984  20.492  26.247  1.00  0.00    -0.084 Cl
ENDBRANCH  90  98
ENDBRANCH  82  86
ENDBRANCH  78  80
ENDBRANCH  77  78
ENDBRANCH  76  77
ENDBRANCH  75  76
ENDBRANCH  74  75
ENDBRANCH  73  74
ENDBRANCH  72  73
ENDBRANCH  71  72
ENDBRANCH   1  71
TORSDOF 26
ENDMDL
MODEL 3
REMARK VINA RESULT:      -9.7      5.460      7.926
REMARK SMILES O=C(OCCOCCOCCOCCOC(=O)[C@H]1CCCCN1c1cc(-c2ccccc2)nc(-c2cccc(Cl)c2)n1)c1ccc(-c2c3nc(c(-c4ccc(S(=O)(=O)[O-])cc4)c4ccc([nH]4)c(-c4ccc(S(=O)(=O)[O-])cc4)c4nc(c(-c5ccc(S(=O)(=O)[O-])cc5)c5ccc2[nH]5)C=C4)C=C3)cc1
REMARK SMILES IDX 8 1 7 2 6 3 5 4 4 5 3 6 2 7 1 8 43 9 44 10 102 11 45 12
REMARK SMILES IDX 101 13 46 14 47 15 48 16 95 17 49 18 100 19 94 20 96 21
REMARK SMILES IDX 50 22 99 23 93 24 92 25 51 27 81 28 62 29 80 30 63 31 66 32
REMARK SMILES IDX 79 33 97 34 64 35 65 36 78 38 98 39 67 40 52 41 53 42 61 43
REMARK SMILES IDX 54 44 60 45 55 46 56 47 57 48 58 49 59 50 82 51 83 52 91 53
REMARK SMILES IDX 84 54 90 55 85 56 86 57 87 58 88 59 89 60 68 61 69 62 77 63
REMARK SMILES IDX 70 64 76 65 71 66 72 67 73 68 74 69 75 70 9 71 10 72 11 73
REMARK SMILES IDX 12 74 13 75 14 76 15 77 16 78 17 79 18 80 19 81 23 82 20 83
REMARK SMILES IDX 22 84 21 85 24 86 25 87 42 88 26 89 34 90 33 91 27 92 28 93
REMARK SMILES IDX 32 94 29 95 31 96 30 97 35 98 36 99 41 100 37 101 39 102
REMARK SMILES IDX 38 103 40 104
REMARK H PARENT 96 26 66 37
REMARK Flexibility Score: inf
ROOT
ATOM      1  C   UNL A   1      32.097  27.946  24.901  1.00  0.00     0.188 C 
ENDROOT
BRANCH   1   2
ATOM      2  C   UNL A   1      32.432  29.433  25.083  1.00  0.00     0.188 C 
BRANCH   2   3
ATOM      3  O   UNL A   1      32.469  29.771  26.465  1.00  0.00    -0.376 OA
BRANCH   3   4
ATOM      4  C   UNL A   1      33.549  30.539  26.980  1.00  0.00     0.202 C 
BRANCH   4   5
ATOM      5  C   UNL A   1      33.159  31.787  27.755  1.00  0.00     0.261 C 
BRANCH   5   6
ATOM      6  O   UNL A   1      34.219  32.739  27.912  1.00  0.00    -0.460 OA
BRANCH   6   7
ATOM      7  C   UNL A   1      34.689  33.324  29.037  1.00  0.00     0.338 C 
ATOM      8  O   UNL A   1      33.879  33.880  29.780  1.00  0.00    -0.246 OA
BRANCH   7   9
ATOM      9  C   UNL A   1      36.119  33.327  29.459  1.00  0.00     0.060 A 
ATOM     10  C   UNL A   1      36.630  33.932  30.604  1.00  0.00     0.016 A 
ATOM     11  C   UNL A   1      36.994  32.539  28.695  1.00  0.00     0.016 A 
ATOM     12  C   UNL A   1      37.962  33.842  30.958  1.00  0.00     0.010 A 
ATOM     13  C   UNL A   1      38.334  32.400  29.061  1.00  0.00     0.010 A 
ATOM     14  C   UNL A   1      38.818  33.076  30.186  1.00  0.00    -0.014 A 
BRANCH  14  15
ATOM     15  C   UNL A   1      40.247  33.161  30.499  1.00  0.00     0.031 A 
ATOM     16  C   UNL A   1      40.819  32.074  31.348  1.00  0.00     0.074 A 
ATOM     17  C   UNL A   1      41.007  34.099  29.908  1.00  0.00     0.049 A 
ATOM     18  N   UNL A   1      42.007  31.976  31.868  1.00  0.00    -0.248 NA
ATOM     19  C   UNL A   1      39.931  30.932  31.644  1.00  0.00     0.031 C 
ATOM     20  C   UNL A   1      40.535  35.074  28.917  1.00  0.00     0.029 A 
ATOM     21  N   UNL A   1      42.339  34.374  30.033  1.00  0.00    -0.354 N 
ATOM     22  C   UNL A   1      41.987  30.802  32.607  1.00  0.00     0.074 A 
ATOM     23  C   UNL A   1      40.684  30.203  32.452  1.00  0.00     0.031 C 
ATOM     24  C   UNL A   1      41.567  35.840  28.528  1.00  0.00     0.029 A 
ATOM     25  C   UNL A   1      42.740  35.472  29.310  1.00  0.00     0.049 A 
ATOM     26  H   UNL A   1      42.952  33.838  30.588  1.00  0.00     0.167 HD
ATOM     27  C   UNL A   1      42.979  30.299  33.374  1.00  0.00     0.031 A 
ATOM     28  C   UNL A   1      43.908  36.138  29.344  1.00  0.00     0.031 A 
ATOM     29  C   UNL A   1      44.256  30.943  33.490  1.00  0.00     0.049 A 
ATOM     30  C   UNL A   1      44.958  35.625  30.295  1.00  0.00     0.074 A 
ATOM     31  C   UNL A   1      45.339  30.581  34.264  1.00  0.00     0.029 A 
ATOM     32  N   UNL A   1      44.611  32.099  32.804  1.00  0.00    -0.354 N 
ATOM     33  N   UNL A   1      44.923  34.551  31.051  1.00  0.00    -0.248 NA
ATOM     34  C   UNL A   1      46.186  36.416  30.419  1.00  0.00     0.031 C 
ATOM     35  C   UNL A   1      46.325  31.559  34.096  1.00  0.00     0.029 A 
ATOM     36  C   UNL A   1      45.884  32.488  33.163  1.00  0.00     0.049 A 
ATOM     37  H   UNL A   1      44.038  32.570  32.156  1.00  0.00     0.167 HD
ATOM     38  C   UNL A   1      46.130  34.529  31.735  1.00  0.00     0.074 A 
ATOM     39  C   UNL A   1      46.881  35.685  31.280  1.00  0.00     0.031 C 
ATOM     40  C   UNL A   1      46.582  33.647  32.662  1.00  0.00     0.031 A 
BRANCH  27  41
ATOM     41  C   UNL A   1      42.667  29.090  34.207  1.00  0.00    -0.014 A 
ATOM     42  C   UNL A   1      42.931  27.783  33.759  1.00  0.00     0.010 A 
ATOM     43  C   UNL A   1      42.074  29.276  35.470  1.00  0.00     0.010 A 
ATOM     44  C   UNL A   1      42.584  26.685  34.552  1.00  0.00     0.020 A 
ATOM     45  C   UNL A   1      41.751  28.182  36.275  1.00  0.00     0.020 A 
ATOM     46  C   UNL A   1      41.999  26.891  35.806  1.00  0.00     0.054 A 
BRANCH  46  47
ATOM     47  S   UNL A   1      41.596  25.449  36.829  1.00  0.00     0.124 S 
ATOM     48  O   UNL A   1      40.450  25.934  37.595  1.00  0.00    -0.237 OA
ATOM     49  O   UNL A   1      41.297  24.426  35.831  1.00  0.00    -0.237 OA
ATOM     50  O   UNL A   1      42.812  25.222  37.605  1.00  0.00    -0.744 OA
ENDBRANCH  46  47
ENDBRANCH  27  41
BRANCH  28  51
ATOM     51  C   UNL A   1      44.094  37.394  28.563  1.00  0.00    -0.014 A 
ATOM     52  C   UNL A   1      44.863  37.418  27.388  1.00  0.00     0.010 A 
ATOM     53  C   UNL A   1      43.504  38.595  29.008  1.00  0.00     0.010 A 
ATOM     54  C   UNL A   1      45.064  38.617  26.694  1.00  0.00     0.020 A 
ATOM     55  C   UNL A   1      43.672  39.788  28.300  1.00  0.00     0.020 A 
ATOM     56  C   UNL A   1      44.468  39.795  27.155  1.00  0.00     0.054 A 
BRANCH  56  57
ATOM     57  S   UNL A   1      44.734  41.335  26.233  1.00  0.00     0.124 S 
ATOM     58  O   UNL A   1      43.417  41.960  26.302  1.00  0.00    -0.237 OA
ATOM     59  O   UNL A   1      45.787  41.988  27.007  1.00  0.00    -0.237 OA
ATOM     60  O   UNL A   1      45.140  40.875  24.907  1.00  0.00    -0.744 OA
ENDBRANCH  56  57
ENDBRANCH  28  51
BRANCH  40  61
ATOM     61  C   UNL A   1      47.958  33.884  33.209  1.00  0.00    -0.014 A 
ATOM     62  C   UNL A   1      49.094  33.390  32.546  1.00  0.00     0.010 A 
ATOM     63  C   UNL A   1      48.112  34.704  34.342  1.00  0.00     0.010 A 
ATOM     64  C   UNL A   1      50.367  33.704  33.018  1.00  0.00     0.020 A 
ATOM     65  C   UNL A   1      49.385  35.047  34.795  1.00  0.00     0.020 A 
ATOM     66  C   UNL A   1      50.504  34.538  34.132  1.00  0.00     0.054 A 
BRANCH  66  67
ATOM     67  S   UNL A   1      52.170  35.003  34.669  1.00  0.00     0.124 S 
ATOM     68  O   UNL A   1      52.624  33.786  35.336  1.00  0.00    -0.237 OA
ATOM     69  O   UNL A   1      52.836  35.314  33.406  1.00  0.00    -0.237 OA
ATOM     70  O   UNL A   1      51.945  36.149  35.546  1.00  0.00    -0.744 OA
ENDBRANCH  66  67
ENDBRANCH  40  61
ENDBRANCH  14  15
ENDBRANCH   7   9
ENDBRANCH   6   7
ENDBRANCH   5   6
ENDBRANCH   4   5
ENDBRANCH   3   4
ENDBRANCH   2   3
ENDBRANCH   1   2
BRANCH   1  71
ATOM     71  O   UNL A   1      30.716  27.650  24.676  1.00  0.00    -0.377 OA
BRANCH  71  72
ATOM     72  C   UNL A   1      30.392  27.206  23.364  1.00  0.00     0.188 C 
BRANCH  72  73
ATOM     73  C   UNL A   1      31.500  27.239  22.272  1.00  0.00     0.188 C 
BRANCH  73  74
ATOM     74  O   UNL A   1      31.681  26.003  21.596  1.00  0.00    -0.376 OA
BRANCH  74  75
ATOM     75  C   UNL A   1      32.966  25.391  21.652  1.00  0.00     0.202 C 
BRANCH  75  76
ATOM     76  C   UNL A   1      33.273  24.426  22.813  1.00  0.00     0.261 C 
BRANCH  76  77
ATOM     77  O   UNL A   1      34.386  24.800  23.634  1.00  0.00    -0.462 OA
BRANCH  77  78
ATOM     78  C   UNL A   1      35.362  23.886  23.864  1.00  0.00     0.328 C 
ATOM     79  O   UNL A   1      35.891  23.205  22.982  1.00  0.00    -0.250 OA
BRANCH  78  80
ATOM     80  C   UNL A   1      35.829  23.972  25.337  1.00  0.00     0.193 C 
ATOM     81  C   UNL A   1      34.681  24.212  26.317  1.00  0.00     0.037 C 
ATOM     82  N   UNL A   1      36.560  22.788  25.762  1.00  0.00    -0.343 N 
ATOM     83  C   UNL A   1      33.768  22.990  26.349  1.00  0.00     0.005 C 
ATOM     84  C   UNL A   1      35.845  21.534  25.824  1.00  0.00     0.119 C 
ATOM     85  C   UNL A   1      34.557  21.706  26.643  1.00  0.00     0.022 C 
BRANCH  82  86
ATOM     86  C   UNL A   1      37.863  22.957  26.160  1.00  0.00     0.134 A 
ATOM     87  C   UNL A   1      38.806  21.997  25.863  1.00  0.00     0.076 A 
ATOM     88  N   UNL A   1      38.207  24.120  26.742  1.00  0.00    -0.211 NA
ATOM     89  C   UNL A   1      40.114  22.265  26.220  1.00  0.00     0.076 A 
ATOM     90  C   UNL A   1      39.509  24.304  27.046  1.00  0.00     0.162 A 
ATOM     91  N   UNL A   1      40.488  23.419  26.805  1.00  0.00    -0.228 NA
BRANCH  89  92
ATOM     92  C   UNL A   1      41.166  21.257  26.076  1.00  0.00     0.000 A 
ATOM     93  C   UNL A   1      42.475  21.663  25.762  1.00  0.00     0.010 A 
ATOM     94  C   UNL A   1      40.921  19.890  26.274  1.00  0.00     0.010 A 
ATOM     95  C   UNL A   1      43.514  20.737  25.675  1.00  0.00     0.001 A 
ATOM     96  C   UNL A   1      41.962  18.960  26.177  1.00  0.00     0.001 A 
ATOM     97  C   UNL A   1      43.257  19.385  25.885  1.00  0.00     0.000 A 
ENDBRANCH  89  92
BRANCH  90  98
ATOM     98  C   UNL A   1      39.881  25.538  27.760  1.00  0.00     0.021 A 
ATOM     99  C   UNL A   1      41.230  25.924  27.871  1.00  0.00     0.012 A 
ATOM    100  C   UNL A   1      38.910  26.386  28.328  1.00  0.00     0.032 A 
ATOM    101  C   UNL A   1      41.601  27.112  28.507  1.00  0.00     0.002 A 
ATOM    102  C   UNL A   1      39.285  27.564  28.980  1.00  0.00     0.041 A 
ATOM    103  C   UNL A   1      40.626  27.933  29.067  1.00  0.00     0.020 A 
ATOM    104  Cl  UNL A   1      38.084  28.575  29.688  1.00  0.00    -0.084 Cl
ENDBRANCH  90  98
ENDBRANCH  82  86
ENDBRANCH  78  80
ENDBRANCH  77  78
ENDBRANCH  76  77
ENDBRANCH  75  76
ENDBRANCH  74  75
ENDBRANCH  73  74
ENDBRANCH  72  73
ENDBRANCH  71  72
ENDBRANCH   1  71
TORSDOF 26
ENDMDL
