MODEL 1
REMARK VINA RESULT:     -10.9      0.000      0.000
REMARK SMILES Cc1c(NC(=O)c2ccccc2NC(=O)[C@@H]2CCCO2)cccc1C(=O)OCCOCCOCCOCCOC(=O)c1ccc(-c2c3nc(c(-c4ccc(S(=O)(=O)[O-])cc4)c4ccc([nH]4)c(-c4ccc(S(=O)(=O)[O-])cc4)c4nc(c(-c5ccc(S(=O)(=O)[O-])cc5)c5ccc2[nH]5)C=C4)C=C3)cc1
REMARK SMILES IDX 32 1 31 2 30 3 29 4 28 5 27 6 25 7 26 8 24 9 1 10 2 11 3 12
REMARK SMILES IDX 21 13 23 14 22 15 4 16 5 17 6 19 7 20 8 21 12 22 9 23 11 24
REMARK SMILES IDX 10 25 13 26 14 27 15 29 16 30 17 31 20 32 18 33 19 34 33 35
REMARK SMILES IDX 34 36 35 37 36 38 37 39 38 40 39 41 40 42 41 43 42 44 43 45
REMARK SMILES IDX 101 46 44 47 100 48 45 49 46 50 47 51 94 52 48 53 99 54
REMARK SMILES IDX 93 55 95 56 49 57 98 58 92 59 91 60 50 62 80 63 61 64 79 65
REMARK SMILES IDX 62 66 65 67 78 68 96 69 63 70 64 71 77 73 97 74 66 75 51 76
REMARK SMILES IDX 52 77 60 78 53 79 59 80 54 81 55 82 56 83 57 84 58 85 81 86
REMARK SMILES IDX 82 87 90 88 83 89 89 90 84 91 85 92 86 93 87 94 88 95 67 96
REMARK SMILES IDX 68 97 76 98 69 99 75 100 70 101 71 102 72 103 73 104 74 105
REMARK H PARENT 4 18 13 28 95 61 65 72
REMARK Flexibility Score: inf
ROOT
ATOM      1  C   UNL A   1      34.675  33.207  29.193  1.00  0.00     0.188 C 
ENDROOT
BRANCH   1   2
ATOM      2  C   UNL A   1      34.476  31.816  28.561  1.00  0.00     0.188 C 
BRANCH   2   3
ATOM      3  O   UNL A   1      33.798  31.650  27.331  1.00  0.00    -0.376 OA
BRANCH   3   4
ATOM      4  C   UNL A   1      33.123  30.412  27.180  1.00  0.00     0.202 C 
BRANCH   4   5
ATOM      5  C   UNL A   1      32.037  30.334  26.141  1.00  0.00     0.261 C 
BRANCH   5   6
ATOM      6  O   UNL A   1      31.921  28.992  25.705  1.00  0.00    -0.460 OA
BRANCH   6   7
ATOM      7  C   UNL A   1      31.122  28.859  24.641  1.00  0.00     0.338 C 
ATOM      8  O   UNL A   1      30.469  29.717  24.095  1.00  0.00    -0.246 OA
BRANCH   7   9
ATOM      9  C   UNL A   1      31.363  27.541  24.022  1.00  0.00     0.065 A 
ATOM     10  C   UNL A   1      33.916  27.651  23.651  1.00  0.00     0.047 C 
ATOM     11  C   UNL A   1      32.600  26.921  23.751  1.00  0.00    -0.013 A 
ATOM     12  C   UNL A   1      32.570  25.547  23.444  1.00  0.00     0.045 A 
ATOM     13  C   UNL A   1      31.339  24.878  23.342  1.00  0.00     0.026 A 
ATOM     14  C   UNL A   1      30.151  26.896  23.730  1.00  0.00     0.016 A 
ATOM     15  C   UNL A   1      30.136  25.566  23.382  1.00  0.00     0.003 A 
BRANCH  12  16
ATOM     16  N   UNL A   1      33.795  24.870  23.233  1.00  0.00    -0.322 N 
ATOM     17  C   UNL A   1      34.539  24.095  24.097  1.00  0.00     0.257 C 
ATOM     18  H   UNL A   1      34.175  24.967  22.329  1.00  0.00     0.170 HD
ATOM     19  O   UNL A   1      35.690  23.767  23.819  1.00  0.00    -0.269 OA
BRANCH  17  20
ATOM     20  C   UNL A   1      33.934  23.608  25.362  1.00  0.00     0.063 A 
ATOM     21  C   UNL A   1      33.183  24.553  26.079  1.00  0.00     0.016 A 
ATOM     22  C   UNL A   1      34.012  22.263  25.789  1.00  0.00     0.054 A 
ATOM     23  C   UNL A   1      32.405  24.147  27.155  1.00  0.00     0.001 A 
ATOM     24  C   UNL A   1      33.124  21.866  26.788  1.00  0.00     0.027 A 
ATOM     25  C   UNL A   1      32.335  22.797  27.473  1.00  0.00     0.002 A 
BRANCH  22  26
ATOM     26  N   UNL A   1      35.002  21.431  25.219  1.00  0.00    -0.323 N 
ATOM     27  C   UNL A   1      35.088  20.114  24.887  1.00  0.00     0.253 C 
ATOM     28  H   UNL A   1      35.830  21.922  25.015  1.00  0.00     0.170 HD
ATOM     29  O   UNL A   1      36.227  19.667  24.715  1.00  0.00    -0.272 OA
BRANCH  27  30
ATOM     30  C   UNL A   1      33.871  19.198  24.802  1.00  0.00     0.207 C 
ATOM     31  C   UNL A   1      34.327  17.876  24.203  1.00  0.00     0.044 C 
ATOM     32  O   UNL A   1      32.811  19.672  23.954  1.00  0.00    -0.368 OA
ATOM     33  C   UNL A   1      33.087  17.373  23.525  1.00  0.00     0.032 C 
ATOM     34  C   UNL A   1      32.484  18.654  23.002  1.00  0.00     0.161 C 
ENDBRANCH  27  30
ENDBRANCH  22  26
ENDBRANCH  17  20
ENDBRANCH  12  16
ENDBRANCH   7   9
ENDBRANCH   6   7
ENDBRANCH   5   6
ENDBRANCH   4   5
ENDBRANCH   3   4
ENDBRANCH   2   3
ENDBRANCH   1   2
BRANCH   1  35
ATOM     35  O   UNL A   1      34.037  33.540  30.407  1.00  0.00    -0.377 OA
BRANCH  35  36
ATOM     36  C   UNL A   1      34.851  33.692  31.575  1.00  0.00     0.188 C 
BRANCH  36  37
ATOM     37  C   UNL A   1      34.502  32.970  32.858  1.00  0.00     0.188 C 
BRANCH  37  38
ATOM     38  O   UNL A   1      35.667  32.239  33.239  1.00  0.00    -0.376 OA
BRANCH  38  39
ATOM     39  C   UNL A   1      36.490  31.818  32.173  1.00  0.00     0.202 C 
BRANCH  39  40
ATOM     40  C   UNL A   1      36.205  30.381  31.737  1.00  0.00     0.261 C 
BRANCH  40  41
ATOM     41  O   UNL A   1      37.413  29.700  31.301  1.00  0.00    -0.460 OA
BRANCH  41  42
ATOM     42  C   UNL A   1      38.058  28.838  32.150  1.00  0.00     0.338 C 
ATOM     43  O   UNL A   1      37.488  28.281  33.076  1.00  0.00    -0.246 OA
BRANCH  42  44
ATOM     44  C   UNL A   1      39.391  28.395  31.647  1.00  0.00     0.060 A 
ATOM     45  C   UNL A   1      40.569  28.476  32.407  1.00  0.00     0.016 A 
ATOM     46  C   UNL A   1      39.475  27.883  30.371  1.00  0.00     0.016 A 
ATOM     47  C   UNL A   1      41.839  28.256  31.819  1.00  0.00     0.010 A 
ATOM     48  C   UNL A   1      40.719  27.705  29.795  1.00  0.00     0.010 A 
ATOM     49  C   UNL A   1      41.929  27.940  30.469  1.00  0.00    -0.014 A 
BRANCH  49  50
ATOM     50  C   UNL A   1      43.157  27.931  29.623  1.00  0.00     0.031 A 
ATOM     51  C   UNL A   1      43.808  26.594  29.333  1.00  0.00     0.074 A 
ATOM     52  C   UNL A   1      43.409  29.003  28.816  1.00  0.00     0.049 A 
ATOM     53  N   UNL A   1      44.692  26.369  28.422  1.00  0.00    -0.248 NA
ATOM     54  C   UNL A   1      43.425  25.342  29.998  1.00  0.00     0.031 C 
ATOM     55  C   UNL A   1      44.091  29.005  27.518  1.00  0.00     0.029 A 
ATOM     56  N   UNL A   1      43.039  30.331  28.908  1.00  0.00    -0.354 N 
ATOM     57  C   UNL A   1      44.717  25.013  28.131  1.00  0.00     0.074 A 
ATOM     58  C   UNL A   1      43.950  24.410  29.189  1.00  0.00     0.031 C 
ATOM     59  C   UNL A   1      44.161  30.236  26.988  1.00  0.00     0.029 A 
ATOM     60  C   UNL A   1      43.784  31.136  28.043  1.00  0.00     0.049 A 
ATOM     61  H   UNL A   1      42.335  30.668  29.509  1.00  0.00     0.167 HD
ATOM     62  C   UNL A   1      45.283  24.592  26.953  1.00  0.00     0.031 A 
ATOM     63  C   UNL A   1      44.674  32.031  28.568  1.00  0.00     0.031 A 
ATOM     64  C   UNL A   1      45.972  25.712  26.268  1.00  0.00     0.049 A 
ATOM     65  C   UNL A   1      46.089  31.460  28.344  1.00  0.00     0.074 A 
ATOM     66  C   UNL A   1      45.913  26.265  25.001  1.00  0.00     0.029 A 
ATOM     67  N   UNL A   1      46.754  26.592  27.021  1.00  0.00    -0.354 N 
ATOM     68  N   UNL A   1      46.375  30.169  28.360  1.00  0.00    -0.248 NA
ATOM     69  C   UNL A   1      47.154  32.242  27.708  1.00  0.00     0.031 C 
ATOM     70  C   UNL A   1      46.478  27.578  25.073  1.00  0.00     0.029 A 
ATOM     71  C   UNL A   1      46.965  27.789  26.361  1.00  0.00     0.049 A 
ATOM     72  H   UNL A   1      47.112  26.385  27.915  1.00  0.00     0.167 HD
ATOM     73  C   UNL A   1      47.473  29.937  27.560  1.00  0.00     0.074 A 
ATOM     74  C   UNL A   1      47.967  31.276  27.244  1.00  0.00     0.031 C 
ATOM     75  C   UNL A   1      47.871  28.781  26.932  1.00  0.00     0.031 A 
BRANCH  62  76
ATOM     76  C   UNL A   1      45.103  23.214  26.287  1.00  0.00    -0.014 A 
ATOM     77  C   UNL A   1      46.153  22.693  25.493  1.00  0.00     0.010 A 
ATOM     78  C   UNL A   1      43.938  22.413  26.325  1.00  0.00     0.010 A 
ATOM     79  C   UNL A   1      46.061  21.476  24.787  1.00  0.00     0.020 A 
ATOM     80  C   UNL A   1      43.842  21.169  25.646  1.00  0.00     0.020 A 
ATOM     81  C   UNL A   1      44.907  20.709  24.876  1.00  0.00     0.054 A 
BRANCH  81  82
ATOM     82  S   UNL A   1      44.847  19.109  24.008  1.00  0.00     0.124 S 
ATOM     83  O   UNL A   1      44.316  19.473  22.696  1.00  0.00    -0.237 OA
ATOM     84  O   UNL A   1      46.246  18.686  24.019  1.00  0.00    -0.237 OA
ATOM     85  O   UNL A   1      43.954  18.296  24.831  1.00  0.00    -0.744 OA
ENDBRANCH  81  82
ENDBRANCH  62  76
BRANCH  63  86
ATOM     86  C   UNL A   1      43.982  32.832  29.647  1.00  0.00    -0.014 A 
ATOM     87  C   UNL A   1      43.202  33.909  29.134  1.00  0.00     0.010 A 
ATOM     88  C   UNL A   1      43.514  32.211  30.826  1.00  0.00     0.010 A 
ATOM     89  C   UNL A   1      41.899  34.160  29.599  1.00  0.00     0.020 A 
ATOM     90  C   UNL A   1      42.205  32.478  31.305  1.00  0.00     0.020 A 
ATOM     91  C   UNL A   1      41.383  33.400  30.645  1.00  0.00     0.054 A 
BRANCH  91  92
ATOM     92  S   UNL A   1      39.578  33.458  30.939  1.00  0.00     0.124 S 
ATOM     93  O   UNL A   1      39.488  33.272  32.382  1.00  0.00    -0.237 OA
ATOM     94  O   UNL A   1      39.217  34.785  30.445  1.00  0.00    -0.237 OA
ATOM     95  O   UNL A   1      39.068  32.355  30.136  1.00  0.00    -0.744 OA
ENDBRANCH  91  92
ENDBRANCH  63  86
BRANCH  75  96
ATOM     96  C   UNL A   1      49.339  28.424  26.898  1.00  0.00    -0.014 A 
ATOM     97  C   UNL A   1      50.071  28.417  25.705  1.00  0.00     0.010 A 
ATOM     98  C   UNL A   1      50.064  28.318  28.114  1.00  0.00     0.010 A 
ATOM     99  C   UNL A   1      51.453  28.259  25.718  1.00  0.00     0.020 A 
ATOM    100  C   UNL A   1      51.450  28.217  28.138  1.00  0.00     0.020 A 
ATOM    101  C   UNL A   1      52.133  28.159  26.931  1.00  0.00     0.054 A 
BRANCH 101 102
ATOM    102  S   UNL A   1      53.924  27.980  26.901  1.00  0.00     0.124 S 
ATOM    103  O   UNL A   1      54.114  26.817  27.763  1.00  0.00    -0.237 OA
ATOM    104  O   UNL A   1      54.200  27.763  25.483  1.00  0.00    -0.237 OA
ATOM    105  O   UNL A   1      54.412  29.247  27.439  1.00  0.00    -0.744 OA
ENDBRANCH 101 102
ENDBRANCH  75  96
ENDBRANCH  49  50
ENDBRANCH  42  44
ENDBRANCH  41  42
ENDBRANCH  40  41
ENDBRANCH  39  40
ENDBRANCH  38  39
ENDBRANCH  37  38
ENDBRANCH  36  37
ENDBRANCH  35  36
ENDBRANCH   1  35
TORSDOF 27
ENDMDL
MODEL 2
REMARK VINA RESULT:      -9.5      2.855      5.852
REMARK SMILES Cc1c(NC(=O)c2ccccc2NC(=O)[C@@H]2CCCO2)cccc1C(=O)OCCOCCOCCOCCOC(=O)c1ccc(-c2c3nc(c(-c4ccc(S(=O)(=O)[O-])cc4)c4ccc([nH]4)c(-c4ccc(S(=O)(=O)[O-])cc4)c4nc(c(-c5ccc(S(=O)(=O)[O-])cc5)c5ccc2[nH]5)C=C4)C=C3)cc1
REMARK SMILES IDX 32 1 31 2 30 3 29 4 28 5 27 6 25 7 26 8 24 9 1 10 2 11 3 12
REMARK SMILES IDX 21 13 23 14 22 15 4 16 5 17 6 19 7 20 8 21 12 22 9 23 11 24
REMARK SMILES IDX 10 25 13 26 14 27 15 29 16 30 17 31 20 32 18 33 19 34 33 35
REMARK SMILES IDX 34 36 35 37 36 38 37 39 38 40 39 41 40 42 41 43 42 44 43 45
REMARK SMILES IDX 101 46 44 47 100 48 45 49 46 50 47 51 94 52 48 53 99 54
REMARK SMILES IDX 93 55 95 56 49 57 98 58 92 59 91 60 50 62 80 63 61 64 79 65
REMARK SMILES IDX 62 66 65 67 78 68 96 69 63 70 64 71 77 73 97 74 66 75 51 76
REMARK SMILES IDX 52 77 60 78 53 79 59 80 54 81 55 82 56 83 57 84 58 85 81 86
REMARK SMILES IDX 82 87 90 88 83 89 89 90 84 91 85 92 86 93 87 94 88 95 67 96
REMARK SMILES IDX 68 97 76 98 69 99 75 100 70 101 71 102 72 103 73 104 74 105
REMARK H PARENT 4 18 13 28 95 61 65 72
REMARK Flexibility Score: inf
ROOT
ATOM      1  C   UNL A   1      34.666  33.860  28.919  1.00  0.00     0.188 C 
ENDROOT
BRANCH   1   2
ATOM      2  C   UNL A   1      34.413  32.368  28.630  1.00  0.00     0.188 C 
BRANCH   2   3
ATOM      3  O   UNL A   1      33.284  31.936  27.897  1.00  0.00    -0.376 OA
BRANCH   3   4
ATOM      4  C   UNL A   1      33.452  30.711  27.202  1.00  0.00     0.202 C 
BRANCH   4   5
ATOM      5  C   UNL A   1      32.214  30.026  26.688  1.00  0.00     0.261 C 
BRANCH   5   6
ATOM      6  O   UNL A   1      32.490  29.492  25.406  1.00  0.00    -0.460 OA
BRANCH   6   7
ATOM      7  C   UNL A   1      31.385  29.281  24.684  1.00  0.00     0.338 C 
ATOM      8  O   UNL A   1      30.544  30.088  24.366  1.00  0.00    -0.246 OA
BRANCH   7   9
ATOM      9  C   UNL A   1      31.467  27.946  24.060  1.00  0.00     0.065 A 
ATOM     10  C   UNL A   1      33.989  27.830  23.518  1.00  0.00     0.047 C 
ATOM     11  C   UNL A   1      32.624  27.218  23.712  1.00  0.00    -0.013 A 
ATOM     12  C   UNL A   1      32.453  25.852  23.420  1.00  0.00     0.045 A 
ATOM     13  C   UNL A   1      31.164  25.294  23.406  1.00  0.00     0.026 A 
ATOM     14  C   UNL A   1      30.186  27.409  23.856  1.00  0.00     0.016 A 
ATOM     15  C   UNL A   1      30.032  26.084  23.521  1.00  0.00     0.003 A 
BRANCH  12  16
ATOM     16  N   UNL A   1      33.597  25.069  23.132  1.00  0.00    -0.322 N 
ATOM     17  C   UNL A   1      34.313  24.216  23.945  1.00  0.00     0.257 C 
ATOM     18  H   UNL A   1      33.933  25.145  22.209  1.00  0.00     0.170 HD
ATOM     19  O   UNL A   1      35.412  23.789  23.598  1.00  0.00    -0.269 OA
BRANCH  17  20
ATOM     20  C   UNL A   1      33.737  23.767  25.237  1.00  0.00     0.063 A 
ATOM     21  C   UNL A   1      32.973  24.723  25.925  1.00  0.00     0.016 A 
ATOM     22  C   UNL A   1      33.854  22.443  25.717  1.00  0.00     0.054 A 
ATOM     23  C   UNL A   1      32.220  24.342  27.028  1.00  0.00     0.001 A 
ATOM     24  C   UNL A   1      32.990  22.066  26.745  1.00  0.00     0.027 A 
ATOM     25  C   UNL A   1      32.188  23.006  27.402  1.00  0.00     0.002 A 
BRANCH  22  26
ATOM     26  N   UNL A   1      34.857  21.612  25.167  1.00  0.00    -0.323 N 
ATOM     27  C   UNL A   1      34.963  20.288  24.872  1.00  0.00     0.253 C 
ATOM     28  H   UNL A   1      35.675  22.112  24.946  1.00  0.00     0.170 HD
ATOM     29  O   UNL A   1      36.110  19.856  24.708  1.00  0.00    -0.272 OA
BRANCH  27  30
ATOM     30  C   UNL A   1      33.762  19.349  24.818  1.00  0.00     0.207 C 
ATOM     31  C   UNL A   1      34.244  18.010  24.280  1.00  0.00     0.044 C 
ATOM     32  O   UNL A   1      32.702  19.769  23.942  1.00  0.00    -0.368 OA
ATOM     33  C   UNL A   1      33.018  17.458  23.616  1.00  0.00     0.032 C 
ATOM     34  C   UNL A   1      32.399  18.705  23.033  1.00  0.00     0.161 C 
ENDBRANCH  27  30
ENDBRANCH  22  26
ENDBRANCH  17  20
ENDBRANCH  12  16
ENDBRANCH   7   9
ENDBRANCH   6   7
ENDBRANCH   5   6
ENDBRANCH   4   5
ENDBRANCH   3   4
ENDBRANCH   2   3
ENDBRANCH   1   2
BRANCH   1  35
ATOM     35  O   UNL A   1      34.847  34.314  30.243  1.00  0.00    -0.377 OA
BRANCH  35  36
ATOM     36  C   UNL A   1      35.004  33.334  31.274  1.00  0.00     0.188 C 
BRANCH  36  37
ATOM     37  C   UNL A   1      36.313  33.205  32.024  1.00  0.00     0.188 C 
BRANCH  37  38
ATOM     38  O   UNL A   1      36.612  34.501  32.540  1.00  0.00    -0.376 OA
BRANCH  38  39
ATOM     39  C   UNL A   1      37.470  34.520  33.660  1.00  0.00     0.202 C 
BRANCH  39  40
ATOM     40  C   UNL A   1      38.947  34.608  33.272  1.00  0.00     0.261 C 
BRANCH  40  41
ATOM     41  O   UNL A   1      39.675  33.407  33.649  1.00  0.00    -0.460 OA
BRANCH  41  42
ATOM     42  C   UNL A   1      41.041  33.372  33.537  1.00  0.00     0.338 C 
ATOM     43  O   UNL A   1      41.775  34.031  34.258  1.00  0.00    -0.246 OA
BRANCH  42  44
ATOM     44  C   UNL A   1      41.540  32.235  32.711  1.00  0.00     0.060 A 
ATOM     45  C   UNL A   1      42.104  31.071  33.258  1.00  0.00     0.016 A 
ATOM     46  C   UNL A   1      41.448  32.328  31.339  1.00  0.00     0.016 A 
ATOM     47  C   UNL A   1      42.765  30.120  32.441  1.00  0.00     0.010 A 
ATOM     48  C   UNL A   1      42.124  31.416  30.552  1.00  0.00     0.010 A 
ATOM     49  C   UNL A   1      42.848  30.328  31.070  1.00  0.00    -0.014 A 
BRANCH  49  50
ATOM     50  C   UNL A   1      43.709  29.598  30.096  1.00  0.00     0.031 A 
ATOM     51  C   UNL A   1      45.142  30.062  29.929  1.00  0.00     0.074 A 
ATOM     52  C   UNL A   1      43.351  28.336  29.717  1.00  0.00     0.049 A 
ATOM     53  N   UNL A   1      46.085  29.400  29.352  1.00  0.00    -0.248 NA
ATOM     54  C   UNL A   1      45.666  31.304  30.512  1.00  0.00     0.031 C 
ATOM     55  C   UNL A   1      44.237  27.230  29.342  1.00  0.00     0.029 A 
ATOM     56  N   UNL A   1      42.124  27.705  29.663  1.00  0.00    -0.354 N 
ATOM     57  C   UNL A   1      47.313  29.885  29.777  1.00  0.00     0.074 A 
ATOM     58  C   UNL A   1      46.993  31.116  30.453  1.00  0.00     0.031 C 
ATOM     59  C   UNL A   1      43.551  26.119  29.032  1.00  0.00     0.029 A 
ATOM     60  C   UNL A   1      42.180  26.529  28.911  1.00  0.00     0.049 A 
ATOM     61  H   UNL A   1      41.309  28.043  30.102  1.00  0.00     0.167 HD
ATOM     62  C   UNL A   1      48.434  29.110  29.608  1.00  0.00     0.031 A 
ATOM     63  C   UNL A   1      41.522  26.473  27.714  1.00  0.00     0.031 A 
ATOM     64  C   UNL A   1      48.131  27.917  28.782  1.00  0.00     0.049 A 
ATOM     65  C   UNL A   1      42.583  26.566  26.599  1.00  0.00     0.074 A 
ATOM     66  C   UNL A   1      48.305  26.553  28.936  1.00  0.00     0.029 A 
ATOM     67  N   UNL A   1      47.332  28.063  27.643  1.00  0.00    -0.354 N 
ATOM     68  N   UNL A   1      43.698  27.270  26.699  1.00  0.00    -0.248 NA
ATOM     69  C   UNL A   1      42.656  25.590  25.507  1.00  0.00     0.031 C 
ATOM     70  C   UNL A   1      47.427  25.896  28.016  1.00  0.00     0.029 A 
ATOM     71  C   UNL A   1      46.788  26.858  27.237  1.00  0.00     0.049 A 
ATOM     72  H   UNL A   1      47.176  28.920  27.186  1.00  0.00     0.167 HD
ATOM     73  C   UNL A   1      44.667  26.701  25.900  1.00  0.00     0.074 A 
ATOM     74  C   UNL A   1      43.938  25.705  25.118  1.00  0.00     0.031 C 
ATOM     75  C   UNL A   1      46.036  26.788  25.988  1.00  0.00     0.031 A 
BRANCH  62  76
ATOM     76  C   UNL A   1      49.794  29.295  30.309  1.00  0.00    -0.014 A 
ATOM     77  C   UNL A   1      50.011  28.668  31.560  1.00  0.00     0.010 A 
ATOM     78  C   UNL A   1      50.862  30.105  29.860  1.00  0.00     0.010 A 
ATOM     79  C   UNL A   1      51.193  28.830  32.312  1.00  0.00     0.020 A 
ATOM     80  C   UNL A   1      52.072  30.251  30.591  1.00  0.00     0.020 A 
ATOM     81  C   UNL A   1      52.228  29.613  31.819  1.00  0.00     0.054 A 
BRANCH  81  82
ATOM     82  S   UNL A   1      53.766  29.744  32.784  1.00  0.00     0.124 S 
ATOM     83  O   UNL A   1      54.146  31.142  32.598  1.00  0.00    -0.237 OA
ATOM     84  O   UNL A   1      53.330  29.390  34.133  1.00  0.00    -0.237 OA
ATOM     85  O   UNL A   1      54.660  28.773  32.154  1.00  0.00    -0.744 OA
ENDBRANCH  81  82
ENDBRANCH  62  76
BRANCH  63  86
ATOM     86  C   UNL A   1      40.105  26.962  27.912  1.00  0.00    -0.014 A 
ATOM     87  C   UNL A   1      39.422  26.295  28.970  1.00  0.00     0.010 A 
ATOM     88  C   UNL A   1      39.766  28.315  27.688  1.00  0.00     0.010 A 
ATOM     89  C   UNL A   1      38.667  27.004  29.921  1.00  0.00     0.020 A 
ATOM     90  C   UNL A   1      38.989  29.025  28.640  1.00  0.00     0.020 A 
ATOM     91  C   UNL A   1      38.505  28.379  29.784  1.00  0.00     0.054 A 
BRANCH  91  92
ATOM     92  S   UNL A   1      37.893  29.319  31.229  1.00  0.00     0.124 S 
ATOM     93  O   UNL A   1      38.325  28.492  32.349  1.00  0.00    -0.237 OA
ATOM     94  O   UNL A   1      38.576  30.603  31.087  1.00  0.00    -0.237 OA
ATOM     95  O   UNL A   1      36.453  29.374  31.013  1.00  0.00    -0.744 OA
ENDBRANCH  91  92
ENDBRANCH  63  86
BRANCH  75  96
ATOM     96  C   UNL A   1      46.852  26.925  24.724  1.00  0.00    -0.014 A 
ATOM     97  C   UNL A   1      46.645  27.975  23.821  1.00  0.00     0.010 A 
ATOM     98  C   UNL A   1      48.009  26.123  24.543  1.00  0.00     0.010 A 
ATOM     99  C   UNL A   1      47.518  28.185  22.758  1.00  0.00     0.020 A 
ATOM    100  C   UNL A   1      48.918  26.361  23.518  1.00  0.00     0.020 A 
ATOM    101  C   UNL A   1      48.646  27.378  22.613  1.00  0.00     0.054 A 
BRANCH 101 102
ATOM    102  S   UNL A   1      49.762  27.700  21.237  1.00  0.00     0.124 S 
ATOM    103  O   UNL A   1      49.087  27.001  20.147  1.00  0.00    -0.237 OA
ATOM    104  O   UNL A   1      49.751  29.159  21.151  1.00  0.00    -0.237 OA
ATOM    105  O   UNL A   1      51.028  27.115  21.670  1.00  0.00    -0.744 OA
ENDBRANCH 101 102
ENDBRANCH  75  96
ENDBRANCH  49  50
ENDBRANCH  42  44
ENDBRANCH  41  42
ENDBRANCH  40  41
ENDBRANCH  39  40
ENDBRANCH  38  39
ENDBRANCH  37  38
ENDBRANCH  36  37
ENDBRANCH  35  36
ENDBRANCH   1  35
TORSDOF 27
ENDMDL
MODEL 3
REMARK VINA RESULT:      -9.3      3.015      6.058
REMARK SMILES Cc1c(NC(=O)c2ccccc2NC(=O)[C@@H]2CCCO2)cccc1C(=O)OCCOCCOCCOCCOC(=O)c1ccc(-c2c3nc(c(-c4ccc(S(=O)(=O)[O-])cc4)c4ccc([nH]4)c(-c4ccc(S(=O)(=O)[O-])cc4)c4nc(c(-c5ccc(S(=O)(=O)[O-])cc5)c5ccc2[nH]5)C=C4)C=C3)cc1
REMARK SMILES IDX 32 1 31 2 30 3 29 4 28 5 27 6 25 7 26 8 24 9 1 10 2 11 3 12
REMARK SMILES IDX 21 13 23 14 22 15 4 16 5 17 6 19 7 20 8 21 12 22 9 23 11 24
REMARK SMILES IDX 10 25 13 26 14 27 15 29 16 30 17 31 20 32 18 33 19 34 33 35
REMARK SMILES IDX 34 36 35 37 36 38 37 39 38 40 39 41 40 42 41 43 42 44 43 45
REMARK SMILES IDX 101 46 44 47 100 48 45 49 46 50 47 51 94 52 48 53 99 54
REMARK SMILES IDX 93 55 95 56 49 57 98 58 92 59 91 60 50 62 80 63 61 64 79 65
REMARK SMILES IDX 62 66 65 67 78 68 96 69 63 70 64 71 77 73 97 74 66 75 51 76
REMARK SMILES IDX 52 77 60 78 53 79 59 80 54 81 55 82 56 83 57 84 58 85 81 86
REMARK SMILES IDX 82 87 90 88 83 89 89 90 84 91 85 92 86 93 87 94 88 95 67 96
REMARK SMILES IDX 68 97 76 98 69 99 75 100 70 101 71 102 72 103 73 104 74 105
REMARK H PARENT 4 18 13 28 95 61 65 72
REMARK Flexibility Score: inf
ROOT
ATOM      1  C   UNL A   1      34.194  33.465  28.574  1.00  0.00     0.188 C 
ENDROOT
BRANCH   1   2
ATOM      2  C   UNL A   1      34.080  31.950  28.320  1.00  0.00     0.188 C 
BRANCH   2   3
ATOM      3  O   UNL A   1      33.473  31.437  27.150  1.00  0.00    -0.376 OA
BRANCH   3   4
ATOM      4  C   UNL A   1      33.625  30.041  26.958  1.00  0.00     0.202 C 
BRANCH   4   5
ATOM      5  C   UNL A   1      32.626  29.347  26.071  1.00  0.00     0.261 C 
BRANCH   5   6
ATOM      6  O   UNL A   1      33.317  28.453  25.220  1.00  0.00    -0.460 OA
BRANCH   6   7
ATOM      7  C   UNL A   1      32.963  28.578  23.937  1.00  0.00     0.338 C 
ATOM      8  O   UNL A   1      33.467  29.284  23.096  1.00  0.00    -0.246 OA
BRANCH   7   9
ATOM      9  C   UNL A   1      32.019  27.497  23.592  1.00  0.00     0.065 A 
ATOM     10  C   UNL A   1      33.610  25.834  22.421  1.00  0.00     0.047 C 
ATOM     11  C   UNL A   1      32.314  26.210  23.094  1.00  0.00    -0.013 A 
ATOM     12  C   UNL A   1      31.278  25.258  23.135  1.00  0.00     0.045 A 
ATOM     13  C   UNL A   1      30.000  25.633  23.582  1.00  0.00     0.026 A 
ATOM     14  C   UNL A   1      30.696  27.886  23.852  1.00  0.00     0.016 A 
ATOM     15  C   UNL A   1      29.682  26.957  23.840  1.00  0.00     0.003 A 
BRANCH  12  16
ATOM     16  N   UNL A   1      31.551  23.937  22.710  1.00  0.00    -0.322 N 
ATOM     17  C   UNL A   1      32.190  22.908  23.369  1.00  0.00     0.257 C 
ATOM     18  H   UNL A   1      31.236  23.717  21.803  1.00  0.00     0.170 HD
ATOM     19  O   UNL A   1      32.540  21.895  22.769  1.00  0.00    -0.269 OA
BRANCH  17  20
ATOM     20  C   UNL A   1      32.422  22.999  24.833  1.00  0.00     0.063 A 
ATOM     21  C   UNL A   1      31.267  23.010  25.631  1.00  0.00     0.016 A 
ATOM     22  C   UNL A   1      33.711  22.977  25.413  1.00  0.00     0.054 A 
ATOM     23  C   UNL A   1      31.378  22.877  27.009  1.00  0.00     0.001 A 
ATOM     24  C   UNL A   1      33.781  22.716  26.782  1.00  0.00     0.027 A 
ATOM     25  C   UNL A   1      32.629  22.676  27.575  1.00  0.00     0.002 A 
BRANCH  22  26
ATOM     26  N   UNL A   1      34.825  23.266  24.593  1.00  0.00    -0.323 N 
ATOM     27  C   UNL A   1      36.143  22.926  24.595  1.00  0.00     0.253 C 
ATOM     28  H   UNL A   1      34.591  23.855  23.841  1.00  0.00     0.170 HD
ATOM     29  O   UNL A   1      36.889  23.633  23.909  1.00  0.00    -0.272 OA
BRANCH  27  30
ATOM     30  C   UNL A   1      36.708  21.794  25.446  1.00  0.00     0.207 C 
ATOM     31  C   UNL A   1      38.189  22.070  25.662  1.00  0.00     0.044 C 
ATOM     32  O   UNL A   1      36.632  20.488  24.848  1.00  0.00    -0.368 OA
ATOM     33  C   UNL A   1      38.763  20.695  25.832  1.00  0.00     0.032 C 
ATOM     34  C   UNL A   1      37.936  19.896  24.853  1.00  0.00     0.161 C 
ENDBRANCH  27  30
ENDBRANCH  22  26
ENDBRANCH  17  20
ENDBRANCH  12  16
ENDBRANCH   7   9
ENDBRANCH   6   7
ENDBRANCH   5   6
ENDBRANCH   4   5
ENDBRANCH   3   4
ENDBRANCH   2   3
ENDBRANCH   1   2
BRANCH   1  35
ATOM     35  O   UNL A   1      34.380  33.961  29.882  1.00  0.00    -0.377 OA
BRANCH  35  36
ATOM     36  C   UNL A   1      34.713  33.027  30.915  1.00  0.00     0.188 C 
BRANCH  36  37
ATOM     37  C   UNL A   1      36.133  32.918  31.427  1.00  0.00     0.188 C 
BRANCH  37  38
ATOM     38  O   UNL A   1      36.597  34.253  31.619  1.00  0.00    -0.376 OA
BRANCH  38  39
ATOM     39  C   UNL A   1      37.627  34.402  32.572  1.00  0.00     0.202 C 
BRANCH  39  40
ATOM     40  C   UNL A   1      39.013  34.501  31.935  1.00  0.00     0.261 C 
BRANCH  40  41
ATOM     41  O   UNL A   1      39.867  33.391  32.327  1.00  0.00    -0.460 OA
BRANCH  41  42
ATOM     42  C   UNL A   1      41.228  33.500  32.208  1.00  0.00     0.338 C 
ATOM     43  O   UNL A   1      41.871  34.363  32.788  1.00  0.00    -0.246 OA
BRANCH  42  44
ATOM     44  C   UNL A   1      41.869  32.299  31.597  1.00  0.00     0.060 A 
ATOM     45  C   UNL A   1      42.253  31.168  32.336  1.00  0.00     0.016 A 
ATOM     46  C   UNL A   1      42.102  32.298  30.239  1.00  0.00     0.016 A 
ATOM     47  C   UNL A   1      43.054  30.151  31.760  1.00  0.00     0.010 A 
ATOM     48  C   UNL A   1      42.914  31.321  29.694  1.00  0.00     0.010 A 
ATOM     49  C   UNL A   1      43.461  30.261  30.436  1.00  0.00    -0.014 A 
BRANCH  49  50
ATOM     50  C   UNL A   1      44.501  29.450  29.740  1.00  0.00     0.031 A 
ATOM     51  C   UNL A   1      45.953  29.835  29.942  1.00  0.00     0.074 A 
ATOM     52  C   UNL A   1      44.181  28.193  29.313  1.00  0.00     0.049 A 
ATOM     53  N   UNL A   1      46.973  29.104  29.650  1.00  0.00    -0.248 NA
ATOM     54  C   UNL A   1      46.380  31.071  30.609  1.00  0.00     0.031 C 
ATOM     55  C   UNL A   1      45.067  27.030  29.213  1.00  0.00     0.029 A 
ATOM     56  N   UNL A   1      42.974  27.622  28.957  1.00  0.00    -0.354 N 
ATOM     57  C   UNL A   1      48.075  29.543  30.368  1.00  0.00     0.074 A 
ATOM     58  C   UNL A   1      47.663  30.815  30.905  1.00  0.00     0.031 C 
ATOM     59  C   UNL A   1      44.421  25.943  28.762  1.00  0.00     0.029 A 
ATOM     60  C   UNL A   1      43.155  26.416  28.276  1.00  0.00     0.049 A 
ATOM     61  H   UNL A   1      42.095  28.018  29.159  1.00  0.00     0.167 HD
ATOM     62  C   UNL A   1      49.153  28.708  30.519  1.00  0.00     0.031 A 
ATOM     63  C   UNL A   1      42.829  26.345  26.951  1.00  0.00     0.031 A 
ATOM     64  C   UNL A   1      49.006  27.499  29.673  1.00  0.00     0.049 A 
ATOM     65  C   UNL A   1      44.147  26.340  26.150  1.00  0.00     0.074 A 
ATOM     66  C   UNL A   1      49.053  26.135  29.903  1.00  0.00     0.029 A 
ATOM     67  N   UNL A   1      48.541  27.638  28.362  1.00  0.00    -0.354 N 
ATOM     68  N   UNL A   1      45.237  26.990  26.520  1.00  0.00    -0.248 NA
ATOM     69  C   UNL A   1      44.443  25.318  25.141  1.00  0.00     0.031 C 
ATOM     70  C   UNL A   1      48.409  25.486  28.802  1.00  0.00     0.029 A 
ATOM     71  C   UNL A   1      48.051  26.447  27.858  1.00  0.00     0.049 A 
ATOM     72  H   UNL A   1      48.560  28.483  27.858  1.00  0.00     0.167 HD
ATOM     73  C   UNL A   1      46.345  26.342  26.018  1.00  0.00     0.074 A 
ATOM     74  C   UNL A   1      45.787  25.352  25.098  1.00  0.00     0.031 C 
ATOM     75  C   UNL A   1      47.647  26.364  26.459  1.00  0.00     0.031 A 
BRANCH  62  76
ATOM     76  C   UNL A   1      50.293  28.852  31.545  1.00  0.00    -0.014 A 
ATOM     77  C   UNL A   1      51.562  29.300  31.103  1.00  0.00     0.010 A 
ATOM     78  C   UNL A   1      50.233  28.510  32.916  1.00  0.00     0.010 A 
ATOM     79  C   UNL A   1      52.686  29.401  31.948  1.00  0.00     0.020 A 
ATOM     80  C   UNL A   1      51.347  28.637  33.787  1.00  0.00     0.020 A 
ATOM     81  C   UNL A   1      52.572  29.080  33.295  1.00  0.00     0.054 A 
BRANCH  81  82
ATOM     82  S   UNL A   1      54.025  29.288  34.372  1.00  0.00     0.124 S 
ATOM     83  O   UNL A   1      53.464  29.113  35.710  1.00  0.00    -0.237 OA
ATOM     84  O   UNL A   1      54.914  28.218  33.923  1.00  0.00    -0.237 OA
ATOM     85  O   UNL A   1      54.495  30.640  34.072  1.00  0.00    -0.744 OA
ENDBRANCH  81  82
ENDBRANCH  62  76
BRANCH  63  86
ATOM     86  C   UNL A   1      41.441  26.911  26.758  1.00  0.00    -0.014 A 
ATOM     87  C   UNL A   1      40.471  26.331  27.627  1.00  0.00     0.010 A 
ATOM     88  C   UNL A   1      41.251  28.266  26.406  1.00  0.00     0.010 A 
ATOM     89  C   UNL A   1      39.541  27.123  28.324  1.00  0.00     0.020 A 
ATOM     90  C   UNL A   1      40.301  29.060  27.099  1.00  0.00     0.020 A 
ATOM     91  C   UNL A   1      39.503  28.495  28.101  1.00  0.00     0.054 A 
BRANCH  91  92
ATOM     92  S   UNL A   1      38.598  29.535  29.305  1.00  0.00     0.124 S 
ATOM     93  O   UNL A   1      38.047  30.588  28.461  1.00  0.00    -0.237 OA
ATOM     94  O   UNL A   1      37.626  28.599  29.868  1.00  0.00    -0.237 OA
ATOM     95  O   UNL A   1      39.636  29.960  30.235  1.00  0.00    -0.744 OA
ENDBRANCH  91  92
ENDBRANCH  63  86
BRANCH  75  96
ATOM     96  C   UNL A   1      48.770  26.409  25.449  1.00  0.00    -0.014 A 
ATOM     97  C   UNL A   1      48.611  27.009  24.194  1.00  0.00     0.010 A 
ATOM     98  C   UNL A   1      50.085  26.053  25.844  1.00  0.00     0.010 A 
ATOM     99  C   UNL A   1      49.702  27.198  23.351  1.00  0.00     0.020 A 
ATOM    100  C   UNL A   1      51.189  26.290  25.032  1.00  0.00     0.020 A 
ATOM    101  C   UNL A   1      50.981  26.837  23.773  1.00  0.00     0.054 A 
BRANCH 101 102
ATOM    102  S   UNL A   1      52.366  27.120  22.659  1.00  0.00     0.124 S 
ATOM    103  O   UNL A   1      53.205  25.958  22.937  1.00  0.00    -0.237 OA
ATOM    104  O   UNL A   1      51.724  27.133  21.347  1.00  0.00    -0.237 OA
ATOM    105  O   UNL A   1      52.908  28.405  23.094  1.00  0.00    -0.744 OA
ENDBRANCH 101 102
ENDBRANCH  75  96
ENDBRANCH  49  50
ENDBRANCH  42  44
ENDBRANCH  41  42
ENDBRANCH  40  41
ENDBRANCH  39  40
ENDBRANCH  38  39
ENDBRANCH  37  38
ENDBRANCH  36  37
ENDBRANCH  35  36
ENDBRANCH   1  35
TORSDOF 27
ENDMDL
