MODEL 1
REMARK VINA RESULT:      -8.0      0.000      0.000
REMARK SMILES CCOC(=O)NC(=O)COc1csc(C(=O)OCCOCCOCCOCCOC(=O)c2ccc(-c3c4nc(c(-c5ccc(S(=O)(=O)[O-])cc5)c5ccc([nH]5)c(-c5ccc(S(=O)(=O)[O-])cc5)c5nc(c(-c6ccc(S(=O)(=O)[O-])cc6)c6ccc3[nH]6)C=C5)C=C4)cc2)c1
REMARK SMILES IDX 22 1 21 2 20 3 19 4 18 5 17 6 15 7 16 8 14 9 11 10 12 11
REMARK SMILES IDX 92 12 13 13 10 14 9 15 7 16 4 17 5 18 6 19 8 21 3 22 2 23
REMARK SMILES IDX 1 24 23 25 24 26 25 27 26 28 27 29 28 30 29 31 30 32 31 33
REMARK SMILES IDX 32 34 33 35 91 36 34 37 90 38 35 39 36 40 37 41 84 42 38 43
REMARK SMILES IDX 89 44 83 45 85 46 39 47 88 48 82 49 81 50 40 52 70 53 51 54
REMARK SMILES IDX 69 55 52 56 55 57 68 58 86 59 53 60 54 61 67 63 87 64 56 65
REMARK SMILES IDX 41 66 42 67 50 68 43 69 49 70 44 71 45 72 46 73 47 74 48 75
REMARK SMILES IDX 71 76 72 77 80 78 73 79 79 80 74 81 75 82 76 83 77 84 78 85
REMARK SMILES IDX 57 86 58 87 66 88 59 89 65 90 60 91 61 92 62 93 63 94 64 95
REMARK H PARENT 6 20 85 51 55 62
REMARK Flexibility Score: inf
ROOT
ATOM      1  C   UNL A   1      32.840  27.117  26.117  1.00  0.00     0.188 C 
ENDROOT
BRANCH   1   2
ATOM      2  C   UNL A   1      32.526  26.466  24.759  1.00  0.00     0.188 C 
BRANCH   2   3
ATOM      3  O   UNL A   1      32.374  25.053  24.837  1.00  0.00    -0.376 OA
BRANCH   3   4
ATOM      4  C   UNL A   1      32.333  24.473  26.134  1.00  0.00     0.202 C 
BRANCH   4   5
ATOM      5  C   UNL A   1      33.484  23.527  26.513  1.00  0.00     0.261 C 
BRANCH   5   6
ATOM      6  O   UNL A   1      33.223  22.127  26.346  1.00  0.00    -0.459 OA
BRANCH   6   7
ATOM      7  C   UNL A   1      33.387  21.585  25.112  1.00  0.00     0.348 C 
ATOM      8  O   UNL A   1      32.493  21.059  24.458  1.00  0.00    -0.245 OA
BRANCH   7   9
ATOM      9  C   UNL A   1      34.728  21.890  24.660  1.00  0.00     0.116 A 
ATOM     10  C   UNL A   1      37.047  22.192  24.594  1.00  0.00     0.131 A 
ATOM     11  C   UNL A   1      36.639  22.973  23.537  1.00  0.00     0.112 A 
ATOM     12  C   UNL A   1      35.936  21.601  25.263  1.00  0.00     0.074 A 
ATOM     13  S   UNL A   1      34.952  22.836  23.252  1.00  0.00    -0.133 S 
BRANCH  10  14
ATOM     14  O   UNL A   1      38.307  21.939  25.021  1.00  0.00    -0.483 OA
BRANCH  14  15
ATOM     15  C   UNL A   1      38.647  22.229  26.357  1.00  0.00     0.329 C 
BRANCH  15  16
ATOM     16  C   UNL A   1      39.188  23.586  26.824  1.00  0.00     0.267 C 
ATOM     17  C   UNL A   1      41.227  22.795  28.114  1.00  0.00     0.413 C 
ATOM     18  O   UNL A   1      42.214  23.194  28.724  1.00  0.00    -0.224 OA
ATOM     19  N   UNL A   1      40.339  23.692  27.565  1.00  0.00    -0.258 N 
ATOM     20  H   UNL A   1      40.588  24.627  27.745  1.00  0.00     0.176 HD
ATOM     21  O   UNL A   1      38.577  24.629  26.558  1.00  0.00    -0.271 OA
BRANCH  17  22
ATOM     22  O   UNL A   1      40.899  21.501  27.928  1.00  0.00    -0.450 OA
BRANCH  22  23
ATOM     23  C   UNL A   1      41.885  20.679  27.284  1.00  0.00     0.231 C 
ATOM     24  C   UNL A   1      41.612  19.203  27.518  1.00  0.00     0.049 C 
ENDBRANCH  22  23
ENDBRANCH  17  22
ENDBRANCH  15  16
ENDBRANCH  14  15
ENDBRANCH  10  14
ENDBRANCH   7   9
ENDBRANCH   6   7
ENDBRANCH   5   6
ENDBRANCH   4   5
ENDBRANCH   3   4
ENDBRANCH   2   3
ENDBRANCH   1   2
BRANCH   1  25
ATOM     25  O   UNL A   1      31.719  27.694  26.761  1.00  0.00    -0.377 OA
BRANCH  25  26
ATOM     26  C   UNL A   1      31.832  29.014  27.292  1.00  0.00     0.188 C 
BRANCH  26  27
ATOM     27  C   UNL A   1      32.664  30.127  26.609  1.00  0.00     0.188 C 
BRANCH  27  28
ATOM     28  O   UNL A   1      34.053  30.118  26.924  1.00  0.00    -0.376 OA
BRANCH  28  29
ATOM     29  C   UNL A   1      34.472  30.986  27.968  1.00  0.00     0.202 C 
BRANCH  29  30
ATOM     30  C   UNL A   1      35.986  31.224  27.995  1.00  0.00     0.261 C 
BRANCH  30  31
ATOM     31  O   UNL A   1      36.783  30.063  27.717  1.00  0.00    -0.460 OA
BRANCH  31  32
ATOM     32  C   UNL A   1      37.368  29.456  28.773  1.00  0.00     0.338 C 
ATOM     33  O   UNL A   1      36.834  29.097  29.806  1.00  0.00    -0.246 OA
BRANCH  32  34
ATOM     34  C   UNL A   1      38.755  29.128  28.390  1.00  0.00     0.060 A 
ATOM     35  C   UNL A   1      39.659  28.735  29.384  1.00  0.00     0.016 A 
ATOM     36  C   UNL A   1      39.154  29.215  27.054  1.00  0.00     0.016 A 
ATOM     37  C   UNL A   1      40.985  28.465  29.046  1.00  0.00     0.010 A 
ATOM     38  C   UNL A   1      40.485  28.960  26.721  1.00  0.00     0.010 A 
ATOM     39  C   UNL A   1      41.413  28.619  27.720  1.00  0.00    -0.014 A 
BRANCH  39  40
ATOM     40  C   UNL A   1      42.860  28.625  27.403  1.00  0.00     0.031 A 
ATOM     41  C   UNL A   1      43.473  27.362  26.860  1.00  0.00     0.074 A 
ATOM     42  C   UNL A   1      43.615  29.722  27.590  1.00  0.00     0.049 A 
ATOM     43  N   UNL A   1      44.718  27.111  26.553  1.00  0.00    -0.248 NA
ATOM     44  C   UNL A   1      42.555  26.231  26.640  1.00  0.00     0.031 C 
ATOM     45  C   UNL A   1      43.132  31.014  28.074  1.00  0.00     0.029 A 
ATOM     46  N   UNL A   1      44.961  29.914  27.399  1.00  0.00    -0.354 N 
ATOM     47  C   UNL A   1      44.736  25.795  26.107  1.00  0.00     0.074 A 
ATOM     48  C   UNL A   1      43.384  25.290  26.213  1.00  0.00     0.031 C 
ATOM     49  C   UNL A   1      44.170  31.865  28.151  1.00  0.00     0.029 A 
ATOM     50  C   UNL A   1      45.393  31.170  27.753  1.00  0.00     0.049 A 
ATOM     51  H   UNL A   1      45.560  29.219  27.044  1.00  0.00     0.167 HD
ATOM     52  C   UNL A   1      45.782  25.070  25.646  1.00  0.00     0.031 A 
ATOM     53  C   UNL A   1      46.637  31.690  27.771  1.00  0.00     0.031 A 
ATOM     54  C   UNL A   1      47.130  25.565  25.564  1.00  0.00     0.049 A 
ATOM     55  C   UNL A   1      47.800  30.840  27.325  1.00  0.00     0.074 A 
ATOM     56  C   UNL A   1      48.259  24.911  25.105  1.00  0.00     0.029 A 
ATOM     57  N   UNL A   1      47.531  26.832  25.961  1.00  0.00    -0.354 N 
ATOM     58  N   UNL A   1      47.799  29.605  26.880  1.00  0.00    -0.248 NA
ATOM     59  C   UNL A   1      49.134  31.457  27.379  1.00  0.00     0.031 C 
ATOM     60  C   UNL A   1      49.354  25.764  25.275  1.00  0.00     0.029 A 
ATOM     61  C   UNL A   1      48.897  26.971  25.780  1.00  0.00     0.049 A 
ATOM     62  H   UNL A   1      46.935  27.528  26.317  1.00  0.00     0.167 HD
ATOM     63  C   UNL A   1      49.123  29.310  26.572  1.00  0.00     0.074 A 
ATOM     64  C   UNL A   1      49.896  30.497  26.872  1.00  0.00     0.031 C 
ATOM     65  C   UNL A   1      49.652  28.161  26.081  1.00  0.00     0.031 A 
BRANCH  52  66
ATOM     66  C   UNL A   1      45.508  23.651  25.229  1.00  0.00    -0.014 A 
ATOM     67  C   UNL A   1      45.085  23.345  23.922  1.00  0.00     0.010 A 
ATOM     68  C   UNL A   1      45.700  22.606  26.150  1.00  0.00     0.010 A 
ATOM     69  C   UNL A   1      44.819  22.023  23.558  1.00  0.00     0.020 A 
ATOM     70  C   UNL A   1      45.461  21.279  25.780  1.00  0.00     0.020 A 
ATOM     71  C   UNL A   1      45.005  20.998  24.491  1.00  0.00     0.054 A 
BRANCH  71  72
ATOM     72  S   UNL A   1      44.669  19.289  23.986  1.00  0.00     0.124 S 
ATOM     73  O   UNL A   1      45.866  18.596  24.454  1.00  0.00    -0.237 OA
ATOM     74  O   UNL A   1      43.439  18.977  24.710  1.00  0.00    -0.237 OA
ATOM     75  O   UNL A   1      44.528  19.378  22.535  1.00  0.00    -0.744 OA
ENDBRANCH  71  72
ENDBRANCH  52  66
BRANCH  53  76
ATOM     76  C   UNL A   1      46.855  33.086  28.242  1.00  0.00    -0.014 A 
ATOM     77  C   UNL A   1      46.886  34.155  27.330  1.00  0.00     0.010 A 
ATOM     78  C   UNL A   1      47.042  33.350  29.611  1.00  0.00     0.010 A 
ATOM     79  C   UNL A   1      47.114  35.461  27.776  1.00  0.00     0.020 A 
ATOM     80  C   UNL A   1      47.244  34.657  30.063  1.00  0.00     0.020 A 
ATOM     81  C   UNL A   1      47.290  35.704  29.141  1.00  0.00     0.054 A 
BRANCH  81  82
ATOM     82  S   UNL A   1      47.531  37.412  29.704  1.00  0.00     0.124 S 
ATOM     83  O   UNL A   1      46.350  38.079  29.166  1.00  0.00    -0.237 OA
ATOM     84  O   UNL A   1      47.568  37.263  31.157  1.00  0.00    -0.237 OA
ATOM     85  O   UNL A   1      48.801  37.797  29.093  1.00  0.00    -0.744 OA
ENDBRANCH  81  82
ENDBRANCH  53  76
BRANCH  65  86
ATOM     86  C   UNL A   1      51.131  28.138  25.795  1.00  0.00    -0.014 A 
ATOM     87  C   UNL A   1      51.657  28.682  24.611  1.00  0.00     0.010 A 
ATOM     88  C   UNL A   1      52.013  27.619  26.763  1.00  0.00     0.010 A 
ATOM     89  C   UNL A   1      53.036  28.682  24.386  1.00  0.00     0.020 A 
ATOM     90  C   UNL A   1      53.394  27.643  26.553  1.00  0.00     0.020 A 
ATOM     91  C   UNL A   1      53.897  28.162  25.359  1.00  0.00     0.054 A 
BRANCH  91  92
ATOM     92  S   UNL A   1      55.686  28.216  25.063  1.00  0.00     0.124 S 
ATOM     93  O   UNL A   1      56.200  27.399  26.158  1.00  0.00    -0.237 OA
ATOM     94  O   UNL A   1      55.810  27.632  23.730  1.00  0.00    -0.237 OA
ATOM     95  O   UNL A   1      56.008  29.640  25.144  1.00  0.00    -0.744 OA
ENDBRANCH  91  92
ENDBRANCH  65  86
ENDBRANCH  39  40
ENDBRANCH  32  34
ENDBRANCH  31  32
ENDBRANCH  30  31
ENDBRANCH  29  30
ENDBRANCH  28  29
ENDBRANCH  27  28
ENDBRANCH  26  27
ENDBRANCH  25  26
ENDBRANCH   1  25
TORSDOF 28
ENDMDL
MODEL 2
REMARK VINA RESULT:      -7.0      7.159     10.818
REMARK SMILES CCOC(=O)NC(=O)COc1csc(C(=O)OCCOCCOCCOCCOC(=O)c2ccc(-c3c4nc(c(-c5ccc(S(=O)(=O)[O-])cc5)c5ccc([nH]5)c(-c5ccc(S(=O)(=O)[O-])cc5)c5nc(c(-c6ccc(S(=O)(=O)[O-])cc6)c6ccc3[nH]6)C=C5)C=C4)cc2)c1
REMARK SMILES IDX 22 1 21 2 20 3 19 4 18 5 17 6 15 7 16 8 14 9 11 10 12 11
REMARK SMILES IDX 92 12 13 13 10 14 9 15 7 16 4 17 5 18 6 19 8 21 3 22 2 23
REMARK SMILES IDX 1 24 23 25 24 26 25 27 26 28 27 29 28 30 29 31 30 32 31 33
REMARK SMILES IDX 32 34 33 35 91 36 34 37 90 38 35 39 36 40 37 41 84 42 38 43
REMARK SMILES IDX 89 44 83 45 85 46 39 47 88 48 82 49 81 50 40 52 70 53 51 54
REMARK SMILES IDX 69 55 52 56 55 57 68 58 86 59 53 60 54 61 67 63 87 64 56 65
REMARK SMILES IDX 41 66 42 67 50 68 43 69 49 70 44 71 45 72 46 73 47 74 48 75
REMARK SMILES IDX 71 76 72 77 80 78 73 79 79 80 74 81 75 82 76 83 77 84 78 85
REMARK SMILES IDX 57 86 58 87 66 88 59 89 65 90 60 91 61 92 62 93 63 94 64 95
REMARK H PARENT 6 20 85 51 55 62
REMARK Flexibility Score: inf
ROOT
ATOM      1  C   UNL A   1      33.933  26.079  25.751  1.00  0.00     0.188 C 
ENDROOT
BRANCH   1   2
ATOM      2  C   UNL A   1      34.576  25.142  24.715  1.00  0.00     0.188 C 
BRANCH   2   3
ATOM      3  O   UNL A   1      34.701  23.800  25.173  1.00  0.00    -0.376 OA
BRANCH   3   4
ATOM      4  C   UNL A   1      34.582  23.577  26.572  1.00  0.00     0.202 C 
BRANCH   4   5
ATOM      5  C   UNL A   1      33.918  22.263  27.016  1.00  0.00     0.261 C 
BRANCH   5   6
ATOM      6  O   UNL A   1      32.626  22.391  27.625  1.00  0.00    -0.459 OA
BRANCH   6   7
ATOM      7  C   UNL A   1      31.608  22.887  26.877  1.00  0.00     0.348 C 
ATOM      8  O   UNL A   1      30.846  23.776  27.239  1.00  0.00    -0.245 OA
BRANCH   7   9
ATOM      9  C   UNL A   1      31.699  22.308  25.553  1.00  0.00     0.116 A 
ATOM     10  C   UNL A   1      32.219  20.887  23.769  1.00  0.00     0.131 A 
ATOM     11  C   UNL A   1      31.921  22.057  23.109  1.00  0.00     0.112 A 
ATOM     12  C   UNL A   1      32.128  21.048  25.181  1.00  0.00     0.074 A 
ATOM     13  S   UNL A   1      31.358  23.273  24.182  1.00  0.00    -0.133 S 
BRANCH  10  14
ATOM     14  O   UNL A   1      32.554  19.683  23.245  1.00  0.00    -0.483 OA
BRANCH  14  15
ATOM     15  C   UNL A   1      33.035  18.675  24.103  1.00  0.00     0.329 C 
BRANCH  15  16
ATOM     16  C   UNL A   1      34.497  18.567  24.558  1.00  0.00     0.267 C 
ATOM     17  C   UNL A   1      34.626  16.060  24.939  1.00  0.00     0.413 C 
ATOM     18  O   UNL A   1      35.400  15.153  25.228  1.00  0.00    -0.224 OA
ATOM     19  N   UNL A   1      35.073  17.360  24.868  1.00  0.00    -0.258 N 
ATOM     20  H   UNL A   1      36.027  17.444  25.092  1.00  0.00     0.176 HD
ATOM     21  O   UNL A   1      35.192  19.584  24.677  1.00  0.00    -0.271 OA
BRANCH  17  22
ATOM     22  O   UNL A   1      33.311  15.907  24.682  1.00  0.00    -0.450 OA
BRANCH  22  23
ATOM     23  C   UNL A   1      32.688  14.731  25.221  1.00  0.00     0.231 C 
ATOM     24  C   UNL A   1      32.049  15.014  26.570  1.00  0.00     0.049 C 
ENDBRANCH  22  23
ENDBRANCH  17  22
ENDBRANCH  15  16
ENDBRANCH  14  15
ENDBRANCH  10  14
ENDBRANCH   7   9
ENDBRANCH   6   7
ENDBRANCH   5   6
ENDBRANCH   4   5
ENDBRANCH   3   4
ENDBRANCH   2   3
ENDBRANCH   1   2
BRANCH   1  25
ATOM     25  O   UNL A   1      32.560  26.341  25.528  1.00  0.00    -0.377 OA
BRANCH  25  26
ATOM     26  C   UNL A   1      32.141  27.689  25.312  1.00  0.00     0.188 C 
BRANCH  26  27
ATOM     27  C   UNL A   1      33.132  28.876  25.235  1.00  0.00     0.188 C 
BRANCH  27  28
ATOM     28  O   UNL A   1      33.470  29.459  26.489  1.00  0.00    -0.376 OA
BRANCH  28  29
ATOM     29  C   UNL A   1      32.972  30.767  26.734  1.00  0.00     0.202 C 
BRANCH  29  30
ATOM     30  C   UNL A   1      34.011  31.713  27.345  1.00  0.00     0.261 C 
BRANCH  30  31
ATOM     31  O   UNL A   1      33.864  31.940  28.755  1.00  0.00    -0.460 OA
BRANCH  31  32
ATOM     32  C   UNL A   1      34.012  33.212  29.188  1.00  0.00     0.338 C 
ATOM     33  O   UNL A   1      33.343  34.179  28.877  1.00  0.00    -0.246 OA
BRANCH  32  34
ATOM     34  C   UNL A   1      35.025  33.206  30.261  1.00  0.00     0.060 A 
ATOM     35  C   UNL A   1      35.592  34.420  30.666  1.00  0.00     0.016 A 
ATOM     36  C   UNL A   1      35.410  32.002  30.856  1.00  0.00     0.016 A 
ATOM     37  C   UNL A   1      36.583  34.427  31.648  1.00  0.00     0.010 A 
ATOM     38  C   UNL A   1      36.413  32.010  31.827  1.00  0.00     0.010 A 
ATOM     39  C   UNL A   1      37.029  33.218  32.200  1.00  0.00    -0.014 A 
BRANCH  39  40
ATOM     40  C   UNL A   1      38.267  33.184  33.013  1.00  0.00     0.031 A 
ATOM     41  C   UNL A   1      39.582  33.048  32.295  1.00  0.00     0.074 A 
ATOM     42  C   UNL A   1      38.229  33.271  34.354  1.00  0.00     0.049 A 
ATOM     43  N   UNL A   1      40.788  32.950  32.788  1.00  0.00    -0.248 NA
ATOM     44  C   UNL A   1      39.526  33.013  30.824  1.00  0.00     0.031 C 
ATOM     45  C   UNL A   1      37.022  33.441  35.160  1.00  0.00     0.029 A 
ATOM     46  N   UNL A   1      39.246  33.216  35.274  1.00  0.00    -0.354 N 
ATOM     47  C   UNL A   1      41.634  32.839  31.692  1.00  0.00     0.074 A 
ATOM     48  C   UNL A   1      40.802  32.850  30.508  1.00  0.00     0.031 C 
ATOM     49  C   UNL A   1      37.367  33.469  36.460  1.00  0.00     0.029 A 
ATOM     50  C   UNL A   1      38.814  33.287  36.577  1.00  0.00     0.049 A 
ATOM     51  H   UNL A   1      40.194  33.134  35.026  1.00  0.00     0.167 HD
ATOM     52  C   UNL A   1      42.985  32.741  31.668  1.00  0.00     0.031 A 
ATOM     53  C   UNL A   1      39.506  33.195  37.730  1.00  0.00     0.031 A 
ATOM     54  C   UNL A   1      43.809  32.706  32.845  1.00  0.00     0.049 A 
ATOM     55  C   UNL A   1      41.001  33.009  37.683  1.00  0.00     0.074 A 
ATOM     56  C   UNL A   1      45.187  32.615  32.927  1.00  0.00     0.029 A 
ATOM     57  N   UNL A   1      43.331  32.749  34.146  1.00  0.00    -0.354 N 
ATOM     58  N   UNL A   1      41.791  32.933  36.637  1.00  0.00    -0.248 NA
ATOM     59  C   UNL A   1      41.700  32.903  38.972  1.00  0.00     0.031 C 
ATOM     60  C   UNL A   1      45.539  32.548  34.279  1.00  0.00     0.029 A 
ATOM     61  C   UNL A   1      44.385  32.661  35.039  1.00  0.00     0.049 A 
ATOM     62  H   UNL A   1      42.383  32.830  34.397  1.00  0.00     0.167 HD
ATOM     63  C   UNL A   1      43.081  32.801  37.144  1.00  0.00     0.074 A 
ATOM     64  C   UNL A   1      42.966  32.819  38.587  1.00  0.00     0.031 C 
ATOM     65  C   UNL A   1      44.255  32.682  36.474  1.00  0.00     0.031 A 
BRANCH  52  66
ATOM     66  C   UNL A   1      43.645  32.629  30.321  1.00  0.00    -0.014 A 
ATOM     67  C   UNL A   1      43.997  33.776  29.585  1.00  0.00     0.010 A 
ATOM     68  C   UNL A   1      43.940  31.359  29.794  1.00  0.00     0.010 A 
ATOM     69  C   UNL A   1      44.595  33.653  28.329  1.00  0.00     0.020 A 
ATOM     70  C   UNL A   1      44.562  31.233  28.549  1.00  0.00     0.020 A 
ATOM     71  C   UNL A   1      44.870  32.381  27.816  1.00  0.00     0.054 A 
BRANCH  71  72
ATOM     72  S   UNL A   1      45.662  32.251  26.190  1.00  0.00     0.124 S 
ATOM     73  O   UNL A   1      47.053  32.565  26.507  1.00  0.00    -0.237 OA
ATOM     74  O   UNL A   1      45.401  30.863  25.817  1.00  0.00    -0.237 OA
ATOM     75  O   UNL A   1      44.966  33.251  25.385  1.00  0.00    -0.744 OA
ENDBRANCH  71  72
ENDBRANCH  52  66
BRANCH  53  76
ATOM     76  C   UNL A   1      38.792  33.262  39.036  1.00  0.00    -0.014 A 
ATOM     77  C   UNL A   1      38.816  34.436  39.809  1.00  0.00     0.010 A 
ATOM     78  C   UNL A   1      38.088  32.142  39.517  1.00  0.00     0.010 A 
ATOM     79  C   UNL A   1      38.163  34.484  41.045  1.00  0.00     0.020 A 
ATOM     80  C   UNL A   1      37.412  32.196  40.739  1.00  0.00     0.020 A 
ATOM     81  C   UNL A   1      37.463  33.364  41.501  1.00  0.00     0.054 A 
BRANCH  81  82
ATOM     82  S   UNL A   1      36.578  33.466  43.082  1.00  0.00     0.124 S 
ATOM     83  O   UNL A   1      36.378  32.058  43.409  1.00  0.00    -0.237 OA
ATOM     84  O   UNL A   1      37.527  34.185  43.929  1.00  0.00    -0.237 OA
ATOM     85  O   UNL A   1      35.366  34.210  42.748  1.00  0.00    -0.744 OA
ENDBRANCH  81  82
ENDBRANCH  53  76
BRANCH  65  86
ATOM     86  C   UNL A   1      45.520  32.601  37.289  1.00  0.00    -0.014 A 
ATOM     87  C   UNL A   1      46.178  33.759  37.737  1.00  0.00     0.010 A 
ATOM     88  C   UNL A   1      46.018  31.339  37.666  1.00  0.00     0.010 A 
ATOM     89  C   UNL A   1      47.329  33.657  38.523  1.00  0.00     0.020 A 
ATOM     90  C   UNL A   1      47.152  31.234  38.476  1.00  0.00     0.020 A 
ATOM     91  C   UNL A   1      47.809  32.395  38.887  1.00  0.00     0.054 A 
BRANCH  91  92
ATOM     92  S   UNL A   1      49.278  32.290  39.947  1.00  0.00     0.124 S 
ATOM     93  O   UNL A   1      48.733  31.692  41.163  1.00  0.00    -0.237 OA
ATOM     94  O   UNL A   1      50.174  31.435  39.173  1.00  0.00    -0.237 OA
ATOM     95  O   UNL A   1      49.712  33.680  40.076  1.00  0.00    -0.744 OA
ENDBRANCH  91  92
ENDBRANCH  65  86
ENDBRANCH  39  40
ENDBRANCH  32  34
ENDBRANCH  31  32
ENDBRANCH  30  31
ENDBRANCH  29  30
ENDBRANCH  28  29
ENDBRANCH  27  28
ENDBRANCH  26  27
ENDBRANCH  25  26
ENDBRANCH   1  25
TORSDOF 28
ENDMDL
MODEL 3
REMARK VINA RESULT:      -6.5     10.197     15.427
REMARK SMILES CCOC(=O)NC(=O)COc1csc(C(=O)OCCOCCOCCOCCOC(=O)c2ccc(-c3c4nc(c(-c5ccc(S(=O)(=O)[O-])cc5)c5ccc([nH]5)c(-c5ccc(S(=O)(=O)[O-])cc5)c5nc(c(-c6ccc(S(=O)(=O)[O-])cc6)c6ccc3[nH]6)C=C5)C=C4)cc2)c1
REMARK SMILES IDX 22 1 21 2 20 3 19 4 18 5 17 6 15 7 16 8 14 9 11 10 12 11
REMARK SMILES IDX 92 12 13 13 10 14 9 15 7 16 4 17 5 18 6 19 8 21 3 22 2 23
REMARK SMILES IDX 1 24 23 25 24 26 25 27 26 28 27 29 28 30 29 31 30 32 31 33
REMARK SMILES IDX 32 34 33 35 91 36 34 37 90 38 35 39 36 40 37 41 84 42 38 43
REMARK SMILES IDX 89 44 83 45 85 46 39 47 88 48 82 49 81 50 40 52 70 53 51 54
REMARK SMILES IDX 69 55 52 56 55 57 68 58 86 59 53 60 54 61 67 63 87 64 56 65
REMARK SMILES IDX 41 66 42 67 50 68 43 69 49 70 44 71 45 72 46 73 47 74 48 75
REMARK SMILES IDX 71 76 72 77 80 78 73 79 79 80 74 81 75 82 76 83 77 84 78 85
REMARK SMILES IDX 57 86 58 87 66 88 59 89 65 90 60 91 61 92 62 93 63 94 64 95
REMARK H PARENT 6 20 85 51 55 62
REMARK Flexibility Score: inf
ROOT
ATOM      1  C   UNL A   1      50.671  20.805  37.298  1.00  0.00     0.188 C 
ENDROOT
BRANCH   1   2
ATOM      2  C   UNL A   1      50.737  20.127  38.677  1.00  0.00     0.188 C 
BRANCH   2   3
ATOM      3  O   UNL A   1      49.912  20.756  39.652  1.00  0.00    -0.376 OA
BRANCH   3   4
ATOM      4  C   UNL A   1      50.551  21.606  40.595  1.00  0.00     0.202 C 
BRANCH   4   5
ATOM      5  C   UNL A   1      50.762  21.044  42.011  1.00  0.00     0.261 C 
BRANCH   5   6
ATOM      6  O   UNL A   1      49.642  20.355  42.583  1.00  0.00    -0.459 OA
BRANCH   6   7
ATOM      7  C   UNL A   1      49.505  19.028  42.329  1.00  0.00     0.348 C 
ATOM      8  O   UNL A   1      50.398  18.305  41.901  1.00  0.00    -0.245 OA
BRANCH   7   9
ATOM      9  C   UNL A   1      48.204  18.610  42.807  1.00  0.00     0.116 A 
ATOM     10  C   UNL A   1      45.925  18.093  42.912  1.00  0.00     0.131 A 
ATOM     11  C   UNL A   1      46.229  18.265  44.243  1.00  0.00     0.112 A 
ATOM     12  C   UNL A   1      47.060  18.333  42.084  1.00  0.00     0.074 A 
ATOM     13  S   UNL A   1      47.907  18.527  44.490  1.00  0.00    -0.133 S 
BRANCH  10  14
ATOM     14  O   UNL A   1      44.744  17.734  42.355  1.00  0.00    -0.483 OA
BRANCH  14  15
ATOM     15  C   UNL A   1      44.742  16.805  41.297  1.00  0.00     0.329 C 
BRANCH  15  16
ATOM     16  C   UNL A   1      43.648  16.735  40.224  1.00  0.00     0.267 C 
ATOM     17  C   UNL A   1      41.981  15.247  41.431  1.00  0.00     0.413 C 
ATOM     18  O   UNL A   1      40.858  14.763  41.341  1.00  0.00    -0.224 OA
ATOM     19  N   UNL A   1      42.480  16.040  40.423  1.00  0.00    -0.258 N 
ATOM     20  H   UNL A   1      41.854  16.131  39.669  1.00  0.00     0.176 HD
ATOM     21  O   UNL A   1      43.805  17.295  39.131  1.00  0.00    -0.271 OA
BRANCH  17  22
ATOM     22  O   UNL A   1      42.826  15.062  42.464  1.00  0.00    -0.450 OA
BRANCH  22  23
ATOM     23  C   UNL A   1      42.372  14.192  43.512  1.00  0.00     0.231 C 
ATOM     24  C   UNL A   1      42.182  12.772  43.007  1.00  0.00     0.049 C 
ENDBRANCH  22  23
ENDBRANCH  17  22
ENDBRANCH  15  16
ENDBRANCH  14  15
ENDBRANCH  10  14
ENDBRANCH   7   9
ENDBRANCH   6   7
ENDBRANCH   5   6
ENDBRANCH   4   5
ENDBRANCH   3   4
ENDBRANCH   2   3
ENDBRANCH   1   2
BRANCH   1  25
ATOM     25  O   UNL A   1      49.358  21.022  36.817  1.00  0.00    -0.377 OA
BRANCH  25  26
ATOM     26  C   UNL A   1      49.172  21.844  35.665  1.00  0.00     0.188 C 
BRANCH  26  27
ATOM     27  C   UNL A   1      48.975  23.378  35.749  1.00  0.00     0.188 C 
BRANCH  27  28
ATOM     28  O   UNL A   1      48.969  23.912  37.069  1.00  0.00    -0.376 OA
BRANCH  28  29
ATOM     29  C   UNL A   1      49.724  25.099  37.275  1.00  0.00     0.202 C 
BRANCH  29  30
ATOM     30  C   UNL A   1      49.164  26.316  36.532  1.00  0.00     0.261 C 
BRANCH  30  31
ATOM     31  O   UNL A   1      48.862  27.445  37.366  1.00  0.00    -0.460 OA
BRANCH  31  32
ATOM     32  C   UNL A   1      47.705  27.397  38.064  1.00  0.00     0.338 C 
ATOM     33  O   UNL A   1      47.573  27.208  39.259  1.00  0.00    -0.246 OA
BRANCH  32  34
ATOM     34  C   UNL A   1      46.615  27.799  37.155  1.00  0.00     0.060 A 
ATOM     35  C   UNL A   1      46.803  28.904  36.316  1.00  0.00     0.016 A 
ATOM     36  C   UNL A   1      45.415  27.084  37.138  1.00  0.00     0.016 A 
ATOM     37  C   UNL A   1      45.766  29.324  35.483  1.00  0.00     0.010 A 
ATOM     38  C   UNL A   1      44.374  27.515  36.315  1.00  0.00     0.010 A 
ATOM     39  C   UNL A   1      44.533  28.658  35.511  1.00  0.00    -0.014 A 
BRANCH  39  40
ATOM     40  C   UNL A   1      43.346  29.263  34.863  1.00  0.00     0.031 A 
ATOM     41  C   UNL A   1      42.936  28.747  33.510  1.00  0.00     0.074 A 
ATOM     42  C   UNL A   1      42.648  30.247  35.456  1.00  0.00     0.049 A 
ATOM     43  N   UNL A   1      41.968  29.147  32.730  1.00  0.00    -0.248 NA
ATOM     44  C   UNL A   1      43.731  27.633  32.965  1.00  0.00     0.031 C 
ATOM     45  C   UNL A   1      42.923  30.806  36.778  1.00  0.00     0.029 A 
ATOM     46  N   UNL A   1      41.561  30.956  35.009  1.00  0.00    -0.354 N 
ATOM     47  C   UNL A   1      42.037  28.338  31.602  1.00  0.00     0.074 A 
ATOM     48  C   UNL A   1      43.161  27.446  31.784  1.00  0.00     0.031 C 
ATOM     49  C   UNL A   1      42.032  31.780  37.033  1.00  0.00     0.029 A 
ATOM     50  C   UNL A   1      41.145  31.934  35.880  1.00  0.00     0.049 A 
ATOM     51  H   UNL A   1      41.121  30.781  34.146  1.00  0.00     0.167 HD
ATOM     52  C   UNL A   1      41.235  28.333  30.511  1.00  0.00     0.031 A 
ATOM     53  C   UNL A   1      40.173  32.859  35.750  1.00  0.00     0.031 A 
ATOM     54  C   UNL A   1      40.132  29.236  30.320  1.00  0.00     0.049 A 
ATOM     55  C   UNL A   1      39.339  32.886  34.494  1.00  0.00     0.074 A 
ATOM     56  C   UNL A   1      39.255  29.307  29.252  1.00  0.00     0.029 A 
ATOM     57  N   UNL A   1      39.763  30.232  31.211  1.00  0.00    -0.354 N 
ATOM     58  N   UNL A   1      39.399  32.097  33.446  1.00  0.00    -0.248 NA
ATOM     59  C   UNL A   1      38.303  33.925  34.405  1.00  0.00     0.031 C 
ATOM     60  C   UNL A   1      38.387  30.382  29.473  1.00  0.00     0.029 A 
ATOM     61  C   UNL A   1      38.685  30.939  30.707  1.00  0.00     0.049 A 
ATOM     62  H   UNL A   1      40.201  30.408  32.074  1.00  0.00     0.167 HD
ATOM     63  C   UNL A   1      38.389  32.525  32.590  1.00  0.00     0.074 A 
ATOM     64  C   UNL A   1      37.728  33.635  33.246  1.00  0.00     0.031 C 
ATOM     65  C   UNL A   1      38.036  32.041  31.373  1.00  0.00     0.031 A 
BRANCH  52  66
ATOM     66  C   UNL A   1      41.549  27.338  29.427  1.00  0.00    -0.014 A 
ATOM     67  C   UNL A   1      40.606  26.372  29.030  1.00  0.00     0.010 A 
ATOM     68  C   UNL A   1      42.797  27.386  28.780  1.00  0.00     0.010 A 
ATOM     69  C   UNL A   1      40.922  25.446  28.033  1.00  0.00     0.020 A 
ATOM     70  C   UNL A   1      43.106  26.478  27.764  1.00  0.00     0.020 A 
ATOM     71  C   UNL A   1      42.173  25.502  27.409  1.00  0.00     0.054 A 
BRANCH  71  72
ATOM     72  S   UNL A   1      42.550  24.298  26.107  1.00  0.00     0.124 S 
ATOM     73  O   UNL A   1      42.600  25.145  24.918  1.00  0.00    -0.237 OA
ATOM     74  O   UNL A   1      43.831  23.748  26.540  1.00  0.00    -0.237 OA
ATOM     75  O   UNL A   1      41.426  23.367  26.159  1.00  0.00    -0.744 OA
ENDBRANCH  71  72
ENDBRANCH  52  66
BRANCH  53  76
ATOM     76  C   UNL A   1      39.939  33.852  36.836  1.00  0.00    -0.014 A 
ATOM     77  C   UNL A   1      38.945  33.636  37.806  1.00  0.00     0.010 A 
ATOM     78  C   UNL A   1      40.710  35.027  36.898  1.00  0.00     0.010 A 
ATOM     79  C   UNL A   1      38.714  34.584  38.808  1.00  0.00     0.020 A 
ATOM     80  C   UNL A   1      40.501  35.964  37.915  1.00  0.00     0.020 A 
ATOM     81  C   UNL A   1      39.496  35.741  38.858  1.00  0.00     0.054 A 
BRANCH  81  82
ATOM     82  S   UNL A   1      39.217  36.931  40.199  1.00  0.00     0.124 S 
ATOM     83  O   UNL A   1      38.542  38.021  39.501  1.00  0.00    -0.237 OA
ATOM     84  O   UNL A   1      38.391  36.168  41.131  1.00  0.00    -0.237 OA
ATOM     85  O   UNL A   1      40.566  37.232  40.675  1.00  0.00    -0.744 OA
ENDBRANCH  81  82
ENDBRANCH  53  76
BRANCH  65  86
ATOM     86  C   UNL A   1      36.858  32.676  30.681  1.00  0.00    -0.014 A 
ATOM     87  C   UNL A   1      35.541  32.270  30.956  1.00  0.00     0.010 A 
ATOM     88  C   UNL A   1      37.076  33.744  29.790  1.00  0.00     0.010 A 
ATOM     89  C   UNL A   1      34.463  32.901  30.329  1.00  0.00     0.020 A 
ATOM     90  C   UNL A   1      35.999  34.396  29.183  1.00  0.00     0.020 A 
ATOM     91  C   UNL A   1      34.699  33.960  29.445  1.00  0.00     0.054 A 
BRANCH  91  92
ATOM     92  S   UNL A   1      33.280  34.793  28.680  1.00  0.00     0.124 S 
ATOM     93  O   UNL A   1      32.513  35.219  29.847  1.00  0.00    -0.237 OA
ATOM     94  O   UNL A   1      33.911  35.865  27.916  1.00  0.00    -0.237 OA
ATOM     95  O   UNL A   1      32.657  33.745  27.874  1.00  0.00    -0.744 OA
ENDBRANCH  91  92
ENDBRANCH  65  86
ENDBRANCH  39  40
ENDBRANCH  32  34
ENDBRANCH  31  32
ENDBRANCH  30  31
ENDBRANCH  29  30
ENDBRANCH  28  29
ENDBRANCH  27  28
ENDBRANCH  26  27
ENDBRANCH  25  26
ENDBRANCH   1  25
TORSDOF 28
ENDMDL
