MODEL 1
REMARK VINA RESULT:      -9.7      0.000      0.000
REMARK SMILES Cc1ccc(-c2nc(NC(=O)[C@H]3[C@@H](C(=O)OCCOCCOCCOCCOC(=O)c4ccc(-c5c6nc(c(-c7ccc(S(=O)(=O)[O-])cc7)c7ccc([nH]7)c(-c7ccc(S(=O)(=O)[O-])cc7)c7nc(c(-c8ccc(S(=O)(=O)[O-])cc8)c8ccc5[nH]8)C=C7)C=C6)cc4)[C@@H]4CC[C@H]3O4)sc2C)cc1
REMARK SMILES IDX 22 1 21 2 20 3 19 4 18 5 17 6 16 7 14 8 15 9 13 10 12 11
REMARK SMILES IDX 94 12 91 13 93 14 95 15 92 16 10 17 9 18 11 20 8 21 6 22
REMARK SMILES IDX 7 23 97 24 96 25 98 26 5 27 1 28 2 29 3 30 100 31 4 32 99 33
REMARK SMILES IDX 23 34 24 35 25 36 26 37 27 38 28 39 29 40 30 41 31 42 32 43
REMARK SMILES IDX 90 44 33 45 89 46 34 47 35 48 36 49 83 50 37 51 88 52 82 53
REMARK SMILES IDX 84 54 38 55 87 56 81 57 80 58 39 60 69 61 50 62 68 63 51 64
REMARK SMILES IDX 54 65 67 66 85 67 52 68 53 69 66 71 86 72 55 73 40 74 41 75
REMARK SMILES IDX 49 76 42 77 48 78 43 79 44 80 45 81 46 82 47 83 70 84 71 85
REMARK SMILES IDX 79 86 72 87 78 88 73 89 74 90 75 91 76 92 77 93 56 94 57 95
REMARK SMILES IDX 65 96 58 97 64 98 59 99 60 100 61 101 62 102 63 103
REMARK H PARENT 9 19 84 59 54 70
REMARK Flexibility Score: inf
ROOT
ATOM      1  O   UNL A   1      41.189  25.840  27.462  1.00  0.00    -0.377 OA
ENDROOT
BRANCH   1   2
ATOM      2  C   UNL A   1      41.041  24.715  26.577  1.00  0.00     0.188 C 
BRANCH   2   3
ATOM      3  C   UNL A   1      39.937  23.624  26.780  1.00  0.00     0.188 C 
BRANCH   3   4
ATOM      4  O   UNL A   1      40.121  22.318  26.239  1.00  0.00    -0.376 OA
BRANCH   4   5
ATOM      5  C   UNL A   1      38.929  21.673  25.901  1.00  0.00     0.202 C 
BRANCH   5   6
ATOM      6  C   UNL A   1      37.748  22.530  25.635  1.00  0.00     0.261 C 
BRANCH   6   7
ATOM      7  O   UNL A   1      36.519  21.804  25.667  1.00  0.00    -0.463 OA
BRANCH   7   8
ATOM      8  C   UNL A   1      35.380  22.013  25.008  1.00  0.00     0.312 C 
ATOM      9  O   UNL A   1      35.437  22.506  23.875  1.00  0.00    -0.252 OA
BRANCH   8  10
ATOM     10  C   UNL A   1      34.007  21.878  25.630  1.00  0.00     0.143 C 
ATOM     11  C   UNL A   1      32.671  22.209  24.988  1.00  0.00     0.124 C 
ATOM     12  C   UNL A   1      32.387  23.624  25.635  1.00  0.00     0.132 C 
ATOM     13  C   UNL A   1      33.998  22.820  26.841  1.00  0.00     0.133 C 
ATOM     14  C   UNL A   1      31.700  23.445  26.986  1.00  0.00     0.035 C 
ATOM     15  O   UNL A   1      33.670  24.044  26.166  1.00  0.00    -0.373 OA
ATOM     16  C   UNL A   1      32.755  22.607  27.722  1.00  0.00     0.036 C 
BRANCH  11  17
ATOM     17  C   UNL A   1      32.333  22.134  23.512  1.00  0.00     0.232 C 
ATOM     18  N   UNL A   1      32.256  23.142  22.603  1.00  0.00    -0.302 N 
ATOM     19  H   UNL A   1      32.151  22.807  21.684  1.00  0.00     0.172 HD
ATOM     20  O   UNL A   1      32.119  21.000  23.057  1.00  0.00    -0.274 OA
BRANCH  18  21
ATOM     21  C   UNL A   1      32.289  24.514  22.653  1.00  0.00     0.190 A 
ATOM     22  C   UNL A   1      31.333  26.639  22.887  1.00  0.00     0.086 A 
ATOM     23  N   UNL A   1      31.214  25.274  22.571  1.00  0.00    -0.220 NA
ATOM     24  C   UNL A   1      32.761  26.613  23.540  1.00  0.00     0.031 A 
ATOM     25  S   UNL A   1      33.714  25.332  22.760  1.00  0.00    -0.101 S 
ATOM     26  C   UNL A   1      33.716  27.352  24.533  1.00  0.00     0.059 C 
BRANCH  22  27
ATOM     27  C   UNL A   1      29.960  27.941  22.645  1.00  0.00     0.001 A 
ATOM     28  C   UNL A   1      27.541  31.605  23.694  1.00  0.00     0.044 C 
ATOM     29  C   UNL A   1      28.136  30.369  23.107  1.00  0.00    -0.051 A 
ATOM     30  C   UNL A   1      27.721  29.079  23.326  1.00  0.00     0.004 A 
ATOM     31  C   UNL A   1      29.251  30.465  22.337  1.00  0.00     0.004 A 
ATOM     32  C   UNL A   1      28.576  27.940  23.034  1.00  0.00     0.010 A 
ATOM     33  C   UNL A   1      30.062  29.321  22.110  1.00  0.00     0.010 A 
ENDBRANCH  22  27
ENDBRANCH  18  21
ENDBRANCH  11  17
ENDBRANCH   8  10
ENDBRANCH   7   8
ENDBRANCH   6   7
ENDBRANCH   5   6
ENDBRANCH   4   5
ENDBRANCH   3   4
ENDBRANCH   2   3
ENDBRANCH   1   2
BRANCH   1  34
ATOM     34  C   UNL A   1      40.234  26.015  28.530  1.00  0.00     0.188 C 
BRANCH  34  35
ATOM     35  C   UNL A   1      39.697  27.451  28.601  1.00  0.00     0.188 C 
BRANCH  35  36
ATOM     36  O   UNL A   1      38.772  27.593  29.675  1.00  0.00    -0.376 OA
BRANCH  36  37
ATOM     37  C   UNL A   1      39.316  27.816  30.961  1.00  0.00     0.202 C 
BRANCH  37  38
ATOM     38  C   UNL A   1      38.295  27.346  31.964  1.00  0.00     0.261 C 
BRANCH  38  39
ATOM     39  O   UNL A   1      38.237  28.366  33.009  1.00  0.00    -0.460 OA
BRANCH  39  40
ATOM     40  C   UNL A   1      37.739  29.605  32.694  1.00  0.00     0.338 C 
ATOM     41  O   UNL A   1      36.544  29.801  32.519  1.00  0.00    -0.246 OA
BRANCH  40  42
ATOM     42  C   UNL A   1      38.741  30.738  32.780  1.00  0.00     0.060 A 
ATOM     43  C   UNL A   1      38.468  31.993  32.212  1.00  0.00     0.016 A 
ATOM     44  C   UNL A   1      40.000  30.553  33.345  1.00  0.00     0.016 A 
ATOM     45  C   UNL A   1      39.484  32.972  32.079  1.00  0.00     0.010 A 
ATOM     46  C   UNL A   1      41.007  31.519  33.196  1.00  0.00     0.010 A 
ATOM     47  C   UNL A   1      40.815  32.691  32.456  1.00  0.00    -0.014 A 
BRANCH  47  48
ATOM     48  C   UNL A   1      42.022  33.445  31.914  1.00  0.00     0.031 A 
ATOM     49  C   UNL A   1      42.773  34.626  32.959  1.00  0.00     0.074 A 
ATOM     50  C   UNL A   1      42.510  33.080  30.656  1.00  0.00     0.049 A 
ATOM     51  N   UNL A   1      44.043  34.913  33.187  1.00  0.00    -0.248 NA
ATOM     52  C   UNL A   1      41.997  35.618  33.711  1.00  0.00     0.031 C 
ATOM     53  C   UNL A   1      43.089  34.015  29.750  1.00  0.00     0.029 A 
ATOM     54  N   UNL A   1      42.712  31.872  29.876  1.00  0.00    -0.354 N 
ATOM     55  C   UNL A   1      44.287  36.327  33.543  1.00  0.00     0.074 A 
ATOM     56  C   UNL A   1      42.912  36.544  34.108  1.00  0.00     0.031 C 
ATOM     57  C   UNL A   1      43.895  33.411  28.924  1.00  0.00     0.029 A 
ATOM     58  C   UNL A   1      43.704  32.045  28.858  1.00  0.00     0.049 A 
ATOM     59  H   UNL A   1      42.222  31.031  30.029  1.00  0.00     0.167 HD
ATOM     60  C   UNL A   1      45.407  37.320  33.084  1.00  0.00     0.031 A 
ATOM     61  C   UNL A   1      44.479  31.446  27.891  1.00  0.00     0.031 A 
ATOM     62  C   UNL A   1      46.712  37.129  31.822  1.00  0.00     0.049 A 
ATOM     63  C   UNL A   1      45.685  32.495  27.234  1.00  0.00     0.074 A 
ATOM     64  C   UNL A   1      48.127  37.225  31.704  1.00  0.00     0.029 A 
ATOM     65  N   UNL A   1      46.599  36.631  30.332  1.00  0.00    -0.354 N 
ATOM     66  N   UNL A   1      45.651  33.845  27.256  1.00  0.00    -0.248 NA
ATOM     67  C   UNL A   1      47.042  32.167  26.762  1.00  0.00     0.031 C 
ATOM     68  C   UNL A   1      48.668  36.604  30.393  1.00  0.00     0.029 A 
ATOM     69  C   UNL A   1      47.646  36.119  29.578  1.00  0.00     0.049 A 
ATOM     70  H   UNL A   1      45.716  36.688  29.902  1.00  0.00     0.167 HD
ATOM     71  C   UNL A   1      46.918  34.331  27.704  1.00  0.00     0.074 A 
ATOM     72  C   UNL A   1      47.729  33.324  27.003  1.00  0.00     0.031 C 
ATOM     73  C   UNL A   1      47.264  35.652  28.081  1.00  0.00     0.031 A 
BRANCH  60  74
ATOM     74  C   UNL A   1      45.434  38.686  33.885  1.00  0.00    -0.014 A 
ATOM     75  C   UNL A   1      45.665  38.676  35.269  1.00  0.00     0.010 A 
ATOM     76  C   UNL A   1      45.149  39.976  33.371  1.00  0.00     0.010 A 
ATOM     77  C   UNL A   1      45.539  39.832  36.072  1.00  0.00     0.020 A 
ATOM     78  C   UNL A   1      45.056  41.149  34.140  1.00  0.00     0.020 A 
ATOM     79  C   UNL A   1      45.213  41.060  35.505  1.00  0.00     0.054 A 
BRANCH  79  80
ATOM     80  S   UNL A   1      44.945  42.507  36.557  1.00  0.00     0.124 S 
ATOM     81  O   UNL A   1      43.492  42.513  36.702  1.00  0.00    -0.237 OA
ATOM     82  O   UNL A   1      45.700  42.168  37.759  1.00  0.00    -0.237 OA
ATOM     83  O   UNL A   1      45.493  43.616  35.776  1.00  0.00    -0.744 OA
ENDBRANCH  79  80
ENDBRANCH  60  74
BRANCH  61  84
ATOM     84  C   UNL A   1      44.073  29.975  27.786  1.00  0.00    -0.014 A 
ATOM     85  C   UNL A   1      43.371  29.410  26.701  1.00  0.00     0.010 A 
ATOM     86  C   UNL A   1      45.017  29.105  28.410  1.00  0.00     0.010 A 
ATOM     87  C   UNL A   1      43.783  28.175  26.108  1.00  0.00     0.020 A 
ATOM     88  C   UNL A   1      45.481  27.930  27.787  1.00  0.00     0.020 A 
ATOM     89  C   UNL A   1      44.890  27.488  26.609  1.00  0.00     0.054 A 
BRANCH  89  90
ATOM     90  S   UNL A   1      45.741  26.178  25.656  1.00  0.00     0.124 S 
ATOM     91  O   UNL A   1      46.075  26.862  24.406  1.00  0.00    -0.237 OA
ATOM     92  O   UNL A   1      46.872  25.807  26.496  1.00  0.00    -0.237 OA
ATOM     93  O   UNL A   1      44.705  25.156  25.554  1.00  0.00    -0.744 OA
ENDBRANCH  89  90
ENDBRANCH  61  84
BRANCH  73  94
ATOM     94  C   UNL A   1      46.671  36.794  27.207  1.00  0.00    -0.014 A 
ATOM     95  C   UNL A   1      47.417  37.514  26.254  1.00  0.00     0.010 A 
ATOM     96  C   UNL A   1      45.368  37.282  27.472  1.00  0.00     0.010 A 
ATOM     97  C   UNL A   1      46.930  38.715  25.703  1.00  0.00     0.020 A 
ATOM     98  C   UNL A   1      44.852  38.439  26.893  1.00  0.00     0.020 A 
ATOM     99  C   UNL A   1      45.671  39.193  26.073  1.00  0.00     0.054 A 
BRANCH  99 100
ATOM    100  S   UNL A   1      45.185  40.881  25.637  1.00  0.00     0.124 S 
ATOM    101  O   UNL A   1      45.922  41.087  24.397  1.00  0.00    -0.237 OA
ATOM    102  O   UNL A   1      43.741  40.792  25.514  1.00  0.00    -0.237 OA
ATOM    103  O   UNL A   1      45.664  41.682  26.780  1.00  0.00    -0.744 OA
ENDBRANCH  99 100
ENDBRANCH  73  94
ENDBRANCH  47  48
ENDBRANCH  40  42
ENDBRANCH  39  40
ENDBRANCH  38  39
ENDBRANCH  37  38
ENDBRANCH  36  37
ENDBRANCH  35  36
ENDBRANCH  34  35
ENDBRANCH   1  34
TORSDOF 26
ENDMDL
MODEL 2
REMARK VINA RESULT:      -9.4      1.684      2.408
REMARK SMILES Cc1ccc(-c2nc(NC(=O)[C@H]3[C@@H](C(=O)OCCOCCOCCOCCOC(=O)c4ccc(-c5c6nc(c(-c7ccc(S(=O)(=O)[O-])cc7)c7ccc([nH]7)c(-c7ccc(S(=O)(=O)[O-])cc7)c7nc(c(-c8ccc(S(=O)(=O)[O-])cc8)c8ccc5[nH]8)C=C7)C=C6)cc4)[C@@H]4CC[C@H]3O4)sc2C)cc1
REMARK SMILES IDX 22 1 21 2 20 3 19 4 18 5 17 6 16 7 14 8 15 9 13 10 12 11
REMARK SMILES IDX 94 12 91 13 93 14 95 15 92 16 10 17 9 18 11 20 8 21 6 22
REMARK SMILES IDX 7 23 97 24 96 25 98 26 5 27 1 28 2 29 3 30 100 31 4 32 99 33
REMARK SMILES IDX 23 34 24 35 25 36 26 37 27 38 28 39 29 40 30 41 31 42 32 43
REMARK SMILES IDX 90 44 33 45 89 46 34 47 35 48 36 49 83 50 37 51 88 52 82 53
REMARK SMILES IDX 84 54 38 55 87 56 81 57 80 58 39 60 69 61 50 62 68 63 51 64
REMARK SMILES IDX 54 65 67 66 85 67 52 68 53 69 66 71 86 72 55 73 40 74 41 75
REMARK SMILES IDX 49 76 42 77 48 78 43 79 44 80 45 81 46 82 47 83 70 84 71 85
REMARK SMILES IDX 79 86 72 87 78 88 73 89 74 90 75 91 76 92 77 93 56 94 57 95
REMARK SMILES IDX 65 96 58 97 64 98 59 99 60 100 61 101 62 102 63 103
REMARK H PARENT 9 19 84 59 54 70
REMARK Flexibility Score: inf
ROOT
ATOM      1  O   UNL A   1      40.063  27.664  27.876  1.00  0.00    -0.377 OA
ENDROOT
BRANCH   1   2
ATOM      2  C   UNL A   1      40.160  26.454  27.103  1.00  0.00     0.188 C 
BRANCH   2   3
ATOM      3  C   UNL A   1      39.388  25.147  27.484  1.00  0.00     0.188 C 
BRANCH   3   4
ATOM      4  O   UNL A   1      39.787  23.898  26.926  1.00  0.00    -0.376 OA
BRANCH   4   5
ATOM      5  C   UNL A   1      38.737  23.173  26.356  1.00  0.00     0.202 C 
BRANCH   5   6
ATOM      6  C   UNL A   1      37.542  23.939  25.923  1.00  0.00     0.261 C 
BRANCH   6   7
ATOM      7  O   UNL A   1      36.924  23.388  24.760  1.00  0.00    -0.463 OA
BRANCH   7   8
ATOM      8  C   UNL A   1      35.678  23.520  24.305  1.00  0.00     0.312 C 
ATOM      9  O   UNL A   1      35.148  24.636  24.356  1.00  0.00    -0.252 OA
BRANCH   8  10
ATOM     10  C   UNL A   1      34.795  22.356  23.914  1.00  0.00     0.143 C 
ATOM     11  C   UNL A   1      33.521  22.406  23.088  1.00  0.00     0.124 C 
ATOM     12  C   UNL A   1      32.434  22.332  24.234  1.00  0.00     0.132 C 
ATOM     13  C   UNL A   1      34.272  21.763  25.231  1.00  0.00     0.133 C 
ATOM     14  C   UNL A   1      32.154  20.874  24.586  1.00  0.00     0.035 C 
ATOM     15  O   UNL A   1      33.163  22.649  25.446  1.00  0.00    -0.373 OA
ATOM     16  C   UNL A   1      33.558  20.419  25.009  1.00  0.00     0.036 C 
BRANCH  11  17
ATOM     17  C   UNL A   1      33.190  23.405  21.996  1.00  0.00     0.232 C 
ATOM     18  N   UNL A   1      32.571  24.610  22.103  1.00  0.00    -0.302 N 
ATOM     19  H   UNL A   1      32.601  25.119  21.262  1.00  0.00     0.172 HD
ATOM     20  O   UNL A   1      33.550  23.099  20.849  1.00  0.00    -0.274 OA
BRANCH  18  21
ATOM     21  C   UNL A   1      31.915  25.292  23.098  1.00  0.00     0.190 A 
ATOM     22  C   UNL A   1      31.690  26.990  24.695  1.00  0.00     0.086 A 
ATOM     23  N   UNL A   1      32.500  26.170  23.890  1.00  0.00    -0.220 NA
ATOM     24  C   UNL A   1      30.299  26.679  24.035  1.00  0.00     0.031 A 
ATOM     25  S   UNL A   1      30.325  25.012  23.422  1.00  0.00    -0.101 S 
ATOM     26  C   UNL A   1      28.852  27.227  23.806  1.00  0.00     0.059 C 
BRANCH  22  27
ATOM     27  C   UNL A   1      32.332  28.176  26.044  1.00  0.00     0.001 A 
ATOM     28  C   UNL A   1      34.651  31.699  27.653  1.00  0.00     0.044 C 
ATOM     29  C   UNL A   1      33.815  30.484  27.426  1.00  0.00    -0.051 A 
ATOM     30  C   UNL A   1      34.232  29.179  27.512  1.00  0.00     0.004 A 
ATOM     31  C   UNL A   1      32.529  30.623  27.012  1.00  0.00     0.004 A 
ATOM     32  C   UNL A   1      33.477  28.093  26.910  1.00  0.00     0.010 A 
ATOM     33  C   UNL A   1      31.853  29.533  26.404  1.00  0.00     0.010 A 
ENDBRANCH  22  27
ENDBRANCH  18  21
ENDBRANCH  11  17
ENDBRANCH   8  10
ENDBRANCH   7   8
ENDBRANCH   6   7
ENDBRANCH   5   6
ENDBRANCH   4   5
ENDBRANCH   3   4
ENDBRANCH   2   3
ENDBRANCH   1   2
BRANCH   1  34
ATOM     34  C   UNL A   1      39.190  27.687  29.026  1.00  0.00     0.188 C 
BRANCH  34  35
ATOM     35  C   UNL A   1      38.129  28.790  28.930  1.00  0.00     0.188 C 
BRANCH  35  36
ATOM     36  O   UNL A   1      37.486  28.987  30.186  1.00  0.00    -0.376 OA
BRANCH  36  37
ATOM     37  C   UNL A   1      38.284  29.490  31.238  1.00  0.00     0.202 C 
BRANCH  37  38
ATOM     38  C   UNL A   1      37.638  29.062  32.530  1.00  0.00     0.261 C 
BRANCH  38  39
ATOM     39  O   UNL A   1      38.109  29.988  33.559  1.00  0.00    -0.460 OA
BRANCH  39  40
ATOM     40  C   UNL A   1      37.735  31.306  33.481  1.00  0.00     0.338 C 
ATOM     41  O   UNL A   1      36.567  31.658  33.581  1.00  0.00    -0.246 OA
BRANCH  40  42
ATOM     42  C   UNL A   1      38.881  32.296  33.467  1.00  0.00     0.060 A 
ATOM     43  C   UNL A   1      38.684  33.629  33.073  1.00  0.00     0.016 A 
ATOM     44  C   UNL A   1      40.184  31.903  33.760  1.00  0.00     0.016 A 
ATOM     45  C   UNL A   1      39.783  34.491  32.830  1.00  0.00     0.010 A 
ATOM     46  C   UNL A   1      41.270  32.754  33.502  1.00  0.00     0.010 A 
ATOM     47  C   UNL A   1      41.109  34.014  32.916  1.00  0.00    -0.014 A 
BRANCH  47  48
ATOM     48  C   UNL A   1      42.290  34.676  32.217  1.00  0.00     0.031 A 
ATOM     49  C   UNL A   1      43.222  35.837  33.129  1.00  0.00     0.074 A 
ATOM     50  C   UNL A   1      42.610  34.245  30.926  1.00  0.00     0.049 A 
ATOM     51  N   UNL A   1      44.524  36.050  33.205  1.00  0.00    -0.248 NA
ATOM     52  C   UNL A   1      42.596  36.897  33.928  1.00  0.00     0.031 C 
ATOM     53  C   UNL A   1      43.137  35.115  29.929  1.00  0.00     0.029 A 
ATOM     54  N   UNL A   1      42.651  33.005  30.173  1.00  0.00    -0.354 N 
ATOM     55  C   UNL A   1      44.890  37.456  33.482  1.00  0.00     0.074 A 
ATOM     56  C   UNL A   1      43.602  37.775  34.187  1.00  0.00     0.031 C 
ATOM     57  C   UNL A   1      43.807  34.439  29.041  1.00  0.00     0.029 A 
ATOM     58  C   UNL A   1      43.531  33.087  29.045  1.00  0.00     0.049 A 
ATOM     59  H   UNL A   1      42.133  32.201  30.409  1.00  0.00     0.167 HD
ATOM     60  C   UNL A   1      46.007  38.364  32.866  1.00  0.00     0.031 A 
ATOM     61  C   UNL A   1      44.154  32.413  28.019  1.00  0.00     0.031 A 
ATOM     62  C   UNL A   1      47.148  38.055  31.474  1.00  0.00     0.049 A 
ATOM     63  C   UNL A   1      45.338  33.365  27.196  1.00  0.00     0.074 A 
ATOM     64  C   UNL A   1      48.543  38.059  31.196  1.00  0.00     0.029 A 
ATOM     65  N   UNL A   1      46.838  37.523  30.025  1.00  0.00    -0.354 N 
ATOM     66  N   UNL A   1      45.386  34.715  27.174  1.00  0.00    -0.248 NA
ATOM     67  C   UNL A   1      46.611  32.939  26.588  1.00  0.00     0.031 C 
ATOM     68  C   UNL A   1      48.896  37.369  29.856  1.00  0.00     0.029 A 
ATOM     69  C   UNL A   1      47.762  36.925  29.178  1.00  0.00     0.049 A 
ATOM     70  H   UNL A   1      45.917  37.622  29.693  1.00  0.00     0.167 HD
ATOM     71  C   UNL A   1      46.722  35.133  27.461  1.00  0.00     0.074 A 
ATOM     72  C   UNL A   1      47.388  34.057  26.710  1.00  0.00     0.031 C 
ATOM     73  C   UNL A   1      47.186  36.440  27.750  1.00  0.00     0.031 A 
BRANCH  60  74
ATOM     74  C   UNL A   1      46.205  39.748  33.610  1.00  0.00    -0.014 A 
ATOM     75  C   UNL A   1      46.888  39.787  34.835  1.00  0.00     0.010 A 
ATOM     76  C   UNL A   1      45.673  41.002  33.221  1.00  0.00     0.010 A 
ATOM     77  C   UNL A   1      46.958  40.951  35.633  1.00  0.00     0.020 A 
ATOM     78  C   UNL A   1      45.761  42.185  33.976  1.00  0.00     0.020 A 
ATOM     79  C   UNL A   1      46.373  42.141  35.208  1.00  0.00     0.054 A 
BRANCH  79  80
ATOM     80  S   UNL A   1      46.373  43.592  36.288  1.00  0.00     0.124 S 
ATOM     81  O   UNL A   1      45.467  43.177  37.355  1.00  0.00    -0.237 OA
ATOM     82  O   UNL A   1      47.780  43.709  36.661  1.00  0.00    -0.237 OA
ATOM     83  O   UNL A   1      45.869  44.666  35.433  1.00  0.00    -0.744 OA
ENDBRANCH  79  80
ENDBRANCH  60  74
BRANCH  61  84
ATOM     84  C   UNL A   1      43.654  30.967  28.013  1.00  0.00    -0.014 A 
ATOM     85  C   UNL A   1      43.107  30.311  26.890  1.00  0.00     0.010 A 
ATOM     86  C   UNL A   1      44.400  30.129  28.894  1.00  0.00     0.010 A 
ATOM     87  C   UNL A   1      43.512  28.988  26.528  1.00  0.00     0.020 A 
ATOM     88  C   UNL A   1      44.868  28.858  28.506  1.00  0.00     0.020 A 
ATOM     89  C   UNL A   1      44.455  28.306  27.298  1.00  0.00     0.054 A 
BRANCH  89  90
ATOM     90  S   UNL A   1      45.348  26.836  26.674  1.00  0.00     0.124 S 
ATOM     91  O   UNL A   1      46.523  26.785  27.546  1.00  0.00    -0.237 OA
ATOM     92  O   UNL A   1      44.394  25.747  26.834  1.00  0.00    -0.237 OA
ATOM     93  O   UNL A   1      45.612  27.207  25.288  1.00  0.00    -0.744 OA
ENDBRANCH  89  90
ENDBRANCH  61  84
BRANCH  73  94
ATOM     94  C   UNL A   1      46.567  37.591  26.907  1.00  0.00    -0.014 A 
ATOM     95  C   UNL A   1      47.280  38.315  25.933  1.00  0.00     0.010 A 
ATOM     96  C   UNL A   1      45.275  38.082  27.224  1.00  0.00     0.010 A 
ATOM     97  C   UNL A   1      46.778  39.523  25.409  1.00  0.00     0.020 A 
ATOM     98  C   UNL A   1      44.744  39.246  26.673  1.00  0.00     0.020 A 
ATOM     99  C   UNL A   1      45.535  40.003  25.830  1.00  0.00     0.054 A 
BRANCH  99 100
ATOM    100  S   UNL A   1      45.042  41.697  25.425  1.00  0.00     0.124 S 
ATOM    101  O   UNL A   1      46.318  42.294  25.054  1.00  0.00    -0.237 OA
ATOM    102  O   UNL A   1      44.084  41.517  24.348  1.00  0.00    -0.237 OA
ATOM    103  O   UNL A   1      44.469  42.198  26.688  1.00  0.00    -0.744 OA
ENDBRANCH  99 100
ENDBRANCH  73  94
ENDBRANCH  47  48
ENDBRANCH  40  42
ENDBRANCH  39  40
ENDBRANCH  38  39
ENDBRANCH  37  38
ENDBRANCH  36  37
ENDBRANCH  35  36
ENDBRANCH  34  35
ENDBRANCH   1  34
TORSDOF 26
ENDMDL
MODEL 3
REMARK VINA RESULT:      -8.7      6.831     12.570
REMARK SMILES Cc1ccc(-c2nc(NC(=O)[C@H]3[C@@H](C(=O)OCCOCCOCCOCCOC(=O)c4ccc(-c5c6nc(c(-c7ccc(S(=O)(=O)[O-])cc7)c7ccc([nH]7)c(-c7ccc(S(=O)(=O)[O-])cc7)c7nc(c(-c8ccc(S(=O)(=O)[O-])cc8)c8ccc5[nH]8)C=C7)C=C6)cc4)[C@@H]4CC[C@H]3O4)sc2C)cc1
REMARK SMILES IDX 22 1 21 2 20 3 19 4 18 5 17 6 16 7 14 8 15 9 13 10 12 11
REMARK SMILES IDX 94 12 91 13 93 14 95 15 92 16 10 17 9 18 11 20 8 21 6 22
REMARK SMILES IDX 7 23 97 24 96 25 98 26 5 27 1 28 2 29 3 30 100 31 4 32 99 33
REMARK SMILES IDX 23 34 24 35 25 36 26 37 27 38 28 39 29 40 30 41 31 42 32 43
REMARK SMILES IDX 90 44 33 45 89 46 34 47 35 48 36 49 83 50 37 51 88 52 82 53
REMARK SMILES IDX 84 54 38 55 87 56 81 57 80 58 39 60 69 61 50 62 68 63 51 64
REMARK SMILES IDX 54 65 67 66 85 67 52 68 53 69 66 71 86 72 55 73 40 74 41 75
REMARK SMILES IDX 49 76 42 77 48 78 43 79 44 80 45 81 46 82 47 83 70 84 71 85
REMARK SMILES IDX 79 86 72 87 78 88 73 89 74 90 75 91 76 92 77 93 56 94 57 95
REMARK SMILES IDX 65 96 58 97 64 98 59 99 60 100 61 101 62 102 63 103
REMARK H PARENT 9 19 84 59 54 70
REMARK Flexibility Score: inf
ROOT
ATOM      1  O   UNL A   1      35.401  35.534  33.678  1.00  0.00    -0.377 OA
ENDROOT
BRANCH   1   2
ATOM      2  C   UNL A   1      35.264  34.115  33.876  1.00  0.00     0.188 C 
BRANCH   2   3
ATOM      3  C   UNL A   1      36.498  33.160  34.005  1.00  0.00     0.188 C 
BRANCH   3   4
ATOM      4  O   UNL A   1      37.057  32.890  35.288  1.00  0.00    -0.376 OA
BRANCH   4   5
ATOM      5  C   UNL A   1      37.755  31.683  35.357  1.00  0.00     0.202 C 
BRANCH   5   6
ATOM      6  C   UNL A   1      38.669  31.363  34.233  1.00  0.00     0.261 C 
BRANCH   6   7
ATOM      7  O   UNL A   1      39.984  31.886  34.423  1.00  0.00    -0.463 OA
BRANCH   7   8
ATOM      8  C   UNL A   1      40.396  33.145  34.571  1.00  0.00     0.312 C 
ATOM      9  O   UNL A   1      40.155  33.953  33.666  1.00  0.00    -0.252 OA
BRANCH   8  10
ATOM     10  C   UNL A   1      41.314  33.608  35.680  1.00  0.00     0.143 C 
ATOM     11  C   UNL A   1      41.330  34.971  36.351  1.00  0.00     0.124 C 
ATOM     12  C   UNL A   1      42.550  35.643  35.601  1.00  0.00     0.132 C 
ATOM     13  C   UNL A   1      42.736  33.541  35.106  1.00  0.00     0.133 C 
ATOM     14  C   UNL A   1      43.853  35.275  36.305  1.00  0.00     0.035 C 
ATOM     15  O   UNL A   1      42.762  34.809  34.434  1.00  0.00    -0.373 OA
ATOM     16  C   UNL A   1      43.803  33.744  36.196  1.00  0.00     0.036 C 
BRANCH  11  17
ATOM     17  C   UNL A   1      40.146  35.899  36.543  1.00  0.00     0.232 C 
ATOM     18  N   UNL A   1      39.485  36.210  37.689  1.00  0.00    -0.302 N 
ATOM     19  H   UNL A   1      38.840  36.941  37.559  1.00  0.00     0.172 HD
ATOM     20  O   UNL A   1      39.732  36.474  35.524  1.00  0.00    -0.274 OA
BRANCH  18  21
ATOM     21  C   UNL A   1      39.497  35.755  38.985  1.00  0.00     0.190 A 
ATOM     22  C   UNL A   1      39.668  34.107  40.639  1.00  0.00     0.086 A 
ATOM     23  N   UNL A   1      39.388  34.483  39.313  1.00  0.00    -0.220 NA
ATOM     24  C   UNL A   1      40.329  35.443  41.135  1.00  0.00     0.031 A 
ATOM     25  S   UNL A   1      39.589  36.798  40.256  1.00  0.00    -0.101 S 
ATOM     26  C   UNL A   1      41.305  36.060  42.188  1.00  0.00     0.059 C 
BRANCH  22  27
ATOM     27  C   UNL A   1      39.383  32.366  41.365  1.00  0.00     0.001 A 
ATOM     28  C   UNL A   1      37.918  29.374  44.412  1.00  0.00     0.044 C 
ATOM     29  C   UNL A   1      38.516  30.107  43.258  1.00  0.00    -0.051 A 
ATOM     30  C   UNL A   1      39.823  30.511  43.136  1.00  0.00     0.004 A 
ATOM     31  C   UNL A   1      37.719  30.512  42.236  1.00  0.00     0.004 A 
ATOM     32  C   UNL A   1      40.222  31.533  42.183  1.00  0.00     0.010 A 
ATOM     33  C   UNL A   1      38.153  31.536  41.354  1.00  0.00     0.010 A 
ENDBRANCH  22  27
ENDBRANCH  18  21
ENDBRANCH  11  17
ENDBRANCH   8  10
ENDBRANCH   7   8
ENDBRANCH   6   7
ENDBRANCH   5   6
ENDBRANCH   4   5
ENDBRANCH   3   4
ENDBRANCH   2   3
ENDBRANCH   1   2
BRANCH   1  34
ATOM     34  C   UNL A   1      34.597  36.176  32.665  1.00  0.00     0.188 C 
BRANCH  34  35
ATOM     35  C   UNL A   1      33.418  35.302  32.218  1.00  0.00     0.188 C 
BRANCH  35  36
ATOM     36  O   UNL A   1      32.694  35.929  31.164  1.00  0.00    -0.376 OA
BRANCH  36  37
ATOM     37  C   UNL A   1      33.318  35.967  29.896  1.00  0.00     0.202 C 
BRANCH  37  38
ATOM     38  C   UNL A   1      33.356  34.555  29.375  1.00  0.00     0.261 C 
BRANCH  38  39
ATOM     39  O   UNL A   1      34.549  34.451  28.537  1.00  0.00    -0.460 OA
BRANCH  39  40
ATOM     40  C   UNL A   1      35.192  33.242  28.451  1.00  0.00     0.338 C 
ATOM     41  O   UNL A   1      34.802  32.349  27.711  1.00  0.00    -0.246 OA
BRANCH  40  42
ATOM     42  C   UNL A   1      36.518  33.170  29.178  1.00  0.00     0.060 A 
ATOM     43  C   UNL A   1      36.970  34.237  29.972  1.00  0.00     0.016 A 
ATOM     44  C   UNL A   1      37.377  32.086  29.018  1.00  0.00     0.016 A 
ATOM     45  C   UNL A   1      38.301  34.277  30.456  1.00  0.00     0.010 A 
ATOM     46  C   UNL A   1      38.700  32.137  29.485  1.00  0.00     0.010 A 
ATOM     47  C   UNL A   1      39.231  33.275  30.101  1.00  0.00    -0.014 A 
BRANCH  47  48
ATOM     48  C   UNL A   1      40.740  33.474  30.140  1.00  0.00     0.031 A 
ATOM     49  C   UNL A   1      41.370  34.999  29.570  1.00  0.00     0.074 A 
ATOM     50  C   UNL A   1      41.518  32.464  30.717  1.00  0.00     0.049 A 
ATOM     51  N   UNL A   1      42.333  35.778  30.032  1.00  0.00    -0.248 NA
ATOM     52  C   UNL A   1      40.928  35.613  28.312  1.00  0.00     0.031 C 
ATOM     53  C   UNL A   1      42.827  32.140  30.260  1.00  0.00     0.029 A 
ATOM     54  N   UNL A   1      41.446  31.543  31.837  1.00  0.00    -0.354 N 
ATOM     55  C   UNL A   1      43.032  36.558  28.988  1.00  0.00     0.074 A 
ATOM     56  C   UNL A   1      41.862  36.565  28.046  1.00  0.00     0.031 C 
ATOM     57  C   UNL A   1      43.516  31.575  31.210  1.00  0.00     0.029 A 
ATOM     58  C   UNL A   1      42.742  31.086  32.243  1.00  0.00     0.049 A 
ATOM     59  H   UNL A   1      40.605  31.264  32.267  1.00  0.00     0.167 HD
ATOM     60  C   UNL A   1      44.555  36.857  28.780  1.00  0.00     0.031 A 
ATOM     61  C   UNL A   1      43.477  30.384  33.172  1.00  0.00     0.031 A 
ATOM     62  C   UNL A   1      46.017  36.213  29.663  1.00  0.00     0.049 A 
ATOM     63  C   UNL A   1      45.183  30.558  32.966  1.00  0.00     0.074 A 
ATOM     64  C   UNL A   1      47.157  36.695  30.366  1.00  0.00     0.029 A 
ATOM     65  N   UNL A   1      46.399  34.727  30.019  1.00  0.00    -0.354 N 
ATOM     66  N   UNL A   1      45.806  30.917  31.822  1.00  0.00    -0.248 NA
ATOM     67  C   UNL A   1      46.243  30.595  33.991  1.00  0.00     0.031 C 
ATOM     68  C   UNL A   1      47.874  35.593  31.185  1.00  0.00     0.029 A 
ATOM     69  C   UNL A   1      47.275  34.345  31.026  1.00  0.00     0.049 A 
ATOM     70  H   UNL A   1      45.983  34.013  29.484  1.00  0.00     0.167 HD
ATOM     71  C   UNL A   1      46.759  31.940  32.117  1.00  0.00     0.074 A 
ATOM     72  C   UNL A   1      47.195  31.381  33.406  1.00  0.00     0.031 C 
ATOM     73  C   UNL A   1      47.478  32.754  31.207  1.00  0.00     0.031 A 
BRANCH  60  74
ATOM     74  C   UNL A   1      44.860  37.929  27.655  1.00  0.00    -0.014 A 
ATOM     75  C   UNL A   1      45.829  37.655  26.679  1.00  0.00     0.010 A 
ATOM     76  C   UNL A   1      44.318  39.234  27.560  1.00  0.00     0.010 A 
ATOM     77  C   UNL A   1      46.271  38.623  25.749  1.00  0.00     0.020 A 
ATOM     78  C   UNL A   1      44.710  40.205  26.621  1.00  0.00     0.020 A 
ATOM     79  C   UNL A   1      45.724  39.903  25.740  1.00  0.00     0.054 A 
BRANCH  79  80
ATOM     80  S   UNL A   1      46.376  41.165  24.621  1.00  0.00     0.124 S 
ATOM     81  O   UNL A   1      45.154  41.756  24.084  1.00  0.00    -0.237 OA
ATOM     82  O   UNL A   1      47.149  42.016  25.521  1.00  0.00    -0.237 OA
ATOM     83  O   UNL A   1      47.170  40.404  23.657  1.00  0.00    -0.744 OA
ENDBRANCH  79  80
ENDBRANCH  60  74
BRANCH  61  84
ATOM     84  C   UNL A   1      42.512  29.748  34.174  1.00  0.00    -0.014 A 
ATOM     85  C   UNL A   1      41.706  28.621  33.908  1.00  0.00     0.010 A 
ATOM     86  C   UNL A   1      42.979  29.850  35.519  1.00  0.00     0.010 A 
ATOM     87  C   UNL A   1      41.611  27.537  34.836  1.00  0.00     0.020 A 
ATOM     88  C   UNL A   1      42.958  28.756  36.406  1.00  0.00     0.020 A 
ATOM     89  C   UNL A   1      42.308  27.581  36.045  1.00  0.00     0.054 A 
BRANCH  89  90
ATOM     90  S   UNL A   1      42.604  26.087  37.058  1.00  0.00     0.124 S 
ATOM     91  O   UNL A   1      41.260  25.759  37.538  1.00  0.00    -0.237 OA
ATOM     92  O   UNL A   1      43.191  25.135  36.124  1.00  0.00    -0.237 OA
ATOM     93  O   UNL A   1      43.527  26.585  38.072  1.00  0.00    -0.744 OA
ENDBRANCH  89  90
ENDBRANCH  61  84
BRANCH  73  94
ATOM     94  C   UNL A   1      48.015  32.047  29.929  1.00  0.00    -0.014 A 
ATOM     95  C   UNL A   1      47.281  31.092  29.201  1.00  0.00     0.010 A 
ATOM     96  C   UNL A   1      49.368  32.216  29.545  1.00  0.00     0.010 A 
ATOM     97  C   UNL A   1      47.903  30.274  28.238  1.00  0.00     0.020 A 
ATOM     98  C   UNL A   1      49.983  31.450  28.556  1.00  0.00     0.020 A 
ATOM     99  C   UNL A   1      49.265  30.427  27.966  1.00  0.00     0.054 A 
BRANCH  99 100
ATOM    100  S   UNL A   1      50.135  29.174  26.993  1.00  0.00     0.124 S 
ATOM    101  O   UNL A   1      50.971  28.542  28.005  1.00  0.00    -0.237 OA
ATOM    102  O   UNL A   1      49.058  28.360  26.456  1.00  0.00    -0.237 OA
ATOM    103  O   UNL A   1      50.872  29.968  25.992  1.00  0.00    -0.744 OA
ENDBRANCH  99 100
ENDBRANCH  73  94
ENDBRANCH  47  48
ENDBRANCH  40  42
ENDBRANCH  39  40
ENDBRANCH  38  39
ENDBRANCH  37  38
ENDBRANCH  36  37
ENDBRANCH  35  36
ENDBRANCH  34  35
ENDBRANCH   1  34
TORSDOF 26
ENDMDL
