MODEL 1
REMARK VINA RESULT:      -8.9      0.000      0.000
REMARK SMILES Cc1ccc(-c2cnnc(-n3nc(C)c4c3NC(=O)C[C@@H]4c3ccc(C(=O)OCCOCCOCCOCCOC(=O)c4ccc(-c5c6nc(c(-c7ccc(S(=O)(=O)[O-])cc7)c7ccc([nH]7)c(-c7ccc(S(=O)(=O)[O-])cc7)c7nc(c(-c8ccc(S(=O)(=O)[O-])cc8)c8ccc5[nH]8)C=C7)C=C6)cc4)cc3)n2)cc1
REMARK SMILES IDX 34 1 33 2 32 3 31 4 30 5 29 6 28 7 26 8 27 9 25 10 22 11
REMARK SMILES IDX 23 12 104 13 24 14 103 15 21 16 11 17 12 18 16 19 13 20
REMARK SMILES IDX 15 21 17 22 14 23 18 24 20 26 19 27 10 28 6 29 7 30 105 31
REMARK SMILES IDX 8 32 9 33 5 34 1 35 2 36 3 37 107 38 4 39 106 40 35 41 36 42
REMARK SMILES IDX 37 43 38 44 39 45 40 46 41 47 42 48 43 49 44 50 102 51 45 52
REMARK SMILES IDX 101 53 46 54 47 55 48 56 95 57 49 58 100 59 94 60 96 61
REMARK SMILES IDX 50 62 99 63 93 64 92 65 51 67 81 68 62 69 80 70 63 71 66 72
REMARK SMILES IDX 79 73 97 74 64 75 65 76 78 78 98 79 67 80 52 81 53 82 61 83
REMARK SMILES IDX 54 84 60 85 55 86 56 87 57 88 58 89 59 90 82 91 83 92 91 93
REMARK SMILES IDX 84 94 90 95 85 96 86 97 87 98 88 99 89 100 68 101 69 102
REMARK SMILES IDX 77 103 70 104 76 105 71 106 72 107 73 108 74 109 75 110
REMARK H PARENT 17 25 96 66 66 77
REMARK Flexibility Score: inf
ROOT
ATOM      1  O   UNL A   1      44.777  28.941  31.666  1.00  0.00    -0.377 OA
ENDROOT
BRANCH   1   2
ATOM      2  C   UNL A   1      44.614  27.540  31.673  1.00  0.00     0.188 C 
BRANCH   2   3
ATOM      3  C   UNL A   1      45.236  26.736  30.523  1.00  0.00     0.188 C 
BRANCH   3   4
ATOM      4  O   UNL A   1      46.434  25.978  30.714  1.00  0.00    -0.376 OA
BRANCH   4   5
ATOM      5  C   UNL A   1      47.642  26.681  30.952  1.00  0.00     0.202 C 
BRANCH   5   6
ATOM      6  C   UNL A   1      48.440  26.839  29.698  1.00  0.00     0.261 C 
BRANCH   6   7
ATOM      7  O   UNL A   1      48.216  25.694  28.909  1.00  0.00    -0.460 OA
BRANCH   7   8
ATOM      8  C   UNL A   1      48.010  26.016  27.645  1.00  0.00     0.338 C 
ATOM      9  O   UNL A   1      48.584  26.874  26.971  1.00  0.00    -0.246 OA
BRANCH   8  10
ATOM     10  C   UNL A   1      47.033  25.074  27.128  1.00  0.00     0.060 A 
ATOM     11  C   UNL A   1      45.093  23.435  26.034  1.00  0.00    -0.040 A 
ATOM     12  C   UNL A   1      45.760  24.408  25.255  1.00  0.00     0.005 A 
ATOM     13  C   UNL A   1      45.533  23.194  27.332  1.00  0.00     0.005 A 
ATOM     14  C   UNL A   1      46.756  25.192  25.783  1.00  0.00     0.016 A 
ATOM     15  C   UNL A   1      46.447  24.062  27.902  1.00  0.00     0.016 A 
BRANCH  11  16
ATOM     16  C   UNL A   1      43.884  22.816  25.397  1.00  0.00     0.064 C 
ATOM     17  N   UNL A   1      41.183  21.085  26.926  1.00  0.00    -0.180 N 
ATOM     18  N   UNL A   1      41.124  22.086  27.846  1.00  0.00    -0.168 NA
ATOM     19  C   UNL A   1      42.481  21.037  26.454  1.00  0.00     0.143 A 
ATOM     20  C   UNL A   1      42.073  22.944  27.436  1.00  0.00     0.066 A 
ATOM     21  C   UNL A   1      42.847  22.369  26.374  1.00  0.00     0.026 A 
ATOM     22  N   UNL A   1      43.356  20.036  26.079  1.00  0.00    -0.310 N 
ATOM     23  C   UNL A   1      42.205  24.209  28.208  1.00  0.00     0.069 C 
ATOM     24  C   UNL A   1      44.495  20.423  25.306  1.00  0.00     0.226 C 
ATOM     25  H   UNL A   1      43.201  19.098  26.333  1.00  0.00     0.171 HD
ATOM     26  C   UNL A   1      44.292  21.657  24.472  1.00  0.00     0.113 C 
ATOM     27  O   UNL A   1      45.464  19.687  25.290  1.00  0.00    -0.275 OA
BRANCH  17  28
ATOM     28  C   UNL A   1      40.029  20.753  26.136  1.00  0.00     0.272 A 
ATOM     29  C   UNL A   1      37.891  21.142  25.405  1.00  0.00     0.095 A 
ATOM     30  C   UNL A   1      37.805  19.826  24.986  1.00  0.00     0.164 A 
ATOM     31  N   UNL A   1      38.995  21.622  26.047  1.00  0.00    -0.208 NA
ATOM     32  N   UNL A   1      38.838  18.986  25.135  1.00  0.00    -0.153 NA
ATOM     33  N   UNL A   1      39.977  19.473  25.684  1.00  0.00    -0.109 NA
BRANCH  29  34
ATOM     34  C   UNL A   1      36.849  22.116  25.057  1.00  0.00     0.002 A 
ATOM     35  C   UNL A   1      33.802  25.076  24.204  1.00  0.00     0.044 C 
ATOM     36  C   UNL A   1      34.874  24.074  24.513  1.00  0.00    -0.051 A 
ATOM     37  C   UNL A   1      35.853  23.770  23.561  1.00  0.00     0.004 A 
ATOM     38  C   UNL A   1      34.895  23.412  25.742  1.00  0.00     0.004 A 
ATOM     39  C   UNL A   1      36.831  22.804  23.831  1.00  0.00     0.011 A 
ATOM     40  C   UNL A   1      35.867  22.445  26.005  1.00  0.00     0.011 A 
ENDBRANCH  29  34
ENDBRANCH  17  28
ENDBRANCH  11  16
ENDBRANCH   8  10
ENDBRANCH   7   8
ENDBRANCH   6   7
ENDBRANCH   5   6
ENDBRANCH   4   5
ENDBRANCH   3   4
ENDBRANCH   2   3
ENDBRANCH   1   2
BRANCH   1  41
ATOM     41  C   UNL A   1      45.472  29.565  30.614  1.00  0.00     0.188 C 
BRANCH  41  42
ATOM     42  C   UNL A   1      46.517  30.616  31.002  1.00  0.00     0.188 C 
BRANCH  42  43
ATOM     43  O   UNL A   1      46.506  31.832  30.293  1.00  0.00    -0.376 OA
BRANCH  43  44
ATOM     44  C   UNL A   1      47.086  32.920  31.010  1.00  0.00     0.202 C 
BRANCH  44  45
ATOM     45  C   UNL A   1      46.741  34.411  30.660  1.00  0.00     0.261 C 
BRANCH  45  46
ATOM     46  O   UNL A   1      46.671  35.402  31.727  1.00  0.00    -0.460 OA
BRANCH  46  47
ATOM     47  C   UNL A   1      47.424  35.268  32.871  1.00  0.00     0.338 C 
ATOM     48  O   UNL A   1      48.572  35.627  33.057  1.00  0.00    -0.246 OA
BRANCH  47  49
ATOM     49  C   UNL A   1      46.471  34.942  33.986  1.00  0.00     0.060 A 
ATOM     50  C   UNL A   1      46.451  33.718  34.653  1.00  0.00     0.016 A 
ATOM     51  C   UNL A   1      45.353  35.757  34.068  1.00  0.00     0.016 A 
ATOM     52  C   UNL A   1      45.220  33.158  35.023  1.00  0.00     0.010 A 
ATOM     53  C   UNL A   1      44.127  35.151  34.273  1.00  0.00     0.010 A 
ATOM     54  C   UNL A   1      44.048  33.803  34.625  1.00  0.00    -0.014 A 
BRANCH  54  55
ATOM     55  C   UNL A   1      42.808  33.084  34.243  1.00  0.00     0.031 A 
ATOM     56  C   UNL A   1      42.521  32.821  32.789  1.00  0.00     0.074 A 
ATOM     57  C   UNL A   1      42.172  32.420  35.255  1.00  0.00     0.049 A 
ATOM     58  N   UNL A   1      41.444  32.301  32.315  1.00  0.00    -0.248 NA
ATOM     59  C   UNL A   1      43.497  33.036  31.717  1.00  0.00     0.031 C 
ATOM     60  C   UNL A   1      41.072  31.452  35.229  1.00  0.00     0.029 A 
ATOM     61  N   UNL A   1      42.389  32.540  36.629  1.00  0.00    -0.354 N 
ATOM     62  C   UNL A   1      41.707  31.774  31.050  1.00  0.00     0.074 A 
ATOM     63  C   UNL A   1      42.993  32.318  30.705  1.00  0.00     0.031 C 
ATOM     64  C   UNL A   1      40.639  31.154  36.467  1.00  0.00     0.029 A 
ATOM     65  C   UNL A   1      41.252  32.122  37.338  1.00  0.00     0.049 A 
ATOM     66  H   UNL A   1      43.220  32.871  37.040  1.00  0.00     0.167 HD
ATOM     67  C   UNL A   1      40.863  30.826  30.521  1.00  0.00     0.031 A 
ATOM     68  C   UNL A   1      40.475  33.111  37.872  1.00  0.00     0.031 A 
ATOM     69  C   UNL A   1      39.647  30.678  31.370  1.00  0.00     0.049 A 
ATOM     70  C   UNL A   1      39.284  33.455  36.895  1.00  0.00     0.074 A 
ATOM     71  C   UNL A   1      38.968  29.624  31.960  1.00  0.00     0.029 A 
ATOM     72  N   UNL A   1      39.088  31.826  31.950  1.00  0.00    -0.354 N 
ATOM     73  N   UNL A   1      39.324  33.254  35.582  1.00  0.00    -0.248 NA
ATOM     74  C   UNL A   1      37.903  33.727  37.305  1.00  0.00     0.031 C 
ATOM     75  C   UNL A   1      38.238  30.154  33.082  1.00  0.00     0.029 A 
ATOM     76  C   UNL A   1      38.394  31.540  33.119  1.00  0.00     0.049 A 
ATOM     77  H   UNL A   1      39.177  32.731  31.573  1.00  0.00     0.167 HD
ATOM     78  C   UNL A   1      38.059  33.150  35.039  1.00  0.00     0.074 A 
ATOM     79  C   UNL A   1      37.210  33.550  36.157  1.00  0.00     0.031 C 
ATOM     80  C   UNL A   1      37.675  32.620  33.816  1.00  0.00     0.031 A 
BRANCH  67  81
ATOM     81  C   UNL A   1      41.212  29.862  29.356  1.00  0.00    -0.014 A 
ATOM     82  C   UNL A   1      40.427  29.871  28.178  1.00  0.00     0.010 A 
ATOM     83  C   UNL A   1      42.242  28.891  29.358  1.00  0.00     0.010 A 
ATOM     84  C   UNL A   1      40.659  29.007  27.083  1.00  0.00     0.020 A 
ATOM     85  C   UNL A   1      42.510  28.037  28.256  1.00  0.00     0.020 A 
ATOM     86  C   UNL A   1      41.716  28.105  27.117  1.00  0.00     0.054 A 
BRANCH  86  87
ATOM     87  S   UNL A   1      42.059  27.083  25.649  1.00  0.00     0.124 S 
ATOM     88  O   UNL A   1      43.287  26.387  26.019  1.00  0.00    -0.237 OA
ATOM     89  O   UNL A   1      40.866  26.244  25.562  1.00  0.00    -0.237 OA
ATOM     90  O   UNL A   1      42.202  28.059  24.569  1.00  0.00    -0.744 OA
ENDBRANCH  86  87
ENDBRANCH  67  81
BRANCH  68  91
ATOM     91  C   UNL A   1      41.290  33.729  39.004  1.00  0.00    -0.014 A 
ATOM     92  C   UNL A   1      41.973  34.930  38.644  1.00  0.00     0.010 A 
ATOM     93  C   UNL A   1      40.872  33.666  40.354  1.00  0.00     0.010 A 
ATOM     94  C   UNL A   1      42.032  36.062  39.491  1.00  0.00     0.020 A 
ATOM     95  C   UNL A   1      40.954  34.798  41.218  1.00  0.00     0.020 A 
ATOM     96  C   UNL A   1      41.485  36.006  40.765  1.00  0.00     0.054 A 
BRANCH  96  97
ATOM     97  S   UNL A   1      41.331  37.550  41.736  1.00  0.00     0.124 S 
ATOM     98  O   UNL A   1      40.137  38.161  41.163  1.00  0.00    -0.237 OA
ATOM     99  O   UNL A   1      41.176  37.061  43.107  1.00  0.00    -0.237 OA
ATOM    100  O   UNL A   1      42.585  38.245  41.466  1.00  0.00    -0.744 OA
ENDBRANCH  96  97
ENDBRANCH  68  91
BRANCH  80 101
ATOM    101  C   UNL A   1      36.479  33.145  33.029  1.00  0.00    -0.014 A 
ATOM    102  C   UNL A   1      35.160  32.864  33.391  1.00  0.00     0.010 A 
ATOM    103  C   UNL A   1      36.674  34.172  32.058  1.00  0.00     0.010 A 
ATOM    104  C   UNL A   1      34.092  33.544  32.792  1.00  0.00     0.020 A 
ATOM    105  C   UNL A   1      35.624  34.902  31.510  1.00  0.00     0.020 A 
ATOM    106  C   UNL A   1      34.331  34.560  31.863  1.00  0.00     0.054 A 
BRANCH 106 107
ATOM    107  S   UNL A   1      32.934  35.448  31.147  1.00  0.00     0.124 S 
ATOM    108  O   UNL A   1      31.914  35.261  32.175  1.00  0.00    -0.237 OA
ATOM    109  O   UNL A   1      33.454  36.806  31.013  1.00  0.00    -0.237 OA
ATOM    110  O   UNL A   1      32.688  34.753  29.886  1.00  0.00    -0.744 OA
ENDBRANCH 106 107
ENDBRANCH  80 101
ENDBRANCH  54  55
ENDBRANCH  47  49
ENDBRANCH  46  47
ENDBRANCH  45  46
ENDBRANCH  44  45
ENDBRANCH  43  44
ENDBRANCH  42  43
ENDBRANCH  41  42
ENDBRANCH   1  41
TORSDOF 26
ENDMDL
MODEL 2
REMARK VINA RESULT:      -8.6      5.970     13.842
REMARK SMILES Cc1ccc(-c2cnnc(-n3nc(C)c4c3NC(=O)C[C@@H]4c3ccc(C(=O)OCCOCCOCCOCCOC(=O)c4ccc(-c5c6nc(c(-c7ccc(S(=O)(=O)[O-])cc7)c7ccc([nH]7)c(-c7ccc(S(=O)(=O)[O-])cc7)c7nc(c(-c8ccc(S(=O)(=O)[O-])cc8)c8ccc5[nH]8)C=C7)C=C6)cc4)cc3)n2)cc1
REMARK SMILES IDX 34 1 33 2 32 3 31 4 30 5 29 6 28 7 26 8 27 9 25 10 22 11
REMARK SMILES IDX 23 12 104 13 24 14 103 15 21 16 11 17 12 18 16 19 13 20
REMARK SMILES IDX 15 21 17 22 14 23 18 24 20 26 19 27 10 28 6 29 7 30 105 31
REMARK SMILES IDX 8 32 9 33 5 34 1 35 2 36 3 37 107 38 4 39 106 40 35 41 36 42
REMARK SMILES IDX 37 43 38 44 39 45 40 46 41 47 42 48 43 49 44 50 102 51 45 52
REMARK SMILES IDX 101 53 46 54 47 55 48 56 95 57 49 58 100 59 94 60 96 61
REMARK SMILES IDX 50 62 99 63 93 64 92 65 51 67 81 68 62 69 80 70 63 71 66 72
REMARK SMILES IDX 79 73 97 74 64 75 65 76 78 78 98 79 67 80 52 81 53 82 61 83
REMARK SMILES IDX 54 84 60 85 55 86 56 87 57 88 58 89 59 90 82 91 83 92 91 93
REMARK SMILES IDX 84 94 90 95 85 96 86 97 87 98 88 99 89 100 68 101 69 102
REMARK SMILES IDX 77 103 70 104 76 105 71 106 72 107 73 108 74 109 75 110
REMARK H PARENT 17 25 96 66 66 77
REMARK Flexibility Score: inf
ROOT
ATOM      1  O   UNL A   1      44.389  22.002  34.426  1.00  0.00    -0.377 OA
ENDROOT
BRANCH   1   2
ATOM      2  C   UNL A   1      44.743  23.064  33.566  1.00  0.00     0.188 C 
BRANCH   2   3
ATOM      3  C   UNL A   1      43.829  23.358  32.369  1.00  0.00     0.188 C 
BRANCH   3   4
ATOM      4  O   UNL A   1      44.355  23.890  31.150  1.00  0.00    -0.376 OA
BRANCH   4   5
ATOM      5  C   UNL A   1      43.926  23.315  29.927  1.00  0.00     0.202 C 
BRANCH   5   6
ATOM      6  C   UNL A   1      43.710  24.358  28.879  1.00  0.00     0.261 C 
BRANCH   6   7
ATOM      7  O   UNL A   1      42.864  25.341  29.429  1.00  0.00    -0.460 OA
BRANCH   7   8
ATOM      8  C   UNL A   1      43.306  26.556  29.163  1.00  0.00     0.338 C 
ATOM      9  O   UNL A   1      44.399  26.889  28.699  1.00  0.00    -0.246 OA
BRANCH   8  10
ATOM     10  C   UNL A   1      42.202  27.466  29.413  1.00  0.00     0.060 A 
ATOM     11  C   UNL A   1      40.093  29.126  30.080  1.00  0.00    -0.040 A 
ATOM     12  C   UNL A   1      41.160  28.894  30.978  1.00  0.00     0.005 A 
ATOM     13  C   UNL A   1      40.186  28.635  28.780  1.00  0.00     0.005 A 
ATOM     14  C   UNL A   1      42.231  28.108  30.632  1.00  0.00     0.016 A 
ATOM     15  C   UNL A   1      41.199  27.744  28.472  1.00  0.00     0.016 A 
BRANCH  11  16
ATOM     16  C   UNL A   1      38.894  29.811  30.666  1.00  0.00     0.064 C 
ATOM     17  N   UNL A   1      38.663  31.812  33.595  1.00  0.00    -0.180 N 
ATOM     18  N   UNL A   1      39.780  32.469  33.177  1.00  0.00    -0.168 NA
ATOM     19  C   UNL A   1      38.705  30.543  33.049  1.00  0.00     0.143 A 
ATOM     20  C   UNL A   1      40.056  31.894  31.994  1.00  0.00     0.066 A 
ATOM     21  C   UNL A   1      39.218  30.750  31.781  1.00  0.00     0.026 A 
ATOM     22  N   UNL A   1      38.357  29.276  33.476  1.00  0.00    -0.310 N 
ATOM     23  C   UNL A   1      41.202  32.460  31.233  1.00  0.00     0.069 C 
ATOM     24  C   UNL A   1      38.226  28.264  32.474  1.00  0.00     0.226 C 
ATOM     25  H   UNL A   1      38.204  29.079  34.429  1.00  0.00     0.171 HD
ATOM     26  C   UNL A   1      37.846  28.779  31.114  1.00  0.00     0.113 C 
ATOM     27  O   UNL A   1      38.313  27.098  32.811  1.00  0.00    -0.275 OA
BRANCH  17  28
ATOM     28  C   UNL A   1      37.448  32.535  33.853  1.00  0.00     0.272 A 
ATOM     29  C   UNL A   1      35.825  34.048  33.275  1.00  0.00     0.095 A 
ATOM     30  C   UNL A   1      35.445  34.134  34.602  1.00  0.00     0.164 A 
ATOM     31  N   UNL A   1      36.882  33.283  32.877  1.00  0.00    -0.208 NA
ATOM     32  N   UNL A   1      36.064  33.410  35.544  1.00  0.00    -0.153 NA
ATOM     33  N   UNL A   1      37.052  32.571  35.152  1.00  0.00    -0.109 NA
BRANCH  29  34
ATOM     34  C   UNL A   1      35.023  34.673  32.216  1.00  0.00     0.002 A 
ATOM     35  C   UNL A   1      32.583  36.342  29.048  1.00  0.00     0.044 C 
ATOM     36  C   UNL A   1      33.404  35.746  30.152  1.00  0.00    -0.051 A 
ATOM     37  C   UNL A   1      33.442  36.352  31.412  1.00  0.00     0.004 A 
ATOM     38  C   UNL A   1      34.162  34.593  29.932  1.00  0.00     0.004 A 
ATOM     39  C   UNL A   1      34.240  35.821  32.433  1.00  0.00     0.011 A 
ATOM     40  C   UNL A   1      34.961  34.070  30.949  1.00  0.00     0.011 A 
ENDBRANCH  29  34
ENDBRANCH  17  28
ENDBRANCH  11  16
ENDBRANCH   8  10
ENDBRANCH   7   8
ENDBRANCH   6   7
ENDBRANCH   5   6
ENDBRANCH   4   5
ENDBRANCH   3   4
ENDBRANCH   2   3
ENDBRANCH   1   2
BRANCH   1  41
ATOM     41  C   UNL A   1      45.296  21.555  35.403  1.00  0.00     0.188 C 
BRANCH  41  42
ATOM     42  C   UNL A   1      45.607  20.055  35.425  1.00  0.00     0.188 C 
BRANCH  42  43
ATOM     43  O   UNL A   1      46.962  19.675  35.446  1.00  0.00    -0.376 OA
BRANCH  43  44
ATOM     44  C   UNL A   1      47.723  20.203  34.361  1.00  0.00     0.202 C 
BRANCH  44  45
ATOM     45  C   UNL A   1      49.278  20.006  34.277  1.00  0.00     0.261 C 
BRANCH  45  46
ATOM     46  O   UNL A   1      50.103  20.289  35.447  1.00  0.00    -0.460 OA
BRANCH  46  47
ATOM     47  C   UNL A   1      51.386  19.802  35.545  1.00  0.00     0.338 C 
ATOM     48  O   UNL A   1      51.739  18.643  35.662  1.00  0.00    -0.246 OA
BRANCH  47  49
ATOM     49  C   UNL A   1      52.307  20.904  35.106  1.00  0.00     0.060 A 
ATOM     50  C   UNL A   1      52.562  22.046  35.865  1.00  0.00     0.016 A 
ATOM     51  C   UNL A   1      52.593  20.935  33.751  1.00  0.00     0.016 A 
ATOM     52  C   UNL A   1      52.693  23.284  35.218  1.00  0.00     0.010 A 
ATOM     53  C   UNL A   1      52.552  22.159  33.110  1.00  0.00     0.010 A 
ATOM     54  C   UNL A   1      52.468  23.345  33.842  1.00  0.00    -0.014 A 
BRANCH  54  55
ATOM     55  C   UNL A   1      51.834  24.503  33.167  1.00  0.00     0.031 A 
ATOM     56  C   UNL A   1      50.336  24.549  33.022  1.00  0.00     0.074 A 
ATOM     57  C   UNL A   1      52.626  25.607  33.014  1.00  0.00     0.049 A 
ATOM     58  N   UNL A   1      49.668  25.439  32.375  1.00  0.00    -0.248 NA
ATOM     59  C   UNL A   1      49.426  23.622  33.700  1.00  0.00     0.031 C 
ATOM     60  C   UNL A   1      52.302  26.975  32.601  1.00  0.00     0.029 A 
ATOM     61  N   UNL A   1      54.010  25.696  33.174  1.00  0.00    -0.354 N 
ATOM     62  C   UNL A   1      48.353  25.453  32.842  1.00  0.00     0.074 A 
ATOM     63  C   UNL A   1      48.247  24.254  33.628  1.00  0.00     0.031 C 
ATOM     64  C   UNL A   1      53.408  27.720  32.431  1.00  0.00     0.029 A 
ATOM     65  C   UNL A   1      54.510  26.795  32.457  1.00  0.00     0.049 A 
ATOM     66  H   UNL A   1      54.556  25.078  33.711  1.00  0.00     0.167 HD
ATOM     67  C   UNL A   1      47.567  26.560  32.620  1.00  0.00     0.031 A 
ATOM     68  C   UNL A   1      55.159  26.511  31.289  1.00  0.00     0.031 A 
ATOM     69  C   UNL A   1      48.250  27.509  31.696  1.00  0.00     0.049 A 
ATOM     70  C   UNL A   1      54.164  26.639  30.069  1.00  0.00     0.074 A 
ATOM     71  C   UNL A   1      48.549  28.862  31.703  1.00  0.00     0.029 A 
ATOM     72  N   UNL A   1      48.996  26.989  30.628  1.00  0.00    -0.354 N 
ATOM     73  N   UNL A   1      52.847  26.494  30.172  1.00  0.00    -0.248 NA
ATOM     74  C   UNL A   1      54.489  27.234  28.769  1.00  0.00     0.031 C 
ATOM     75  C   UNL A   1      49.682  29.059  30.837  1.00  0.00     0.029 A 
ATOM     76  C   UNL A   1      50.012  27.847  30.228  1.00  0.00     0.049 A 
ATOM     77  H   UNL A   1      48.819  26.116  30.209  1.00  0.00     0.167 HD
ATOM     78  C   UNL A   1      52.178  27.125  29.143  1.00  0.00     0.074 A 
ATOM     79  C   UNL A   1      53.269  27.491  28.245  1.00  0.00     0.031 C 
ATOM     80  C   UNL A   1      50.843  27.492  29.066  1.00  0.00     0.031 A 
BRANCH  67  81
ATOM     81  C   UNL A   1      46.269  26.910  33.395  1.00  0.00    -0.014 A 
ATOM     82  C   UNL A   1      46.338  27.229  34.773  1.00  0.00     0.010 A 
ATOM     83  C   UNL A   1      44.955  26.895  32.869  1.00  0.00     0.010 A 
ATOM     84  C   UNL A   1      45.201  27.532  35.558  1.00  0.00     0.020 A 
ATOM     85  C   UNL A   1      43.806  27.226  33.634  1.00  0.00     0.020 A 
ATOM     86  C   UNL A   1      43.937  27.551  34.979  1.00  0.00     0.054 A 
BRANCH  86  87
ATOM     87  S   UNL A   1      42.507  28.052  35.988  1.00  0.00     0.124 S 
ATOM     88  O   UNL A   1      42.643  29.505  36.042  1.00  0.00    -0.237 OA
ATOM     89  O   UNL A   1      41.378  27.559  35.203  1.00  0.00    -0.237 OA
ATOM     90  O   UNL A   1      42.717  27.364  37.260  1.00  0.00    -0.744 OA
ENDBRANCH  86  87
ENDBRANCH  67  81
BRANCH  68  91
ATOM     91  C   UNL A   1      56.463  25.823  31.680  1.00  0.00    -0.014 A 
ATOM     92  C   UNL A   1      57.042  26.312  32.890  1.00  0.00     0.010 A 
ATOM     93  C   UNL A   1      56.698  24.452  31.421  1.00  0.00     0.010 A 
ATOM     94  C   UNL A   1      57.608  25.461  33.868  1.00  0.00     0.020 A 
ATOM     95  C   UNL A   1      57.293  23.597  32.396  1.00  0.00     0.020 A 
ATOM     96  C   UNL A   1      57.696  24.096  33.635  1.00  0.00     0.054 A 
BRANCH  96  97
ATOM     97  S   UNL A   1      58.177  22.987  35.009  1.00  0.00     0.124 S 
ATOM     98  O   UNL A   1      56.894  22.433  35.426  1.00  0.00    -0.237 OA
ATOM     99  O   UNL A   1      59.079  22.035  34.361  1.00  0.00    -0.237 OA
ATOM    100  O   UNL A   1      58.812  23.889  35.964  1.00  0.00    -0.744 OA
ENDBRANCH  96  97
ENDBRANCH  68  91
BRANCH  80 101
ATOM    101  C   UNL A   1      50.069  27.518  27.752  1.00  0.00    -0.014 A 
ATOM    102  C   UNL A   1      50.031  26.427  26.881  1.00  0.00     0.010 A 
ATOM    103  C   UNL A   1      49.130  28.564  27.510  1.00  0.00     0.010 A 
ATOM    104  C   UNL A   1      49.133  26.397  25.807  1.00  0.00     0.020 A 
ATOM    105  C   UNL A   1      48.186  28.512  26.489  1.00  0.00     0.020 A 
ATOM    106  C   UNL A   1      48.215  27.434  25.623  1.00  0.00     0.054 A 
BRANCH 106 107
ATOM    107  S   UNL A   1      47.040  27.342  24.258  1.00  0.00     0.124 S 
ATOM    108  O   UNL A   1      47.880  26.810  23.188  1.00  0.00    -0.237 OA
ATOM    109  O   UNL A   1      46.023  26.429  24.773  1.00  0.00    -0.237 OA
ATOM    110  O   UNL A   1      46.600  28.723  24.081  1.00  0.00    -0.744 OA
ENDBRANCH 106 107
ENDBRANCH  80 101
ENDBRANCH  54  55
ENDBRANCH  47  49
ENDBRANCH  46  47
ENDBRANCH  45  46
ENDBRANCH  44  45
ENDBRANCH  43  44
ENDBRANCH  42  43
ENDBRANCH  41  42
ENDBRANCH   1  41
TORSDOF 26
ENDMDL
MODEL 3
REMARK VINA RESULT:      -8.4      6.731     12.651
REMARK SMILES Cc1ccc(-c2cnnc(-n3nc(C)c4c3NC(=O)C[C@@H]4c3ccc(C(=O)OCCOCCOCCOCCOC(=O)c4ccc(-c5c6nc(c(-c7ccc(S(=O)(=O)[O-])cc7)c7ccc([nH]7)c(-c7ccc(S(=O)(=O)[O-])cc7)c7nc(c(-c8ccc(S(=O)(=O)[O-])cc8)c8ccc5[nH]8)C=C7)C=C6)cc4)cc3)n2)cc1
REMARK SMILES IDX 34 1 33 2 32 3 31 4 30 5 29 6 28 7 26 8 27 9 25 10 22 11
REMARK SMILES IDX 23 12 104 13 24 14 103 15 21 16 11 17 12 18 16 19 13 20
REMARK SMILES IDX 15 21 17 22 14 23 18 24 20 26 19 27 10 28 6 29 7 30 105 31
REMARK SMILES IDX 8 32 9 33 5 34 1 35 2 36 3 37 107 38 4 39 106 40 35 41 36 42
REMARK SMILES IDX 37 43 38 44 39 45 40 46 41 47 42 48 43 49 44 50 102 51 45 52
REMARK SMILES IDX 101 53 46 54 47 55 48 56 95 57 49 58 100 59 94 60 96 61
REMARK SMILES IDX 50 62 99 63 93 64 92 65 51 67 81 68 62 69 80 70 63 71 66 72
REMARK SMILES IDX 79 73 97 74 64 75 65 76 78 78 98 79 67 80 52 81 53 82 61 83
REMARK SMILES IDX 54 84 60 85 55 86 56 87 57 88 58 89 59 90 82 91 83 92 91 93
REMARK SMILES IDX 84 94 90 95 85 96 86 97 87 98 88 99 89 100 68 101 69 102
REMARK SMILES IDX 77 103 70 104 76 105 71 106 72 107 73 108 74 109 75 110
REMARK H PARENT 17 25 96 66 66 77
REMARK Flexibility Score: inf
ROOT
ATOM      1  O   UNL A   1      48.177  41.061  36.415  1.00  0.00    -0.377 OA
ENDROOT
BRANCH   1   2
ATOM      2  C   UNL A   1      47.678  42.377  36.311  1.00  0.00     0.188 C 
BRANCH   2   3
ATOM      3  C   UNL A   1      46.631  42.835  37.336  1.00  0.00     0.188 C 
BRANCH   3   4
ATOM      4  O   UNL A   1      45.271  43.057  36.954  1.00  0.00    -0.376 OA
BRANCH   4   5
ATOM      5  C   UNL A   1      44.900  42.792  35.611  1.00  0.00     0.202 C 
BRANCH   5   6
ATOM      6  C   UNL A   1      44.116  41.524  35.500  1.00  0.00     0.261 C 
BRANCH   6   7
ATOM      7  O   UNL A   1      44.165  41.115  34.154  1.00  0.00    -0.460 OA
BRANCH   7   8
ATOM      8  C   UNL A   1      43.072  41.474  33.504  1.00  0.00     0.338 C 
ATOM      9  O   UNL A   1      41.941  41.666  33.956  1.00  0.00    -0.246 OA
BRANCH   8  10
ATOM     10  C   UNL A   1      43.467  41.724  32.129  1.00  0.00     0.060 A 
ATOM     11  C   UNL A   1      44.287  42.386  29.572  1.00  0.00    -0.040 A 
ATOM     12  C   UNL A   1      45.069  42.713  30.703  1.00  0.00     0.005 A 
ATOM     13  C   UNL A   1      43.163  41.580  29.739  1.00  0.00     0.005 A 
ATOM     14  C   UNL A   1      44.688  42.344  31.970  1.00  0.00     0.016 A 
ATOM     15  C   UNL A   1      42.713  41.316  31.019  1.00  0.00     0.016 A 
BRANCH  11  16
ATOM     16  C   UNL A   1      44.704  43.041  28.289  1.00  0.00     0.064 C 
ATOM     17  N   UNL A   1      45.441  41.551  25.147  1.00  0.00    -0.180 N 
ATOM     18  N   UNL A   1      44.307  40.812  25.284  1.00  0.00    -0.168 NA
ATOM     19  C   UNL A   1      45.880  41.871  26.418  1.00  0.00     0.143 A 
ATOM     20  C   UNL A   1      43.787  41.250  26.444  1.00  0.00     0.066 A 
ATOM     21  C   UNL A   1      44.710  42.120  27.113  1.00  0.00     0.026 A 
ATOM     22  N   UNL A   1      47.111  41.990  27.034  1.00  0.00    -0.310 N 
ATOM     23  C   UNL A   1      42.473  40.676  26.841  1.00  0.00     0.069 C 
ATOM     24  C   UNL A   1      47.151  42.690  28.281  1.00  0.00     0.226 C 
ATOM     25  H   UNL A   1      47.925  41.609  26.632  1.00  0.00     0.171 HD
ATOM     26  C   UNL A   1      46.072  43.724  28.449  1.00  0.00     0.113 C 
ATOM     27  O   UNL A   1      48.086  42.488  29.031  1.00  0.00    -0.275 OA
BRANCH  17  28
ATOM     28  C   UNL A   1      45.624  42.397  23.999  1.00  0.00     0.272 A 
ATOM     29  C   UNL A   1      45.034  43.140  21.912  1.00  0.00     0.095 A 
ATOM     30  C   UNL A   1      46.298  43.682  21.757  1.00  0.00     0.164 A 
ATOM     31  N   UNL A   1      44.687  42.430  23.023  1.00  0.00    -0.208 NA
ATOM     32  N   UNL A   1      47.212  43.586  22.731  1.00  0.00    -0.153 NA
ATOM     33  N   UNL A   1      46.852  42.967  23.881  1.00  0.00    -0.109 NA
BRANCH  29  34
ATOM     34  C   UNL A   1      43.967  43.421  20.943  1.00  0.00     0.002 A 
ATOM     35  C   UNL A   1      40.698  44.285  18.234  1.00  0.00     0.044 C 
ATOM     36  C   UNL A   1      41.820  44.009  19.190  1.00  0.00    -0.051 A 
ATOM     37  C   UNL A   1      43.087  44.561  18.971  1.00  0.00     0.004 A 
ATOM     38  C   UNL A   1      41.624  43.179  20.295  1.00  0.00     0.004 A 
ATOM     39  C   UNL A   1      44.147  44.272  19.839  1.00  0.00     0.011 A 
ATOM     40  C   UNL A   1      42.685  42.888  21.155  1.00  0.00     0.011 A 
ENDBRANCH  29  34
ENDBRANCH  17  28
ENDBRANCH  11  16
ENDBRANCH   8  10
ENDBRANCH   7   8
ENDBRANCH   6   7
ENDBRANCH   5   6
ENDBRANCH   4   5
ENDBRANCH   3   4
ENDBRANCH   2   3
ENDBRANCH   1   2
BRANCH   1  41
ATOM     41  C   UNL A   1      47.305  39.965  36.291  1.00  0.00     0.188 C 
BRANCH  41  42
ATOM     42  C   UNL A   1      46.953  39.210  37.577  1.00  0.00     0.188 C 
BRANCH  42  43
ATOM     43  O   UNL A   1      47.936  38.360  38.118  1.00  0.00    -0.376 OA
BRANCH  43  44
ATOM     44  C   UNL A   1      47.435  37.087  38.521  1.00  0.00     0.202 C 
BRANCH  44  45
ATOM     45  C   UNL A   1      46.022  36.579  38.061  1.00  0.00     0.261 C 
BRANCH  45  46
ATOM     46  O   UNL A   1      45.755  35.146  38.013  1.00  0.00    -0.460 OA
BRANCH  46  47
ATOM     47  C   UNL A   1      44.488  34.668  37.770  1.00  0.00     0.338 C 
ATOM     48  O   UNL A   1      43.517  34.718  38.502  1.00  0.00    -0.246 OA
BRANCH  47  49
ATOM     49  C   UNL A   1      44.395  34.404  36.294  1.00  0.00     0.060 A 
ATOM     50  C   UNL A   1      43.727  35.241  35.400  1.00  0.00     0.016 A 
ATOM     51  C   UNL A   1      44.660  33.101  35.906  1.00  0.00     0.016 A 
ATOM     52  C   UNL A   1      42.992  34.674  34.349  1.00  0.00     0.010 A 
ATOM     53  C   UNL A   1      43.812  32.517  34.984  1.00  0.00     0.010 A 
ATOM     54  C   UNL A   1      42.874  33.285  34.290  1.00  0.00    -0.014 A 
BRANCH  54  55
ATOM     55  C   UNL A   1      41.653  32.586  33.822  1.00  0.00     0.031 A 
ATOM     56  C   UNL A   1      41.562  32.132  32.390  1.00  0.00     0.074 A 
ATOM     57  C   UNL A   1      40.830  32.108  34.804  1.00  0.00     0.049 A 
ATOM     58  N   UNL A   1      40.529  31.607  31.830  1.00  0.00    -0.248 NA
ATOM     59  C   UNL A   1      42.695  32.139  31.461  1.00  0.00     0.031 C 
ATOM     60  C   UNL A   1      39.677  31.205  34.739  1.00  0.00     0.029 A 
ATOM     61  N   UNL A   1      40.855  32.413  36.166  1.00  0.00    -0.354 N 
ATOM     62  C   UNL A   1      40.933  30.891  30.702  1.00  0.00     0.074 A 
ATOM     63  C   UNL A   1      42.292  31.311  30.490  1.00  0.00     0.031 C 
ATOM     64  C   UNL A   1      39.049  31.112  35.924  1.00  0.00     0.029 A 
ATOM     65  C   UNL A   1      39.599  32.162  36.741  1.00  0.00     0.049 A 
ATOM     66  H   UNL A   1      41.639  32.755  36.652  1.00  0.00     0.167 HD
ATOM     67  C   UNL A   1      40.108  29.922  30.181  1.00  0.00     0.031 A 
ATOM     68  C   UNL A   1      38.828  33.256  37.013  1.00  0.00     0.031 A 
ATOM     69  C   UNL A   1      38.773  29.962  30.845  1.00  0.00     0.049 A 
ATOM     70  C   UNL A   1      37.820  33.519  35.826  1.00  0.00     0.074 A 
ATOM     71  C   UNL A   1      37.940  29.041  31.460  1.00  0.00     0.029 A 
ATOM     72  N   UNL A   1      38.222  31.209  31.174  1.00  0.00    -0.354 N 
ATOM     73  N   UNL A   1      38.035  33.129  34.574  1.00  0.00    -0.248 NA
ATOM     74  C   UNL A   1      36.417  33.919  35.979  1.00  0.00     0.031 C 
ATOM     75  C   UNL A   1      37.097  29.764  32.375  1.00  0.00     0.029 A 
ATOM     76  C   UNL A   1      37.347  31.132  32.249  1.00  0.00     0.049 A 
ATOM     77  H   UNL A   1      38.432  32.045  30.697  1.00  0.00     0.167 HD
ATOM     78  C   UNL A   1      36.858  33.016  33.862  1.00  0.00     0.074 A 
ATOM     79  C   UNL A   1      35.888  33.616  34.772  1.00  0.00     0.031 C 
ATOM     80  C   UNL A   1      36.617  32.337  32.677  1.00  0.00     0.031 A 
BRANCH  67  81
ATOM     81  C   UNL A   1      40.549  28.784  29.224  1.00  0.00    -0.014 A 
ATOM     82  C   UNL A   1      40.619  29.026  27.831  1.00  0.00     0.010 A 
ATOM     83  C   UNL A   1      40.853  27.453  29.597  1.00  0.00     0.010 A 
ATOM     84  C   UNL A   1      40.985  28.037  26.888  1.00  0.00     0.020 A 
ATOM     85  C   UNL A   1      41.252  26.456  28.668  1.00  0.00     0.020 A 
ATOM     86  C   UNL A   1      41.322  26.758  27.313  1.00  0.00     0.054 A 
BRANCH  86  87
ATOM     87  S   UNL A   1      41.895  25.538  26.088  1.00  0.00     0.124 S 
ATOM     88  O   UNL A   1      42.115  26.354  24.898  1.00  0.00    -0.237 OA
ATOM     89  O   UNL A   1      43.103  25.006  26.714  1.00  0.00    -0.237 OA
ATOM     90  O   UNL A   1      40.785  24.590  25.993  1.00  0.00    -0.744 OA
ENDBRANCH  86  87
ENDBRANCH  67  81
BRANCH  68  91
ATOM     91  C   UNL A   1      39.514  33.987  38.162  1.00  0.00    -0.014 A 
ATOM     92  C   UNL A   1      40.341  35.076  37.754  1.00  0.00     0.010 A 
ATOM     93  C   UNL A   1      38.895  34.152  39.425  1.00  0.00     0.010 A 
ATOM     94  C   UNL A   1      40.367  36.316  38.433  1.00  0.00     0.020 A 
ATOM     95  C   UNL A   1      38.942  35.395  40.125  1.00  0.00     0.020 A 
ATOM     96  C   UNL A   1      39.634  36.486  39.599  1.00  0.00     0.054 A 
BRANCH  96  97
ATOM     97  S   UNL A   1      39.466  38.164  40.309  1.00  0.00     0.124 S 
ATOM     98  O   UNL A   1      38.211  38.625  39.726  1.00  0.00    -0.237 OA
ATOM     99  O   UNL A   1      39.420  37.909  41.748  1.00  0.00    -0.237 OA
ATOM    100  O   UNL A   1      40.666  38.850  39.840  1.00  0.00    -0.744 OA
ENDBRANCH  96  97
ENDBRANCH  68  91
BRANCH  80 101
ATOM    101  C   UNL A   1      35.590  32.805  31.652  1.00  0.00    -0.014 A 
ATOM    102  C   UNL A   1      34.929  34.031  31.756  1.00  0.00     0.010 A 
ATOM    103  C   UNL A   1      35.482  32.123  30.404  1.00  0.00     0.010 A 
ATOM    104  C   UNL A   1      34.172  34.531  30.689  1.00  0.00     0.020 A 
ATOM    105  C   UNL A   1      34.792  32.645  29.314  1.00  0.00     0.020 A 
ATOM    106  C   UNL A   1      34.114  33.840  29.477  1.00  0.00     0.054 A 
BRANCH 106 107
ATOM    107  S   UNL A   1      33.170  34.536  28.107  1.00  0.00     0.124 S 
ATOM    108  O   UNL A   1      32.574  35.712  28.734  1.00  0.00    -0.237 OA
ATOM    109  O   UNL A   1      34.204  34.808  27.112  1.00  0.00    -0.237 OA
ATOM    110  O   UNL A   1      32.234  33.473  27.752  1.00  0.00    -0.744 OA
ENDBRANCH 106 107
ENDBRANCH  80 101
ENDBRANCH  54  55
ENDBRANCH  47  49
ENDBRANCH  46  47
ENDBRANCH  45  46
ENDBRANCH  44  45
ENDBRANCH  43  44
ENDBRANCH  42  43
ENDBRANCH  41  42
ENDBRANCH   1  41
TORSDOF 26
ENDMDL
