MODEL 1
REMARK VINA RESULT:      -8.1      0.000      0.000
REMARK SMILES CN(C)C(=O)c1cccc(N2CCC3(CC2)[C@H](C(=O)OCCOCCOCCOCCOC(=O)c2ccc(-c4c5nc(c(-c6ccc(S(=O)(=O)[O-])cc6)c6ccc([nH]6)c(-c6ccc(S(=O)(=O)[O-])cc6)c6nc(c(-c7ccc(S(=O)(=O)[O-])cc7)c7ccc4[nH]7)C=C6)C=C5)cc2)CC(=O)N3C)n1
REMARK SMILES IDX 27 1 26 2 25 3 24 4 23 5 22 6 21 7 20 8 18 9 19 10 17 11
REMARK SMILES IDX 11 12 12 13 16 14 13 15 15 16 14 17 98 18 95 19 96 20 99 21
REMARK SMILES IDX 97 22 10 23 6 24 7 25 100 26 8 27 9 28 4 29 1 30 2 31 3 32
REMARK SMILES IDX 5 33 28 34 29 35 30 36 31 37 32 38 33 39 34 40 35 41 36 42
REMARK SMILES IDX 94 43 37 44 93 45 38 46 39 47 40 48 87 49 41 50 92 51 86 52
REMARK SMILES IDX 88 53 42 54 91 55 85 56 84 57 43 59 73 60 54 61 72 62 55 63
REMARK SMILES IDX 58 64 71 65 89 66 56 67 57 68 70 70 90 71 59 72 44 73 45 74
REMARK SMILES IDX 53 75 46 76 52 77 47 78 48 79 49 80 50 81 51 82 74 83 75 84
REMARK SMILES IDX 83 85 76 86 82 87 77 88 78 89 79 90 80 91 81 92 60 93 61 94
REMARK SMILES IDX 69 95 62 96 68 97 63 98 64 99 65 100 66 101 67 102
REMARK H PARENT 88 58 58 69
REMARK Flexibility Score: inf
ROOT
ATOM      1  C   UNL A   1      33.961  25.820  25.170  1.00  0.00     0.188 C 
ENDROOT
BRANCH   1   2
ATOM      2  O   UNL A   1      34.899  24.963  25.802  1.00  0.00    -0.377 OA
BRANCH   2   3
ATOM      3  C   UNL A   1      35.657  24.019  25.074  1.00  0.00     0.188 C 
BRANCH   3   4
ATOM      4  C   UNL A   1      36.193  22.944  26.021  1.00  0.00     0.188 C 
BRANCH   4   5
ATOM      5  O   UNL A   1      37.244  22.120  25.517  1.00  0.00    -0.376 OA
BRANCH   5   6
ATOM      6  C   UNL A   1      38.551  22.258  26.079  1.00  0.00     0.202 C 
BRANCH   6   7
ATOM      7  C   UNL A   1      39.676  21.300  25.620  1.00  0.00     0.261 C 
BRANCH   7   8
ATOM      8  O   UNL A   1      40.438  20.626  26.663  1.00  0.00    -0.463 OA
BRANCH   8   9
ATOM      9  C   UNL A   1      41.774  20.696  26.523  1.00  0.00     0.311 C 
ATOM     10  O   UNL A   1      42.508  19.716  26.678  1.00  0.00    -0.252 OA
BRANCH   9  11
ATOM     11  C   UNL A   1      42.397  21.996  26.016  1.00  0.00     0.134 C 
ATOM     12  N   UNL A   1      41.527  25.886  27.626  1.00  0.00    -0.356 N 
ATOM     13  C   UNL A   1      42.098  25.020  28.656  1.00  0.00     0.120 C 
ATOM     14  C   UNL A   1      42.272  25.909  26.371  1.00  0.00     0.120 C 
ATOM     15  C   UNL A   1      42.117  23.566  28.129  1.00  0.00     0.051 C 
ATOM     16  C   UNL A   1      42.312  24.498  25.784  1.00  0.00     0.051 C 
ATOM     17  C   UNL A   1      42.766  23.348  26.752  1.00  0.00     0.060 C 
ATOM     18  N   UNL A   1      44.239  23.271  26.817  1.00  0.00    -0.339 N 
ATOM     19  C   UNL A   1      43.698  21.569  25.314  1.00  0.00     0.118 C 
ATOM     20  C   UNL A   1      44.784  22.225  26.094  1.00  0.00     0.223 C 
ATOM     21  C   UNL A   1      45.106  24.153  27.575  1.00  0.00     0.147 C 
ATOM     22  O   UNL A   1      45.962  21.916  26.031  1.00  0.00    -0.275 OA
BRANCH  12  23
ATOM     23  C   UNL A   1      40.829  27.031  28.011  1.00  0.00     0.129 A 
ATOM     24  C   UNL A   1      39.727  28.346  29.608  1.00  0.00     0.130 A 
ATOM     25  C   UNL A   1      39.337  29.294  28.670  1.00  0.00     0.034 A 
ATOM     26  N   UNL A   1      40.451  27.224  29.296  1.00  0.00    -0.226 NA
ATOM     27  C   UNL A   1      39.686  29.075  27.347  1.00  0.00     0.006 A 
ATOM     28  C   UNL A   1      40.443  27.948  27.023  1.00  0.00     0.047 A 
BRANCH  24  29
ATOM     29  C   UNL A   1      39.451  28.606  31.061  1.00  0.00     0.272 C 
ATOM     30  C   UNL A   1      40.186  29.175  33.322  1.00  0.00     0.146 C 
ATOM     31  N   UNL A   1      40.452  29.142  31.893  1.00  0.00    -0.343 N 
ATOM     32  C   UNL A   1      41.668  29.799  31.443  1.00  0.00     0.146 C 
ATOM     33  O   UNL A   1      38.354  28.270  31.509  1.00  0.00    -0.267 OA
ENDBRANCH  24  29
ENDBRANCH  12  23
ENDBRANCH   9  11
ENDBRANCH   8   9
ENDBRANCH   7   8
ENDBRANCH   6   7
ENDBRANCH   5   6
ENDBRANCH   4   5
ENDBRANCH   3   4
ENDBRANCH   2   3
ENDBRANCH   1   2
BRANCH   1  34
ATOM     34  C   UNL A   1      33.318  26.904  26.031  1.00  0.00     0.188 C 
BRANCH  34  35
ATOM     35  O   UNL A   1      34.110  28.077  26.244  1.00  0.00    -0.376 OA
BRANCH  35  36
ATOM     36  C   UNL A   1      33.488  29.162  26.928  1.00  0.00     0.202 C 
BRANCH  36  37
ATOM     37  C   UNL A   1      34.429  30.315  27.236  1.00  0.00     0.261 C 
BRANCH  37  38
ATOM     38  O   UNL A   1      34.117  30.960  28.479  1.00  0.00    -0.460 OA
BRANCH  38  39
ATOM     39  C   UNL A   1      34.553  32.234  28.586  1.00  0.00     0.338 C 
ATOM     40  O   UNL A   1      34.205  33.190  27.917  1.00  0.00    -0.246 OA
BRANCH  39  41
ATOM     41  C   UNL A   1      35.428  32.359  29.761  1.00  0.00     0.060 A 
ATOM     42  C   UNL A   1      35.782  33.650  30.171  1.00  0.00     0.016 A 
ATOM     43  C   UNL A   1      35.991  31.232  30.362  1.00  0.00     0.016 A 
ATOM     44  C   UNL A   1      36.762  33.822  31.141  1.00  0.00     0.010 A 
ATOM     45  C   UNL A   1      36.984  31.406  31.327  1.00  0.00     0.010 A 
ATOM     46  C   UNL A   1      37.407  32.701  31.679  1.00  0.00    -0.014 A 
BRANCH  46  47
ATOM     47  C   UNL A   1      38.653  32.896  32.452  1.00  0.00     0.031 A 
ATOM     48  C   UNL A   1      38.570  32.880  33.955  1.00  0.00     0.074 A 
ATOM     49  C   UNL A   1      39.830  33.043  31.822  1.00  0.00     0.049 A 
ATOM     50  N   UNL A   1      39.518  33.059  34.836  1.00  0.00    -0.248 NA
ATOM     51  C   UNL A   1      37.242  32.631  34.545  1.00  0.00     0.031 C 
ATOM     52  C   UNL A   1      40.020  33.026  30.371  1.00  0.00     0.029 A 
ATOM     53  N   UNL A   1      41.090  33.244  32.325  1.00  0.00    -0.354 N 
ATOM     54  C   UNL A   1      38.900  32.964  36.079  1.00  0.00     0.074 A 
ATOM     55  C   UNL A   1      37.495  32.727  35.842  1.00  0.00     0.031 C 
ATOM     56  C   UNL A   1      41.322  33.226  30.100  1.00  0.00     0.029 A 
ATOM     57  C   UNL A   1      42.046  33.422  31.354  1.00  0.00     0.049 A 
ATOM     58  H   UNL A   1      41.290  33.257  33.289  1.00  0.00     0.167 HD
ATOM     59  C   UNL A   1      39.461  33.069  37.305  1.00  0.00     0.031 A 
ATOM     60  C   UNL A   1      43.350  33.741  31.470  1.00  0.00     0.031 A 
ATOM     61  C   UNL A   1      40.863  33.303  37.523  1.00  0.00     0.049 A 
ATOM     62  C   UNL A   1      43.935  33.904  32.850  1.00  0.00     0.074 A 
ATOM     63  C   UNL A   1      41.542  33.392  38.724  1.00  0.00     0.029 A 
ATOM     64  N   UNL A   1      41.797  33.495  36.516  1.00  0.00    -0.354 N 
ATOM     65  N   UNL A   1      43.348  33.769  34.016  1.00  0.00    -0.248 NA
ATOM     66  C   UNL A   1      45.360  34.253  32.930  1.00  0.00     0.031 C 
ATOM     67  C   UNL A   1      42.876  33.705  38.445  1.00  0.00     0.029 A 
ATOM     68  C   UNL A   1      43.041  33.736  37.069  1.00  0.00     0.049 A 
ATOM     69  H   UNL A   1      41.603  33.463  35.551  1.00  0.00     0.167 HD
ATOM     70  C   UNL A   1      44.340  33.987  34.967  1.00  0.00     0.074 A 
ATOM     71  C   UNL A   1      45.565  34.243  34.239  1.00  0.00     0.031 C 
ATOM     72  C   UNL A   1      44.248  33.978  36.319  1.00  0.00     0.031 A 
BRANCH  59  73
ATOM     73  C   UNL A   1      38.563  32.972  38.510  1.00  0.00    -0.014 A 
ATOM     74  C   UNL A   1      38.424  34.041  39.413  1.00  0.00     0.010 A 
ATOM     75  C   UNL A   1      37.777  31.818  38.691  1.00  0.00     0.010 A 
ATOM     76  C   UNL A   1      37.524  33.954  40.479  1.00  0.00     0.020 A 
ATOM     77  C   UNL A   1      36.858  31.737  39.740  1.00  0.00     0.020 A 
ATOM     78  C   UNL A   1      36.741  32.805  40.631  1.00  0.00     0.054 A 
BRANCH  78  79
ATOM     79  S   UNL A   1      35.528  32.751  41.980  1.00  0.00     0.124 S 
ATOM     80  O   UNL A   1      34.678  31.633  41.577  1.00  0.00    -0.237 OA
ATOM     81  O   UNL A   1      36.366  32.511  43.152  1.00  0.00    -0.237 OA
ATOM     82  O   UNL A   1      34.892  34.064  41.928  1.00  0.00    -0.744 OA
ENDBRANCH  78  79
ENDBRANCH  59  73
BRANCH  60  83
ATOM     83  C   UNL A   1      44.178  33.971  30.254  1.00  0.00    -0.014 A 
ATOM     84  C   UNL A   1      44.805  32.902  29.589  1.00  0.00     0.010 A 
ATOM     85  C   UNL A   1      44.370  35.280  29.772  1.00  0.00     0.010 A 
ATOM     86  C   UNL A   1      45.638  33.142  28.491  1.00  0.00     0.020 A 
ATOM     87  C   UNL A   1      45.173  35.520  28.655  1.00  0.00     0.020 A 
ATOM     88  C   UNL A   1      45.820  34.450  28.034  1.00  0.00     0.054 A 
BRANCH  88  89
ATOM     89  S   UNL A   1      46.899  34.737  26.605  1.00  0.00     0.124 S 
ATOM     90  O   UNL A   1      46.052  35.560  25.747  1.00  0.00    -0.237 OA
ATOM     91  O   UNL A   1      48.043  35.419  27.206  1.00  0.00    -0.237 OA
ATOM     92  O   UNL A   1      47.175  33.391  26.108  1.00  0.00    -0.744 OA
ENDBRANCH  88  89
ENDBRANCH  60  83
BRANCH  72  93
ATOM     93  C   UNL A   1      45.514  34.205  37.103  1.00  0.00    -0.014 A 
ATOM     94  C   UNL A   1      46.371  33.141  37.432  1.00  0.00     0.010 A 
ATOM     95  C   UNL A   1      45.879  35.517  37.457  1.00  0.00     0.010 A 
ATOM     96  C   UNL A   1      47.555  33.382  38.133  1.00  0.00     0.020 A 
ATOM     97  C   UNL A   1      47.077  35.766  38.127  1.00  0.00     0.020 A 
ATOM     98  C   UNL A   1      47.901  34.694  38.476  1.00  0.00     0.054 A 
BRANCH  98  99
ATOM     99  S   UNL A   1      49.465  34.985  39.346  1.00  0.00     0.124 S 
ATOM    100  O   UNL A   1      49.025  35.737  40.518  1.00  0.00    -0.237 OA
ATOM    101  O   UNL A   1      49.939  33.629  39.611  1.00  0.00    -0.237 OA
ATOM    102  O   UNL A   1      50.262  35.741  38.383  1.00  0.00    -0.744 OA
ENDBRANCH  98  99
ENDBRANCH  72  93
ENDBRANCH  46  47
ENDBRANCH  39  41
ENDBRANCH  38  39
ENDBRANCH  37  38
ENDBRANCH  36  37
ENDBRANCH  35  36
ENDBRANCH  34  35
ENDBRANCH   1  34
TORSDOF 25
ENDMDL
MODEL 2
REMARK VINA RESULT:      -7.9      4.775     10.106
REMARK SMILES CN(C)C(=O)c1cccc(N2CCC3(CC2)[C@H](C(=O)OCCOCCOCCOCCOC(=O)c2ccc(-c4c5nc(c(-c6ccc(S(=O)(=O)[O-])cc6)c6ccc([nH]6)c(-c6ccc(S(=O)(=O)[O-])cc6)c6nc(c(-c7ccc(S(=O)(=O)[O-])cc7)c7ccc4[nH]7)C=C6)C=C5)cc2)CC(=O)N3C)n1
REMARK SMILES IDX 27 1 26 2 25 3 24 4 23 5 22 6 21 7 20 8 18 9 19 10 17 11
REMARK SMILES IDX 11 12 12 13 16 14 13 15 15 16 14 17 98 18 95 19 96 20 99 21
REMARK SMILES IDX 97 22 10 23 6 24 7 25 100 26 8 27 9 28 4 29 1 30 2 31 3 32
REMARK SMILES IDX 5 33 28 34 29 35 30 36 31 37 32 38 33 39 34 40 35 41 36 42
REMARK SMILES IDX 94 43 37 44 93 45 38 46 39 47 40 48 87 49 41 50 92 51 86 52
REMARK SMILES IDX 88 53 42 54 91 55 85 56 84 57 43 59 73 60 54 61 72 62 55 63
REMARK SMILES IDX 58 64 71 65 89 66 56 67 57 68 70 70 90 71 59 72 44 73 45 74
REMARK SMILES IDX 53 75 46 76 52 77 47 78 48 79 49 80 50 81 51 82 74 83 75 84
REMARK SMILES IDX 83 85 76 86 82 87 77 88 78 89 79 90 80 91 81 92 60 93 61 94
REMARK SMILES IDX 69 95 62 96 68 97 63 98 64 99 65 100 66 101 67 102
REMARK H PARENT 88 58 58 69
REMARK Flexibility Score: inf
ROOT
ATOM      1  C   UNL A   1      33.132  36.568  31.396  1.00  0.00     0.188 C 
ENDROOT
BRANCH   1   2
ATOM      2  O   UNL A   1      33.844  36.592  30.168  1.00  0.00    -0.377 OA
BRANCH   2   3
ATOM      3  C   UNL A   1      33.214  36.311  28.935  1.00  0.00     0.188 C 
BRANCH   3   4
ATOM      4  C   UNL A   1      32.768  34.848  28.903  1.00  0.00     0.188 C 
BRANCH   4   5
ATOM      5  O   UNL A   1      33.759  33.875  29.232  1.00  0.00    -0.376 OA
BRANCH   5   6
ATOM      6  C   UNL A   1      34.547  33.316  28.178  1.00  0.00     0.202 C 
BRANCH   6   7
ATOM      7  C   UNL A   1      34.530  31.786  27.952  1.00  0.00     0.261 C 
BRANCH   7   8
ATOM      8  O   UNL A   1      35.257  30.967  28.913  1.00  0.00    -0.463 OA
BRANCH   8   9
ATOM      9  C   UNL A   1      36.100  30.070  28.369  1.00  0.00     0.311 C 
ATOM     10  O   UNL A   1      35.785  29.364  27.407  1.00  0.00    -0.252 OA
BRANCH   9  11
ATOM     11  C   UNL A   1      37.544  30.018  28.866  1.00  0.00     0.134 C 
ATOM     12  N   UNL A   1      38.724  30.636  32.953  1.00  0.00    -0.356 N 
ATOM     13  C   UNL A   1      37.825  29.488  32.846  1.00  0.00     0.120 C 
ATOM     14  C   UNL A   1      39.832  30.629  32.003  1.00  0.00     0.120 C 
ATOM     15  C   UNL A   1      37.194  29.481  31.434  1.00  0.00     0.051 C 
ATOM     16  C   UNL A   1      39.275  30.640  30.579  1.00  0.00     0.051 C 
ATOM     17  C   UNL A   1      38.171  29.574  30.250  1.00  0.00     0.060 C 
ATOM     18  N   UNL A   1      38.784  28.275  29.908  1.00  0.00    -0.339 N 
ATOM     19  C   UNL A   1      38.299  29.185  27.813  1.00  0.00     0.118 C 
ATOM     20  C   UNL A   1      38.786  27.988  28.555  1.00  0.00     0.223 C 
ATOM     21  C   UNL A   1      39.328  27.315  30.849  1.00  0.00     0.147 C 
ATOM     22  O   UNL A   1      39.183  26.964  28.025  1.00  0.00    -0.275 OA
BRANCH  12  23
ATOM     23  C   UNL A   1      38.913  31.238  34.198  1.00  0.00     0.129 A 
ATOM     24  C   UNL A   1      40.235  31.783  36.055  1.00  0.00     0.130 A 
ATOM     25  C   UNL A   1      39.173  32.366  36.735  1.00  0.00     0.034 A 
ATOM     26  N   UNL A   1      40.119  31.215  34.812  1.00  0.00    -0.226 NA
ATOM     27  C   UNL A   1      37.929  32.351  36.125  1.00  0.00     0.006 A 
ATOM     28  C   UNL A   1      37.806  31.796  34.851  1.00  0.00     0.047 A 
BRANCH  24  29
ATOM     29  C   UNL A   1      41.613  31.873  36.645  1.00  0.00     0.272 C 
ATOM     30  C   UNL A   1      43.927  32.662  36.595  1.00  0.00     0.146 C 
ATOM     31  N   UNL A   1      42.559  32.772  36.115  1.00  0.00    -0.343 N 
ATOM     32  C   UNL A   1      42.266  33.894  35.239  1.00  0.00     0.146 C 
ATOM     33  O   UNL A   1      41.906  31.092  37.550  1.00  0.00    -0.267 OA
ENDBRANCH  24  29
ENDBRANCH  12  23
ENDBRANCH   9  11
ENDBRANCH   8   9
ENDBRANCH   7   8
ENDBRANCH   6   7
ENDBRANCH   5   6
ENDBRANCH   4   5
ENDBRANCH   3   4
ENDBRANCH   2   3
ENDBRANCH   1   2
BRANCH   1  34
ATOM     34  C   UNL A   1      33.747  37.324  32.571  1.00  0.00     0.188 C 
BRANCH  34  35
ATOM     35  O   UNL A   1      34.670  36.581  33.372  1.00  0.00    -0.376 OA
BRANCH  35  36
ATOM     36  C   UNL A   1      34.445  35.178  33.485  1.00  0.00     0.202 C 
BRANCH  36  37
ATOM     37  C   UNL A   1      35.707  34.340  33.362  1.00  0.00     0.261 C 
BRANCH  37  38
ATOM     38  O   UNL A   1      36.604  34.845  32.364  1.00  0.00    -0.460 OA
BRANCH  38  39
ATOM     39  C   UNL A   1      37.134  33.908  31.546  1.00  0.00     0.338 C 
ATOM     40  O   UNL A   1      36.583  32.912  31.114  1.00  0.00    -0.246 OA
BRANCH  39  41
ATOM     41  C   UNL A   1      38.468  34.338  31.103  1.00  0.00     0.060 A 
ATOM     42  C   UNL A   1      38.662  34.536  29.731  1.00  0.00     0.016 A 
ATOM     43  C   UNL A   1      39.534  34.418  32.001  1.00  0.00     0.016 A 
ATOM     44  C   UNL A   1      39.946  34.743  29.238  1.00  0.00     0.010 A 
ATOM     45  C   UNL A   1      40.824  34.613  31.503  1.00  0.00     0.010 A 
ATOM     46  C   UNL A   1      41.036  34.722  30.117  1.00  0.00    -0.014 A 
BRANCH  46  47
ATOM     47  C   UNL A   1      42.401  34.615  29.558  1.00  0.00     0.031 A 
ATOM     48  C   UNL A   1      43.007  33.245  29.412  1.00  0.00     0.074 A 
ATOM     49  C   UNL A   1      43.062  35.714  29.156  1.00  0.00     0.049 A 
ATOM     50  N   UNL A   1      44.192  32.908  28.978  1.00  0.00    -0.248 NA
ATOM     51  C   UNL A   1      42.165  32.101  29.808  1.00  0.00     0.031 C 
ATOM     52  C   UNL A   1      42.541  37.081  29.214  1.00  0.00     0.029 A 
ATOM     53  N   UNL A   1      44.318  35.853  28.627  1.00  0.00    -0.354 N 
ATOM     54  C   UNL A   1      44.247  31.521  29.068  1.00  0.00     0.074 A 
ATOM     55  C   UNL A   1      42.984  31.077  29.610  1.00  0.00     0.031 C 
ATOM     56  C   UNL A   1      43.482  37.924  28.753  1.00  0.00     0.029 A 
ATOM     57  C   UNL A   1      44.678  37.161  28.404  1.00  0.00     0.049 A 
ATOM     58  H   UNL A   1      44.905  35.089  28.424  1.00  0.00     0.167 HD
ATOM     59  C   UNL A   1      45.264  30.697  28.729  1.00  0.00     0.031 A 
ATOM     60  C   UNL A   1      45.853  37.679  27.998  1.00  0.00     0.031 A 
ATOM     61  C   UNL A   1      46.515  31.157  28.188  1.00  0.00     0.049 A 
ATOM     62  C   UNL A   1      46.987  36.739  27.678  1.00  0.00     0.074 A 
ATOM     63  C   UNL A   1      47.601  30.405  27.778  1.00  0.00     0.029 A 
ATOM     64  N   UNL A   1      46.849  32.488  27.993  1.00  0.00    -0.354 N 
ATOM     65  N   UNL A   1      47.010  35.427  27.726  1.00  0.00    -0.248 NA
ATOM     66  C   UNL A   1      48.251  37.346  27.240  1.00  0.00     0.031 C 
ATOM     67  C   UNL A   1      48.618  31.286  27.397  1.00  0.00     0.029 A 
ATOM     68  C   UNL A   1      48.138  32.583  27.499  1.00  0.00     0.049 A 
ATOM     69  H   UNL A   1      46.257  33.253  28.177  1.00  0.00     0.167 HD
ATOM     70  C   UNL A   1      48.278  35.053  27.296  1.00  0.00     0.074 A 
ATOM     71  C   UNL A   1      48.985  36.275  26.974  1.00  0.00     0.031 C 
ATOM     72  C   UNL A   1      48.814  33.813  27.178  1.00  0.00     0.031 A 
BRANCH  59  73
ATOM     73  C   UNL A   1      45.093  29.219  28.963  1.00  0.00    -0.014 A 
ATOM     74  C   UNL A   1      44.458  28.394  28.019  1.00  0.00     0.010 A 
ATOM     75  C   UNL A   1      45.659  28.635  30.112  1.00  0.00     0.010 A 
ATOM     76  C   UNL A   1      44.383  27.013  28.225  1.00  0.00     0.020 A 
ATOM     77  C   UNL A   1      45.608  27.253  30.309  1.00  0.00     0.020 A 
ATOM     78  C   UNL A   1      44.965  26.451  29.366  1.00  0.00     0.054 A 
BRANCH  78  79
ATOM     79  S   UNL A   1      44.917  24.648  29.569  1.00  0.00     0.124 S 
ATOM     80  O   UNL A   1      43.537  24.340  29.201  1.00  0.00    -0.237 OA
ATOM     81  O   UNL A   1      45.934  24.194  28.625  1.00  0.00    -0.237 OA
ATOM     82  O   UNL A   1      45.242  24.448  30.978  1.00  0.00    -0.744 OA
ENDBRANCH  78  79
ENDBRANCH  59  73
BRANCH  60  83
ATOM     83  C   UNL A   1      46.034  39.155  27.913  1.00  0.00    -0.014 A 
ATOM     84  C   UNL A   1      45.352  39.917  26.949  1.00  0.00     0.010 A 
ATOM     85  C   UNL A   1      46.926  39.805  28.788  1.00  0.00     0.010 A 
ATOM     86  C   UNL A   1      45.587  41.290  26.834  1.00  0.00     0.020 A 
ATOM     87  C   UNL A   1      47.138  41.183  28.700  1.00  0.00     0.020 A 
ATOM     88  C   UNL A   1      46.482  41.913  27.708  1.00  0.00     0.054 A 
BRANCH  88  89
ATOM     89  S   UNL A   1      46.767  43.698  27.546  1.00  0.00     0.124 S 
ATOM     90  O   UNL A   1      45.517  44.148  26.940  1.00  0.00    -0.237 OA
ATOM     91  O   UNL A   1      46.982  44.108  28.931  1.00  0.00    -0.237 OA
ATOM     92  O   UNL A   1      47.946  43.781  26.688  1.00  0.00    -0.744 OA
ENDBRANCH  88  89
ENDBRANCH  60  83
BRANCH  72  93
ATOM     93  C   UNL A   1      50.215  33.711  26.634  1.00  0.00    -0.014 A 
ATOM     94  C   UNL A   1      50.474  33.811  25.256  1.00  0.00     0.010 A 
ATOM     95  C   UNL A   1      51.292  33.576  27.530  1.00  0.00     0.010 A 
ATOM     96  C   UNL A   1      51.786  33.743  24.781  1.00  0.00     0.020 A 
ATOM     97  C   UNL A   1      52.606  33.542  27.061  1.00  0.00     0.020 A 
ATOM     98  C   UNL A   1      52.844  33.610  25.687  1.00  0.00     0.054 A 
BRANCH  98  99
ATOM     99  S   UNL A   1      54.540  33.569  25.047  1.00  0.00     0.124 S 
ATOM    100  O   UNL A   1      55.166  34.670  25.774  1.00  0.00    -0.237 OA
ATOM    101  O   UNL A   1      54.991  32.231  25.422  1.00  0.00    -0.237 OA
ATOM    102  O   UNL A   1      54.374  33.784  23.611  1.00  0.00    -0.744 OA
ENDBRANCH  98  99
ENDBRANCH  72  93
ENDBRANCH  46  47
ENDBRANCH  39  41
ENDBRANCH  38  39
ENDBRANCH  37  38
ENDBRANCH  36  37
ENDBRANCH  35  36
ENDBRANCH  34  35
ENDBRANCH   1  34
TORSDOF 25
ENDMDL
MODEL 3
REMARK VINA RESULT:      -7.8      5.763     12.532
REMARK SMILES CN(C)C(=O)c1cccc(N2CCC3(CC2)[C@H](C(=O)OCCOCCOCCOCCOC(=O)c2ccc(-c4c5nc(c(-c6ccc(S(=O)(=O)[O-])cc6)c6ccc([nH]6)c(-c6ccc(S(=O)(=O)[O-])cc6)c6nc(c(-c7ccc(S(=O)(=O)[O-])cc7)c7ccc4[nH]7)C=C6)C=C5)cc2)CC(=O)N3C)n1
REMARK SMILES IDX 27 1 26 2 25 3 24 4 23 5 22 6 21 7 20 8 18 9 19 10 17 11
REMARK SMILES IDX 11 12 12 13 16 14 13 15 15 16 14 17 98 18 95 19 96 20 99 21
REMARK SMILES IDX 97 22 10 23 6 24 7 25 100 26 8 27 9 28 4 29 1 30 2 31 3 32
REMARK SMILES IDX 5 33 28 34 29 35 30 36 31 37 32 38 33 39 34 40 35 41 36 42
REMARK SMILES IDX 94 43 37 44 93 45 38 46 39 47 40 48 87 49 41 50 92 51 86 52
REMARK SMILES IDX 88 53 42 54 91 55 85 56 84 57 43 59 73 60 54 61 72 62 55 63
REMARK SMILES IDX 58 64 71 65 89 66 56 67 57 68 70 70 90 71 59 72 44 73 45 74
REMARK SMILES IDX 53 75 46 76 52 77 47 78 48 79 49 80 50 81 51 82 74 83 75 84
REMARK SMILES IDX 83 85 76 86 82 87 77 88 78 89 79 90 80 91 81 92 60 93 61 94
REMARK SMILES IDX 69 95 62 96 68 97 63 98 64 99 65 100 66 101 67 102
REMARK H PARENT 88 58 58 69
REMARK Flexibility Score: inf
ROOT
ATOM      1  C   UNL A   1      37.535  34.091  31.095  1.00  0.00     0.188 C 
ENDROOT
BRANCH   1   2
ATOM      2  O   UNL A   1      36.373  34.500  30.388  1.00  0.00    -0.377 OA
BRANCH   2   3
ATOM      3  C   UNL A   1      35.075  34.320  30.917  1.00  0.00     0.188 C 
BRANCH   3   4
ATOM      4  C   UNL A   1      34.060  34.222  29.777  1.00  0.00     0.188 C 
BRANCH   4   5
ATOM      5  O   UNL A   1      33.787  32.912  29.281  1.00  0.00    -0.376 OA
BRANCH   5   6
ATOM      6  C   UNL A   1      34.505  32.450  28.134  1.00  0.00     0.202 C 
BRANCH   6   7
ATOM      7  C   UNL A   1      34.105  31.105  27.484  1.00  0.00     0.261 C 
BRANCH   7   8
ATOM      8  O   UNL A   1      32.985  31.126  26.553  1.00  0.00    -0.463 OA
BRANCH   8   9
ATOM      9  C   UNL A   1      32.230  30.012  26.549  1.00  0.00     0.311 C 
ATOM     10  O   UNL A   1      31.330  29.819  27.371  1.00  0.00    -0.252 OA
BRANCH   9  11
ATOM     11  C   UNL A   1      32.396  29.012  25.406  1.00  0.00     0.134 C 
ATOM     12  N   UNL A   1      32.676  24.754  25.932  1.00  0.00    -0.356 N 
ATOM     13  C   UNL A   1      31.400  25.252  26.442  1.00  0.00     0.120 C 
ATOM     14  C   UNL A   1      33.015  25.217  24.590  1.00  0.00     0.120 C 
ATOM     15  C   UNL A   1      31.460  26.795  26.510  1.00  0.00     0.051 C 
ATOM     16  C   UNL A   1      33.109  26.743  24.591  1.00  0.00     0.051 C 
ATOM     17  C   UNL A   1      31.901  27.519  25.227  1.00  0.00     0.060 C 
ATOM     18  N   UNL A   1      30.805  27.672  24.249  1.00  0.00    -0.339 N 
ATOM     19  C   UNL A   1      31.876  29.745  24.156  1.00  0.00     0.118 C 
ATOM     20  C   UNL A   1      30.710  28.939  23.701  1.00  0.00     0.223 C 
ATOM     21  C   UNL A   1      29.853  26.648  23.868  1.00  0.00     0.147 C 
ATOM     22  O   UNL A   1      29.864  29.333  22.915  1.00  0.00    -0.275 OA
BRANCH  12  23
ATOM     23  C   UNL A   1      33.131  23.500  26.342  1.00  0.00     0.129 A 
ATOM     24  C   UNL A   1      34.430  21.572  26.051  1.00  0.00     0.130 A 
ATOM     25  C   UNL A   1      33.896  20.950  27.173  1.00  0.00     0.034 A 
ATOM     26  N   UNL A   1      34.055  22.820  25.625  1.00  0.00    -0.226 NA
ATOM     27  C   UNL A   1      32.918  21.628  27.882  1.00  0.00     0.006 A 
ATOM     28  C   UNL A   1      32.546  22.908  27.470  1.00  0.00     0.047 A 
BRANCH  24  29
ATOM     29  C   UNL A   1      35.563  20.906  25.322  1.00  0.00     0.272 C 
ATOM     30  C   UNL A   1      37.785  20.947  24.303  1.00  0.00     0.146 C 
ATOM     31  N   UNL A   1      36.806  21.554  25.192  1.00  0.00    -0.343 N 
ATOM     32  C   UNL A   1      37.256  22.693  25.974  1.00  0.00     0.146 C 
ATOM     33  O   UNL A   1      35.344  19.820  24.786  1.00  0.00    -0.267 OA
ENDBRANCH  24  29
ENDBRANCH  12  23
ENDBRANCH   9  11
ENDBRANCH   8   9
ENDBRANCH   7   8
ENDBRANCH   6   7
ENDBRANCH   5   6
ENDBRANCH   4   5
ENDBRANCH   3   4
ENDBRANCH   2   3
ENDBRANCH   1   2
BRANCH   1  34
ATOM     34  C   UNL A   1      38.667  33.477  30.276  1.00  0.00     0.188 C 
BRANCH  34  35
ATOM     35  O   UNL A   1      38.486  32.110  29.896  1.00  0.00    -0.376 OA
BRANCH  35  36
ATOM     36  C   UNL A   1      37.505  31.364  30.612  1.00  0.00     0.202 C 
BRANCH  36  37
ATOM     37  C   UNL A   1      37.980  29.991  31.058  1.00  0.00     0.261 C 
BRANCH  37  38
ATOM     38  O   UNL A   1      37.287  28.928  30.390  1.00  0.00    -0.460 OA
BRANCH  38  39
ATOM     39  C   UNL A   1      37.625  28.752  29.093  1.00  0.00     0.338 C 
ATOM     40  O   UNL A   1      36.874  28.551  28.157  1.00  0.00    -0.246 OA
BRANCH  39  41
ATOM     41  C   UNL A   1      39.066  28.993  28.923  1.00  0.00     0.060 A 
ATOM     42  C   UNL A   1      39.507  29.420  27.665  1.00  0.00     0.016 A 
ATOM     43  C   UNL A   1      39.973  28.681  29.938  1.00  0.00     0.016 A 
ATOM     44  C   UNL A   1      40.869  29.466  27.390  1.00  0.00     0.010 A 
ATOM     45  C   UNL A   1      41.340  28.716  29.656  1.00  0.00     0.010 A 
ATOM     46  C   UNL A   1      41.786  29.058  28.366  1.00  0.00    -0.014 A 
BRANCH  46  47
ATOM     47  C   UNL A   1      43.186  28.800  27.967  1.00  0.00     0.031 A 
ATOM     48  C   UNL A   1      44.186  29.917  28.104  1.00  0.00     0.074 A 
ATOM     49  C   UNL A   1      43.558  27.584  27.532  1.00  0.00     0.049 A 
ATOM     50  N   UNL A   1      45.454  29.934  27.792  1.00  0.00    -0.248 NA
ATOM     51  C   UNL A   1      43.690  31.186  28.669  1.00  0.00     0.031 C 
ATOM     52  C   UNL A   1      42.674  26.424  27.408  1.00  0.00     0.029 A 
ATOM     53  N   UNL A   1      44.778  27.126  27.106  1.00  0.00    -0.354 N 
ATOM     54  C   UNL A   1      45.902  31.214  28.101  1.00  0.00     0.074 A 
ATOM     55  C   UNL A   1      44.770  31.952  28.612  1.00  0.00     0.031 C 
ATOM     56  C   UNL A   1      43.380  25.390  26.919  1.00  0.00     0.029 A 
ATOM     57  C   UNL A   1      44.751  25.825  26.663  1.00  0.00     0.049 A 
ATOM     58  H   UNL A   1      45.594  27.676  27.118  1.00  0.00     0.167 HD
ATOM     59  C   UNL A   1      47.148  31.723  27.966  1.00  0.00     0.031 A 
ATOM     60  C   UNL A   1      45.718  25.086  26.085  1.00  0.00     0.031 A 
ATOM     61  C   UNL A   1      48.264  30.973  27.457  1.00  0.00     0.049 A 
ATOM     62  C   UNL A   1      47.083  25.699  25.898  1.00  0.00     0.074 A 
ATOM     63  C   UNL A   1      49.577  31.381  27.311  1.00  0.00     0.029 A 
ATOM     64  N   UNL A   1      48.195  29.664  27.003  1.00  0.00    -0.354 N 
ATOM     65  N   UNL A   1      47.503  26.896  26.235  1.00  0.00    -0.248 NA
ATOM     66  C   UNL A   1      48.107  24.859  25.263  1.00  0.00     0.031 C 
ATOM     67  C   UNL A   1      50.288  30.340  26.705  1.00  0.00     0.029 A 
ATOM     68  C   UNL A   1      49.435  29.260  26.544  1.00  0.00     0.049 A 
ATOM     69  H   UNL A   1      47.384  29.106  27.008  1.00  0.00     0.167 HD
ATOM     70  C   UNL A   1      48.847  26.940  25.880  1.00  0.00     0.074 A 
ATOM     71  C   UNL A   1      49.173  25.645  25.321  1.00  0.00     0.031 C 
ATOM     72  C   UNL A   1      49.733  27.959  26.002  1.00  0.00     0.031 A 
BRANCH  59  73
ATOM     73  C   UNL A   1      47.372  33.166  28.334  1.00  0.00    -0.014 A 
ATOM     74  C   UNL A   1      47.687  33.549  29.650  1.00  0.00     0.010 A 
ATOM     75  C   UNL A   1      47.351  34.145  27.323  1.00  0.00     0.010 A 
ATOM     76  C   UNL A   1      47.968  34.885  29.949  1.00  0.00     0.020 A 
ATOM     77  C   UNL A   1      47.657  35.477  27.613  1.00  0.00     0.020 A 
ATOM     78  C   UNL A   1      47.958  35.840  28.926  1.00  0.00     0.054 A 
BRANCH  78  79
ATOM     79  S   UNL A   1      48.400  37.553  29.331  1.00  0.00     0.124 S 
ATOM     80  O   UNL A   1      47.498  37.842  30.444  1.00  0.00    -0.237 OA
ATOM     81  O   UNL A   1      49.813  37.443  29.681  1.00  0.00    -0.237 OA
ATOM     82  O   UNL A   1      48.120  38.285  28.099  1.00  0.00    -0.744 OA
ENDBRANCH  78  79
ENDBRANCH  59  73
BRANCH  60  83
ATOM     83  C   UNL A   1      45.423  23.708  25.601  1.00  0.00    -0.014 A 
ATOM     84  C   UNL A   1      45.588  22.593  26.441  1.00  0.00     0.010 A 
ATOM     85  C   UNL A   1      45.004  23.505  24.273  1.00  0.00     0.010 A 
ATOM     86  C   UNL A   1      45.377  21.300  25.951  1.00  0.00     0.020 A 
ATOM     87  C   UNL A   1      44.758  22.218  23.790  1.00  0.00     0.020 A 
ATOM     88  C   UNL A   1      44.968  21.121  24.627  1.00  0.00     0.054 A 
BRANCH  88  89
ATOM     89  S   UNL A   1      44.693  19.436  24.015  1.00  0.00     0.124 S 
ATOM     90  O   UNL A   1      45.898  18.749  24.471  1.00  0.00    -0.237 OA
ATOM     91  O   UNL A   1      43.454  19.055  24.689  1.00  0.00    -0.237 OA
ATOM     92  O   UNL A   1      44.580  19.610  22.569  1.00  0.00    -0.744 OA
ENDBRANCH  88  89
ENDBRANCH  60  83
BRANCH  72  93
ATOM     93  C   UNL A   1      51.153  27.700  25.568  1.00  0.00    -0.014 A 
ATOM     94  C   UNL A   1      52.136  27.295  26.487  1.00  0.00     0.010 A 
ATOM     95  C   UNL A   1      51.485  27.803  24.204  1.00  0.00     0.010 A 
ATOM     96  C   UNL A   1      53.438  27.032  26.053  1.00  0.00     0.020 A 
ATOM     97  C   UNL A   1      52.776  27.508  23.763  1.00  0.00     0.020 A 
ATOM     98  C   UNL A   1      53.749  27.139  24.693  1.00  0.00     0.054 A 
BRANCH  98  99
ATOM     99  S   UNL A   1      55.434  26.749  24.152  1.00  0.00     0.124 S 
ATOM    100  O   UNL A   1      55.277  26.672  22.702  1.00  0.00    -0.237 OA
ATOM    101  O   UNL A   1      56.200  27.893  24.641  1.00  0.00    -0.237 OA
ATOM    102  O   UNL A   1      55.727  25.481  24.815  1.00  0.00    -0.744 OA
ENDBRANCH  98  99
ENDBRANCH  72  93
ENDBRANCH  46  47
ENDBRANCH  39  41
ENDBRANCH  38  39
ENDBRANCH  37  38
ENDBRANCH  36  37
ENDBRANCH  35  36
ENDBRANCH  34  35
ENDBRANCH   1  34
TORSDOF 25
ENDMDL
