MODEL 1
REMARK VINA RESULT:      -7.9      0.000      0.000
REMARK SMILES CC(C)Cc1ccc([C@H](CF)C(=O)OCCOCCOCCOCCOC(=O)c2ccc(-c3c4nc(c(-c5ccc(S(=O)(=O)[O-])cc5)c5ccc([nH]5)c(-c5ccc(S(=O)(=O)[O-])cc5)c5nc(c(-c6ccc(S(=O)(=O)[O-])cc6)c6ccc3[nH]6)C=C5)C=C4)cc2)cc1
REMARK SMILES IDX 20 1 19 2 18 3 17 4 16 5 15 6 14 7 12 8 13 9 9 10 8 11 5 12
REMARK SMILES IDX 6 13 90 14 7 15 89 16 4 17 2 18 1 19 3 20 10 21 11 22 21 23
REMARK SMILES IDX 22 24 23 25 24 26 25 27 26 28 27 29 28 30 29 31 30 32 88 33
REMARK SMILES IDX 31 34 87 35 32 36 33 37 34 38 81 39 35 40 86 41 80 42 82 43
REMARK SMILES IDX 36 44 85 45 79 46 78 47 37 49 67 50 48 51 66 52 49 53 52 54
REMARK SMILES IDX 65 55 83 56 50 57 51 58 64 60 84 61 53 62 38 63 39 64 47 65
REMARK SMILES IDX 40 66 46 67 41 68 42 69 43 70 44 71 45 72 68 73 69 74 77 75
REMARK SMILES IDX 70 76 76 77 71 78 72 79 73 80 74 81 75 82 54 83 55 84 63 85
REMARK SMILES IDX 56 86 62 87 57 88 58 89 59 90 60 91 61 92
REMARK H PARENT 82 48 52 59
REMARK Flexibility Score: inf
ROOT
ATOM      1  O   UNL A   1      37.286  23.195  26.132  1.00  0.00    -0.377 OA
ENDROOT
BRANCH   1   2
ATOM      2  C   UNL A   1      36.471  23.854  25.186  1.00  0.00     0.188 C 
BRANCH   2   3
ATOM      3  C   UNL A   1      36.140  23.085  23.897  1.00  0.00     0.188 C 
BRANCH   3   4
ATOM      4  O   UNL A   1      34.991  22.271  23.808  1.00  0.00    -0.376 OA
BRANCH   4   5
ATOM      5  C   UNL A   1      33.708  22.717  23.400  1.00  0.00     0.202 C 
BRANCH   5   6
ATOM      6  C   UNL A   1      32.566  23.182  24.314  1.00  0.00     0.261 C 
BRANCH   6   7
ATOM      7  O   UNL A   1      32.899  23.523  25.657  1.00  0.00    -0.463 OA
BRANCH   7   8
ATOM      8  C   UNL A   1      31.987  24.304  26.282  1.00  0.00     0.316 C 
ATOM      9  O   UNL A   1      31.484  24.041  27.373  1.00  0.00    -0.251 OA
BRANCH   8  10
ATOM     10  C   UNL A   1      31.528  25.485  25.452  1.00  0.00     0.160 C 
BRANCH  10  11
ATOM     11  C   UNL A   1      32.131  26.730  26.051  1.00  0.00    -0.031 A 
ATOM     12  C   UNL A   1      33.248  28.974  27.276  1.00  0.00    -0.048 A 
ATOM     13  C   UNL A   1      31.875  28.717  27.373  1.00  0.00     0.004 A 
ATOM     14  C   UNL A   1      34.046  28.131  26.494  1.00  0.00     0.004 A 
ATOM     15  C   UNL A   1      31.320  27.593  26.782  1.00  0.00     0.005 A 
ATOM     16  C   UNL A   1      33.496  27.013  25.896  1.00  0.00     0.005 A 
BRANCH  12  17
ATOM     17  C   UNL A   1      33.950  30.088  28.004  1.00  0.00     0.038 C 
BRANCH  17  18
ATOM     18  C   UNL A   1      35.458  30.248  27.759  1.00  0.00    -0.013 C 
ATOM     19  C   UNL A   1      35.892  31.719  27.719  1.00  0.00     0.008 C 
ATOM     20  C   UNL A   1      36.217  29.527  28.871  1.00  0.00     0.008 C 
ENDBRANCH  17  18
ENDBRANCH  12  17
ENDBRANCH  10  11
BRANCH  10  21
ATOM     21  C   UNL A   1      30.033  25.688  25.245  1.00  0.00     0.234 C 
ATOM     22  F   UNL A   1      29.838  26.360  24.066  1.00  0.00    -0.250 F 
ENDBRANCH  10  21
ENDBRANCH   8  10
ENDBRANCH   7   8
ENDBRANCH   6   7
ENDBRANCH   5   6
ENDBRANCH   4   5
ENDBRANCH   3   4
ENDBRANCH   2   3
ENDBRANCH   1   2
BRANCH   1  23
ATOM     23  C   UNL A   1      38.041  22.052  25.746  1.00  0.00     0.188 C 
BRANCH  23  24
ATOM     24  C   UNL A   1      39.448  21.814  26.327  1.00  0.00     0.188 C 
BRANCH  24  25
ATOM     25  O   UNL A   1      40.065  22.967  26.873  1.00  0.00    -0.376 OA
BRANCH  25  26
ATOM     26  C   UNL A   1      40.501  23.992  25.995  1.00  0.00     0.202 C 
BRANCH  26  27
ATOM     27  C   UNL A   1      40.399  25.451  26.469  1.00  0.00     0.261 C 
BRANCH  27  28
ATOM     28  O   UNL A   1      41.634  26.126  26.753  1.00  0.00    -0.460 OA
BRANCH  28  29
ATOM     29  C   UNL A   1      41.678  27.466  26.607  1.00  0.00     0.338 C 
ATOM     30  O   UNL A   1      41.504  28.100  25.579  1.00  0.00    -0.246 OA
BRANCH  29  31
ATOM     31  C   UNL A   1      41.772  28.063  27.954  1.00  0.00     0.060 A 
ATOM     32  C   UNL A   1      41.248  27.365  29.051  1.00  0.00     0.016 A 
ATOM     33  C   UNL A   1      42.364  29.316  28.128  1.00  0.00     0.016 A 
ATOM     34  C   UNL A   1      41.274  27.940  30.320  1.00  0.00     0.010 A 
ATOM     35  C   UNL A   1      42.367  29.901  29.397  1.00  0.00     0.010 A 
ATOM     36  C   UNL A   1      41.786  29.233  30.490  1.00  0.00    -0.014 A 
BRANCH  36  37
ATOM     37  C   UNL A   1      41.513  29.971  31.747  1.00  0.00     0.031 A 
ATOM     38  C   UNL A   1      42.497  29.827  32.879  1.00  0.00     0.074 A 
ATOM     39  C   UNL A   1      40.442  30.775  31.875  1.00  0.00     0.049 A 
ATOM     40  N   UNL A   1      42.446  30.316  34.091  1.00  0.00    -0.248 NA
ATOM     41  C   UNL A   1      43.702  29.024  32.604  1.00  0.00     0.031 C 
ATOM     42  C   UNL A   1      39.455  31.049  30.832  1.00  0.00     0.029 A 
ATOM     43  N   UNL A   1      40.007  31.509  32.950  1.00  0.00    -0.354 N 
ATOM     44  C   UNL A   1      43.608  29.883  34.719  1.00  0.00     0.074 A 
ATOM     45  C   UNL A   1      44.324  29.058  33.773  1.00  0.00     0.031 C 
ATOM     46  C   UNL A   1      38.523  31.885  31.323  1.00  0.00     0.029 A 
ATOM     47  C   UNL A   1      38.824  32.173  32.724  1.00  0.00     0.049 A 
ATOM     48  H   UNL A   1      40.495  31.556  33.804  1.00  0.00     0.167 HD
ATOM     49  C   UNL A   1      44.047  30.157  35.970  1.00  0.00     0.031 A 
ATOM     50  C   UNL A   1      38.062  32.904  33.562  1.00  0.00     0.031 A 
ATOM     51  C   UNL A   1      43.322  30.959  36.918  1.00  0.00     0.049 A 
ATOM     52  C   UNL A   1      38.515  33.096  34.990  1.00  0.00     0.074 A 
ATOM     53  C   UNL A   1      43.669  31.279  38.218  1.00  0.00     0.029 A 
ATOM     54  N   UNL A   1      42.104  31.571  36.666  1.00  0.00    -0.354 N 
ATOM     55  N   UNL A   1      39.616  32.679  35.572  1.00  0.00    -0.248 NA
ATOM     56  C   UNL A   1      37.624  33.863  35.872  1.00  0.00     0.031 C 
ATOM     57  C   UNL A   1      42.634  32.038  38.771  1.00  0.00     0.029 A 
ATOM     58  C   UNL A   1      41.675  32.251  37.793  1.00  0.00     0.049 A 
ATOM     59  H   UNL A   1      41.615  31.528  35.813  1.00  0.00     0.167 HD
ATOM     60  C   UNL A   1      39.566  33.172  36.873  1.00  0.00     0.074 A 
ATOM     61  C   UNL A   1      38.337  33.927  36.988  1.00  0.00     0.031 C 
ATOM     62  C   UNL A   1      40.457  33.014  37.885  1.00  0.00     0.031 A 
BRANCH  49  63
ATOM     63  C   UNL A   1      45.368  29.567  36.391  1.00  0.00    -0.014 A 
ATOM     64  C   UNL A   1      46.568  30.277  36.206  1.00  0.00     0.010 A 
ATOM     65  C   UNL A   1      45.405  28.312  37.026  1.00  0.00     0.010 A 
ATOM     66  C   UNL A   1      47.785  29.732  36.626  1.00  0.00     0.020 A 
ATOM     67  C   UNL A   1      46.617  27.777  37.473  1.00  0.00     0.020 A 
ATOM     68  C   UNL A   1      47.800  28.487  37.260  1.00  0.00     0.054 A 
BRANCH  68  69
ATOM     69  S   UNL A   1      49.389  27.826  37.833  1.00  0.00     0.124 S 
ATOM     70  O   UNL A   1      49.759  28.787  38.869  1.00  0.00    -0.237 OA
ATOM     71  O   UNL A   1      49.025  26.495  38.313  1.00  0.00    -0.237 OA
ATOM     72  O   UNL A   1      50.227  27.847  36.637  1.00  0.00    -0.744 OA
ENDBRANCH  68  69
ENDBRANCH  49  63
BRANCH  50  73
ATOM     73  C   UNL A   1      36.771  33.490  33.099  1.00  0.00    -0.014 A 
ATOM     74  C   UNL A   1      36.703  34.823  32.652  1.00  0.00     0.010 A 
ATOM     75  C   UNL A   1      35.586  32.732  33.158  1.00  0.00     0.010 A 
ATOM     76  C   UNL A   1      35.473  35.398  32.315  1.00  0.00     0.020 A 
ATOM     77  C   UNL A   1      34.360  33.292  32.788  1.00  0.00     0.020 A 
ATOM     78  C   UNL A   1      34.309  34.629  32.388  1.00  0.00     0.054 A 
BRANCH  78  79
ATOM     79  S   UNL A   1      32.725  35.394  31.941  1.00  0.00     0.124 S 
ATOM     80  O   UNL A   1      31.804  34.750  32.872  1.00  0.00    -0.237 OA
ATOM     81  O   UNL A   1      32.983  36.811  32.182  1.00  0.00    -0.237 OA
ATOM     82  O   UNL A   1      32.554  35.029  30.537  1.00  0.00    -0.744 OA
ENDBRANCH  78  79
ENDBRANCH  50  73
BRANCH  62  83
ATOM     83  C   UNL A   1      40.171  33.721  39.186  1.00  0.00    -0.014 A 
ATOM     84  C   UNL A   1      40.645  35.020  39.438  1.00  0.00     0.010 A 
ATOM     85  C   UNL A   1      39.362  33.090  40.149  1.00  0.00     0.010 A 
ATOM     86  C   UNL A   1      40.346  35.660  40.643  1.00  0.00     0.020 A 
ATOM     87  C   UNL A   1      39.031  33.739  41.341  1.00  0.00     0.020 A 
ATOM     88  C   UNL A   1      39.538  35.016  41.587  1.00  0.00     0.054 A 
BRANCH  88  89
ATOM     89  S   UNL A   1      39.128  35.888  43.124  1.00  0.00     0.124 S 
ATOM     90  O   UNL A   1      40.057  35.281  44.074  1.00  0.00    -0.237 OA
ATOM     91  O   UNL A   1      39.398  37.281  42.782  1.00  0.00    -0.237 OA
ATOM     92  O   UNL A   1      37.719  35.566  43.341  1.00  0.00    -0.744 OA
ENDBRANCH  88  89
ENDBRANCH  62  83
ENDBRANCH  36  37
ENDBRANCH  29  31
ENDBRANCH  28  29
ENDBRANCH  27  28
ENDBRANCH  26  27
ENDBRANCH  25  26
ENDBRANCH  24  25
ENDBRANCH  23  24
ENDBRANCH   1  23
TORSDOF 27
ENDMDL
MODEL 2
REMARK VINA RESULT:      -7.5      6.499     10.013
REMARK SMILES CC(C)Cc1ccc([C@H](CF)C(=O)OCCOCCOCCOCCOC(=O)c2ccc(-c3c4nc(c(-c5ccc(S(=O)(=O)[O-])cc5)c5ccc([nH]5)c(-c5ccc(S(=O)(=O)[O-])cc5)c5nc(c(-c6ccc(S(=O)(=O)[O-])cc6)c6ccc3[nH]6)C=C5)C=C4)cc2)cc1
REMARK SMILES IDX 20 1 19 2 18 3 17 4 16 5 15 6 14 7 12 8 13 9 9 10 8 11 5 12
REMARK SMILES IDX 6 13 90 14 7 15 89 16 4 17 2 18 1 19 3 20 10 21 11 22 21 23
REMARK SMILES IDX 22 24 23 25 24 26 25 27 26 28 27 29 28 30 29 31 30 32 88 33
REMARK SMILES IDX 31 34 87 35 32 36 33 37 34 38 81 39 35 40 86 41 80 42 82 43
REMARK SMILES IDX 36 44 85 45 79 46 78 47 37 49 67 50 48 51 66 52 49 53 52 54
REMARK SMILES IDX 65 55 83 56 50 57 51 58 64 60 84 61 53 62 38 63 39 64 47 65
REMARK SMILES IDX 40 66 46 67 41 68 42 69 43 70 44 71 45 72 68 73 69 74 77 75
REMARK SMILES IDX 70 76 76 77 71 78 72 79 73 80 74 81 75 82 54 83 55 84 63 85
REMARK SMILES IDX 56 86 62 87 57 88 58 89 59 90 60 91 61 92
REMARK H PARENT 82 48 52 59
REMARK Flexibility Score: inf
ROOT
ATOM      1  O   UNL A   1      38.339  21.398  25.957  1.00  0.00    -0.377 OA
ENDROOT
BRANCH   1   2
ATOM      2  C   UNL A   1      37.644  22.542  25.508  1.00  0.00     0.188 C 
BRANCH   2   3
ATOM      3  C   UNL A   1      37.056  22.487  24.089  1.00  0.00     0.188 C 
BRANCH   3   4
ATOM      4  O   UNL A   1      35.713  22.843  23.842  1.00  0.00    -0.376 OA
BRANCH   4   5
ATOM      5  C   UNL A   1      34.645  22.671  24.758  1.00  0.00     0.202 C 
BRANCH   5   6
ATOM      6  C   UNL A   1      33.445  23.607  24.953  1.00  0.00     0.261 C 
BRANCH   6   7
ATOM      7  O   UNL A   1      33.040  23.884  26.291  1.00  0.00    -0.463 OA
BRANCH   7   8
ATOM      8  C   UNL A   1      31.817  24.455  26.404  1.00  0.00     0.316 C 
ATOM      9  O   UNL A   1      30.985  24.143  27.253  1.00  0.00    -0.251 OA
BRANCH   8  10
ATOM     10  C   UNL A   1      31.501  25.436  25.294  1.00  0.00     0.160 C 
BRANCH  10  11
ATOM     11  C   UNL A   1      32.042  26.783  25.703  1.00  0.00    -0.031 A 
ATOM     12  C   UNL A   1      33.105  29.216  26.559  1.00  0.00    -0.048 A 
ATOM     13  C   UNL A   1      31.992  28.658  27.201  1.00  0.00     0.004 A 
ATOM     14  C   UNL A   1      33.636  28.575  25.434  1.00  0.00     0.004 A 
ATOM     15  C   UNL A   1      31.473  27.440  26.791  1.00  0.00     0.005 A 
ATOM     16  C   UNL A   1      33.117  27.364  25.016  1.00  0.00     0.005 A 
BRANCH  12  17
ATOM     17  C   UNL A   1      33.815  30.456  27.030  1.00  0.00     0.038 C 
BRANCH  17  18
ATOM     18  C   UNL A   1      34.909  30.279  28.093  1.00  0.00    -0.013 C 
ATOM     19  C   UNL A   1      36.225  29.760  27.499  1.00  0.00     0.008 C 
ATOM     20  C   UNL A   1      35.157  31.624  28.772  1.00  0.00     0.008 C 
ENDBRANCH  17  18
ENDBRANCH  12  17
ENDBRANCH  10  11
BRANCH  10  21
ATOM     21  C   UNL A   1      30.053  25.580  24.845  1.00  0.00     0.234 C 
ATOM     22  F   UNL A   1      29.954  25.175  23.539  1.00  0.00    -0.250 F 
ENDBRANCH  10  21
ENDBRANCH   8  10
ENDBRANCH   7   8
ENDBRANCH   6   7
ENDBRANCH   5   6
ENDBRANCH   4   5
ENDBRANCH   3   4
ENDBRANCH   2   3
ENDBRANCH   1   2
BRANCH   1  23
ATOM     23  C   UNL A   1      39.754  21.437  26.102  1.00  0.00     0.188 C 
BRANCH  23  24
ATOM     24  C   UNL A   1      40.456  22.728  26.562  1.00  0.00     0.188 C 
BRANCH  24  25
ATOM     25  O   UNL A   1      41.813  22.562  26.935  1.00  0.00    -0.376 OA
BRANCH  25  26
ATOM     26  C   UNL A   1      42.686  21.867  26.059  1.00  0.00     0.202 C 
BRANCH  26  27
ATOM     27  C   UNL A   1      43.830  22.650  25.395  1.00  0.00     0.261 C 
BRANCH  27  28
ATOM     28  O   UNL A   1      44.256  23.853  26.053  1.00  0.00    -0.460 OA
BRANCH  28  29
ATOM     29  C   UNL A   1      45.576  24.035  26.260  1.00  0.00     0.338 C 
ATOM     30  O   UNL A   1      46.469  23.223  26.077  1.00  0.00    -0.246 OA
BRANCH  29  31
ATOM     31  C   UNL A   1      45.793  25.466  26.554  1.00  0.00     0.060 A 
ATOM     32  C   UNL A   1      46.305  25.837  27.804  1.00  0.00     0.016 A 
ATOM     33  C   UNL A   1      45.478  26.436  25.600  1.00  0.00     0.016 A 
ATOM     34  C   UNL A   1      46.460  27.186  28.122  1.00  0.00     0.010 A 
ATOM     35  C   UNL A   1      45.611  27.787  25.929  1.00  0.00     0.010 A 
ATOM     36  C   UNL A   1      46.064  28.168  27.205  1.00  0.00    -0.014 A 
BRANCH  36  37
ATOM     37  C   UNL A   1      45.910  29.573  27.655  1.00  0.00     0.031 A 
ATOM     38  C   UNL A   1      44.633  29.954  28.358  1.00  0.00     0.074 A 
ATOM     39  C   UNL A   1      46.886  30.481  27.477  1.00  0.00     0.049 A 
ATOM     40  N   UNL A   1      44.238  31.125  28.784  1.00  0.00    -0.248 NA
ATOM     41  C   UNL A   1      43.674  28.865  28.616  1.00  0.00     0.031 C 
ATOM     42  C   UNL A   1      48.191  30.220  26.873  1.00  0.00     0.029 A 
ATOM     43  N   UNL A   1      46.923  31.817  27.791  1.00  0.00    -0.354 N 
ATOM     44  C   UNL A   1      42.990  30.914  29.360  1.00  0.00     0.074 A 
ATOM     45  C   UNL A   1      42.674  29.513  29.193  1.00  0.00     0.031 C 
ATOM     46  C   UNL A   1      48.898  31.364  26.851  1.00  0.00     0.029 A 
ATOM     47  C   UNL A   1      48.083  32.445  27.402  1.00  0.00     0.049 A 
ATOM     48  H   UNL A   1      46.188  32.282  28.253  1.00  0.00     0.167 HD
ATOM     49  C   UNL A   1      42.184  31.804  29.984  1.00  0.00     0.031 A 
ATOM     50  C   UNL A   1      48.431  33.746  27.461  1.00  0.00     0.031 A 
ATOM     51  C   UNL A   1      42.490  33.200  30.130  1.00  0.00     0.049 A 
ATOM     52  C   UNL A   1      47.461  34.740  28.055  1.00  0.00     0.074 A 
ATOM     53  C   UNL A   1      41.730  34.191  30.726  1.00  0.00     0.029 A 
ATOM     54  N   UNL A   1      43.652  33.806  29.677  1.00  0.00    -0.354 N 
ATOM     55  N   UNL A   1      46.284  34.526  28.595  1.00  0.00    -0.248 NA
ATOM     56  C   UNL A   1      47.872  36.151  28.053  1.00  0.00     0.031 C 
ATOM     57  C   UNL A   1      42.407  35.405  30.584  1.00  0.00     0.029 A 
ATOM     58  C   UNL A   1      43.621  35.159  29.963  1.00  0.00     0.049 A 
ATOM     59  H   UNL A   1      44.390  33.342  29.218  1.00  0.00     0.167 HD
ATOM     60  C   UNL A   1      45.836  35.770  29.033  1.00  0.00     0.074 A 
ATOM     61  C   UNL A   1      46.874  36.725  28.710  1.00  0.00     0.031 C 
ATOM     62  C   UNL A   1      44.672  36.094  29.649  1.00  0.00     0.031 A 
BRANCH  49  63
ATOM     63  C   UNL A   1      40.881  31.293  30.542  1.00  0.00    -0.014 A 
ATOM     64  C   UNL A   1      39.731  31.212  29.736  1.00  0.00     0.010 A 
ATOM     65  C   UNL A   1      40.818  30.839  31.873  1.00  0.00     0.010 A 
ATOM     66  C   UNL A   1      38.535  30.710  30.257  1.00  0.00     0.020 A 
ATOM     67  C   UNL A   1      39.631  30.309  32.388  1.00  0.00     0.020 A 
ATOM     68  C   UNL A   1      38.494  30.259  31.579  1.00  0.00     0.054 A 
BRANCH  68  69
ATOM     69  S   UNL A   1      36.940  29.571  32.212  1.00  0.00     0.124 S 
ATOM     70  O   UNL A   1      37.418  28.578  33.172  1.00  0.00    -0.237 OA
ATOM     71  O   UNL A   1      36.289  30.743  32.794  1.00  0.00    -0.237 OA
ATOM     72  O   UNL A   1      36.290  29.025  31.024  1.00  0.00    -0.744 OA
ENDBRANCH  68  69
ENDBRANCH  49  63
BRANCH  50  73
ATOM     73  C   UNL A   1      49.741  34.208  26.918  1.00  0.00    -0.014 A 
ATOM     74  C   UNL A   1      49.876  34.552  25.560  1.00  0.00     0.010 A 
ATOM     75  C   UNL A   1      50.878  34.249  27.746  1.00  0.00     0.010 A 
ATOM     76  C   UNL A   1      51.128  34.887  25.033  1.00  0.00     0.020 A 
ATOM     77  C   UNL A   1      52.124  34.618  27.231  1.00  0.00     0.020 A 
ATOM     78  C   UNL A   1      52.245  34.915  25.872  1.00  0.00     0.054 A 
BRANCH  78  79
ATOM     79  S   UNL A   1      53.858  35.358  25.168  1.00  0.00     0.124 S 
ATOM     80  O   UNL A   1      54.711  35.372  26.352  1.00  0.00    -0.237 OA
ATOM     81  O   UNL A   1      54.098  34.268  24.226  1.00  0.00    -0.237 OA
ATOM     82  O   UNL A   1      53.616  36.661  24.554  1.00  0.00    -0.744 OA
ENDBRANCH  78  79
ENDBRANCH  50  73
BRANCH  62  83
ATOM     83  C   UNL A   1      44.479  37.529  30.072  1.00  0.00    -0.014 A 
ATOM     84  C   UNL A   1      44.938  37.999  31.315  1.00  0.00     0.010 A 
ATOM     85  C   UNL A   1      43.879  38.436  29.178  1.00  0.00     0.010 A 
ATOM     86  C   UNL A   1      44.766  39.339  31.671  1.00  0.00     0.020 A 
ATOM     87  C   UNL A   1      43.736  39.784  29.515  1.00  0.00     0.020 A 
ATOM     88  C   UNL A   1      44.168  40.224  30.768  1.00  0.00     0.054 A 
BRANCH  88  89
ATOM     89  S   UNL A   1      43.999  41.968  31.238  1.00  0.00     0.124 S 
ATOM     90  O   UNL A   1      44.036  41.894  32.695  1.00  0.00    -0.237 OA
ATOM     91  O   UNL A   1      45.164  42.582  30.609  1.00  0.00    -0.237 OA
ATOM     92  O   UNL A   1      42.711  42.358  30.668  1.00  0.00    -0.744 OA
ENDBRANCH  88  89
ENDBRANCH  62  83
ENDBRANCH  36  37
ENDBRANCH  29  31
ENDBRANCH  28  29
ENDBRANCH  27  28
ENDBRANCH  26  27
ENDBRANCH  25  26
ENDBRANCH  24  25
ENDBRANCH  23  24
ENDBRANCH   1  23
TORSDOF 27
ENDMDL
MODEL 3
REMARK VINA RESULT:      -7.4      1.918      8.482
REMARK SMILES CC(C)Cc1ccc([C@H](CF)C(=O)OCCOCCOCCOCCOC(=O)c2ccc(-c3c4nc(c(-c5ccc(S(=O)(=O)[O-])cc5)c5ccc([nH]5)c(-c5ccc(S(=O)(=O)[O-])cc5)c5nc(c(-c6ccc(S(=O)(=O)[O-])cc6)c6ccc3[nH]6)C=C5)C=C4)cc2)cc1
REMARK SMILES IDX 20 1 19 2 18 3 17 4 16 5 15 6 14 7 12 8 13 9 9 10 8 11 5 12
REMARK SMILES IDX 6 13 90 14 7 15 89 16 4 17 2 18 1 19 3 20 10 21 11 22 21 23
REMARK SMILES IDX 22 24 23 25 24 26 25 27 26 28 27 29 28 30 29 31 30 32 88 33
REMARK SMILES IDX 31 34 87 35 32 36 33 37 34 38 81 39 35 40 86 41 80 42 82 43
REMARK SMILES IDX 36 44 85 45 79 46 78 47 37 49 67 50 48 51 66 52 49 53 52 54
REMARK SMILES IDX 65 55 83 56 50 57 51 58 64 60 84 61 53 62 38 63 39 64 47 65
REMARK SMILES IDX 40 66 46 67 41 68 42 69 43 70 44 71 45 72 68 73 69 74 77 75
REMARK SMILES IDX 70 76 76 77 71 78 72 79 73 80 74 81 75 82 54 83 55 84 63 85
REMARK SMILES IDX 56 86 62 87 57 88 58 89 59 90 60 91 61 92
REMARK H PARENT 82 48 52 59
REMARK Flexibility Score: inf
ROOT
ATOM      1  O   UNL A   1      36.566  21.409  24.851  1.00  0.00    -0.377 OA
ENDROOT
BRANCH   1   2
ATOM      2  C   UNL A   1      35.935  22.639  24.562  1.00  0.00     0.188 C 
BRANCH   2   3
ATOM      3  C   UNL A   1      35.206  22.747  23.213  1.00  0.00     0.188 C 
BRANCH   3   4
ATOM      4  O   UNL A   1      34.886  24.003  22.656  1.00  0.00    -0.376 OA
BRANCH   4   5
ATOM      5  C   UNL A   1      34.018  24.957  23.245  1.00  0.00     0.202 C 
BRANCH   5   6
ATOM      6  C   UNL A   1      33.618  26.318  22.660  1.00  0.00     0.261 C 
BRANCH   6   7
ATOM      7  O   UNL A   1      33.951  27.479  23.416  1.00  0.00    -0.463 OA
BRANCH   7   8
ATOM      8  C   UNL A   1      32.981  28.424  23.454  1.00  0.00     0.316 C 
ATOM      9  O   UNL A   1      32.664  29.127  22.497  1.00  0.00    -0.251 OA
BRANCH   8  10
ATOM     10  C   UNL A   1      32.399  28.639  24.836  1.00  0.00     0.160 C 
BRANCH  10  11
ATOM     11  C   UNL A   1      31.877  27.313  25.327  1.00  0.00    -0.031 A 
ATOM     12  C   UNL A   1      30.949  24.805  26.122  1.00  0.00    -0.048 A 
ATOM     13  C   UNL A   1      30.192  25.604  25.257  1.00  0.00     0.004 A 
ATOM     14  C   UNL A   1      32.146  25.308  26.644  1.00  0.00     0.004 A 
ATOM     15  C   UNL A   1      30.658  26.843  24.845  1.00  0.00     0.005 A 
ATOM     16  C   UNL A   1      32.612  26.546  26.242  1.00  0.00     0.005 A 
BRANCH  12  17
ATOM     17  C   UNL A   1      30.584  23.395  26.503  1.00  0.00     0.038 C 
BRANCH  17  18
ATOM     18  C   UNL A   1      31.212  22.261  25.681  1.00  0.00    -0.013 C 
ATOM     19  C   UNL A   1      31.427  22.651  24.212  1.00  0.00     0.008 C 
ATOM     20  C   UNL A   1      32.555  21.885  26.305  1.00  0.00     0.008 C 
ENDBRANCH  17  18
ENDBRANCH  12  17
ENDBRANCH  10  11
BRANCH  10  21
ATOM     21  C   UNL A   1      31.329  29.709  25.012  1.00  0.00     0.234 C 
ATOM     22  F   UNL A   1      31.711  30.553  26.022  1.00  0.00    -0.250 F 
ENDBRANCH  10  21
ENDBRANCH   8  10
ENDBRANCH   7   8
ENDBRANCH   6   7
ENDBRANCH   5   6
ENDBRANCH   4   5
ENDBRANCH   3   4
ENDBRANCH   2   3
ENDBRANCH   1   2
BRANCH   1  23
ATOM     23  C   UNL A   1      37.894  21.394  25.360  1.00  0.00     0.188 C 
BRANCH  23  24
ATOM     24  C   UNL A   1      38.445  22.602  26.141  1.00  0.00     0.188 C 
BRANCH  24  25
ATOM     25  O   UNL A   1      39.650  22.352  26.844  1.00  0.00    -0.376 OA
BRANCH  25  26
ATOM     26  C   UNL A   1      40.801  21.957  26.113  1.00  0.00     0.202 C 
BRANCH  26  27
ATOM     27  C   UNL A   1      42.071  22.815  26.235  1.00  0.00     0.261 C 
BRANCH  27  28
ATOM     28  O   UNL A   1      41.988  23.979  27.072  1.00  0.00    -0.460 OA
BRANCH  28  29
ATOM     29  C   UNL A   1      42.263  25.180  26.524  1.00  0.00     0.338 C 
ATOM     30  O   UNL A   1      42.348  25.445  25.335  1.00  0.00    -0.246 OA
BRANCH  29  31
ATOM     31  C   UNL A   1      42.243  26.184  27.607  1.00  0.00     0.060 A 
ATOM     32  C   UNL A   1      42.970  25.940  28.780  1.00  0.00     0.016 A 
ATOM     33  C   UNL A   1      41.497  27.356  27.466  1.00  0.00     0.016 A 
ATOM     34  C   UNL A   1      42.916  26.847  29.836  1.00  0.00     0.010 A 
ATOM     35  C   UNL A   1      41.424  28.252  28.534  1.00  0.00     0.010 A 
ATOM     36  C   UNL A   1      42.100  27.982  29.738  1.00  0.00    -0.014 A 
BRANCH  36  37
ATOM     37  C   UNL A   1      41.776  28.761  30.958  1.00  0.00     0.031 A 
ATOM     38  C   UNL A   1      40.608  29.710  30.901  1.00  0.00     0.074 A 
ATOM     39  C   UNL A   1      42.474  28.609  32.098  1.00  0.00     0.049 A 
ATOM     40  N   UNL A   1      40.170  30.543  31.809  1.00  0.00    -0.248 NA
ATOM     41  C   UNL A   1      39.828  29.719  29.650  1.00  0.00     0.031 C 
ATOM     42  C   UNL A   1      43.581  27.676  32.299  1.00  0.00     0.029 A 
ATOM     43  N   UNL A   1      42.351  29.249  33.306  1.00  0.00    -0.354 N 
ATOM     44  C   UNL A   1      39.067  31.171  31.241  1.00  0.00     0.074 A 
ATOM     45  C   UNL A   1      38.926  30.656  29.898  1.00  0.00     0.031 C 
ATOM     46  C   UNL A   1      44.042  27.811  33.556  1.00  0.00     0.029 A 
ATOM     47  C   UNL A   1      43.291  28.867  34.233  1.00  0.00     0.049 A 
ATOM     48  H   UNL A   1      41.654  29.919  33.492  1.00  0.00     0.167 HD
ATOM     49  C   UNL A   1      38.236  32.086  31.793  1.00  0.00     0.031 A 
ATOM     50  C   UNL A   1      43.532  29.336  35.474  1.00  0.00     0.031 A 
ATOM     51  C   UNL A   1      38.391  32.614  33.121  1.00  0.00     0.049 A 
ATOM     52  C   UNL A   1      42.664  30.444  36.023  1.00  0.00     0.074 A 
ATOM     53  C   UNL A   1      37.617  33.561  33.767  1.00  0.00     0.029 A 
ATOM     54  N   UNL A   1      39.387  32.237  34.010  1.00  0.00    -0.354 N 
ATOM     55  N   UNL A   1      41.625  31.029  35.474  1.00  0.00    -0.248 NA
ATOM     56  C   UNL A   1      42.999  30.948  37.362  1.00  0.00     0.031 C 
ATOM     57  C   UNL A   1      38.178  33.798  35.025  1.00  0.00     0.029 A 
ATOM     58  C   UNL A   1      39.259  32.947  35.191  1.00  0.00     0.049 A 
ATOM     59  H   UNL A   1      40.083  31.565  33.827  1.00  0.00     0.167 HD
ATOM     60  C   UNL A   1      41.160  31.938  36.420  1.00  0.00     0.074 A 
ATOM     61  C   UNL A   1      42.020  31.815  37.577  1.00  0.00     0.031 C 
ATOM     62  C   UNL A   1      40.114  32.799  36.341  1.00  0.00     0.031 A 
BRANCH  49  63
ATOM     63  C   UNL A   1      37.093  32.588  30.951  1.00  0.00    -0.014 A 
ATOM     64  C   UNL A   1      35.769  32.194  31.218  1.00  0.00     0.010 A 
ATOM     65  C   UNL A   1      37.337  33.506  29.912  1.00  0.00     0.010 A 
ATOM     66  C   UNL A   1      34.713  32.688  30.447  1.00  0.00     0.020 A 
ATOM     67  C   UNL A   1      36.280  34.024  29.158  1.00  0.00     0.020 A 
ATOM     68  C   UNL A   1      34.976  33.603  29.424  1.00  0.00     0.054 A 
BRANCH  68  69
ATOM     69  S   UNL A   1      33.580  34.261  28.470  1.00  0.00     0.124 S 
ATOM     70  O   UNL A   1      34.210  35.349  27.725  1.00  0.00    -0.237 OA
ATOM     71  O   UNL A   1      33.172  33.108  27.671  1.00  0.00    -0.237 OA
ATOM     72  O   UNL A   1      32.625  34.678  29.493  1.00  0.00    -0.744 OA
ENDBRANCH  68  69
ENDBRANCH  49  63
BRANCH  50  73
ATOM     73  C   UNL A   1      44.661  28.795  36.285  1.00  0.00    -0.014 A 
ATOM     74  C   UNL A   1      44.463  27.719  37.169  1.00  0.00     0.010 A 
ATOM     75  C   UNL A   1      45.933  29.395  36.220  1.00  0.00     0.010 A 
ATOM     76  C   UNL A   1      45.499  27.282  38.000  1.00  0.00     0.020 A 
ATOM     77  C   UNL A   1      46.982  28.938  37.023  1.00  0.00     0.020 A 
ATOM     78  C   UNL A   1      46.751  27.896  37.925  1.00  0.00     0.054 A 
BRANCH  78  79
ATOM     79  S   UNL A   1      48.083  27.309  39.009  1.00  0.00     0.124 S 
ATOM     80  O   UNL A   1      48.874  28.520  39.200  1.00  0.00    -0.237 OA
ATOM     81  O   UNL A   1      47.348  26.840  40.181  1.00  0.00    -0.237 OA
ATOM     82  O   UNL A   1      48.725  26.258  38.222  1.00  0.00    -0.744 OA
ENDBRANCH  78  79
ENDBRANCH  50  73
BRANCH  62  83
ATOM     83  C   UNL A   1      39.800  33.633  37.557  1.00  0.00    -0.014 A 
ATOM     84  C   UNL A   1      39.083  33.106  38.646  1.00  0.00     0.010 A 
ATOM     85  C   UNL A   1      40.284  34.952  37.632  1.00  0.00     0.010 A 
ATOM     86  C   UNL A   1      38.825  33.895  39.770  1.00  0.00     0.020 A 
ATOM     87  C   UNL A   1      40.059  35.733  38.769  1.00  0.00     0.020 A 
ATOM     88  C   UNL A   1      39.317  35.203  39.826  1.00  0.00     0.054 A 
BRANCH  88  89
ATOM     89  S   UNL A   1      39.006  36.189  41.316  1.00  0.00     0.124 S 
ATOM     90  O   UNL A   1      40.209  35.935  42.104  1.00  0.00    -0.237 OA
ATOM     91  O   UNL A   1      38.877  37.542  40.782  1.00  0.00    -0.237 OA
ATOM     92  O   UNL A   1      37.776  35.619  41.860  1.00  0.00    -0.744 OA
ENDBRANCH  88  89
ENDBRANCH  62  83
ENDBRANCH  36  37
ENDBRANCH  29  31
ENDBRANCH  28  29
ENDBRANCH  27  28
ENDBRANCH  26  27
ENDBRANCH  25  26
ENDBRANCH  24  25
ENDBRANCH  23  24
ENDBRANCH   1  23
TORSDOF 27
ENDMDL
