MODEL 1
REMARK VINA RESULT:      -7.5      0.000      0.000
REMARK SMILES O=C(CCOc1cccc(/C=C2\CCn3c2nc2cc(Cl)ccc2c3=O)c1)OCCOCCOCCOCCOC(=O)c1ccc(-c2c3nc(c(-c4ccc(S(=O)(=O)[O-])cc4)c4ccc([nH]4)c(-c4ccc(S(=O)(=O)[O-])cc4)c4nc(c(-c5ccc(S(=O)(=O)[O-])cc5)c5ccc2[nH]5)C=C4)C=C3)cc1
REMARK SMILES IDX 33 1 32 2 31 3 30 4 29 5 28 6 2 7 1 8 3 9 4 10 5 11 6 12
REMARK SMILES IDX 7 13 27 14 8 15 10 16 9 17 11 18 12 19 13 20 16 21 14 22
REMARK SMILES IDX 15 23 17 24 25 25 18 26 24 27 26 28 19 29 23 30 20 31 22 32
REMARK SMILES IDX 21 33 34 34 35 35 36 36 37 37 38 38 39 39 40 40 41 41 42 42
REMARK SMILES IDX 43 43 44 44 102 45 45 46 101 47 46 48 47 49 48 50 95 51
REMARK SMILES IDX 49 52 100 53 94 54 96 55 50 56 99 57 93 58 92 59 51 61 81 62
REMARK SMILES IDX 62 63 80 64 63 65 66 66 79 67 97 68 64 69 65 70 78 72 98 73
REMARK SMILES IDX 67 74 52 75 53 76 61 77 54 78 60 79 55 80 56 81 57 82 58 83
REMARK SMILES IDX 59 84 82 85 83 86 91 87 84 88 90 89 85 90 86 91 87 92 88 93
REMARK SMILES IDX 89 94 68 95 69 96 77 97 70 98 76 99 71 100 72 101 73 102
REMARK SMILES IDX 74 103 75 104
REMARK H PARENT 96 60 66 71
REMARK Flexibility Score: inf
ROOT
ATOM      1  C   UNL A   1      42.838  20.279  25.548  1.00  0.00     0.188 C 
ENDROOT
BRANCH   1   2
ATOM      2  C   UNL A   1      41.930  19.898  26.734  1.00  0.00     0.188 C 
BRANCH   2   3
ATOM      3  O   UNL A   1      40.938  20.820  27.205  1.00  0.00    -0.376 OA
BRANCH   3   4
ATOM      4  C   UNL A   1      41.090  22.190  26.844  1.00  0.00     0.202 C 
BRANCH   4   5
ATOM      5  C   UNL A   1      40.315  23.134  27.775  1.00  0.00     0.261 C 
BRANCH   5   6
ATOM      6  O   UNL A   1      40.909  24.445  27.888  1.00  0.00    -0.463 OA
BRANCH   6   7
ATOM      7  C   UNL A   1      40.842  25.377  26.913  1.00  0.00     0.309 C 
ATOM      8  O   UNL A   1      39.892  25.401  26.130  1.00  0.00    -0.252 OA
BRANCH   7   9
ATOM      9  C   UNL A   1      41.886  26.452  26.887  1.00  0.00     0.164 C 
BRANCH   9  10
ATOM     10  C   UNL A   1      42.942  26.134  25.842  1.00  0.00     0.241 C 
BRANCH  10  11
ATOM     11  O   UNL A   1      43.509  27.299  25.241  1.00  0.00    -0.493 OA
BRANCH  11  12
ATOM     12  C   UNL A   1      44.847  27.565  25.367  1.00  0.00     0.119 A 
ATOM     13  C   UNL A   1      45.112  28.778  26.000  1.00  0.00     0.046 A 
ATOM     14  C   UNL A   1      45.914  26.813  24.853  1.00  0.00     0.054 A 
ATOM     15  C   UNL A   1      46.416  29.240  26.110  1.00  0.00     0.004 A 
ATOM     16  C   UNL A   1      47.238  27.308  24.869  1.00  0.00    -0.022 A 
ATOM     17  C   UNL A   1      47.464  28.512  25.545  1.00  0.00     0.008 A 
BRANCH  16  18
ATOM     18  C   UNL A   1      48.225  26.663  23.950  1.00  0.00     0.015 C 
ATOM     19  C   UNL A   1      49.559  26.523  24.105  1.00  0.00    -0.003 C 
ATOM     20  C   UNL A   1      50.489  26.723  25.264  1.00  0.00     0.061 C 
ATOM     21  C   UNL A   1      50.314  27.098  22.946  1.00  0.00     0.139 A 
ATOM     22  C   UNL A   1      51.026  28.110  24.949  1.00  0.00     0.132 C 
ATOM     23  N   UNL A   1      51.019  28.158  23.502  1.00  0.00    -0.292 N 
ATOM     24  N   UNL A   1      50.305  26.811  21.691  1.00  0.00    -0.230 NA
ATOM     25  C   UNL A   1      51.378  29.240  22.753  1.00  0.00     0.261 A 
ATOM     26  C   UNL A   1      51.009  27.707  20.854  1.00  0.00     0.080 A 
ATOM     27  C   UNL A   1      51.399  28.974  21.303  1.00  0.00     0.066 A 
ATOM     28  O   UNL A   1      51.646  30.349  23.204  1.00  0.00    -0.269 OA
ATOM     29  C   UNL A   1      51.256  27.377  19.519  1.00  0.00     0.049 A 
ATOM     30  C   UNL A   1      51.869  29.940  20.419  1.00  0.00     0.017 A 
ATOM     31  C   UNL A   1      51.800  28.329  18.647  1.00  0.00     0.043 A 
ATOM     32  C   UNL A   1      52.065  29.625  19.081  1.00  0.00     0.021 A 
ATOM     33  Cl  UNL A   1      52.134  27.910  17.012  1.00  0.00    -0.084 Cl
ENDBRANCH  16  18
ENDBRANCH  11  12
ENDBRANCH  10  11
ENDBRANCH   9  10
ENDBRANCH   7   9
ENDBRANCH   6   7
ENDBRANCH   5   6
ENDBRANCH   4   5
ENDBRANCH   3   4
ENDBRANCH   2   3
ENDBRANCH   1   2
BRANCH   1  34
ATOM     34  O   UNL A   1      43.643  19.201  25.101  1.00  0.00    -0.377 OA
BRANCH  34  35
ATOM     35  C   UNL A   1      45.008  19.470  24.851  1.00  0.00     0.188 C 
BRANCH  35  36
ATOM     36  C   UNL A   1      45.370  20.914  24.475  1.00  0.00     0.188 C 
BRANCH  36  37
ATOM     37  O   UNL A   1      46.503  21.529  25.071  1.00  0.00    -0.376 OA
BRANCH  37  38
ATOM     38  C   UNL A   1      46.414  22.792  25.712  1.00  0.00     0.202 C 
BRANCH  38  39
ATOM     39  C   UNL A   1      45.192  23.156  26.560  1.00  0.00     0.261 C 
BRANCH  39  40
ATOM     40  O   UNL A   1      45.477  23.287  27.963  1.00  0.00    -0.460 OA
BRANCH  40  41
ATOM     41  C   UNL A   1      46.069  24.455  28.321  1.00  0.00     0.338 C 
ATOM     42  O   UNL A   1      47.219  24.787  28.096  1.00  0.00    -0.246 OA
BRANCH  41  43
ATOM     43  C   UNL A   1      45.067  25.387  28.876  1.00  0.00     0.060 A 
ATOM     44  C   UNL A   1      45.314  26.759  28.755  1.00  0.00     0.016 A 
ATOM     45  C   UNL A   1      43.944  24.927  29.567  1.00  0.00     0.016 A 
ATOM     46  C   UNL A   1      44.476  27.677  29.384  1.00  0.00     0.010 A 
ATOM     47  C   UNL A   1      43.084  25.849  30.174  1.00  0.00     0.010 A 
ATOM     48  C   UNL A   1      43.395  27.222  30.151  1.00  0.00    -0.014 A 
BRANCH  48  49
ATOM     49  C   UNL A   1      42.833  28.127  31.187  1.00  0.00     0.031 A 
ATOM     50  C   UNL A   1      43.586  28.228  32.492  1.00  0.00     0.074 A 
ATOM     51  C   UNL A   1      41.754  28.900  30.969  1.00  0.00     0.049 A 
ATOM     52  N   UNL A   1      43.358  28.992  33.529  1.00  0.00    -0.248 NA
ATOM     53  C   UNL A   1      44.758  27.347  32.647  1.00  0.00     0.031 C 
ATOM     54  C   UNL A   1      40.964  28.936  29.740  1.00  0.00     0.029 A 
ATOM     55  N   UNL A   1      41.147  29.822  31.786  1.00  0.00    -0.354 N 
ATOM     56  C   UNL A   1      44.348  28.673  34.453  1.00  0.00     0.074 A 
ATOM     57  C   UNL A   1      45.146  27.615  33.881  1.00  0.00     0.031 C 
ATOM     58  C   UNL A   1      39.980  29.843  29.881  1.00  0.00     0.029 A 
ATOM     59  C   UNL A   1      40.061  30.442  31.213  1.00  0.00     0.049 A 
ATOM     60  H   UNL A   1      41.460  30.022  32.698  1.00  0.00     0.167 HD
ATOM     61  C   UNL A   1      44.595  29.223  35.664  1.00  0.00     0.031 A 
ATOM     62  C   UNL A   1      39.236  31.387  31.708  1.00  0.00     0.031 A 
ATOM     63  C   UNL A   1      43.809  30.278  36.239  1.00  0.00     0.049 A 
ATOM     64  C   UNL A   1      39.491  31.945  33.087  1.00  0.00     0.074 A 
ATOM     65  C   UNL A   1      43.988  30.919  37.449  1.00  0.00     0.029 A 
ATOM     66  N   UNL A   1      42.693  30.841  35.641  1.00  0.00    -0.354 N 
ATOM     67  N   UNL A   1      40.456  31.661  33.929  1.00  0.00    -0.248 NA
ATOM     68  C   UNL A   1      38.554  32.970  33.570  1.00  0.00     0.031 C 
ATOM     69  C   UNL A   1      42.943  31.834  37.611  1.00  0.00     0.029 A 
ATOM     70  C   UNL A   1      42.154  31.807  36.471  1.00  0.00     0.049 A 
ATOM     71  H   UNL A   1      42.337  30.592  34.758  1.00  0.00     0.167 HD
ATOM     72  C   UNL A   1      40.264  32.501  35.024  1.00  0.00     0.074 A 
ATOM     73  C   UNL A   1      39.097  33.306  34.731  1.00  0.00     0.031 C 
ATOM     74  C   UNL A   1      40.994  32.604  36.163  1.00  0.00     0.031 A 
BRANCH  61  75
ATOM     75  C   UNL A   1      45.744  28.659  36.454  1.00  0.00    -0.014 A 
ATOM     76  C   UNL A   1      47.034  29.213  36.368  1.00  0.00     0.010 A 
ATOM     77  C   UNL A   1      45.528  27.550  37.291  1.00  0.00     0.010 A 
ATOM     78  C   UNL A   1      48.097  28.640  37.071  1.00  0.00     0.020 A 
ATOM     79  C   UNL A   1      46.582  26.993  38.019  1.00  0.00     0.020 A 
ATOM     80  C   UNL A   1      47.864  27.530  37.888  1.00  0.00     0.054 A 
BRANCH  80  81
ATOM     81  S   UNL A   1      49.257  26.811  38.799  1.00  0.00     0.124 S 
ATOM     82  O   UNL A   1      49.134  25.393  38.468  1.00  0.00    -0.237 OA
ATOM     83  O   UNL A   1      50.409  27.494  38.215  1.00  0.00    -0.237 OA
ATOM     84  O   UNL A   1      48.975  27.151  40.190  1.00  0.00    -0.744 OA
ENDBRANCH  80  81
ENDBRANCH  61  75
BRANCH  62  85
ATOM     85  C   UNL A   1      38.095  31.887  30.892  1.00  0.00    -0.014 A 
ATOM     86  C   UNL A   1      38.120  33.180  30.336  1.00  0.00     0.010 A 
ATOM     87  C   UNL A   1      36.963  31.078  30.684  1.00  0.00     0.010 A 
ATOM     88  C   UNL A   1      37.029  33.659  29.605  1.00  0.00     0.020 A 
ATOM     89  C   UNL A   1      35.882  31.545  29.931  1.00  0.00     0.020 A 
ATOM     90  C   UNL A   1      35.917  32.837  29.405  1.00  0.00     0.054 A 
BRANCH  90  91
ATOM     91  S   UNL A   1      34.535  33.458  28.405  1.00  0.00     0.124 S 
ATOM     92  O   UNL A   1      35.228  34.113  27.301  1.00  0.00    -0.237 OA
ATOM     93  O   UNL A   1      33.817  32.231  28.066  1.00  0.00    -0.237 OA
ATOM     94  O   UNL A   1      33.827  34.348  29.322  1.00  0.00    -0.744 OA
ENDBRANCH  90  91
ENDBRANCH  62  85
BRANCH  74  95
ATOM     95  C   UNL A   1      40.589  33.657  37.160  1.00  0.00    -0.014 A 
ATOM     96  C   UNL A   1      41.191  34.928  37.175  1.00  0.00     0.010 A 
ATOM     97  C   UNL A   1      39.545  33.383  38.064  1.00  0.00     0.010 A 
ATOM     98  C   UNL A   1      40.785  35.889  38.105  1.00  0.00     0.020 A 
ATOM     99  C   UNL A   1      39.117  34.352  38.974  1.00  0.00     0.020 A 
ATOM    100  C   UNL A   1      39.753  35.593  39.001  1.00  0.00     0.054 A 
BRANCH 100 101
ATOM    101  S   UNL A   1      39.228  36.866  40.182  1.00  0.00     0.124 S 
ATOM    102  O   UNL A   1      38.295  36.127  41.028  1.00  0.00    -0.237 OA
ATOM    103  O   UNL A   1      40.483  37.253  40.820  1.00  0.00    -0.237 OA
ATOM    104  O   UNL A   1      38.623  37.893  39.337  1.00  0.00    -0.744 OA
ENDBRANCH 100 101
ENDBRANCH  74  95
ENDBRANCH  48  49
ENDBRANCH  41  43
ENDBRANCH  40  41
ENDBRANCH  39  40
ENDBRANCH  38  39
ENDBRANCH  37  38
ENDBRANCH  36  37
ENDBRANCH  35  36
ENDBRANCH  34  35
ENDBRANCH   1  34
TORSDOF 27
ENDMDL
MODEL 2
REMARK VINA RESULT:      -7.4      5.163     13.866
REMARK SMILES O=C(CCOc1cccc(/C=C2\CCn3c2nc2cc(Cl)ccc2c3=O)c1)OCCOCCOCCOCCOC(=O)c1ccc(-c2c3nc(c(-c4ccc(S(=O)(=O)[O-])cc4)c4ccc([nH]4)c(-c4ccc(S(=O)(=O)[O-])cc4)c4nc(c(-c5ccc(S(=O)(=O)[O-])cc5)c5ccc2[nH]5)C=C4)C=C3)cc1
REMARK SMILES IDX 33 1 32 2 31 3 30 4 29 5 28 6 2 7 1 8 3 9 4 10 5 11 6 12
REMARK SMILES IDX 7 13 27 14 8 15 10 16 9 17 11 18 12 19 13 20 16 21 14 22
REMARK SMILES IDX 15 23 17 24 25 25 18 26 24 27 26 28 19 29 23 30 20 31 22 32
REMARK SMILES IDX 21 33 34 34 35 35 36 36 37 37 38 38 39 39 40 40 41 41 42 42
REMARK SMILES IDX 43 43 44 44 102 45 45 46 101 47 46 48 47 49 48 50 95 51
REMARK SMILES IDX 49 52 100 53 94 54 96 55 50 56 99 57 93 58 92 59 51 61 81 62
REMARK SMILES IDX 62 63 80 64 63 65 66 66 79 67 97 68 64 69 65 70 78 72 98 73
REMARK SMILES IDX 67 74 52 75 53 76 61 77 54 78 60 79 55 80 56 81 57 82 58 83
REMARK SMILES IDX 59 84 82 85 83 86 91 87 84 88 90 89 85 90 86 91 87 92 88 93
REMARK SMILES IDX 89 94 68 95 69 96 77 97 70 98 76 99 71 100 72 101 73 102
REMARK SMILES IDX 74 103 75 104
REMARK H PARENT 96 60 66 71
REMARK Flexibility Score: inf
ROOT
ATOM      1  C   UNL A   1      41.626  28.545  30.160  1.00  0.00     0.188 C 
ENDROOT
BRANCH   1   2
ATOM      2  C   UNL A   1      40.493  29.002  31.098  1.00  0.00     0.188 C 
BRANCH   2   3
ATOM      3  O   UNL A   1      40.223  30.401  31.269  1.00  0.00    -0.376 OA
BRANCH   3   4
ATOM      4  C   UNL A   1      40.485  30.969  32.550  1.00  0.00     0.202 C 
BRANCH   4   5
ATOM      5  C   UNL A   1      40.746  29.903  33.624  1.00  0.00     0.261 C 
BRANCH   5   6
ATOM      6  O   UNL A   1      39.669  29.772  34.577  1.00  0.00    -0.463 OA
BRANCH   6   7
ATOM      7  C   UNL A   1      38.499  30.438  34.470  1.00  0.00     0.309 C 
ATOM      8  O   UNL A   1      37.681  30.136  33.601  1.00  0.00    -0.252 OA
BRANCH   7   9
ATOM      9  C   UNL A   1      38.172  31.467  35.509  1.00  0.00     0.164 C 
BRANCH   9  10
ATOM     10  C   UNL A   1      38.755  32.814  35.117  1.00  0.00     0.241 C 
BRANCH  10  11
ATOM     11  O   UNL A   1      37.760  33.809  34.870  1.00  0.00    -0.493 OA
BRANCH  11  12
ATOM     12  C   UNL A   1      36.792  33.605  33.923  1.00  0.00     0.119 A 
ATOM     13  C   UNL A   1      35.497  33.720  34.423  1.00  0.00     0.046 A 
ATOM     14  C   UNL A   1      36.979  33.212  32.590  1.00  0.00     0.054 A 
ATOM     15  C   UNL A   1      34.406  33.440  33.613  1.00  0.00     0.004 A 
ATOM     16  C   UNL A   1      35.889  32.829  31.775  1.00  0.00    -0.022 A 
ATOM     17  C   UNL A   1      34.605  32.994  32.306  1.00  0.00     0.008 A 
BRANCH  16  18
ATOM     18  C   UNL A   1      36.194  32.039  30.544  1.00  0.00     0.015 C 
ATOM     19  C   UNL A   1      36.304  32.470  29.268  1.00  0.00    -0.003 C 
ATOM     20  C   UNL A   1      36.396  33.830  28.643  1.00  0.00     0.061 C 
ATOM     21  C   UNL A   1      35.385  31.723  28.350  1.00  0.00     0.139 A 
ATOM     22  C   UNL A   1      34.951  34.034  28.216  1.00  0.00     0.132 C 
ATOM     23  N   UNL A   1      34.493  32.694  27.913  1.00  0.00    -0.292 N 
ATOM     24  N   UNL A   1      35.302  30.474  28.052  1.00  0.00    -0.230 NA
ATOM     25  C   UNL A   1      33.225  32.368  27.528  1.00  0.00     0.261 A 
ATOM     26  C   UNL A   1      34.170  30.101  27.292  1.00  0.00     0.080 A 
ATOM     27  C   UNL A   1      33.065  30.950  27.160  1.00  0.00     0.066 A 
ATOM     28  O   UNL A   1      32.279  33.149  27.496  1.00  0.00    -0.269 OA
ATOM     29  C   UNL A   1      34.092  28.827  26.723  1.00  0.00     0.049 A 
ATOM     30  C   UNL A   1      31.864  30.495  26.625  1.00  0.00     0.017 A 
ATOM     31  C   UNL A   1      32.905  28.397  26.117  1.00  0.00     0.043 A 
ATOM     32  C   UNL A   1      31.775  29.210  26.106  1.00  0.00     0.021 A 
ATOM     33  Cl  UNL A   1      32.822  26.841  25.388  1.00  0.00    -0.084 Cl
ENDBRANCH  16  18
ENDBRANCH  11  12
ENDBRANCH  10  11
ENDBRANCH   9  10
ENDBRANCH   7   9
ENDBRANCH   6   7
ENDBRANCH   5   6
ENDBRANCH   4   5
ENDBRANCH   3   4
ENDBRANCH   2   3
ENDBRANCH   1   2
BRANCH   1  34
ATOM     34  O   UNL A   1      41.187  28.332  28.828  1.00  0.00    -0.377 OA
BRANCH  34  35
ATOM     35  C   UNL A   1      41.945  27.446  28.028  1.00  0.00     0.188 C 
BRANCH  35  36
ATOM     36  C   UNL A   1      41.962  25.971  28.456  1.00  0.00     0.188 C 
BRANCH  36  37
ATOM     37  O   UNL A   1      40.737  25.265  28.582  1.00  0.00    -0.376 OA
BRANCH  37  38
ATOM     38  C   UNL A   1      40.399  24.198  27.710  1.00  0.00     0.202 C 
BRANCH  38  39
ATOM     39  C   UNL A   1      41.390  23.063  27.439  1.00  0.00     0.261 C 
BRANCH  39  40
ATOM     40  O   UNL A   1      41.614  22.809  26.042  1.00  0.00    -0.460 OA
BRANCH  40  41
ATOM     41  C   UNL A   1      42.718  22.069  25.764  1.00  0.00     0.338 C 
ATOM     42  O   UNL A   1      42.763  20.864  25.596  1.00  0.00    -0.246 OA
BRANCH  41  43
ATOM     43  C   UNL A   1      43.872  22.952  25.500  1.00  0.00     0.060 A 
ATOM     44  C   UNL A   1      45.154  22.403  25.615  1.00  0.00     0.016 A 
ATOM     45  C   UNL A   1      43.705  24.309  25.215  1.00  0.00     0.016 A 
ATOM     46  C   UNL A   1      46.276  23.223  25.516  1.00  0.00     0.010 A 
ATOM     47  C   UNL A   1      44.832  25.128  25.085  1.00  0.00     0.010 A 
ATOM     48  C   UNL A   1      46.116  24.601  25.316  1.00  0.00    -0.014 A 
BRANCH  48  49
ATOM     49  C   UNL A   1      47.231  25.504  25.702  1.00  0.00     0.031 A 
ATOM     50  C   UNL A   1      47.455  25.728  27.178  1.00  0.00     0.074 A 
ATOM     51  C   UNL A   1      48.074  26.044  24.803  1.00  0.00     0.049 A 
ATOM     52  N   UNL A   1      48.394  26.404  27.786  1.00  0.00    -0.248 NA
ATOM     53  C   UNL A   1      46.485  25.099  28.094  1.00  0.00     0.031 C 
ATOM     54  C   UNL A   1      48.001  25.870  23.354  1.00  0.00     0.029 A 
ATOM     55  N   UNL A   1      49.175  26.842  24.990  1.00  0.00    -0.354 N 
ATOM     56  C   UNL A   1      48.119  26.288  29.145  1.00  0.00     0.074 A 
ATOM     57  C   UNL A   1      46.902  25.524  29.274  1.00  0.00     0.031 C 
ATOM     58  C   UNL A   1      49.022  26.536  22.783  1.00  0.00     0.029 A 
ATOM     59  C   UNL A   1      49.812  27.194  23.824  1.00  0.00     0.049 A 
ATOM     60  H   UNL A   1      49.482  27.135  25.879  1.00  0.00     0.167 HD
ATOM     61  C   UNL A   1      48.824  26.754  30.202  1.00  0.00     0.031 A 
ATOM     62  C   UNL A   1      50.909  27.952  23.624  1.00  0.00     0.031 A 
ATOM     63  C   UNL A   1      50.037  27.512  30.083  1.00  0.00     0.049 A 
ATOM     64  C   UNL A   1      51.648  28.514  24.814  1.00  0.00     0.074 A 
ATOM     65  C   UNL A   1      50.839  28.012  31.091  1.00  0.00     0.029 A 
ATOM     66  N   UNL A   1      50.618  27.882  28.881  1.00  0.00    -0.354 N 
ATOM     67  N   UNL A   1      51.396  28.360  26.093  1.00  0.00    -0.248 NA
ATOM     68  C   UNL A   1      52.833  29.336  24.529  1.00  0.00     0.031 C 
ATOM     69  C   UNL A   1      51.877  28.735  30.497  1.00  0.00     0.029 A 
ATOM     70  C   UNL A   1      51.757  28.629  29.120  1.00  0.00     0.049 A 
ATOM     71  H   UNL A   1      50.272  27.648  27.989  1.00  0.00     0.167 HD
ATOM     72  C   UNL A   1      52.416  29.032  26.764  1.00  0.00     0.074 A 
ATOM     73  C   UNL A   1      53.288  29.585  25.750  1.00  0.00     0.031 C 
ATOM     74  C   UNL A   1      52.617  29.168  28.099  1.00  0.00     0.031 A 
BRANCH  61  75
ATOM     75  C   UNL A   1      48.269  26.479  31.573  1.00  0.00    -0.014 A 
ATOM     76  C   UNL A   1      48.695  25.370  32.327  1.00  0.00     0.010 A 
ATOM     77  C   UNL A   1      47.299  27.343  32.111  1.00  0.00     0.010 A 
ATOM     78  C   UNL A   1      48.127  25.106  33.576  1.00  0.00     0.020 A 
ATOM     79  C   UNL A   1      46.751  27.099  33.372  1.00  0.00     0.020 A 
ATOM     80  C   UNL A   1      47.155  25.971  34.088  1.00  0.00     0.054 A 
BRANCH  80  81
ATOM     81  S   UNL A   1      46.442  25.612  35.716  1.00  0.00     0.124 S 
ATOM     82  O   UNL A   1      47.330  24.562  36.209  1.00  0.00    -0.237 OA
ATOM     83  O   UNL A   1      46.549  26.897  36.403  1.00  0.00    -0.237 OA
ATOM     84  O   UNL A   1      45.080  25.184  35.412  1.00  0.00    -0.744 OA
ENDBRANCH  80  81
ENDBRANCH  61  75
BRANCH  62  85
ATOM     85  C   UNL A   1      51.396  28.216  22.242  1.00  0.00    -0.014 A 
ATOM     86  C   UNL A   1      50.932  29.330  21.516  1.00  0.00     0.010 A 
ATOM     87  C   UNL A   1      52.312  27.340  21.632  1.00  0.00     0.010 A 
ATOM     88  C   UNL A   1      51.362  29.551  20.204  1.00  0.00     0.020 A 
ATOM     89  C   UNL A   1      52.764  27.574  20.330  1.00  0.00     0.020 A 
ATOM     90  C   UNL A   1      52.277  28.672  19.620  1.00  0.00     0.054 A 
BRANCH  90  91
ATOM     91  S   UNL A   1      52.865  29.009  17.936  1.00  0.00     0.124 S 
ATOM     92  O   UNL A   1      52.366  30.360  17.704  1.00  0.00    -0.237 OA
ATOM     93  O   UNL A   1      54.314  28.882  18.079  1.00  0.00    -0.237 OA
ATOM     94  O   UNL A   1      52.234  27.959  17.141  1.00  0.00    -0.744 OA
ENDBRANCH  90  91
ENDBRANCH  62  85
BRANCH  74  95
ATOM     95  C   UNL A   1      53.854  29.902  28.548  1.00  0.00    -0.014 A 
ATOM     96  C   UNL A   1      53.840  31.286  28.796  1.00  0.00     0.010 A 
ATOM     97  C   UNL A   1      55.038  29.177  28.776  1.00  0.00     0.010 A 
ATOM     98  C   UNL A   1      55.001  31.937  29.223  1.00  0.00     0.020 A 
ATOM     99  C   UNL A   1      56.191  29.819  29.232  1.00  0.00     0.020 A 
ATOM    100  C   UNL A   1      56.170  31.200  29.434  1.00  0.00     0.054 A 
BRANCH 100 101
ATOM    101  S   UNL A   1      57.657  32.063  30.012  1.00  0.00     0.124 S 
ATOM    102  O   UNL A   1      57.981  31.325  31.230  1.00  0.00    -0.237 OA
ATOM    103  O   UNL A   1      58.588  31.882  28.901  1.00  0.00    -0.237 OA
ATOM    104  O   UNL A   1      57.201  33.436  30.219  1.00  0.00    -0.744 OA
ENDBRANCH 100 101
ENDBRANCH  74  95
ENDBRANCH  48  49
ENDBRANCH  41  43
ENDBRANCH  40  41
ENDBRANCH  39  40
ENDBRANCH  38  39
ENDBRANCH  37  38
ENDBRANCH  36  37
ENDBRANCH  35  36
ENDBRANCH  34  35
ENDBRANCH   1  34
TORSDOF 27
ENDMDL
MODEL 3
REMARK VINA RESULT:      -7.1      5.285     13.923
REMARK SMILES O=C(CCOc1cccc(/C=C2\CCn3c2nc2cc(Cl)ccc2c3=O)c1)OCCOCCOCCOCCOC(=O)c1ccc(-c2c3nc(c(-c4ccc(S(=O)(=O)[O-])cc4)c4ccc([nH]4)c(-c4ccc(S(=O)(=O)[O-])cc4)c4nc(c(-c5ccc(S(=O)(=O)[O-])cc5)c5ccc2[nH]5)C=C4)C=C3)cc1
REMARK SMILES IDX 33 1 32 2 31 3 30 4 29 5 28 6 2 7 1 8 3 9 4 10 5 11 6 12
REMARK SMILES IDX 7 13 27 14 8 15 10 16 9 17 11 18 12 19 13 20 16 21 14 22
REMARK SMILES IDX 15 23 17 24 25 25 18 26 24 27 26 28 19 29 23 30 20 31 22 32
REMARK SMILES IDX 21 33 34 34 35 35 36 36 37 37 38 38 39 39 40 40 41 41 42 42
REMARK SMILES IDX 43 43 44 44 102 45 45 46 101 47 46 48 47 49 48 50 95 51
REMARK SMILES IDX 49 52 100 53 94 54 96 55 50 56 99 57 93 58 92 59 51 61 81 62
REMARK SMILES IDX 62 63 80 64 63 65 66 66 79 67 97 68 64 69 65 70 78 72 98 73
REMARK SMILES IDX 67 74 52 75 53 76 61 77 54 78 60 79 55 80 56 81 57 82 58 83
REMARK SMILES IDX 59 84 82 85 83 86 91 87 84 88 90 89 85 90 86 91 87 92 88 93
REMARK SMILES IDX 89 94 68 95 69 96 77 97 70 98 76 99 71 100 72 101 73 102
REMARK SMILES IDX 74 103 75 104
REMARK H PARENT 96 60 66 71
REMARK Flexibility Score: inf
ROOT
ATOM      1  C   UNL A   1      42.707  30.168  30.066  1.00  0.00     0.188 C 
ENDROOT
BRANCH   1   2
ATOM      2  C   UNL A   1      41.872  31.228  30.811  1.00  0.00     0.188 C 
BRANCH   2   3
ATOM      3  O   UNL A   1      41.020  30.838  31.897  1.00  0.00    -0.376 OA
BRANCH   3   4
ATOM      4  C   UNL A   1      41.625  30.161  32.996  1.00  0.00     0.202 C 
BRANCH   4   5
ATOM      5  C   UNL A   1      40.742  30.174  34.253  1.00  0.00     0.261 C 
BRANCH   5   6
ATOM      6  O   UNL A   1      41.089  31.220  35.187  1.00  0.00    -0.463 OA
BRANCH   6   7
ATOM      7  C   UNL A   1      40.859  32.530  34.951  1.00  0.00     0.309 C 
ATOM      8  O   UNL A   1      41.782  33.284  34.642  1.00  0.00    -0.252 OA
BRANCH   7   9
ATOM      9  C   UNL A   1      39.440  33.013  34.956  1.00  0.00     0.164 C 
BRANCH   9  10
ATOM     10  C   UNL A   1      39.343  34.364  34.269  1.00  0.00     0.241 C 
BRANCH  10  11
ATOM     11  O   UNL A   1      38.025  34.914  34.292  1.00  0.00    -0.493 OA
BRANCH  11  12
ATOM     12  C   UNL A   1      37.000  34.294  33.627  1.00  0.00     0.119 A 
ATOM     13  C   UNL A   1      35.853  34.138  34.402  1.00  0.00     0.046 A 
ATOM     14  C   UNL A   1      37.037  33.742  32.338  1.00  0.00     0.054 A 
ATOM     15  C   UNL A   1      34.763  33.436  33.907  1.00  0.00     0.004 A 
ATOM     16  C   UNL A   1      35.978  32.942  31.850  1.00  0.00    -0.022 A 
ATOM     17  C   UNL A   1      34.832  32.842  32.646  1.00  0.00     0.008 A 
BRANCH  16  18
ATOM     18  C   UNL A   1      36.265  32.064  30.675  1.00  0.00     0.015 C 
ATOM     19  C   UNL A   1      36.401  32.408  29.376  1.00  0.00    -0.003 C 
ATOM     20  C   UNL A   1      36.547  33.720  28.665  1.00  0.00     0.061 C 
ATOM     21  C   UNL A   1      35.463  31.636  28.498  1.00  0.00     0.139 A 
ATOM     22  C   UNL A   1      35.114  33.947  28.211  1.00  0.00     0.132 C 
ATOM     23  N   UNL A   1      34.610  32.607  27.990  1.00  0.00    -0.292 N 
ATOM     24  N   UNL A   1      35.336  30.374  28.280  1.00  0.00    -0.230 NA
ATOM     25  C   UNL A   1      33.334  32.303  27.613  1.00  0.00     0.261 A 
ATOM     26  C   UNL A   1      34.198  29.993  27.533  1.00  0.00     0.080 A 
ATOM     27  C   UNL A   1      33.126  30.870  27.336  1.00  0.00     0.066 A 
ATOM     28  O   UNL A   1      32.418  33.113  27.521  1.00  0.00    -0.269 OA
ATOM     29  C   UNL A   1      34.079  28.688  27.047  1.00  0.00     0.049 A 
ATOM     30  C   UNL A   1      31.914  30.425  26.818  1.00  0.00     0.017 A 
ATOM     31  C   UNL A   1      32.882  28.263  26.458  1.00  0.00     0.043 A 
ATOM     32  C   UNL A   1      31.782  29.114  26.382  1.00  0.00     0.021 A 
ATOM     33  Cl  UNL A   1      32.749  26.667  25.829  1.00  0.00    -0.084 Cl
ENDBRANCH  16  18
ENDBRANCH  11  12
ENDBRANCH  10  11
ENDBRANCH   9  10
ENDBRANCH   7   9
ENDBRANCH   6   7
ENDBRANCH   5   6
ENDBRANCH   4   5
ENDBRANCH   3   4
ENDBRANCH   2   3
ENDBRANCH   1   2
BRANCH   1  34
ATOM     34  O   UNL A   1      42.603  30.277  28.656  1.00  0.00    -0.377 OA
BRANCH  34  35
ATOM     35  C   UNL A   1      43.583  29.616  27.880  1.00  0.00     0.188 C 
BRANCH  35  36
ATOM     36  C   UNL A   1      43.243  28.197  27.400  1.00  0.00     0.188 C 
BRANCH  36  37
ATOM     37  O   UNL A   1      41.887  27.837  27.186  1.00  0.00    -0.376 OA
BRANCH  37  38
ATOM     38  C   UNL A   1      41.474  27.161  26.008  1.00  0.00     0.202 C 
BRANCH  38  39
ATOM     39  C   UNL A   1      41.582  25.637  25.901  1.00  0.00     0.261 C 
BRANCH  39  40
ATOM     40  O   UNL A   1      42.364  25.189  24.781  1.00  0.00    -0.460 OA
BRANCH  40  41
ATOM     41  C   UNL A   1      43.080  24.057  24.999  1.00  0.00     0.338 C 
ATOM     42  O   UNL A   1      42.754  22.921  24.705  1.00  0.00    -0.246 OA
BRANCH  41  43
ATOM     43  C   UNL A   1      44.432  24.393  25.488  1.00  0.00     0.060 A 
ATOM     44  C   UNL A   1      45.168  23.385  26.121  1.00  0.00     0.016 A 
ATOM     45  C   UNL A   1      44.942  25.690  25.393  1.00  0.00     0.016 A 
ATOM     46  C   UNL A   1      46.387  23.685  26.725  1.00  0.00     0.010 A 
ATOM     47  C   UNL A   1      46.182  25.986  25.974  1.00  0.00     0.010 A 
ATOM     48  C   UNL A   1      46.866  25.001  26.710  1.00  0.00    -0.014 A 
BRANCH  48  49
ATOM     49  C   UNL A   1      47.860  25.403  27.740  1.00  0.00     0.031 A 
ATOM     50  C   UNL A   1      47.355  25.572  29.153  1.00  0.00     0.074 A 
ATOM     51  C   UNL A   1      49.173  25.531  27.473  1.00  0.00     0.049 A 
ATOM     52  N   UNL A   1      48.017  25.842  30.248  1.00  0.00    -0.248 NA
ATOM     53  C   UNL A   1      45.904  25.411  29.357  1.00  0.00     0.031 C 
ATOM     54  C   UNL A   1      49.798  25.349  26.165  1.00  0.00     0.029 A 
ATOM     55  N   UNL A   1      50.220  25.834  28.308  1.00  0.00    -0.354 N 
ATOM     56  C   UNL A   1      47.062  25.893  31.258  1.00  0.00     0.074 A 
ATOM     57  C   UNL A   1      45.773  25.678  30.645  1.00  0.00     0.031 C 
ATOM     58  C   UNL A   1      51.126  25.535  26.288  1.00  0.00     0.029 A 
ATOM     59  C   UNL A   1      51.442  25.862  27.678  1.00  0.00     0.049 A 
ATOM     60  H   UNL A   1      50.107  26.013  29.270  1.00  0.00     0.167 HD
ATOM     61  C   UNL A   1      47.235  26.079  32.588  1.00  0.00     0.031 A 
ATOM     62  C   UNL A   1      52.671  26.116  28.172  1.00  0.00     0.031 A 
ATOM     63  C   UNL A   1      48.512  26.289  33.207  1.00  0.00     0.049 A 
ATOM     64  C   UNL A   1      52.836  26.382  29.649  1.00  0.00     0.074 A 
ATOM     65  C   UNL A   1      48.798  26.466  34.547  1.00  0.00     0.029 A 
ATOM     66  N   UNL A   1      49.715  26.355  32.523  1.00  0.00    -0.354 N 
ATOM     67  N   UNL A   1      51.927  26.386  30.595  1.00  0.00    -0.248 NA
ATOM     68  C   UNL A   1      54.200  26.656  30.123  1.00  0.00     0.031 C 
ATOM     69  C   UNL A   1      50.171  26.697  34.669  1.00  0.00     0.029 A 
ATOM     70  C   UNL A   1      50.747  26.598  33.411  1.00  0.00     0.049 A 
ATOM     71  H   UNL A   1      49.821  26.246  31.550  1.00  0.00     0.167 HD
ATOM     72  C   UNL A   1      52.616  26.622  31.782  1.00  0.00     0.074 A 
ATOM     73  C   UNL A   1      54.016  26.748  31.433  1.00  0.00     0.031 C 
ATOM     74  C   UNL A   1      52.136  26.716  33.048  1.00  0.00     0.031 A 
BRANCH  61  75
ATOM     75  C   UNL A   1      45.999  26.095  33.445  1.00  0.00    -0.014 A 
ATOM     76  C   UNL A   1      45.415  24.903  33.912  1.00  0.00     0.010 A 
ATOM     77  C   UNL A   1      45.410  27.326  33.783  1.00  0.00     0.010 A 
ATOM     78  C   UNL A   1      44.238  24.941  34.664  1.00  0.00     0.020 A 
ATOM     79  C   UNL A   1      44.250  27.370  34.560  1.00  0.00     0.020 A 
ATOM     80  C   UNL A   1      43.660  26.175  34.978  1.00  0.00     0.054 A 
BRANCH  80  81
ATOM     81  S   UNL A   1      42.139  26.198  35.965  1.00  0.00     0.124 S 
ATOM     82  O   UNL A   1      41.141  26.580  34.969  1.00  0.00    -0.237 OA
ATOM     83  O   UNL A   1      42.049  24.823  36.449  1.00  0.00    -0.237 OA
ATOM     84  O   UNL A   1      42.407  27.201  36.992  1.00  0.00    -0.744 OA
ENDBRANCH  80  81
ENDBRANCH  61  75
BRANCH  62  85
ATOM     85  C   UNL A   1      53.856  26.117  27.269  1.00  0.00    -0.014 A 
ATOM     86  C   UNL A   1      54.583  24.934  27.037  1.00  0.00     0.010 A 
ATOM     87  C   UNL A   1      54.278  27.309  26.654  1.00  0.00     0.010 A 
ATOM     88  C   UNL A   1      55.718  24.949  26.221  1.00  0.00     0.020 A 
ATOM     89  C   UNL A   1      55.397  27.321  25.816  1.00  0.00     0.020 A 
ATOM     90  C   UNL A   1      56.117  26.142  25.614  1.00  0.00     0.054 A 
BRANCH  90  91
ATOM     91  S   UNL A   1      57.560  26.127  24.513  1.00  0.00     0.124 S 
ATOM     92  O   UNL A   1      57.796  24.698  24.339  1.00  0.00    -0.237 OA
ATOM     93  O   UNL A   1      57.064  26.837  23.336  1.00  0.00    -0.237 OA
ATOM     94  O   UNL A   1      58.577  26.845  25.278  1.00  0.00    -0.744 OA
ENDBRANCH  90  91
ENDBRANCH  62  85
BRANCH  74  95
ATOM     95  C   UNL A   1      53.131  26.914  34.160  1.00  0.00    -0.014 A 
ATOM     96  C   UNL A   1      53.671  25.826  34.869  1.00  0.00     0.010 A 
ATOM     97  C   UNL A   1      53.574  28.216  34.464  1.00  0.00     0.010 A 
ATOM     98  C   UNL A   1      54.603  26.041  35.889  1.00  0.00     0.020 A 
ATOM     99  C   UNL A   1      54.527  28.431  35.461  1.00  0.00     0.020 A 
ATOM    100  C   UNL A   1      55.021  27.343  36.181  1.00  0.00     0.054 A 
BRANCH 100 101
ATOM    101  S   UNL A   1      56.249  27.594  37.492  1.00  0.00     0.124 S 
ATOM    102  O   UNL A   1      57.256  28.404  36.812  1.00  0.00    -0.237 OA
ATOM    103  O   UNL A   1      55.482  28.283  38.525  1.00  0.00    -0.237 OA
ATOM    104  O   UNL A   1      56.670  26.237  37.837  1.00  0.00    -0.744 OA
ENDBRANCH 100 101
ENDBRANCH  74  95
ENDBRANCH  48  49
ENDBRANCH  41  43
ENDBRANCH  40  41
ENDBRANCH  39  40
ENDBRANCH  38  39
ENDBRANCH  37  38
ENDBRANCH  36  37
ENDBRANCH  35  36
ENDBRANCH  34  35
ENDBRANCH   1  34
TORSDOF 27
ENDMDL
