MODEL 1
REMARK VINA RESULT:     -10.3      0.000      0.000
REMARK SMILES O=C(OCCOCCOCCOCCOC(=O)c1ccc(-c2c3nc(c(-c4ccc(S(=O)(=O)[O-])cc4)c4ccc([nH]4)c(-c4ccc(S(=O)(=O)[O-])cc4)c4nc(c(-c5ccc(S(=O)(=O)[O-])cc5)c5ccc2[nH]5)C=C4)C=C3)cc1)C1=Cc2cc(Cl)cc(C#Cc3ccccc3)c2O[C@@H]1C(F)(F)F
REMARK SMILES IDX 10 1 9 2 8 3 7 4 6 5 5 6 4 7 3 8 2 9 1 10 78 11 79 12 96 13
REMARK SMILES IDX 80 14 95 15 81 16 94 17 82 18 85 19 83 20 84 21 97 22 98 23
REMARK SMILES IDX 99 24 100 25 86 26 87 27 88 28 89 29 93 30 90 31 92 32 91 33
REMARK SMILES IDX 11 34 12 35 13 36 14 37 15 38 16 39 17 40 18 41 19 42 77 43
REMARK SMILES IDX 20 44 76 45 21 46 22 47 23 48 70 49 24 50 75 51 69 52 71 53
REMARK SMILES IDX 25 54 74 55 68 56 67 57 26 59 56 60 37 61 55 62 38 63 41 64
REMARK SMILES IDX 54 65 72 66 39 67 40 68 53 70 73 71 42 72 27 73 28 74 36 75
REMARK SMILES IDX 29 76 35 77 30 78 31 79 32 80 33 81 34 82 57 83 58 84 66 85
REMARK SMILES IDX 59 86 65 87 60 88 61 89 62 90 63 91 64 92 43 93 44 94 52 95
REMARK SMILES IDX 45 96 51 97 46 98 47 99 48 100 49 101 50 102
REMARK H PARENT 71 58 41 69
REMARK Flexibility Score: inf
ROOT
ATOM      1  C   UNL A   1      36.578  21.416  24.725  1.00  0.00     0.188 C 
ENDROOT
BRANCH   1   2
ATOM      2  O   UNL A   1      35.632  20.812  25.601  1.00  0.00    -0.377 OA
BRANCH   2   3
ATOM      3  C   UNL A   1      34.509  21.619  25.934  1.00  0.00     0.188 C 
BRANCH   3   4
ATOM      4  C   UNL A   1      34.472  21.911  27.429  1.00  0.00     0.188 C 
BRANCH   4   5
ATOM      5  O   UNL A   1      33.157  22.016  27.928  1.00  0.00    -0.376 OA
BRANCH   5   6
ATOM      6  C   UNL A   1      32.146  22.427  27.025  1.00  0.00     0.202 C 
BRANCH   6   7
ATOM      7  C   UNL A   1      31.788  23.914  27.031  1.00  0.00     0.261 C 
BRANCH   7   8
ATOM      8  O   UNL A   1      31.888  24.535  25.734  1.00  0.00    -0.460 OA
BRANCH   8   9
ATOM      9  C   UNL A   1      30.801  25.218  25.280  1.00  0.00     0.338 C 
ATOM     10  O   UNL A   1      29.715  25.169  25.838  1.00  0.00    -0.246 OA
BRANCH   9  11
ATOM     11  C   UNL A   1      30.983  25.847  23.936  1.00  0.00     0.087 C 
ATOM     12  C   UNL A   1      29.897  26.447  23.417  1.00  0.00     0.027 C 
ATOM     13  C   UNL A   1      32.322  26.462  23.681  1.00  0.00     0.316 C 
ATOM     14  C   UNL A   1      29.975  27.921  23.387  1.00  0.00     0.020 A 
ATOM     15  O   UNL A   1      32.317  27.909  23.889  1.00  0.00    -0.474 OA
ATOM     16  C   UNL A   1      28.870  28.674  22.999  1.00  0.00     0.032 A 
ATOM     17  C   UNL A   1      31.096  28.559  23.946  1.00  0.00     0.143 A 
ATOM     18  C   UNL A   1      28.854  30.039  23.268  1.00  0.00     0.043 A 
ATOM     19  C   UNL A   1      30.957  29.869  24.474  1.00  0.00     0.069 A 
ATOM     20  Cl  UNL A   1      27.550  30.999  22.689  1.00  0.00    -0.084 Cl
ATOM     21  C   UNL A   1      29.845  30.617  24.066  1.00  0.00     0.041 A 
BRANCH  13  22
ATOM     22  C   UNL A   1      32.973  25.898  22.409  1.00  0.00     0.430 C 
ATOM     23  F   UNL A   1      32.057  25.406  21.545  1.00  0.00    -0.167 F 
ATOM     24  F   UNL A   1      33.616  26.898  21.736  1.00  0.00    -0.167 F 
ATOM     25  F   UNL A   1      33.889  24.938  22.645  1.00  0.00    -0.167 F 
ENDBRANCH  13  22
BRANCH  19  26
ATOM     26  C   UNL A   1      31.710  30.413  25.617  1.00  0.00    -0.058 C 
ATOM     27  C   UNL A   1      32.448  30.922  26.428  1.00  0.00    -0.062 C 
BRANCH  27  28
ATOM     28  C   UNL A   1      33.331  31.543  27.424  1.00  0.00     0.025 A 
ATOM     29  C   UNL A   1      34.509  30.899  27.800  1.00  0.00     0.017 A 
ATOM     30  C   UNL A   1      33.117  32.813  27.964  1.00  0.00     0.017 A 
ATOM     31  C   UNL A   1      35.455  31.474  28.663  1.00  0.00     0.001 A 
ATOM     32  C   UNL A   1      34.112  33.435  28.754  1.00  0.00     0.001 A 
ATOM     33  C   UNL A   1      35.285  32.774  29.094  1.00  0.00     0.000 A 
ENDBRANCH  27  28
ENDBRANCH  19  26
ENDBRANCH   9  11
ENDBRANCH   8   9
ENDBRANCH   7   8
ENDBRANCH   6   7
ENDBRANCH   5   6
ENDBRANCH   4   5
ENDBRANCH   3   4
ENDBRANCH   2   3
ENDBRANCH   1   2
BRANCH   1  34
ATOM     34  C   UNL A   1      38.048  21.410  25.185  1.00  0.00     0.188 C 
BRANCH  34  35
ATOM     35  O   UNL A   1      38.524  22.342  26.152  1.00  0.00    -0.376 OA
BRANCH  35  36
ATOM     36  C   UNL A   1      39.832  22.162  26.648  1.00  0.00     0.202 C 
BRANCH  36  37
ATOM     37  C   UNL A   1      40.627  23.467  26.870  1.00  0.00     0.261 C 
BRANCH  37  38
ATOM     38  O   UNL A   1      39.895  24.714  26.777  1.00  0.00    -0.460 OA
BRANCH  38  39
ATOM     39  C   UNL A   1      40.581  25.848  26.469  1.00  0.00     0.338 C 
ATOM     40  O   UNL A   1      41.039  26.142  25.379  1.00  0.00    -0.246 OA
BRANCH  39  41
ATOM     41  C   UNL A   1      40.604  26.765  27.658  1.00  0.00     0.060 A 
ATOM     42  C   UNL A   1      39.709  26.568  28.725  1.00  0.00     0.016 A 
ATOM     43  C   UNL A   1      41.506  27.822  27.745  1.00  0.00     0.016 A 
ATOM     44  C   UNL A   1      39.724  27.403  29.876  1.00  0.00     0.010 A 
ATOM     45  C   UNL A   1      41.513  28.650  28.891  1.00  0.00     0.010 A 
ATOM     46  C   UNL A   1      40.626  28.468  29.988  1.00  0.00    -0.014 A 
BRANCH  46  47
ATOM     47  C   UNL A   1      40.655  29.487  31.120  1.00  0.00     0.031 A 
ATOM     48  C   UNL A   1      41.597  29.209  32.273  1.00  0.00     0.074 A 
ATOM     49  C   UNL A   1      39.879  30.596  31.245  1.00  0.00     0.049 A 
ATOM     50  N   UNL A   1      41.618  29.713  33.480  1.00  0.00    -0.248 NA
ATOM     51  C   UNL A   1      42.662  28.225  32.013  1.00  0.00     0.031 C 
ATOM     52  C   UNL A   1      39.046  31.204  30.219  1.00  0.00     0.029 A 
ATOM     53  N   UNL A   1      39.612  31.386  32.360  1.00  0.00    -0.354 N 
ATOM     54  C   UNL A   1      42.686  29.101  34.121  1.00  0.00     0.074 A 
ATOM     55  C   UNL A   1      43.227  28.121  33.205  1.00  0.00     0.031 C 
ATOM     56  C   UNL A   1      38.249  32.141  30.772  1.00  0.00     0.029 A 
ATOM     57  C   UNL A   1      38.517  32.222  32.202  1.00  0.00     0.049 A 
ATOM     58  H   UNL A   1      40.151  31.355  33.184  1.00  0.00     0.167 HD
ATOM     59  C   UNL A   1      43.224  29.363  35.335  1.00  0.00     0.031 A 
ATOM     60  C   UNL A   1      37.787  32.941  33.090  1.00  0.00     0.031 A 
ATOM     61  C   UNL A   1      42.768  30.389  36.231  1.00  0.00     0.049 A 
ATOM     62  C   UNL A   1      38.272  33.078  34.514  1.00  0.00     0.074 A 
ATOM     63  C   UNL A   1      43.343  30.797  37.423  1.00  0.00     0.029 A 
ATOM     64  N   UNL A   1      41.640  31.166  36.045  1.00  0.00    -0.354 N 
ATOM     65  N   UNL A   1      39.331  32.547  35.072  1.00  0.00    -0.248 NA
ATOM     66  C   UNL A   1      37.513  33.972  35.406  1.00  0.00     0.031 C 
ATOM     67  C   UNL A   1      42.522  31.771  37.994  1.00  0.00     0.029 A 
ATOM     68  C   UNL A   1      41.471  32.014  37.127  1.00  0.00     0.049 A 
ATOM     69  H   UNL A   1      41.046  31.123  35.261  1.00  0.00     0.167 HD
ATOM     70  C   UNL A   1      39.414  33.114  36.340  1.00  0.00     0.074 A 
ATOM     71  C   UNL A   1      38.285  34.004  36.484  1.00  0.00     0.031 C 
ATOM     72  C   UNL A   1      40.372  32.930  37.280  1.00  0.00     0.031 A 
BRANCH  59  73
ATOM     73  C   UNL A   1      44.404  28.540  35.764  1.00  0.00    -0.014 A 
ATOM     74  C   UNL A   1      44.230  27.343  36.483  1.00  0.00     0.010 A 
ATOM     75  C   UNL A   1      45.698  28.933  35.382  1.00  0.00     0.010 A 
ATOM     76  C   UNL A   1      45.334  26.571  36.843  1.00  0.00     0.020 A 
ATOM     77  C   UNL A   1      46.803  28.145  35.709  1.00  0.00     0.020 A 
ATOM     78  C   UNL A   1      46.613  26.975  36.448  1.00  0.00     0.054 A 
BRANCH  78  79
ATOM     79  S   UNL A   1      48.021  25.919  36.877  1.00  0.00     0.124 S 
ATOM     80  O   UNL A   1      47.506  24.588  36.560  1.00  0.00    -0.237 OA
ATOM     81  O   UNL A   1      49.070  26.414  35.990  1.00  0.00    -0.237 OA
ATOM     82  O   UNL A   1      48.233  26.181  38.298  1.00  0.00    -0.744 OA
ENDBRANCH  78  79
ENDBRANCH  59  73
BRANCH  60  83
ATOM     83  C   UNL A   1      36.489  33.597  32.716  1.00  0.00    -0.014 A 
ATOM     84  C   UNL A   1      36.409  34.975  32.442  1.00  0.00     0.010 A 
ATOM     85  C   UNL A   1      35.289  32.865  32.789  1.00  0.00     0.010 A 
ATOM     86  C   UNL A   1      35.165  35.602  32.278  1.00  0.00     0.020 A 
ATOM     87  C   UNL A   1      34.044  33.478  32.589  1.00  0.00     0.020 A 
ATOM     88  C   UNL A   1      33.988  34.850  32.354  1.00  0.00     0.054 A 
BRANCH  88  89
ATOM     89  S   UNL A   1      32.388  35.686  32.146  1.00  0.00     0.124 S 
ATOM     90  O   UNL A   1      32.637  36.982  32.766  1.00  0.00    -0.237 OA
ATOM     91  O   UNL A   1      32.228  35.697  30.694  1.00  0.00    -0.237 OA
ATOM     92  O   UNL A   1      31.454  34.819  32.862  1.00  0.00    -0.744 OA
ENDBRANCH  88  89
ENDBRANCH  60  83
BRANCH  72  93
ATOM     93  C   UNL A   1      40.314  33.753  38.540  1.00  0.00    -0.014 A 
ATOM     94  C   UNL A   1      40.923  35.016  38.621  1.00  0.00     0.010 A 
ATOM     95  C   UNL A   1      39.543  33.294  39.627  1.00  0.00     0.010 A 
ATOM     96  C   UNL A   1      40.767  35.803  39.767  1.00  0.00     0.020 A 
ATOM     97  C   UNL A   1      39.359  34.091  40.760  1.00  0.00     0.020 A 
ATOM     98  C   UNL A   1      39.976  35.340  40.824  1.00  0.00     0.054 A 
BRANCH  98  99
ATOM     99  S   UNL A   1      39.715  36.422  42.256  1.00  0.00     0.124 S 
ATOM    100  O   UNL A   1      39.459  37.713  41.624  1.00  0.00    -0.237 OA
ATOM    101  O   UNL A   1      38.565  35.806  42.915  1.00  0.00    -0.237 OA
ATOM    102  O   UNL A   1      40.972  36.330  42.996  1.00  0.00    -0.744 OA
ENDBRANCH  98  99
ENDBRANCH  72  93
ENDBRANCH  46  47
ENDBRANCH  39  41
ENDBRANCH  38  39
ENDBRANCH  37  38
ENDBRANCH  36  37
ENDBRANCH  35  36
ENDBRANCH  34  35
ENDBRANCH   1  34
TORSDOF 26
ENDMDL
MODEL 2
REMARK VINA RESULT:     -10.1      1.179      7.707
REMARK SMILES O=C(OCCOCCOCCOCCOC(=O)c1ccc(-c2c3nc(c(-c4ccc(S(=O)(=O)[O-])cc4)c4ccc([nH]4)c(-c4ccc(S(=O)(=O)[O-])cc4)c4nc(c(-c5ccc(S(=O)(=O)[O-])cc5)c5ccc2[nH]5)C=C4)C=C3)cc1)C1=Cc2cc(Cl)cc(C#Cc3ccccc3)c2O[C@@H]1C(F)(F)F
REMARK SMILES IDX 10 1 9 2 8 3 7 4 6 5 5 6 4 7 3 8 2 9 1 10 78 11 79 12 96 13
REMARK SMILES IDX 80 14 95 15 81 16 94 17 82 18 85 19 83 20 84 21 97 22 98 23
REMARK SMILES IDX 99 24 100 25 86 26 87 27 88 28 89 29 93 30 90 31 92 32 91 33
REMARK SMILES IDX 11 34 12 35 13 36 14 37 15 38 16 39 17 40 18 41 19 42 77 43
REMARK SMILES IDX 20 44 76 45 21 46 22 47 23 48 70 49 24 50 75 51 69 52 71 53
REMARK SMILES IDX 25 54 74 55 68 56 67 57 26 59 56 60 37 61 55 62 38 63 41 64
REMARK SMILES IDX 54 65 72 66 39 67 40 68 53 70 73 71 42 72 27 73 28 74 36 75
REMARK SMILES IDX 29 76 35 77 30 78 31 79 32 80 33 81 34 82 57 83 58 84 66 85
REMARK SMILES IDX 59 86 65 87 60 88 61 89 62 90 63 91 64 92 43 93 44 94 52 95
REMARK SMILES IDX 45 96 51 97 46 98 47 99 48 100 49 101 50 102
REMARK H PARENT 71 58 41 69
REMARK Flexibility Score: inf
ROOT
ATOM      1  C   UNL A   1      39.409  21.560  26.117  1.00  0.00     0.188 C 
ENDROOT
BRANCH   1   2
ATOM      2  O   UNL A   1      38.218  22.338  26.042  1.00  0.00    -0.377 OA
BRANCH   2   3
ATOM      3  C   UNL A   1      37.389  22.074  24.916  1.00  0.00     0.188 C 
BRANCH   3   4
ATOM      4  C   UNL A   1      36.267  21.109  25.281  1.00  0.00     0.188 C 
BRANCH   4   5
ATOM      5  O   UNL A   1      35.497  21.562  26.372  1.00  0.00    -0.376 OA
BRANCH   5   6
ATOM      6  C   UNL A   1      34.104  21.308  26.339  1.00  0.00     0.202 C 
BRANCH   6   7
ATOM      7  C   UNL A   1      33.238  22.121  27.303  1.00  0.00     0.261 C 
BRANCH   7   8
ATOM      8  O   UNL A   1      31.949  22.470  26.763  1.00  0.00    -0.460 OA
BRANCH   8   9
ATOM      9  C   UNL A   1      31.739  23.774  26.432  1.00  0.00     0.338 C 
ATOM     10  O   UNL A   1      31.353  24.603  27.243  1.00  0.00    -0.246 OA
BRANCH   9  11
ATOM     11  C   UNL A   1      31.805  24.059  24.966  1.00  0.00     0.087 C 
ATOM     12  C   UNL A   1      30.659  24.470  24.395  1.00  0.00     0.027 C 
ATOM     13  C   UNL A   1      33.090  24.642  24.473  1.00  0.00     0.316 C 
ATOM     14  C   UNL A   1      30.653  25.893  24.002  1.00  0.00     0.020 A 
ATOM     15  O   UNL A   1      33.019  26.095  24.322  1.00  0.00    -0.474 OA
ATOM     16  C   UNL A   1      29.488  26.484  23.523  1.00  0.00     0.032 A 
ATOM     17  C   UNL A   1      31.770  26.691  24.307  1.00  0.00     0.143 A 
ATOM     18  C   UNL A   1      29.413  27.872  23.452  1.00  0.00     0.043 A 
ATOM     19  C   UNL A   1      31.592  28.085  24.509  1.00  0.00     0.069 A 
ATOM     20  Cl  UNL A   1      28.026  28.609  22.752  1.00  0.00    -0.084 Cl
ATOM     21  C   UNL A   1      30.417  28.667  24.012  1.00  0.00     0.041 A 
BRANCH  13  22
ATOM     22  C   UNL A   1      33.693  23.807  23.333  1.00  0.00     0.430 C 
ATOM     23  F   UNL A   1      33.318  22.510  23.401  1.00  0.00    -0.167 F 
ATOM     24  F   UNL A   1      33.233  24.264  22.131  1.00  0.00    -0.167 F 
ATOM     25  F   UNL A   1      35.039  23.855  23.276  1.00  0.00    -0.167 F 
ENDBRANCH  13  22
BRANCH  19  26
ATOM     26  C   UNL A   1      32.381  28.923  25.428  1.00  0.00    -0.058 C 
ATOM     27  C   UNL A   1      33.147  29.466  26.189  1.00  0.00    -0.062 C 
BRANCH  27  28
ATOM     28  C   UNL A   1      34.073  30.143  27.106  1.00  0.00     0.025 A 
ATOM     29  C   UNL A   1      33.747  31.399  27.615  1.00  0.00     0.017 A 
ATOM     30  C   UNL A   1      35.244  29.559  27.595  1.00  0.00     0.017 A 
ATOM     31  C   UNL A   1      34.525  32.063  28.576  1.00  0.00     0.001 A 
ATOM     32  C   UNL A   1      35.978  30.180  28.633  1.00  0.00     0.001 A 
ATOM     33  C   UNL A   1      35.614  31.424  29.134  1.00  0.00     0.000 A 
ENDBRANCH  27  28
ENDBRANCH  19  26
ENDBRANCH   9  11
ENDBRANCH   8   9
ENDBRANCH   7   8
ENDBRANCH   6   7
ENDBRANCH   5   6
ENDBRANCH   4   5
ENDBRANCH   3   4
ENDBRANCH   2   3
ENDBRANCH   1   2
BRANCH   1  34
ATOM     34  C   UNL A   1      40.631  22.232  26.772  1.00  0.00     0.188 C 
BRANCH  34  35
ATOM     35  O   UNL A   1      41.775  22.593  26.003  1.00  0.00    -0.376 OA
BRANCH  35  36
ATOM     36  C   UNL A   1      42.439  23.792  26.338  1.00  0.00     0.202 C 
BRANCH  36  37
ATOM     37  C   UNL A   1      41.786  25.074  25.778  1.00  0.00     0.261 C 
BRANCH  37  38
ATOM     38  O   UNL A   1      40.955  25.844  26.681  1.00  0.00    -0.460 OA
BRANCH  38  39
ATOM     39  C   UNL A   1      41.015  27.202  26.620  1.00  0.00     0.338 C 
ATOM     40  O   UNL A   1      41.062  27.878  25.607  1.00  0.00    -0.246 OA
BRANCH  39  41
ATOM     41  C   UNL A   1      40.902  27.777  28.002  1.00  0.00     0.060 A 
ATOM     42  C   UNL A   1      41.626  28.928  28.355  1.00  0.00     0.016 A 
ATOM     43  C   UNL A   1      40.079  27.198  28.966  1.00  0.00     0.016 A 
ATOM     44  C   UNL A   1      41.519  29.512  29.647  1.00  0.00     0.010 A 
ATOM     45  C   UNL A   1      39.981  27.781  30.250  1.00  0.00     0.010 A 
ATOM     46  C   UNL A   1      40.695  28.950  30.631  1.00  0.00    -0.014 A 
BRANCH  46  47
ATOM     47  C   UNL A   1      40.592  29.426  32.075  1.00  0.00     0.031 A 
ATOM     48  C   UNL A   1      39.536  30.467  32.382  1.00  0.00     0.074 A 
ATOM     49  C   UNL A   1      41.386  29.064  33.116  1.00  0.00     0.049 A 
ATOM     50  N   UNL A   1      39.417  31.262  33.416  1.00  0.00    -0.248 NA
ATOM     51  C   UNL A   1      38.469  30.623  31.378  1.00  0.00     0.031 C 
ATOM     52  C   UNL A   1      42.332  27.959  33.155  1.00  0.00     0.029 A 
ATOM     53  N   UNL A   1      41.571  29.665  34.358  1.00  0.00    -0.354 N 
ATOM     54  C   UNL A   1      38.274  32.013  33.178  1.00  0.00     0.074 A 
ATOM     55  C   UNL A   1      37.791  31.650  31.864  1.00  0.00     0.031 C 
ATOM     56  C   UNL A   1      43.102  28.054  34.258  1.00  0.00     0.029 A 
ATOM     57  C   UNL A   1      42.702  29.225  35.029  1.00  0.00     0.049 A 
ATOM     58  H   UNL A   1      40.957  30.341  34.726  1.00  0.00     0.167 HD
ATOM     59  C   UNL A   1      37.633  32.881  33.995  1.00  0.00     0.031 A 
ATOM     60  C   UNL A   1      43.367  29.710  36.105  1.00  0.00     0.031 A 
ATOM     61  C   UNL A   1      38.034  33.196  35.337  1.00  0.00     0.049 A 
ATOM     62  C   UNL A   1      42.754  30.827  36.917  1.00  0.00     0.074 A 
ATOM     63  C   UNL A   1      37.362  33.970  36.268  1.00  0.00     0.029 A 
ATOM     64  N   UNL A   1      39.198  32.763  35.943  1.00  0.00    -0.354 N 
ATOM     65  N   UNL A   1      41.631  31.468  36.709  1.00  0.00    -0.248 NA
ATOM     66  C   UNL A   1      43.454  31.234  38.149  1.00  0.00     0.031 C 
ATOM     67  C   UNL A   1      38.155  34.065  37.413  1.00  0.00     0.029 A 
ATOM     68  C   UNL A   1      39.291  33.298  37.217  1.00  0.00     0.049 A 
ATOM     69  H   UNL A   1      39.862  32.164  35.530  1.00  0.00     0.167 HD
ATOM     70  C   UNL A   1      41.446  32.277  37.826  1.00  0.00     0.074 A 
ATOM     71  C   UNL A   1      42.585  32.074  38.693  1.00  0.00     0.031 C 
ATOM     72  C   UNL A   1      40.399  33.087  38.110  1.00  0.00     0.031 A 
BRANCH  59  73
ATOM     73  C   UNL A   1      36.392  33.542  33.467  1.00  0.00    -0.014 A 
ATOM     74  C   UNL A   1      35.118  33.007  33.731  1.00  0.00     0.010 A 
ATOM     75  C   UNL A   1      36.499  34.751  32.758  1.00  0.00     0.010 A 
ATOM     76  C   UNL A   1      33.973  33.652  33.265  1.00  0.00     0.020 A 
ATOM     77  C   UNL A   1      35.354  35.419  32.320  1.00  0.00     0.020 A 
ATOM     78  C   UNL A   1      34.099  34.857  32.567  1.00  0.00     0.054 A 
BRANCH  78  79
ATOM     79  S   UNL A   1      32.590  35.703  32.029  1.00  0.00     0.124 S 
ATOM     80  O   UNL A   1      31.552  34.922  32.698  1.00  0.00    -0.237 OA
ATOM     81  O   UNL A   1      32.785  37.056  32.541  1.00  0.00    -0.237 OA
ATOM     82  O   UNL A   1      32.622  35.578  30.574  1.00  0.00    -0.744 OA
ENDBRANCH  78  79
ENDBRANCH  59  73
BRANCH  60  83
ATOM     83  C   UNL A   1      44.715  29.191  36.517  1.00  0.00    -0.014 A 
ATOM     84  C   UNL A   1      45.874  29.474  35.773  1.00  0.00     0.010 A 
ATOM     85  C   UNL A   1      44.816  28.271  37.578  1.00  0.00     0.010 A 
ATOM     86  C   UNL A   1      47.088  28.832  36.064  1.00  0.00     0.020 A 
ATOM     87  C   UNL A   1      46.033  27.653  37.899  1.00  0.00     0.020 A 
ATOM     88  C   UNL A   1      47.160  27.923  37.125  1.00  0.00     0.054 A 
BRANCH  88  89
ATOM     89  S   UNL A   1      48.740  27.098  37.479  1.00  0.00     0.124 S 
ATOM     90  O   UNL A   1      48.302  25.797  37.972  1.00  0.00    -0.237 OA
ATOM     91  O   UNL A   1      49.391  27.097  36.171  1.00  0.00    -0.237 OA
ATOM     92  O   UNL A   1      49.364  27.967  38.476  1.00  0.00    -0.744 OA
ENDBRANCH  88  89
ENDBRANCH  60  83
BRANCH  72  93
ATOM     93  C   UNL A   1      40.363  33.777  39.449  1.00  0.00    -0.014 A 
ATOM     94  C   UNL A   1      40.805  35.101  39.605  1.00  0.00     0.010 A 
ATOM     95  C   UNL A   1      39.776  33.119  40.548  1.00  0.00     0.010 A 
ATOM     96  C   UNL A   1      40.666  35.753  40.835  1.00  0.00     0.020 A 
ATOM     97  C   UNL A   1      39.606  33.776  41.769  1.00  0.00     0.020 A 
ATOM     98  C   UNL A   1      40.056  35.090  41.905  1.00  0.00     0.054 A 
BRANCH  98  99
ATOM     99  S   UNL A   1      39.804  35.992  43.459  1.00  0.00     0.124 S 
ATOM    100  O   UNL A   1      38.380  35.788  43.704  1.00  0.00    -0.237 OA
ATOM    101  O   UNL A   1      40.706  35.300  44.378  1.00  0.00    -0.237 OA
ATOM    102  O   UNL A   1      40.189  37.363  43.133  1.00  0.00    -0.744 OA
ENDBRANCH  98  99
ENDBRANCH  72  93
ENDBRANCH  46  47
ENDBRANCH  39  41
ENDBRANCH  38  39
ENDBRANCH  37  38
ENDBRANCH  36  37
ENDBRANCH  35  36
ENDBRANCH  34  35
ENDBRANCH   1  34
TORSDOF 26
ENDMDL
MODEL 3
REMARK VINA RESULT:      -9.7      6.227      8.350
REMARK SMILES O=C(OCCOCCOCCOCCOC(=O)c1ccc(-c2c3nc(c(-c4ccc(S(=O)(=O)[O-])cc4)c4ccc([nH]4)c(-c4ccc(S(=O)(=O)[O-])cc4)c4nc(c(-c5ccc(S(=O)(=O)[O-])cc5)c5ccc2[nH]5)C=C4)C=C3)cc1)C1=Cc2cc(Cl)cc(C#Cc3ccccc3)c2O[C@@H]1C(F)(F)F
REMARK SMILES IDX 10 1 9 2 8 3 7 4 6 5 5 6 4 7 3 8 2 9 1 10 78 11 79 12 96 13
REMARK SMILES IDX 80 14 95 15 81 16 94 17 82 18 85 19 83 20 84 21 97 22 98 23
REMARK SMILES IDX 99 24 100 25 86 26 87 27 88 28 89 29 93 30 90 31 92 32 91 33
REMARK SMILES IDX 11 34 12 35 13 36 14 37 15 38 16 39 17 40 18 41 19 42 77 43
REMARK SMILES IDX 20 44 76 45 21 46 22 47 23 48 70 49 24 50 75 51 69 52 71 53
REMARK SMILES IDX 25 54 74 55 68 56 67 57 26 59 56 60 37 61 55 62 38 63 41 64
REMARK SMILES IDX 54 65 72 66 39 67 40 68 53 70 73 71 42 72 27 73 28 74 36 75
REMARK SMILES IDX 29 76 35 77 30 78 31 79 32 80 33 81 34 82 57 83 58 84 66 85
REMARK SMILES IDX 59 86 65 87 60 88 61 89 62 90 63 91 64 92 43 93 44 94 52 95
REMARK SMILES IDX 45 96 51 97 46 98 47 99 48 100 49 101 50 102
REMARK H PARENT 71 58 41 69
REMARK Flexibility Score: inf
ROOT
ATOM      1  C   UNL A   1      40.228  21.412  26.442  1.00  0.00     0.188 C 
ENDROOT
BRANCH   1   2
ATOM      2  O   UNL A   1      39.146  20.887  25.678  1.00  0.00    -0.377 OA
BRANCH   2   3
ATOM      3  C   UNL A   1      38.112  21.815  25.371  1.00  0.00     0.188 C 
BRANCH   3   4
ATOM      4  C   UNL A   1      36.753  21.126  25.344  1.00  0.00     0.188 C 
BRANCH   4   5
ATOM      5  O   UNL A   1      35.882  21.609  26.342  1.00  0.00    -0.376 OA
BRANCH   5   6
ATOM      6  C   UNL A   1      34.508  21.288  26.222  1.00  0.00     0.202 C 
BRANCH   6   7
ATOM      7  C   UNL A   1      33.573  21.872  27.282  1.00  0.00     0.261 C 
BRANCH   7   8
ATOM      8  O   UNL A   1      32.242  22.129  26.796  1.00  0.00    -0.460 OA
BRANCH   8   9
ATOM      9  C   UNL A   1      31.934  23.410  26.453  1.00  0.00     0.338 C 
ATOM     10  O   UNL A   1      31.567  24.238  27.274  1.00  0.00    -0.246 OA
BRANCH   9  11
ATOM     11  C   UNL A   1      31.867  23.658  24.981  1.00  0.00     0.087 C 
ATOM     12  C   UNL A   1      30.697  24.132  24.517  1.00  0.00     0.027 C 
ATOM     13  C   UNL A   1      33.129  24.144  24.344  1.00  0.00     0.316 C 
ATOM     14  C   UNL A   1      30.742  25.543  24.087  1.00  0.00     0.020 A 
ATOM     15  O   UNL A   1      33.136  25.594  24.160  1.00  0.00    -0.474 OA
ATOM     16  C   UNL A   1      29.573  26.200  23.711  1.00  0.00     0.032 A 
ATOM     17  C   UNL A   1      31.933  26.272  24.255  1.00  0.00     0.143 A 
ATOM     18  C   UNL A   1      29.581  27.589  23.609  1.00  0.00     0.043 A 
ATOM     19  C   UNL A   1      31.866  27.679  24.434  1.00  0.00     0.069 A 
ATOM     20  Cl  UNL A   1      28.180  28.401  23.032  1.00  0.00    -0.084 Cl
ATOM     21  C   UNL A   1      30.686  28.326  24.042  1.00  0.00     0.041 A 
BRANCH  13  22
ATOM     22  C   UNL A   1      33.558  23.246  23.173  1.00  0.00     0.430 C 
ATOM     23  F   UNL A   1      32.973  22.028  23.228  1.00  0.00    -0.167 F 
ATOM     24  F   UNL A   1      33.150  23.799  21.993  1.00  0.00    -0.167 F 
ATOM     25  F   UNL A   1      34.891  23.071  23.080  1.00  0.00    -0.167 F 
ENDBRANCH  13  22
BRANCH  19  26
ATOM     26  C   UNL A   1      32.797  28.481  25.244  1.00  0.00    -0.058 C 
ATOM     27  C   UNL A   1      33.413  29.184  26.012  1.00  0.00    -0.062 C 
BRANCH  27  28
ATOM     28  C   UNL A   1      34.176  30.026  26.942  1.00  0.00     0.025 A 
ATOM     29  C   UNL A   1      35.509  29.723  27.214  1.00  0.00     0.017 A 
ATOM     30  C   UNL A   1      33.677  31.200  27.511  1.00  0.00     0.017 A 
ATOM     31  C   UNL A   1      36.334  30.537  28.006  1.00  0.00     0.001 A 
ATOM     32  C   UNL A   1      34.531  32.071  28.227  1.00  0.00     0.001 A 
ATOM     33  C   UNL A   1      35.861  31.749  28.465  1.00  0.00     0.000 A 
ENDBRANCH  27  28
ENDBRANCH  19  26
ENDBRANCH   9  11
ENDBRANCH   8   9
ENDBRANCH   7   8
ENDBRANCH   6   7
ENDBRANCH   5   6
ENDBRANCH   4   5
ENDBRANCH   3   4
ENDBRANCH   2   3
ENDBRANCH   1   2
BRANCH   1  34
ATOM     34  C   UNL A   1      40.882  20.457  27.459  1.00  0.00     0.188 C 
BRANCH  34  35
ATOM     35  O   UNL A   1      42.266  20.128  27.380  1.00  0.00    -0.376 OA
BRANCH  35  36
ATOM     36  C   UNL A   1      42.612  18.764  27.292  1.00  0.00     0.202 C 
BRANCH  36  37
ATOM     37  C   UNL A   1      42.958  18.271  25.871  1.00  0.00     0.261 C 
BRANCH  37  38
ATOM     38  O   UNL A   1      43.139  19.279  24.845  1.00  0.00    -0.460 OA
BRANCH  38  39
ATOM     39  C   UNL A   1      44.404  19.681  24.546  1.00  0.00     0.338 C 
ATOM     40  O   UNL A   1      45.244  19.035  23.944  1.00  0.00    -0.246 OA
BRANCH  39  41
ATOM     41  C   UNL A   1      44.596  21.108  24.970  1.00  0.00     0.060 A 
ATOM     42  C   UNL A   1      44.755  21.431  26.329  1.00  0.00     0.016 A 
ATOM     43  C   UNL A   1      44.630  22.145  24.041  1.00  0.00     0.016 A 
ATOM     44  C   UNL A   1      44.965  22.770  26.759  1.00  0.00     0.010 A 
ATOM     45  C   UNL A   1      44.835  23.475  24.476  1.00  0.00     0.010 A 
ATOM     46  C   UNL A   1      45.008  23.828  25.843  1.00  0.00    -0.014 A 
BRANCH  46  47
ATOM     47  C   UNL A   1      45.116  25.305  26.202  1.00  0.00     0.031 A 
ATOM     48  C   UNL A   1      46.488  25.938  26.106  1.00  0.00     0.074 A 
ATOM     49  C   UNL A   1      44.124  26.111  26.662  1.00  0.00     0.049 A 
ATOM     50  N   UNL A   1      46.936  27.054  26.623  1.00  0.00    -0.248 NA
ATOM     51  C   UNL A   1      47.485  25.202  25.309  1.00  0.00     0.031 C 
ATOM     52  C   UNL A   1      42.696  25.831  26.665  1.00  0.00     0.029 A 
ATOM     53  N   UNL A   1      44.192  27.345  27.303  1.00  0.00    -0.354 N 
ATOM     54  C   UNL A   1      48.262  27.144  26.223  1.00  0.00     0.074 A 
ATOM     55  C   UNL A   1      48.574  25.928  25.505  1.00  0.00     0.031 C 
ATOM     56  C   UNL A   1      42.050  26.753  27.409  1.00  0.00     0.029 A 
ATOM     57  C   UNL A   1      43.012  27.713  27.934  1.00  0.00     0.049 A 
ATOM     58  H   UNL A   1      45.002  27.906  27.309  1.00  0.00     0.167 HD
ATOM     59  C   UNL A   1      49.136  28.166  26.374  1.00  0.00     0.031 A 
ATOM     60  C   UNL A   1      42.732  28.673  28.848  1.00  0.00     0.031 A 
ATOM     61  C   UNL A   1      48.833  29.422  27.002  1.00  0.00     0.049 A 
ATOM     62  C   UNL A   1      43.777  29.712  29.181  1.00  0.00     0.074 A 
ATOM     63  C   UNL A   1      49.630  30.551  27.078  1.00  0.00     0.029 A 
ATOM     64  N   UNL A   1      47.652  29.720  27.657  1.00  0.00    -0.354 N 
ATOM     65  N   UNL A   1      45.001  29.815  28.727  1.00  0.00    -0.248 NA
ATOM     66  C   UNL A   1      43.382  30.808  30.083  1.00  0.00     0.031 C 
ATOM     67  C   UNL A   1      48.960  31.508  27.842  1.00  0.00     0.029 A 
ATOM     68  C   UNL A   1      47.721  30.997  28.187  1.00  0.00     0.049 A 
ATOM     69  H   UNL A   1      46.879  29.115  27.734  1.00  0.00     0.167 HD
ATOM     70  C   UNL A   1      45.483  31.028  29.212  1.00  0.00     0.074 A 
ATOM     71  C   UNL A   1      44.436  31.610  30.019  1.00  0.00     0.031 C 
ATOM     72  C   UNL A   1      46.680  31.611  28.969  1.00  0.00     0.031 A 
BRANCH  59  73
ATOM     73  C   UNL A   1      50.519  27.985  25.816  1.00  0.00    -0.014 A 
ATOM     74  C   UNL A   1      50.804  28.295  24.474  1.00  0.00     0.010 A 
ATOM     75  C   UNL A   1      51.559  27.566  26.663  1.00  0.00     0.010 A 
ATOM     76  C   UNL A   1      52.101  28.156  23.980  1.00  0.00     0.020 A 
ATOM     77  C   UNL A   1      52.864  27.459  26.182  1.00  0.00     0.020 A 
ATOM     78  C   UNL A   1      53.124  27.744  24.840  1.00  0.00     0.054 A 
BRANCH  78  79
ATOM     79  S   UNL A   1      54.809  27.632  24.183  1.00  0.00     0.124 S 
ATOM     80  O   UNL A   1      54.870  26.238  23.750  1.00  0.00    -0.237 OA
ATOM     81  O   UNL A   1      54.797  28.623  23.111  1.00  0.00    -0.237 OA
ATOM     82  O   UNL A   1      55.651  27.965  25.329  1.00  0.00    -0.744 OA
ENDBRANCH  78  79
ENDBRANCH  59  73
BRANCH  60  83
ATOM     83  C   UNL A   1      41.415  28.735  29.568  1.00  0.00    -0.014 A 
ATOM     84  C   UNL A   1      40.370  29.566  29.126  1.00  0.00     0.010 A 
ATOM     85  C   UNL A   1      41.262  28.075  30.802  1.00  0.00     0.010 A 
ATOM     86  C   UNL A   1      39.221  29.752  29.911  1.00  0.00     0.020 A 
ATOM     87  C   UNL A   1      40.101  28.226  31.574  1.00  0.00     0.020 A 
ATOM     88  C   UNL A   1      39.094  29.081  31.132  1.00  0.00     0.054 A 
BRANCH  88  89
ATOM     89  S   UNL A   1      37.601  29.343  32.134  1.00  0.00     0.124 S 
ATOM     90  O   UNL A   1      37.592  28.159  32.986  1.00  0.00    -0.237 OA
ATOM     91  O   UNL A   1      37.894  30.607  32.806  1.00  0.00    -0.237 OA
ATOM     92  O   UNL A   1      36.529  29.408  31.142  1.00  0.00    -0.744 OA
ENDBRANCH  88  89
ENDBRANCH  60  83
BRANCH  72  93
ATOM     93  C   UNL A   1      46.932  32.994  29.510  1.00  0.00    -0.014 A 
ATOM     94  C   UNL A   1      46.551  34.143  28.796  1.00  0.00     0.010 A 
ATOM     95  C   UNL A   1      47.464  33.141  30.807  1.00  0.00     0.010 A 
ATOM     96  C   UNL A   1      46.703  35.411  29.365  1.00  0.00     0.020 A 
ATOM     97  C   UNL A   1      47.587  34.404  31.391  1.00  0.00     0.020 A 
ATOM     98  C   UNL A   1      47.208  35.533  30.664  1.00  0.00     0.054 A 
BRANCH  98  99
ATOM     99  S   UNL A   1      47.304  37.183  31.412  1.00  0.00     0.124 S 
ATOM    100  O   UNL A   1      46.125  37.840  30.857  1.00  0.00    -0.237 OA
ATOM    101  O   UNL A   1      47.246  36.887  32.841  1.00  0.00    -0.237 OA
ATOM    102  O   UNL A   1      48.586  37.704  30.941  1.00  0.00    -0.744 OA
ENDBRANCH  98  99
ENDBRANCH  72  93
ENDBRANCH  46  47
ENDBRANCH  39  41
ENDBRANCH  38  39
ENDBRANCH  37  38
ENDBRANCH  36  37
ENDBRANCH  35  36
ENDBRANCH  34  35
ENDBRANCH   1  34
TORSDOF 26
ENDMDL
