MODEL 1
REMARK VINA RESULT:      -7.6      0.000      0.000
REMARK SMILES CCOc1ccc(-c2nn(-c3ccccc3)cc2/C=C2/SC(=S)N(CC(=O)OCCOCCOCCOCCOC(=O)c3ccc(-c4c5nc(c(-c6ccc(S(=O)(=O)[O-])cc6)c6ccc([nH]6)c(-c6ccc(S(=O)(=O)[O-])cc6)c6nc(c(-c7ccc(S(=O)(=O)[O-])cc7)c7ccc4[nH]7)C=C6)C=C5)cc3)C2=O)cc1F
REMARK SMILES IDX 33 1 32 2 31 3 30 4 29 5 28 6 26 7 27 8 25 9 24 10 19 11
REMARK SMILES IDX 20 12 21 13 103 14 22 15 104 16 23 17 18 18 8 19 9 20 10 21
REMARK SMILES IDX 17 22 7 23 4 24 5 25 106 26 6 27 105 28 107 29 3 30 2 31
REMARK SMILES IDX 1 32 11 33 12 34 16 35 13 36 15 37 14 38 34 39 35 40 36 41
REMARK SMILES IDX 37 42 38 43 39 44 40 45 41 46 42 47 43 48 44 49 102 50 45 51
REMARK SMILES IDX 101 52 46 53 47 54 48 55 95 56 49 57 100 58 94 59 96 60
REMARK SMILES IDX 50 61 99 62 93 63 92 64 51 66 81 67 62 68 80 69 63 70 66 71
REMARK SMILES IDX 79 72 97 73 64 74 65 75 78 77 98 78 67 79 52 80 53 81 61 82
REMARK SMILES IDX 54 83 60 84 55 85 56 86 57 87 58 88 59 89 82 90 83 91 91 92
REMARK SMILES IDX 84 93 90 94 85 95 86 96 87 97 88 98 89 99 68 100 69 101
REMARK SMILES IDX 77 102 70 103 76 104 71 105 72 106 73 107 74 108 75 109
REMARK H PARENT 96 65 66 76
REMARK Flexibility Score: inf
ROOT
ATOM      1  C   UNL A   1      44.494  22.101  34.713  1.00  0.00     0.188 C 
ENDROOT
BRANCH   1   2
ATOM      2  C   UNL A   1      43.622  23.221  34.107  1.00  0.00     0.188 C 
BRANCH   2   3
ATOM      3  O   UNL A   1      44.035  24.580  34.120  1.00  0.00    -0.376 OA
BRANCH   3   4
ATOM      4  C   UNL A   1      44.392  25.200  32.904  1.00  0.00     0.202 C 
BRANCH   4   5
ATOM      5  C   UNL A   1      43.741  26.551  32.560  1.00  0.00     0.261 C 
BRANCH   5   6
ATOM      6  O   UNL A   1      44.242  27.151  31.344  1.00  0.00    -0.462 OA
BRANCH   6   7
ATOM      7  C   UNL A   1      43.330  27.564  30.434  1.00  0.00     0.326 C 
ATOM      8  O   UNL A   1      42.751  28.645  30.490  1.00  0.00    -0.250 OA
BRANCH   7   9
ATOM      9  C   UNL A   1      43.017  26.542  29.329  1.00  0.00     0.250 C 
BRANCH   9  10
ATOM     10  N   UNL A   1      43.269  26.792  27.897  1.00  0.00    -0.282 N 
ATOM     11  C   UNL A   1      45.588  27.068  25.045  1.00  0.00     0.033 C 
ATOM     12  C   UNL A   1      44.615  27.172  25.967  1.00  0.00     0.081 C 
ATOM     13  S   UNL A   1      43.027  27.711  25.507  1.00  0.00    -0.054 SA
ATOM     14  C   UNL A   1      44.580  26.801  27.416  1.00  0.00     0.266 C 
ATOM     15  C   UNL A   1      42.288  27.177  27.007  1.00  0.00     0.148 C 
ATOM     16  O   UNL A   1      45.573  26.538  28.077  1.00  0.00    -0.268 OA
ATOM     17  S   UNL A   1      40.638  27.186  27.240  1.00  0.00    -0.052 S 
BRANCH  11  18
ATOM     18  C   UNL A   1      46.890  26.466  25.038  1.00  0.00     0.022 A 
ATOM     19  C   UNL A   1      47.217  25.120  25.395  1.00  0.00     0.100 A 
ATOM     20  N   UNL A   1      48.492  25.041  25.799  1.00  0.00    -0.167 NA
ATOM     21  N   UNL A   1      49.044  26.219  25.461  1.00  0.00    -0.240 N 
ATOM     22  C   UNL A   1      48.117  27.071  24.882  1.00  0.00     0.123 A 
BRANCH  19  23
ATOM     23  C   UNL A   1      46.405  23.906  25.300  1.00  0.00     0.006 A 
ATOM     24  C   UNL A   1      44.462  21.899  25.142  1.00  0.00     0.154 A 
ATOM     25  C   UNL A   1      44.905  22.326  26.388  1.00  0.00     0.050 A 
ATOM     26  C   UNL A   1      44.984  22.465  23.981  1.00  0.00     0.165 A 
ATOM     27  C   UNL A   1      45.873  23.327  26.466  1.00  0.00     0.014 A 
ATOM     28  C   UNL A   1      45.969  23.444  24.051  1.00  0.00     0.053 A 
ATOM     29  F   UNL A   1      44.505  22.116  22.779  1.00  0.00    -0.203 F 
BRANCH  24  30
ATOM     30  O   UNL A   1      43.418  21.017  25.089  1.00  0.00    -0.491 OA
BRANCH  30  31
ATOM     31  C   UNL A   1      43.836  19.690  25.429  1.00  0.00     0.226 C 
ATOM     32  C   UNL A   1      42.651  18.827  25.825  1.00  0.00     0.049 C 
ENDBRANCH  30  31
ENDBRANCH  24  30
ENDBRANCH  19  23
BRANCH  21  33
ATOM     33  C   UNL A   1      50.367  26.542  25.853  1.00  0.00     0.065 A 
ATOM     34  C   UNL A   1      51.340  25.544  25.948  1.00  0.00     0.028 A 
ATOM     35  C   UNL A   1      50.723  27.893  26.002  1.00  0.00     0.028 A 
ATOM     36  C   UNL A   1      52.678  25.902  26.144  1.00  0.00     0.002 A 
ATOM     37  C   UNL A   1      52.072  28.242  26.126  1.00  0.00     0.002 A 
ATOM     38  C   UNL A   1      53.046  27.247  26.195  1.00  0.00     0.000 A 
ENDBRANCH  21  33
ENDBRANCH  11  18
ENDBRANCH   9  10
ENDBRANCH   7   9
ENDBRANCH   6   7
ENDBRANCH   5   6
ENDBRANCH   4   5
ENDBRANCH   3   4
ENDBRANCH   2   3
ENDBRANCH   1   2
BRANCH   1  39
ATOM     39  O   UNL A   1      45.721  21.782  34.116  1.00  0.00    -0.377 OA
BRANCH  39  40
ATOM     40  C   UNL A   1      46.869  21.841  34.940  1.00  0.00     0.188 C 
BRANCH  40  41
ATOM     41  C   UNL A   1      46.710  22.899  36.035  1.00  0.00     0.188 C 
BRANCH  41  42
ATOM     42  O   UNL A   1      46.788  24.223  35.534  1.00  0.00    -0.376 OA
BRANCH  42  43
ATOM     43  C   UNL A   1      47.746  25.137  36.072  1.00  0.00     0.202 C 
BRANCH  43  44
ATOM     44  C   UNL A   1      47.655  26.656  35.942  1.00  0.00     0.261 C 
BRANCH  44  45
ATOM     45  O   UNL A   1      46.931  27.317  36.948  1.00  0.00    -0.460 OA
BRANCH  45  46
ATOM     46  C   UNL A   1      45.601  27.250  36.860  1.00  0.00     0.338 C 
ATOM     47  O   UNL A   1      44.900  26.263  36.922  1.00  0.00    -0.246 OA
BRANCH  46  48
ATOM     48  C   UNL A   1      45.211  28.591  36.423  1.00  0.00     0.060 A 
ATOM     49  C   UNL A   1      44.624  29.368  37.409  1.00  0.00     0.016 A 
ATOM     50  C   UNL A   1      45.084  28.876  35.042  1.00  0.00     0.016 A 
ATOM     51  C   UNL A   1      43.707  30.297  37.004  1.00  0.00     0.010 A 
ATOM     52  C   UNL A   1      44.143  29.785  34.640  1.00  0.00     0.010 A 
ATOM     53  C   UNL A   1      43.428  30.431  35.634  1.00  0.00    -0.014 A 
BRANCH  53  54
ATOM     54  C   UNL A   1      42.487  31.457  35.292  1.00  0.00     0.031 A 
ATOM     55  C   UNL A   1      43.132  32.775  35.212  1.00  0.00     0.074 A 
ATOM     56  C   UNL A   1      41.184  31.258  35.083  1.00  0.00     0.049 A 
ATOM     57  N   UNL A   1      43.170  33.677  36.132  1.00  0.00    -0.248 NA
ATOM     58  C   UNL A   1      44.043  32.993  34.083  1.00  0.00     0.031 C 
ATOM     59  C   UNL A   1      40.458  30.026  34.795  1.00  0.00     0.029 A 
ATOM     60  N   UNL A   1      40.240  32.222  35.014  1.00  0.00    -0.354 N 
ATOM     61  C   UNL A   1      43.980  34.677  35.620  1.00  0.00     0.074 A 
ATOM     62  C   UNL A   1      44.654  34.108  34.478  1.00  0.00     0.031 C 
ATOM     63  C   UNL A   1      39.215  30.356  34.369  1.00  0.00     0.029 A 
ATOM     64  C   UNL A   1      39.036  31.797  34.499  1.00  0.00     0.049 A 
ATOM     65  H   UNL A   1      40.399  33.148  35.307  1.00  0.00     0.167 HD
ATOM     66  C   UNL A   1      43.859  35.968  36.021  1.00  0.00     0.031 A 
ATOM     67  C   UNL A   1      38.036  32.621  34.114  1.00  0.00     0.031 A 
ATOM     68  C   UNL A   1      43.081  36.085  37.229  1.00  0.00     0.049 A 
ATOM     69  C   UNL A   1      38.238  33.928  34.803  1.00  0.00     0.074 A 
ATOM     70  C   UNL A   1      43.241  35.653  38.530  1.00  0.00     0.029 A 
ATOM     71  N   UNL A   1      41.743  36.384  37.085  1.00  0.00    -0.354 N 
ATOM     72  N   UNL A   1      38.154  34.082  36.096  1.00  0.00    -0.248 NA
ATOM     73  C   UNL A   1      38.957  34.992  34.111  1.00  0.00     0.031 C 
ATOM     74  C   UNL A   1      41.931  35.316  38.982  1.00  0.00     0.029 A 
ATOM     75  C   UNL A   1      41.033  35.578  37.942  1.00  0.00     0.049 A 
ATOM     76  H   UNL A   1      41.364  37.056  36.475  1.00  0.00     0.167 HD
ATOM     77  C   UNL A   1      39.122  35.023  36.427  1.00  0.00     0.074 A 
ATOM     78  C   UNL A   1      39.497  35.631  35.155  1.00  0.00     0.031 C 
ATOM     79  C   UNL A   1      39.716  35.032  37.659  1.00  0.00     0.031 A 
BRANCH  66  80
ATOM     80  C   UNL A   1      44.105  37.124  35.088  1.00  0.00    -0.014 A 
ATOM     81  C   UNL A   1      44.356  38.397  35.630  1.00  0.00     0.010 A 
ATOM     82  C   UNL A   1      43.842  37.059  33.702  1.00  0.00     0.010 A 
ATOM     83  C   UNL A   1      44.259  39.549  34.837  1.00  0.00     0.020 A 
ATOM     84  C   UNL A   1      43.794  38.190  32.895  1.00  0.00     0.020 A 
ATOM     85  C   UNL A   1      43.956  39.435  33.479  1.00  0.00     0.054 A 
BRANCH  85  86
ATOM     86  S   UNL A   1      43.668  40.921  32.495  1.00  0.00     0.124 S 
ATOM     87  O   UNL A   1      42.786  41.687  33.369  1.00  0.00    -0.237 OA
ATOM     88  O   UNL A   1      45.018  41.451  32.329  1.00  0.00    -0.237 OA
ATOM     89  O   UNL A   1      43.050  40.409  31.273  1.00  0.00    -0.744 OA
ENDBRANCH  85  86
ENDBRANCH  66  80
BRANCH  67  90
ATOM     90  C   UNL A   1      37.184  32.435  32.920  1.00  0.00    -0.014 A 
ATOM     91  C   UNL A   1      35.793  32.608  32.987  1.00  0.00     0.010 A 
ATOM     92  C   UNL A   1      37.775  32.322  31.642  1.00  0.00     0.010 A 
ATOM     93  C   UNL A   1      35.026  32.709  31.816  1.00  0.00     0.020 A 
ATOM     94  C   UNL A   1      37.018  32.407  30.473  1.00  0.00     0.020 A 
ATOM     95  C   UNL A   1      35.647  32.622  30.565  1.00  0.00     0.054 A 
BRANCH  95  96
ATOM     96  S   UNL A   1      34.675  32.908  29.060  1.00  0.00     0.124 S 
ATOM     97  O   UNL A   1      35.658  33.509  28.165  1.00  0.00    -0.237 OA
ATOM     98  O   UNL A   1      34.236  31.561  28.707  1.00  0.00    -0.237 OA
ATOM     99  O   UNL A   1      33.610  33.807  29.504  1.00  0.00    -0.744 OA
ENDBRANCH  95  96
ENDBRANCH  67  90
BRANCH  79 100
ATOM    100  C   UNL A   1      39.096  34.179  38.746  1.00  0.00    -0.014 A 
ATOM    101  C   UNL A   1      38.519  34.726  39.911  1.00  0.00     0.010 A 
ATOM    102  C   UNL A   1      38.953  32.799  38.515  1.00  0.00     0.010 A 
ATOM    103  C   UNL A   1      37.842  33.911  40.830  1.00  0.00     0.020 A 
ATOM    104  C   UNL A   1      38.264  31.984  39.421  1.00  0.00     0.020 A 
ATOM    105  C   UNL A   1      37.718  32.543  40.577  1.00  0.00     0.054 A 
BRANCH 105 106
ATOM    106  S   UNL A   1      36.780  31.509  41.738  1.00  0.00     0.124 S 
ATOM    107  O   UNL A   1      36.735  32.340  42.939  1.00  0.00    -0.237 OA
ATOM    108  O   UNL A   1      35.503  31.324  41.052  1.00  0.00    -0.237 OA
ATOM    109  O   UNL A   1      37.589  30.297  41.856  1.00  0.00    -0.744 OA
ENDBRANCH 105 106
ENDBRANCH  79 100
ENDBRANCH  53  54
ENDBRANCH  46  48
ENDBRANCH  45  46
ENDBRANCH  44  45
ENDBRANCH  43  44
ENDBRANCH  42  43
ENDBRANCH  41  42
ENDBRANCH  40  41
ENDBRANCH  39  40
ENDBRANCH   1  39
TORSDOF 29
ENDMDL
MODEL 2
REMARK VINA RESULT:      -7.1      6.497     12.167
REMARK SMILES CCOc1ccc(-c2nn(-c3ccccc3)cc2/C=C2/SC(=S)N(CC(=O)OCCOCCOCCOCCOC(=O)c3ccc(-c4c5nc(c(-c6ccc(S(=O)(=O)[O-])cc6)c6ccc([nH]6)c(-c6ccc(S(=O)(=O)[O-])cc6)c6nc(c(-c7ccc(S(=O)(=O)[O-])cc7)c7ccc4[nH]7)C=C6)C=C5)cc3)C2=O)cc1F
REMARK SMILES IDX 33 1 32 2 31 3 30 4 29 5 28 6 26 7 27 8 25 9 24 10 19 11
REMARK SMILES IDX 20 12 21 13 103 14 22 15 104 16 23 17 18 18 8 19 9 20 10 21
REMARK SMILES IDX 17 22 7 23 4 24 5 25 106 26 6 27 105 28 107 29 3 30 2 31
REMARK SMILES IDX 1 32 11 33 12 34 16 35 13 36 15 37 14 38 34 39 35 40 36 41
REMARK SMILES IDX 37 42 38 43 39 44 40 45 41 46 42 47 43 48 44 49 102 50 45 51
REMARK SMILES IDX 101 52 46 53 47 54 48 55 95 56 49 57 100 58 94 59 96 60
REMARK SMILES IDX 50 61 99 62 93 63 92 64 51 66 81 67 62 68 80 69 63 70 66 71
REMARK SMILES IDX 79 72 97 73 64 74 65 75 78 77 98 78 67 79 52 80 53 81 61 82
REMARK SMILES IDX 54 83 60 84 55 85 56 86 57 87 58 88 59 89 82 90 83 91 91 92
REMARK SMILES IDX 84 93 90 94 85 95 86 96 87 97 88 98 89 99 68 100 69 101
REMARK SMILES IDX 77 102 70 103 76 104 71 105 72 106 73 107 74 108 75 109
REMARK H PARENT 96 65 66 76
REMARK Flexibility Score: inf
ROOT
ATOM      1  C   UNL A   1      47.544  33.133  28.126  1.00  0.00     0.188 C 
ENDROOT
BRANCH   1   2
ATOM      2  C   UNL A   1      47.023  32.784  26.716  1.00  0.00     0.188 C 
BRANCH   2   3
ATOM      3  O   UNL A   1      47.228  31.502  26.140  1.00  0.00    -0.376 OA
BRANCH   3   4
ATOM      4  C   UNL A   1      46.872  30.353  26.877  1.00  0.00     0.202 C 
BRANCH   4   5
ATOM      5  C   UNL A   1      45.402  29.901  26.854  1.00  0.00     0.261 C 
BRANCH   5   6
ATOM      6  O   UNL A   1      45.121  28.772  27.712  1.00  0.00    -0.462 OA
BRANCH   6   7
ATOM      7  C   UNL A   1      44.526  27.697  27.146  1.00  0.00     0.326 C 
ATOM      8  O   UNL A   1      45.068  26.602  27.024  1.00  0.00    -0.250 OA
BRANCH   7   9
ATOM      9  C   UNL A   1      43.112  27.957  26.602  1.00  0.00     0.250 C 
BRANCH   9  10
ATOM     10  N   UNL A   1      41.887  27.466  27.260  1.00  0.00    -0.282 N 
ATOM     11  C   UNL A   1      39.178  27.881  29.725  1.00  0.00     0.033 C 
ATOM     12  C   UNL A   1      40.154  27.472  28.897  1.00  0.00     0.081 C 
ATOM     13  S   UNL A   1      40.108  25.872  28.216  1.00  0.00    -0.054 SA
ATOM     14  C   UNL A   1      41.324  28.195  28.310  1.00  0.00     0.266 C 
ATOM     15  C   UNL A   1      41.328  26.231  27.006  1.00  0.00     0.148 C 
ATOM     16  O   UNL A   1      41.722  29.281  28.704  1.00  0.00    -0.268 OA
ATOM     17  S   UNL A   1      41.706  25.168  25.779  1.00  0.00    -0.052 S 
BRANCH  11  18
ATOM     18  C   UNL A   1      38.801  29.158  30.261  1.00  0.00     0.022 A 
ATOM     19  C   UNL A   1      38.948  29.601  31.613  1.00  0.00     0.100 A 
ATOM     20  N   UNL A   1      38.049  30.554  31.893  1.00  0.00    -0.167 NA
ATOM     21  N   UNL A   1      37.526  30.906  30.706  1.00  0.00    -0.240 N 
ATOM     22  C   UNL A   1      38.055  30.153  29.670  1.00  0.00     0.123 A 
BRANCH  19  23
ATOM     23  C   UNL A   1      39.942  29.219  32.618  1.00  0.00     0.006 A 
ATOM     24  C   UNL A   1      42.100  28.886  34.368  1.00  0.00     0.154 A 
ATOM     25  C   UNL A   1      42.141  28.295  33.110  1.00  0.00     0.050 A 
ATOM     26  C   UNL A   1      40.991  29.636  34.753  1.00  0.00     0.165 A 
ATOM     27  C   UNL A   1      41.064  28.461  32.238  1.00  0.00     0.014 A 
ATOM     28  C   UNL A   1      39.903  29.784  33.899  1.00  0.00     0.053 A 
ATOM     29  F   UNL A   1      40.978  30.275  35.931  1.00  0.00    -0.203 F 
BRANCH  24  30
ATOM     30  O   UNL A   1      43.218  28.824  35.152  1.00  0.00    -0.491 OA
BRANCH  30  31
ATOM     31  C   UNL A   1      44.408  28.726  34.361  1.00  0.00     0.226 C 
ATOM     32  C   UNL A   1      45.475  27.917  35.077  1.00  0.00     0.049 C 
ENDBRANCH  30  31
ENDBRANCH  24  30
ENDBRANCH  19  23
BRANCH  21  33
ATOM     33  C   UNL A   1      36.439  31.813  30.630  1.00  0.00     0.065 A 
ATOM     34  C   UNL A   1      36.377  32.917  31.483  1.00  0.00     0.028 A 
ATOM     35  C   UNL A   1      35.505  31.670  29.590  1.00  0.00     0.028 A 
ATOM     36  C   UNL A   1      35.409  33.902  31.267  1.00  0.00     0.002 A 
ATOM     37  C   UNL A   1      34.587  32.696  29.341  1.00  0.00     0.002 A 
ATOM     38  C   UNL A   1      34.542  33.809  30.178  1.00  0.00     0.000 A 
ENDBRANCH  21  33
ENDBRANCH  11  18
ENDBRANCH   9  10
ENDBRANCH   7   9
ENDBRANCH   6   7
ENDBRANCH   5   6
ENDBRANCH   4   5
ENDBRANCH   3   4
ENDBRANCH   2   3
ENDBRANCH   1   2
BRANCH   1  39
ATOM     39  O   UNL A   1      48.903  33.420  28.309  1.00  0.00    -0.377 OA
BRANCH  39  40
ATOM     40  C   UNL A   1      49.597  32.648  29.270  1.00  0.00     0.188 C 
BRANCH  40  41
ATOM     41  C   UNL A   1      51.057  33.093  29.386  1.00  0.00     0.188 C 
BRANCH  41  42
ATOM     42  O   UNL A   1      51.679  33.271  28.125  1.00  0.00    -0.376 OA
BRANCH  42  43
ATOM     43  C   UNL A   1      53.082  33.533  28.048  1.00  0.00     0.202 C 
BRANCH  43  44
ATOM     44  C   UNL A   1      53.721  34.534  27.088  1.00  0.00     0.261 C 
BRANCH  44  45
ATOM     45  O   UNL A   1      52.832  35.290  26.306  1.00  0.00    -0.460 OA
BRANCH  45  46
ATOM     46  C   UNL A   1      53.230  36.523  25.983  1.00  0.00     0.338 C 
ATOM     47  O   UNL A   1      54.364  36.945  25.916  1.00  0.00    -0.246 OA
BRANCH  46  48
ATOM     48  C   UNL A   1      51.989  37.301  25.978  1.00  0.00     0.060 A 
ATOM     49  C   UNL A   1      51.914  38.267  26.969  1.00  0.00     0.016 A 
ATOM     50  C   UNL A   1      50.852  36.813  25.291  1.00  0.00     0.016 A 
ATOM     51  C   UNL A   1      50.669  38.575  27.443  1.00  0.00     0.010 A 
ATOM     52  C   UNL A   1      49.609  37.099  25.787  1.00  0.00     0.010 A 
ATOM     53  C   UNL A   1      49.550  37.927  26.896  1.00  0.00    -0.014 A 
BRANCH  53  54
ATOM     54  C   UNL A   1      48.281  38.339  27.419  1.00  0.00     0.031 A 
ATOM     55  C   UNL A   1      47.687  39.413  26.611  1.00  0.00     0.074 A 
ATOM     56  C   UNL A   1      47.703  37.831  28.509  1.00  0.00     0.049 A 
ATOM     57  N   UNL A   1      47.742  40.680  26.844  1.00  0.00    -0.248 NA
ATOM     58  C   UNL A   1      47.211  39.043  25.273  1.00  0.00     0.031 C 
ATOM     59  C   UNL A   1      47.967  36.580  29.214  1.00  0.00     0.029 A 
ATOM     60  N   UNL A   1      46.649  38.363  29.165  1.00  0.00    -0.354 N 
ATOM     61  C   UNL A   1      47.138  41.272  25.748  1.00  0.00     0.074 A 
ATOM     62  C   UNL A   1      47.040  40.249  24.736  1.00  0.00     0.031 C 
ATOM     63  C   UNL A   1      46.945  36.354  30.074  1.00  0.00     0.029 A 
ATOM     64  C   UNL A   1      46.056  37.509  30.067  1.00  0.00     0.049 A 
ATOM     65  H   UNL A   1      46.332  39.282  29.011  1.00  0.00     0.167 HD
ATOM     66  C   UNL A   1      46.543  42.489  25.833  1.00  0.00     0.031 A 
ATOM     67  C   UNL A   1      44.858  37.729  30.655  1.00  0.00     0.031 A 
ATOM     68  C   UNL A   1      46.919  43.189  27.036  1.00  0.00     0.049 A 
ATOM     69  C   UNL A   1      44.581  39.193  30.578  1.00  0.00     0.074 A 
ATOM     70  C   UNL A   1      48.106  43.688  27.535  1.00  0.00     0.029 A 
ATOM     71  N   UNL A   1      46.060  43.096  28.109  1.00  0.00    -0.354 N 
ATOM     72  N   UNL A   1      45.292  40.094  31.200  1.00  0.00    -0.248 NA
ATOM     73  C   UNL A   1      43.780  39.708  29.474  1.00  0.00     0.031 C 
ATOM     74  C   UNL A   1      48.042  43.480  28.944  1.00  0.00     0.029 A 
ATOM     75  C   UNL A   1      46.812  42.883  29.239  1.00  0.00     0.049 A 
ATOM     76  H   UNL A   1      45.079  43.169  28.071  1.00  0.00     0.167 HD
ATOM     77  C   UNL A   1      45.341  41.189  30.345  1.00  0.00     0.074 A 
ATOM     78  C   UNL A   1      44.296  40.937  29.359  1.00  0.00     0.031 C 
ATOM     79  C   UNL A   1      46.396  42.060  30.362  1.00  0.00     0.031 A 
BRANCH  66  80
ATOM     80  C   UNL A   1      45.322  42.843  25.025  1.00  0.00    -0.014 A 
ATOM     81  C   UNL A   1      44.103  42.206  25.315  1.00  0.00     0.010 A 
ATOM     82  C   UNL A   1      45.388  43.583  23.824  1.00  0.00     0.010 A 
ATOM     83  C   UNL A   1      43.038  42.240  24.405  1.00  0.00     0.020 A 
ATOM     84  C   UNL A   1      44.320  43.666  22.936  1.00  0.00     0.020 A 
ATOM     85  C   UNL A   1      43.166  42.953  23.211  1.00  0.00     0.054 A 
BRANCH  85  86
ATOM     86  S   UNL A   1      41.862  42.860  21.965  1.00  0.00     0.124 S 
ATOM     87  O   UNL A   1      42.067  44.103  21.229  1.00  0.00    -0.237 OA
ATOM     88  O   UNL A   1      42.202  41.632  21.252  1.00  0.00    -0.237 OA
ATOM     89  O   UNL A   1      40.636  42.795  22.758  1.00  0.00    -0.744 OA
ENDBRANCH  85  86
ENDBRANCH  66  80
BRANCH  67  90
ATOM     90  C   UNL A   1      43.826  36.701  30.909  1.00  0.00    -0.014 A 
ATOM     91  C   UNL A   1      43.249  35.978  29.855  1.00  0.00     0.010 A 
ATOM     92  C   UNL A   1      43.580  36.258  32.228  1.00  0.00     0.010 A 
ATOM     93  C   UNL A   1      42.490  34.824  30.109  1.00  0.00     0.020 A 
ATOM     94  C   UNL A   1      42.815  35.122  32.490  1.00  0.00     0.020 A 
ATOM     95  C   UNL A   1      42.290  34.396  31.426  1.00  0.00     0.054 A 
BRANCH  95  96
ATOM     96  S   UNL A   1      41.440  32.823  31.738  1.00  0.00     0.124 S 
ATOM     97  O   UNL A   1      40.161  33.023  31.066  1.00  0.00    -0.237 OA
ATOM     98  O   UNL A   1      42.337  31.852  31.118  1.00  0.00    -0.237 OA
ATOM     99  O   UNL A   1      41.370  32.754  33.197  1.00  0.00    -0.744 OA
ENDBRANCH  95  96
ENDBRANCH  67  90
BRANCH  79 100
ATOM    100  C   UNL A   1      47.366  41.968  31.522  1.00  0.00    -0.014 A 
ATOM    101  C   UNL A   1      48.328  40.944  31.635  1.00  0.00     0.010 A 
ATOM    102  C   UNL A   1      47.411  43.031  32.443  1.00  0.00     0.010 A 
ATOM    103  C   UNL A   1      49.289  40.968  32.656  1.00  0.00     0.020 A 
ATOM    104  C   UNL A   1      48.378  43.069  33.453  1.00  0.00     0.020 A 
ATOM    105  C   UNL A   1      49.309  42.034  33.559  1.00  0.00     0.054 A 
BRANCH 105 106
ATOM    106  S   UNL A   1      50.601  42.092  34.834  1.00  0.00     0.124 S 
ATOM    107  O   UNL A   1      49.879  42.609  35.994  1.00  0.00    -0.237 OA
ATOM    108  O   UNL A   1      51.028  40.698  34.929  1.00  0.00    -0.237 OA
ATOM    109  O   UNL A   1      51.601  42.999  34.274  1.00  0.00    -0.744 OA
ENDBRANCH 105 106
ENDBRANCH  79 100
ENDBRANCH  53  54
ENDBRANCH  46  48
ENDBRANCH  45  46
ENDBRANCH  44  45
ENDBRANCH  43  44
ENDBRANCH  42  43
ENDBRANCH  41  42
ENDBRANCH  40  41
ENDBRANCH  39  40
ENDBRANCH   1  39
TORSDOF 29
ENDMDL
MODEL 3
REMARK VINA RESULT:      -7.1      6.215     12.606
REMARK SMILES CCOc1ccc(-c2nn(-c3ccccc3)cc2/C=C2/SC(=S)N(CC(=O)OCCOCCOCCOCCOC(=O)c3ccc(-c4c5nc(c(-c6ccc(S(=O)(=O)[O-])cc6)c6ccc([nH]6)c(-c6ccc(S(=O)(=O)[O-])cc6)c6nc(c(-c7ccc(S(=O)(=O)[O-])cc7)c7ccc4[nH]7)C=C6)C=C5)cc3)C2=O)cc1F
REMARK SMILES IDX 33 1 32 2 31 3 30 4 29 5 28 6 26 7 27 8 25 9 24 10 19 11
REMARK SMILES IDX 20 12 21 13 103 14 22 15 104 16 23 17 18 18 8 19 9 20 10 21
REMARK SMILES IDX 17 22 7 23 4 24 5 25 106 26 6 27 105 28 107 29 3 30 2 31
REMARK SMILES IDX 1 32 11 33 12 34 16 35 13 36 15 37 14 38 34 39 35 40 36 41
REMARK SMILES IDX 37 42 38 43 39 44 40 45 41 46 42 47 43 48 44 49 102 50 45 51
REMARK SMILES IDX 101 52 46 53 47 54 48 55 95 56 49 57 100 58 94 59 96 60
REMARK SMILES IDX 50 61 99 62 93 63 92 64 51 66 81 67 62 68 80 69 63 70 66 71
REMARK SMILES IDX 79 72 97 73 64 74 65 75 78 77 98 78 67 79 52 80 53 81 61 82
REMARK SMILES IDX 54 83 60 84 55 85 56 86 57 87 58 88 59 89 82 90 83 91 91 92
REMARK SMILES IDX 84 93 90 94 85 95 86 96 87 97 88 98 89 99 68 100 69 101
REMARK SMILES IDX 77 102 70 103 76 104 71 105 72 106 73 107 74 108 75 109
REMARK H PARENT 96 65 66 76
REMARK Flexibility Score: inf
ROOT
ATOM      1  C   UNL A   1      50.601  27.832  35.241  1.00  0.00     0.188 C 
ENDROOT
BRANCH   1   2
ATOM      2  C   UNL A   1      49.736  29.036  34.813  1.00  0.00     0.188 C 
BRANCH   2   3
ATOM      3  O   UNL A   1      48.568  29.411  35.531  1.00  0.00    -0.376 OA
BRANCH   3   4
ATOM      4  C   UNL A   1      47.332  28.828  35.183  1.00  0.00     0.202 C 
BRANCH   4   5
ATOM      5  C   UNL A   1      46.379  29.631  34.282  1.00  0.00     0.261 C 
BRANCH   5   6
ATOM      6  O   UNL A   1      46.987  30.791  33.670  1.00  0.00    -0.462 OA
BRANCH   6   7
ATOM      7  C   UNL A   1      46.228  31.905  33.562  1.00  0.00     0.326 C 
ATOM      8  O   UNL A   1      45.424  32.269  34.415  1.00  0.00    -0.250 OA
BRANCH   7   9
ATOM      9  C   UNL A   1      46.403  32.676  32.243  1.00  0.00     0.250 C 
BRANCH   9  10
ATOM     10  N   UNL A   1      47.608  33.461  31.916  1.00  0.00    -0.282 N 
ATOM     11  C   UNL A   1      50.963  33.719  30.412  1.00  0.00     0.033 C 
ATOM     12  C   UNL A   1      49.841  33.787  31.148  1.00  0.00     0.081 C 
ATOM     13  S   UNL A   1      49.473  35.228  32.049  1.00  0.00    -0.054 SA
ATOM     14  C   UNL A   1      48.694  32.838  31.296  1.00  0.00     0.266 C 
ATOM     15  C   UNL A   1      47.803  34.764  32.325  1.00  0.00     0.148 C 
ATOM     16  O   UNL A   1      48.715  31.678  30.915  1.00  0.00    -0.268 OA
ATOM     17  S   UNL A   1      46.691  35.802  33.006  1.00  0.00    -0.052 S 
BRANCH  11  18
ATOM     18  C   UNL A   1      51.440  32.809  29.410  1.00  0.00     0.022 A 
ATOM     19  C   UNL A   1      51.028  32.742  28.042  1.00  0.00     0.100 A 
ATOM     20  N   UNL A   1      51.228  31.511  27.553  1.00  0.00    -0.167 NA
ATOM     21  N   UNL A   1      51.984  30.885  28.470  1.00  0.00    -0.240 N 
ATOM     22  C   UNL A   1      52.234  31.695  29.566  1.00  0.00     0.123 A 
BRANCH  19  23
ATOM     23  C   UNL A   1      50.528  33.803  27.165  1.00  0.00     0.006 A 
ATOM     24  C   UNL A   1      49.216  35.889  25.839  1.00  0.00     0.154 A 
ATOM     25  C   UNL A   1      48.811  34.577  25.621  1.00  0.00     0.050 A 
ATOM     26  C   UNL A   1      50.268  36.160  26.711  1.00  0.00     0.165 A 
ATOM     27  C   UNL A   1      49.466  33.538  26.282  1.00  0.00     0.014 A 
ATOM     28  C   UNL A   1      50.942  35.128  27.353  1.00  0.00     0.053 A 
ATOM     29  F   UNL A   1      50.611  37.426  26.988  1.00  0.00    -0.203 F 
BRANCH  24  30
ATOM     30  O   UNL A   1      48.476  36.898  25.289  1.00  0.00    -0.491 OA
BRANCH  30  31
ATOM     31  C   UNL A   1      47.247  37.094  25.999  1.00  0.00     0.226 C 
ATOM     32  C   UNL A   1      47.345  36.562  27.418  1.00  0.00     0.049 C 
ENDBRANCH  30  31
ENDBRANCH  24  30
ENDBRANCH  19  23
BRANCH  21  33
ATOM     33  C   UNL A   1      52.290  29.507  28.344  1.00  0.00     0.065 A 
ATOM     34  C   UNL A   1      52.801  29.002  27.146  1.00  0.00     0.028 A 
ATOM     35  C   UNL A   1      52.212  28.685  29.481  1.00  0.00     0.028 A 
ATOM     36  C   UNL A   1      53.277  27.688  27.098  1.00  0.00     0.002 A 
ATOM     37  C   UNL A   1      52.757  27.397  29.441  1.00  0.00     0.002 A 
ATOM     38  C   UNL A   1      53.289  26.902  28.251  1.00  0.00     0.000 A 
ENDBRANCH  21  33
ENDBRANCH  11  18
ENDBRANCH   9  10
ENDBRANCH   7   9
ENDBRANCH   6   7
ENDBRANCH   5   6
ENDBRANCH   4   5
ENDBRANCH   3   4
ENDBRANCH   2   3
ENDBRANCH   1   2
BRANCH   1  39
ATOM     39  O   UNL A   1      51.700  28.036  36.085  1.00  0.00    -0.377 OA
BRANCH  39  40
ATOM     40  C   UNL A   1      51.801  27.197  37.220  1.00  0.00     0.188 C 
BRANCH  40  41
ATOM     41  C   UNL A   1      50.624  26.222  37.293  1.00  0.00     0.188 C 
BRANCH  41  42
ATOM     42  O   UNL A   1      51.015  24.916  37.677  1.00  0.00    -0.376 OA
BRANCH  42  43
ATOM     43  C   UNL A   1      51.637  24.046  36.728  1.00  0.00     0.202 C 
BRANCH  43  44
ATOM     44  C   UNL A   1      51.497  24.180  35.214  1.00  0.00     0.261 C 
BRANCH  44  45
ATOM     45  O   UNL A   1      50.190  24.099  34.707  1.00  0.00    -0.460 OA
BRANCH  45  46
ATOM     46  C   UNL A   1      50.047  23.476  33.535  1.00  0.00     0.338 C 
ATOM     47  O   UNL A   1      50.221  22.301  33.291  1.00  0.00    -0.246 OA
BRANCH  46  48
ATOM     48  C   UNL A   1      49.883  24.569  32.576  1.00  0.00     0.060 A 
ATOM     49  C   UNL A   1      48.613  25.123  32.550  1.00  0.00     0.016 A 
ATOM     50  C   UNL A   1      50.815  24.732  31.523  1.00  0.00     0.016 A 
ATOM     51  C   UNL A   1      48.187  25.643  31.360  1.00  0.00     0.010 A 
ATOM     52  C   UNL A   1      50.376  25.225  30.324  1.00  0.00     0.010 A 
ATOM     53  C   UNL A   1      49.049  25.612  30.251  1.00  0.00    -0.014 A 
BRANCH  53  54
ATOM     54  C   UNL A   1      48.540  26.217  29.056  1.00  0.00     0.031 A 
ATOM     55  C   UNL A   1      47.468  27.177  29.352  1.00  0.00     0.074 A 
ATOM     56  C   UNL A   1      48.966  25.944  27.821  1.00  0.00     0.049 A 
ATOM     57  N   UNL A   1      46.198  26.962  29.302  1.00  0.00    -0.248 NA
ATOM     58  C   UNL A   1      47.865  28.422  30.020  1.00  0.00     0.031 C 
ATOM     59  C   UNL A   1      50.199  25.303  27.375  1.00  0.00     0.029 A 
ATOM     60  N   UNL A   1      48.344  26.297  26.675  1.00  0.00    -0.354 N 
ATOM     61  C   UNL A   1      45.617  28.127  29.773  1.00  0.00     0.074 A 
ATOM     62  C   UNL A   1      46.675  28.884  30.397  1.00  0.00     0.031 C 
ATOM     63  C   UNL A   1      50.327  25.511  26.042  1.00  0.00     0.029 A 
ATOM     64  C   UNL A   1      49.122  26.165  25.547  1.00  0.00     0.049 A 
ATOM     65  H   UNL A   1      47.416  26.622  26.649  1.00  0.00     0.167 HD
ATOM     66  C   UNL A   1      44.365  28.499  29.406  1.00  0.00     0.031 A 
ATOM     67  C   UNL A   1      48.806  26.677  24.336  1.00  0.00     0.031 A 
ATOM     68  C   UNL A   1      43.638  27.412  28.797  1.00  0.00     0.049 A 
ATOM     69  C   UNL A   1      47.333  26.911  24.317  1.00  0.00     0.074 A 
ATOM     70  C   UNL A   1      43.189  26.182  29.235  1.00  0.00     0.029 A 
ATOM     71  N   UNL A   1      43.634  27.355  27.421  1.00  0.00    -0.354 N 
ATOM     72  N   UNL A   1      46.450  25.952  24.379  1.00  0.00    -0.248 NA
ATOM     73  C   UNL A   1      46.819  28.232  24.659  1.00  0.00     0.031 C 
ATOM     74  C   UNL A   1      43.333  25.307  28.118  1.00  0.00     0.029 A 
ATOM     75  C   UNL A   1      43.843  26.049  27.048  1.00  0.00     0.049 A 
ATOM     76  H   UNL A   1      43.504  28.117  26.812  1.00  0.00     0.167 HD
ATOM     77  C   UNL A   1      45.398  26.458  25.132  1.00  0.00     0.074 A 
ATOM     78  C   UNL A   1      45.629  27.898  25.171  1.00  0.00     0.031 C 
ATOM     79  C   UNL A   1      44.591  25.638  25.873  1.00  0.00     0.031 A 
BRANCH  66  80
ATOM     80  C   UNL A   1      43.973  29.943  29.239  1.00  0.00    -0.014 A 
ATOM     81  C   UNL A   1      44.490  30.670  28.151  1.00  0.00     0.010 A 
ATOM     82  C   UNL A   1      43.327  30.683  30.253  1.00  0.00     0.010 A 
ATOM     83  C   UNL A   1      44.437  32.070  28.130  1.00  0.00     0.020 A 
ATOM     84  C   UNL A   1      43.223  32.070  30.218  1.00  0.00     0.020 A 
ATOM     85  C   UNL A   1      43.822  32.759  29.178  1.00  0.00     0.054 A 
BRANCH  85  86
ATOM     86  S   UNL A   1      43.900  34.561  29.235  1.00  0.00     0.124 S 
ATOM     87  O   UNL A   1      43.689  34.911  27.834  1.00  0.00    -0.237 OA
ATOM     88  O   UNL A   1      42.807  34.891  30.145  1.00  0.00    -0.237 OA
ATOM     89  O   UNL A   1      45.240  34.830  29.754  1.00  0.00    -0.744 OA
ENDBRANCH  85  86
ENDBRANCH  66  80
BRANCH  67  90
ATOM     90  C   UNL A   1      49.759  27.304  23.395  1.00  0.00    -0.014 A 
ATOM     91  C   UNL A   1      49.500  27.337  22.017  1.00  0.00     0.010 A 
ATOM     92  C   UNL A   1      50.822  28.093  23.888  1.00  0.00     0.010 A 
ATOM     93  C   UNL A   1      50.250  28.166  21.167  1.00  0.00     0.020 A 
ATOM     94  C   UNL A   1      51.581  28.909  23.049  1.00  0.00     0.020 A 
ATOM     95  C   UNL A   1      51.278  28.958  21.692  1.00  0.00     0.054 A 
BRANCH  95  96
ATOM     96  S   UNL A   1      52.138  30.139  20.617  1.00  0.00     0.124 S 
ATOM     97  O   UNL A   1      53.531  29.962  21.013  1.00  0.00    -0.237 OA
ATOM     98  O   UNL A   1      51.793  29.659  19.282  1.00  0.00    -0.237 OA
ATOM     99  O   UNL A   1      51.548  31.427  20.980  1.00  0.00    -0.744 OA
ENDBRANCH  95  96
ENDBRANCH  67  90
BRANCH  79 100
ATOM    100  C   UNL A   1      44.691  24.147  25.629  1.00  0.00    -0.014 A 
ATOM    101  C   UNL A   1      43.728  23.425  24.895  1.00  0.00     0.010 A 
ATOM    102  C   UNL A   1      45.867  23.481  26.021  1.00  0.00     0.010 A 
ATOM    103  C   UNL A   1      43.923  22.072  24.584  1.00  0.00     0.020 A 
ATOM    104  C   UNL A   1      46.075  22.135  25.699  1.00  0.00     0.020 A 
ATOM    105  C   UNL A   1      45.099  21.435  24.988  1.00  0.00     0.054 A 
BRANCH 105 106
ATOM    106  S   UNL A   1      45.374  19.702  24.520  1.00  0.00     0.124 S 
ATOM    107  O   UNL A   1      44.813  18.974  25.656  1.00  0.00    -0.237 OA
ATOM    108  O   UNL A   1      44.633  19.580  23.267  1.00  0.00    -0.237 OA
ATOM    109  O   UNL A   1      46.826  19.606  24.381  1.00  0.00    -0.744 OA
ENDBRANCH 105 106
ENDBRANCH  79 100
ENDBRANCH  53  54
ENDBRANCH  46  48
ENDBRANCH  45  46
ENDBRANCH  44  45
ENDBRANCH  43  44
ENDBRANCH  42  43
ENDBRANCH  41  42
ENDBRANCH  40  41
ENDBRANCH  39  40
ENDBRANCH   1  39
TORSDOF 29
ENDMDL
