MODEL 1
REMARK VINA RESULT:      -6.3      0.000      0.000
REMARK SMILES O=C(OCCOCCOCCOCCOC(=O)c1ccc([C@H]2CCCN(C(=O)c3ccc4[nH]ccc4c3)C2)cc1)c1ccc(-c2c3nc(c(-c4ccc(S(=O)(=O)[O-])cc4)c4ccc([nH]4)c(-c4ccc(S(=O)(=O)[O-])cc4)c4nc(c(-c5ccc(S(=O)(=O)[O-])cc5)c5ccc2[nH]5)C=C4)C=C3)cc1
REMARK SMILES IDX 9 1 8 2 7 3 6 4 5 5 4 6 3 7 2 8 1 9 41 10 42 11 100 12 43 13
REMARK SMILES IDX 99 14 44 15 45 16 46 17 93 18 47 19 98 20 92 21 94 22 48 23
REMARK SMILES IDX 97 24 91 25 90 26 49 28 79 29 60 30 78 31 61 32 64 33 77 34
REMARK SMILES IDX 95 35 62 36 63 37 76 39 96 40 65 41 50 42 51 43 59 44 52 45
REMARK SMILES IDX 58 46 53 47 54 48 55 49 56 50 57 51 80 52 81 53 89 54 82 55
REMARK SMILES IDX 88 56 83 57 84 58 85 59 86 60 87 61 66 62 67 63 75 64 68 65
REMARK SMILES IDX 74 66 69 67 70 68 71 69 72 70 73 71 10 72 11 73 12 74 13 75
REMARK SMILES IDX 14 76 15 77 16 78 17 79 18 80 19 81 40 82 20 83 39 84 21 85
REMARK SMILES IDX 22 86 23 87 38 88 24 89 26 90 25 91 27 92 28 93 29 94 30 95
REMARK SMILES IDX 37 96 31 97 36 98 32 99 35 100 33 101 34 102
REMARK H PARENT 94 27 64 38 33 103
REMARK Flexibility Score: inf
ROOT
ATOM      1  O   UNL A   1      43.730  33.940  40.432  1.00  0.00    -0.377 OA
ENDROOT
BRANCH   1   2
ATOM      2  C   UNL A   1      42.307  33.915  40.534  1.00  0.00     0.188 C 
BRANCH   2   3
ATOM      3  C   UNL A   1      41.760  33.356  41.847  1.00  0.00     0.188 C 
BRANCH   3   4
ATOM      4  O   UNL A   1      41.199  34.402  42.641  1.00  0.00    -0.376 OA
BRANCH   4   5
ATOM      5  C   UNL A   1      41.092  35.670  42.000  1.00  0.00     0.202 C 
BRANCH   5   6
ATOM      6  C   UNL A   1      39.880  36.495  42.439  1.00  0.00     0.261 C 
BRANCH   6   7
ATOM      7  O   UNL A   1      39.001  36.793  41.346  1.00  0.00    -0.460 OA
BRANCH   7   8
ATOM      8  C   UNL A   1      39.351  37.126  40.077  1.00  0.00     0.338 C 
ATOM      9  O   UNL A   1      39.503  38.319  39.814  1.00  0.00    -0.246 OA
BRANCH   8  10
ATOM     10  C   UNL A   1      39.571  36.134  38.974  1.00  0.00     0.060 A 
ATOM     11  C   UNL A   1      40.445  36.299  37.897  1.00  0.00     0.016 A 
ATOM     12  C   UNL A   1      38.905  34.901  39.088  1.00  0.00     0.016 A 
ATOM     13  C   UNL A   1      40.630  35.306  36.944  1.00  0.00     0.010 A 
ATOM     14  C   UNL A   1      39.102  33.885  38.147  1.00  0.00     0.010 A 
ATOM     15  C   UNL A   1      39.960  34.095  37.062  1.00  0.00    -0.014 A 
BRANCH  15  16
ATOM     16  C   UNL A   1      40.091  33.117  35.970  1.00  0.00     0.031 A 
ATOM     17  C   UNL A   1      41.137  32.053  36.102  1.00  0.00     0.074 A 
ATOM     18  C   UNL A   1      39.217  33.132  34.946  1.00  0.00     0.049 A 
ATOM     19  N   UNL A   1      41.494  31.139  35.244  1.00  0.00    -0.248 NA
ATOM     20  C   UNL A   1      41.871  32.003  37.380  1.00  0.00     0.031 C 
ATOM     21  C   UNL A   1      38.085  34.055  34.813  1.00  0.00     0.029 A 
ATOM     22  N   UNL A   1      39.129  32.339  33.833  1.00  0.00    -0.354 N 
ATOM     23  C   UNL A   1      42.521  30.433  35.860  1.00  0.00     0.074 A 
ATOM     24  C   UNL A   1      42.721  31.009  37.168  1.00  0.00     0.031 C 
ATOM     25  C   UNL A   1      37.418  33.773  33.681  1.00  0.00     0.029 A 
ATOM     26  C   UNL A   1      38.115  32.702  32.977  1.00  0.00     0.049 A 
ATOM     27  H   UNL A   1      39.734  31.581  33.662  1.00  0.00     0.167 HD
ATOM     28  C   UNL A   1      43.241  29.407  35.355  1.00  0.00     0.031 A 
ATOM     29  C   UNL A   1      37.827  32.252  31.740  1.00  0.00     0.031 A 
ATOM     30  C   UNL A   1      43.016  28.863  34.046  1.00  0.00     0.049 A 
ATOM     31  C   UNL A   1      38.715  31.179  31.164  1.00  0.00     0.074 A 
ATOM     32  C   UNL A   1      43.702  27.850  33.403  1.00  0.00     0.029 A 
ATOM     33  N   UNL A   1      42.026  29.300  33.176  1.00  0.00    -0.354 N 
ATOM     34  N   UNL A   1      39.709  30.538  31.736  1.00  0.00    -0.248 NA
ATOM     35  C   UNL A   1      38.466  30.787  29.771  1.00  0.00     0.031 C 
ATOM     36  C   UNL A   1      43.162  27.715  32.120  1.00  0.00     0.029 A 
ATOM     37  C   UNL A   1      42.105  28.605  31.986  1.00  0.00     0.049 A 
ATOM     38  H   UNL A   1      41.366  30.002  33.378  1.00  0.00     0.167 HD
ATOM     39  C   UNL A   1      40.202  29.666  30.774  1.00  0.00     0.074 A 
ATOM     40  C   UNL A   1      39.373  29.836  29.595  1.00  0.00     0.031 C 
ATOM     41  C   UNL A   1      41.251  28.809  30.844  1.00  0.00     0.031 A 
BRANCH  28  42
ATOM     42  C   UNL A   1      44.381  28.882  36.179  1.00  0.00    -0.014 A 
ATOM     43  C   UNL A   1      44.209  27.832  37.098  1.00  0.00     0.010 A 
ATOM     44  C   UNL A   1      45.661  29.441  36.008  1.00  0.00     0.010 A 
ATOM     45  C   UNL A   1      45.297  27.362  37.841  1.00  0.00     0.020 A 
ATOM     46  C   UNL A   1      46.754  28.960  36.733  1.00  0.00     0.020 A 
ATOM     47  C   UNL A   1      46.562  27.928  37.652  1.00  0.00     0.054 A 
BRANCH  47  48
ATOM     48  S   UNL A   1      47.965  27.266  38.594  1.00  0.00     0.124 S 
ATOM     49  O   UNL A   1      47.886  28.036  39.834  1.00  0.00    -0.237 OA
ATOM     50  O   UNL A   1      47.629  25.850  38.714  1.00  0.00    -0.237 OA
ATOM     51  O   UNL A   1      49.121  27.561  37.752  1.00  0.00    -0.744 OA
ENDBRANCH  47  48
ENDBRANCH  28  42
BRANCH  29  52
ATOM     52  C   UNL A   1      36.743  32.879  30.930  1.00  0.00    -0.014 A 
ATOM     53  C   UNL A   1      37.028  33.817  29.924  1.00  0.00     0.010 A 
ATOM     54  C   UNL A   1      35.395  32.570  31.204  1.00  0.00     0.010 A 
ATOM     55  C   UNL A   1      35.990  34.460  29.235  1.00  0.00     0.020 A 
ATOM     56  C   UNL A   1      34.357  33.183  30.496  1.00  0.00     0.020 A 
ATOM     57  C   UNL A   1      34.661  34.143  29.532  1.00  0.00     0.054 A 
BRANCH  57  58
ATOM     58  S   UNL A   1      33.329  34.990  28.636  1.00  0.00     0.124 S 
ATOM     59  O   UNL A   1      34.071  35.965  27.843  1.00  0.00    -0.237 OA
ATOM     60  O   UNL A   1      32.708  33.902  27.886  1.00  0.00    -0.237 OA
ATOM     61  O   UNL A   1      32.503  35.551  29.705  1.00  0.00    -0.744 OA
ENDBRANCH  57  58
ENDBRANCH  29  52
BRANCH  41  62
ATOM     62  C   UNL A   1      41.546  27.992  29.619  1.00  0.00    -0.014 A 
ATOM     63  C   UNL A   1      42.629  28.317  28.783  1.00  0.00     0.010 A 
ATOM     64  C   UNL A   1      40.784  26.840  29.354  1.00  0.00     0.010 A 
ATOM     65  C   UNL A   1      42.934  27.509  27.688  1.00  0.00     0.020 A 
ATOM     66  C   UNL A   1      41.106  26.015  28.276  1.00  0.00     0.020 A 
ATOM     67  C   UNL A   1      42.174  26.361  27.444  1.00  0.00     0.054 A 
BRANCH  67  68
ATOM     68  S   UNL A   1      42.636  25.290  26.058  1.00  0.00     0.124 S 
ATOM     69  O   UNL A   1      44.064  25.096  26.287  1.00  0.00    -0.237 OA
ATOM     70  O   UNL A   1      41.798  24.112  26.270  1.00  0.00    -0.237 OA
ATOM     71  O   UNL A   1      42.296  26.084  24.879  1.00  0.00    -0.744 OA
ENDBRANCH  67  68
ENDBRANCH  41  62
ENDBRANCH  15  16
ENDBRANCH   8  10
ENDBRANCH   7   8
ENDBRANCH   6   7
ENDBRANCH   5   6
ENDBRANCH   4   5
ENDBRANCH   3   4
ENDBRANCH   2   3
ENDBRANCH   1   2
BRANCH   1  72
ATOM     72  C   UNL A   1      44.293  34.880  39.522  1.00  0.00     0.188 C 
BRANCH  72  73
ATOM     73  C   UNL A   1      44.639  34.432  38.084  1.00  0.00     0.188 C 
BRANCH  73  74
ATOM     74  O   UNL A   1      44.351  35.379  37.065  1.00  0.00    -0.376 OA
BRANCH  74  75
ATOM     75  C   UNL A   1      44.014  34.825  35.794  1.00  0.00     0.202 C 
BRANCH  75  76
ATOM     76  C   UNL A   1      44.688  33.477  35.511  1.00  0.00     0.261 C 
BRANCH  76  77
ATOM     77  O   UNL A   1      44.451  32.953  34.193  1.00  0.00    -0.460 OA
BRANCH  77  78
ATOM     78  C   UNL A   1      45.394  33.162  33.248  1.00  0.00     0.338 C 
ATOM     79  O   UNL A   1      45.848  34.229  32.876  1.00  0.00    -0.246 OA
BRANCH  78  80
ATOM     80  C   UNL A   1      45.960  31.843  32.891  1.00  0.00     0.060 A 
ATOM     81  C   UNL A   1      45.287  31.041  31.962  1.00  0.00     0.016 A 
ATOM     82  C   UNL A   1      47.209  31.451  33.375  1.00  0.00     0.016 A 
ATOM     83  C   UNL A   1      45.857  29.838  31.535  1.00  0.00     0.005 A 
ATOM     84  C   UNL A   1      47.768  30.244  32.955  1.00  0.00     0.005 A 
ATOM     85  C   UNL A   1      47.090  29.403  32.056  1.00  0.00    -0.043 A 
BRANCH  85  86
ATOM     86  C   UNL A   1      47.586  28.006  31.715  1.00  0.00     0.039 C 
ATOM     87  C   UNL A   1      46.750  27.282  30.641  1.00  0.00     0.012 C 
ATOM     88  C   UNL A   1      49.069  27.981  31.303  1.00  0.00     0.128 C 
ATOM     89  C   UNL A   1      47.297  25.866  30.386  1.00  0.00     0.022 C 
ATOM     90  N   UNL A   1      49.525  26.615  31.108  1.00  0.00    -0.338 N 
ATOM     91  C   UNL A   1      48.799  25.864  30.084  1.00  0.00     0.120 C 
BRANCH  90  92
ATOM     92  C   UNL A   1      50.519  26.131  31.945  1.00  0.00     0.253 C 
ATOM     93  O   UNL A   1      51.591  26.694  32.149  1.00  0.00    -0.269 OA
BRANCH  92  94
ATOM     94  C   UNL A   1      50.297  24.854  32.633  1.00  0.00     0.040 A 
ATOM     95  C   UNL A   1      49.246  24.756  33.545  1.00  0.00     0.016 A 
ATOM     96  C   UNL A   1      51.193  23.801  32.411  1.00  0.00     0.024 A 
ATOM     97  C   UNL A   1      49.035  23.568  34.247  1.00  0.00     0.027 A 
ATOM     98  C   UNL A   1      51.003  22.607  33.127  1.00  0.00     0.000 A 
ATOM     99  C   UNL A   1      49.930  22.514  34.016  1.00  0.00     0.045 A 
ATOM    100  C   UNL A   1      51.705  21.371  33.186  1.00  0.00     0.028 A 
ATOM    101  N   UNL A   1      49.975  21.254  34.569  1.00  0.00    -0.361 N 
ATOM    102  C   UNL A   1      51.050  20.560  34.083  1.00  0.00     0.083 A 
ATOM    103  H   UNL A   1      49.326  20.902  35.221  1.00  0.00     0.166 HD
ENDBRANCH  92  94
ENDBRANCH  90  92
ENDBRANCH  85  86
ENDBRANCH  78  80
ENDBRANCH  77  78
ENDBRANCH  76  77
ENDBRANCH  75  76
ENDBRANCH  74  75
ENDBRANCH  73  74
ENDBRANCH  72  73
ENDBRANCH   1  72
TORSDOF 26
ENDMDL
MODEL 2
REMARK VINA RESULT:      -6.2      4.983     12.711
REMARK SMILES O=C(OCCOCCOCCOCCOC(=O)c1ccc([C@H]2CCCN(C(=O)c3ccc4[nH]ccc4c3)C2)cc1)c1ccc(-c2c3nc(c(-c4ccc(S(=O)(=O)[O-])cc4)c4ccc([nH]4)c(-c4ccc(S(=O)(=O)[O-])cc4)c4nc(c(-c5ccc(S(=O)(=O)[O-])cc5)c5ccc2[nH]5)C=C4)C=C3)cc1
REMARK SMILES IDX 9 1 8 2 7 3 6 4 5 5 4 6 3 7 2 8 1 9 41 10 42 11 100 12 43 13
REMARK SMILES IDX 99 14 44 15 45 16 46 17 93 18 47 19 98 20 92 21 94 22 48 23
REMARK SMILES IDX 97 24 91 25 90 26 49 28 79 29 60 30 78 31 61 32 64 33 77 34
REMARK SMILES IDX 95 35 62 36 63 37 76 39 96 40 65 41 50 42 51 43 59 44 52 45
REMARK SMILES IDX 58 46 53 47 54 48 55 49 56 50 57 51 80 52 81 53 89 54 82 55
REMARK SMILES IDX 88 56 83 57 84 58 85 59 86 60 87 61 66 62 67 63 75 64 68 65
REMARK SMILES IDX 74 66 69 67 70 68 71 69 72 70 73 71 10 72 11 73 12 74 13 75
REMARK SMILES IDX 14 76 15 77 16 78 17 79 18 80 19 81 40 82 20 83 39 84 21 85
REMARK SMILES IDX 22 86 23 87 38 88 24 89 26 90 25 91 27 92 28 93 29 94 30 95
REMARK SMILES IDX 37 96 31 97 36 98 32 99 35 100 33 101 34 102
REMARK H PARENT 94 27 64 38 33 103
REMARK Flexibility Score: inf
ROOT
ATOM      1  O   UNL A   1      48.124  41.826  32.088  1.00  0.00    -0.377 OA
ENDROOT
BRANCH   1   2
ATOM      2  C   UNL A   1      47.893  42.915  31.196  1.00  0.00     0.188 C 
BRANCH   2   3
ATOM      3  C   UNL A   1      46.605  42.822  30.378  1.00  0.00     0.188 C 
BRANCH   3   4
ATOM      4  O   UNL A   1      46.890  42.934  28.983  1.00  0.00    -0.376 OA
BRANCH   4   5
ATOM      5  C   UNL A   1      45.999  43.759  28.237  1.00  0.00     0.202 C 
BRANCH   5   6
ATOM      6  C   UNL A   1      45.411  43.086  26.995  1.00  0.00     0.261 C 
BRANCH   6   7
ATOM      7  O   UNL A   1      44.352  42.176  27.320  1.00  0.00    -0.460 OA
BRANCH   7   8
ATOM      8  C   UNL A   1      44.068  40.995  26.713  1.00  0.00     0.338 C 
ATOM      9  O   UNL A   1      43.843  41.008  25.503  1.00  0.00    -0.246 OA
BRANCH   8  10
ATOM     10  C   UNL A   1      44.016  39.674  27.419  1.00  0.00     0.060 A 
ATOM     11  C   UNL A   1      44.581  38.483  26.956  1.00  0.00     0.016 A 
ATOM     12  C   UNL A   1      43.425  39.659  28.694  1.00  0.00     0.016 A 
ATOM     13  C   UNL A   1      44.534  37.311  27.698  1.00  0.00     0.010 A 
ATOM     14  C   UNL A   1      43.392  38.490  29.461  1.00  0.00     0.010 A 
ATOM     15  C   UNL A   1      43.939  37.307  28.953  1.00  0.00    -0.014 A 
BRANCH  15  16
ATOM     16  C   UNL A   1      43.804  36.020  29.655  1.00  0.00     0.031 A 
ATOM     17  C   UNL A   1      42.470  35.338  29.623  1.00  0.00     0.074 A 
ATOM     18  C   UNL A   1      44.885  35.440  30.210  1.00  0.00     0.049 A 
ATOM     19  N   UNL A   1      42.087  34.250  30.228  1.00  0.00    -0.248 NA
ATOM     20  C   UNL A   1      41.430  35.961  28.782  1.00  0.00     0.031 C 
ATOM     21  C   UNL A   1      46.249  35.977  30.166  1.00  0.00     0.029 A 
ATOM     22  N   UNL A   1      45.014  34.265  30.900  1.00  0.00    -0.354 N 
ATOM     23  C   UNL A   1      40.753  34.079  29.877  1.00  0.00     0.074 A 
ATOM     24  C   UNL A   1      40.394  35.163  28.993  1.00  0.00     0.031 C 
ATOM     25  C   UNL A   1      47.075  35.132  30.805  1.00  0.00     0.029 A 
ATOM     26  C   UNL A   1      46.290  34.035  31.361  1.00  0.00     0.049 A 
ATOM     27  H   UNL A   1      44.265  33.643  31.053  1.00  0.00     0.167 HD
ATOM     28  C   UNL A   1      39.906  33.108  30.283  1.00  0.00     0.031 A 
ATOM     29  C   UNL A   1      46.750  33.074  32.186  1.00  0.00     0.031 A 
ATOM     30  C   UNL A   1      40.297  32.047  31.166  1.00  0.00     0.049 A 
ATOM     31  C   UNL A   1      45.757  32.066  32.706  1.00  0.00     0.074 A 
ATOM     32  C   UNL A   1      39.525  31.025  31.682  1.00  0.00     0.029 A 
ATOM     33  N   UNL A   1      41.581  31.882  31.671  1.00  0.00    -0.354 N 
ATOM     34  N   UNL A   1      44.487  31.929  32.399  1.00  0.00    -0.248 NA
ATOM     35  C   UNL A   1      46.245  31.102  33.699  1.00  0.00     0.031 C 
ATOM     36  C   UNL A   1      40.329  30.275  32.547  1.00  0.00     0.029 A 
ATOM     37  C   UNL A   1      41.616  30.797  32.523  1.00  0.00     0.049 A 
ATOM     38  H   UNL A   1      42.352  32.454  31.452  1.00  0.00     0.167 HD
ATOM     39  C   UNL A   1      44.025  30.863  33.160  1.00  0.00     0.074 A 
ATOM     40  C   UNL A   1      45.162  30.369  33.914  1.00  0.00     0.031 C 
ATOM     41  C   UNL A   1      42.776  30.342  33.246  1.00  0.00     0.031 A 
BRANCH  28  42
ATOM     42  C   UNL A   1      38.471  33.206  29.849  1.00  0.00    -0.014 A 
ATOM     43  C   UNL A   1      37.519  33.926  30.591  1.00  0.00     0.010 A 
ATOM     44  C   UNL A   1      38.077  32.579  28.652  1.00  0.00     0.010 A 
ATOM     45  C   UNL A   1      36.195  34.004  30.149  1.00  0.00     0.020 A 
ATOM     46  C   UNL A   1      36.760  32.672  28.197  1.00  0.00     0.020 A 
ATOM     47  C   UNL A   1      35.824  33.378  28.954  1.00  0.00     0.054 A 
BRANCH  47  48
ATOM     48  S   UNL A   1      34.110  33.535  28.380  1.00  0.00     0.124 S 
ATOM     49  O   UNL A   1      33.415  33.919  29.607  1.00  0.00    -0.237 OA
ATOM     50  O   UNL A   1      34.209  34.579  27.363  1.00  0.00    -0.237 OA
ATOM     51  O   UNL A   1      33.788  32.203  27.874  1.00  0.00    -0.744 OA
ENDBRANCH  47  48
ENDBRANCH  28  42
BRANCH  29  52
ATOM     52  C   UNL A   1      48.164  33.083  32.660  1.00  0.00    -0.014 A 
ATOM     53  C   UNL A   1      48.545  33.781  33.819  1.00  0.00     0.010 A 
ATOM     54  C   UNL A   1      49.159  32.425  31.910  1.00  0.00     0.010 A 
ATOM     55  C   UNL A   1      49.893  33.850  34.197  1.00  0.00     0.020 A 
ATOM     56  C   UNL A   1      50.501  32.463  32.302  1.00  0.00     0.020 A 
ATOM     57  C   UNL A   1      50.862  33.196  33.431  1.00  0.00     0.054 A 
BRANCH  57  58
ATOM     58  S   UNL A   1      52.604  33.302  33.930  1.00  0.00     0.124 S 
ATOM     59  O   UNL A   1      52.905  34.708  33.677  1.00  0.00    -0.237 OA
ATOM     60  O   UNL A   1      52.558  32.907  35.336  1.00  0.00    -0.237 OA
ATOM     61  O   UNL A   1      53.271  32.349  33.044  1.00  0.00    -0.744 OA
ENDBRANCH  57  58
ENDBRANCH  29  52
BRANCH  41  62
ATOM     62  C   UNL A   1      42.585  29.179  34.176  1.00  0.00    -0.014 A 
ATOM     63  C   UNL A   1      42.071  29.371  35.470  1.00  0.00     0.010 A 
ATOM     64  C   UNL A   1      42.843  27.875  33.717  1.00  0.00     0.010 A 
ATOM     65  C   UNL A   1      41.833  28.274  36.299  1.00  0.00     0.020 A 
ATOM     66  C   UNL A   1      42.578  26.775  34.533  1.00  0.00     0.020 A 
ATOM     67  C   UNL A   1      42.083  26.984  35.823  1.00  0.00     0.054 A 
BRANCH  67  68
ATOM     68  S   UNL A   1      41.698  25.572  36.893  1.00  0.00     0.124 S 
ATOM     69  O   UNL A   1      42.922  25.445  37.678  1.00  0.00    -0.237 OA
ATOM     70  O   UNL A   1      40.524  26.037  37.626  1.00  0.00    -0.237 OA
ATOM     71  O   UNL A   1      41.445  24.483  35.951  1.00  0.00    -0.744 OA
ENDBRANCH  67  68
ENDBRANCH  41  62
ENDBRANCH  15  16
ENDBRANCH   8  10
ENDBRANCH   7   8
ENDBRANCH   6   7
ENDBRANCH   5   6
ENDBRANCH   4   5
ENDBRANCH   3   4
ENDBRANCH   2   3
ENDBRANCH   1   2
BRANCH   1  72
ATOM     72  C   UNL A   1      47.025  40.956  32.339  1.00  0.00     0.188 C 
BRANCH  72  73
ATOM     73  C   UNL A   1      46.263  41.061  33.680  1.00  0.00     0.188 C 
BRANCH  73  74
ATOM     74  O   UNL A   1      46.573  40.058  34.637  1.00  0.00    -0.376 OA
BRANCH  74  75
ATOM     75  C   UNL A   1      45.712  40.012  35.774  1.00  0.00     0.202 C 
BRANCH  75  76
ATOM     76  C   UNL A   1      45.013  38.660  35.964  1.00  0.00     0.261 C 
BRANCH  76  77
ATOM     77  O   UNL A   1      44.587  38.029  34.744  1.00  0.00    -0.460 OA
BRANCH  77  78
ATOM     78  C   UNL A   1      44.882  36.722  34.571  1.00  0.00     0.338 C 
ATOM     79  O   UNL A   1      45.980  36.225  34.398  1.00  0.00    -0.246 OA
BRANCH  78  80
ATOM     80  C   UNL A   1      43.652  35.951  34.857  1.00  0.00     0.060 A 
ATOM     81  C   UNL A   1      42.760  36.425  35.826  1.00  0.00     0.016 A 
ATOM     82  C   UNL A   1      43.318  34.835  34.089  1.00  0.00     0.016 A 
ATOM     83  C   UNL A   1      41.545  35.767  36.038  1.00  0.00     0.005 A 
ATOM     84  C   UNL A   1      42.109  34.175  34.313  1.00  0.00     0.005 A 
ATOM     85  C   UNL A   1      41.219  34.609  35.311  1.00  0.00    -0.043 A 
BRANCH  85  86
ATOM     86  C   UNL A   1      39.982  33.814  35.699  1.00  0.00     0.039 C 
ATOM     87  C   UNL A   1      39.827  33.585  37.216  1.00  0.00     0.012 C 
ATOM     88  C   UNL A   1      38.681  34.419  35.144  1.00  0.00     0.128 C 
ATOM     89  C   UNL A   1      38.574  32.742  37.516  1.00  0.00     0.022 C 
ATOM     90  N   UNL A   1      37.547  33.559  35.437  1.00  0.00    -0.338 N 
ATOM     91  C   UNL A   1      37.313  33.313  36.860  1.00  0.00     0.120 C 
BRANCH  90  92
ATOM     92  C   UNL A   1      36.861  32.994  34.373  1.00  0.00     0.253 C 
ATOM     93  O   UNL A   1      37.179  31.945  33.819  1.00  0.00    -0.269 OA
BRANCH  92  94
ATOM     94  C   UNL A   1      35.678  33.688  33.853  1.00  0.00     0.040 A 
ATOM     95  C   UNL A   1      34.545  32.940  33.531  1.00  0.00     0.016 A 
ATOM     96  C   UNL A   1      35.750  35.068  33.621  1.00  0.00     0.024 A 
ATOM     97  C   UNL A   1      33.420  33.567  32.993  1.00  0.00     0.027 A 
ATOM     98  C   UNL A   1      34.630  35.707  33.063  1.00  0.00     0.000 A 
ATOM     99  C   UNL A   1      33.494  34.948  32.772  1.00  0.00     0.045 A 
ATOM    100  C   UNL A   1      34.354  37.046  32.672  1.00  0.00     0.028 A 
ATOM    101  N   UNL A   1      32.559  35.812  32.247  1.00  0.00    -0.361 N 
ATOM    102  C   UNL A   1      33.073  37.079  32.171  1.00  0.00     0.083 A 
ATOM    103  H   UNL A   1      31.651  35.556  31.967  1.00  0.00     0.166 HD
ENDBRANCH  92  94
ENDBRANCH  90  92
ENDBRANCH  85  86
ENDBRANCH  78  80
ENDBRANCH  77  78
ENDBRANCH  76  77
ENDBRANCH  75  76
ENDBRANCH  74  75
ENDBRANCH  73  74
ENDBRANCH  72  73
ENDBRANCH   1  72
TORSDOF 26
ENDMDL
MODEL 3
REMARK VINA RESULT:      -5.9      3.285      6.613
REMARK SMILES O=C(OCCOCCOCCOCCOC(=O)c1ccc([C@H]2CCCN(C(=O)c3ccc4[nH]ccc4c3)C2)cc1)c1ccc(-c2c3nc(c(-c4ccc(S(=O)(=O)[O-])cc4)c4ccc([nH]4)c(-c4ccc(S(=O)(=O)[O-])cc4)c4nc(c(-c5ccc(S(=O)(=O)[O-])cc5)c5ccc2[nH]5)C=C4)C=C3)cc1
REMARK SMILES IDX 9 1 8 2 7 3 6 4 5 5 4 6 3 7 2 8 1 9 41 10 42 11 100 12 43 13
REMARK SMILES IDX 99 14 44 15 45 16 46 17 93 18 47 19 98 20 92 21 94 22 48 23
REMARK SMILES IDX 97 24 91 25 90 26 49 28 79 29 60 30 78 31 61 32 64 33 77 34
REMARK SMILES IDX 95 35 62 36 63 37 76 39 96 40 65 41 50 42 51 43 59 44 52 45
REMARK SMILES IDX 58 46 53 47 54 48 55 49 56 50 57 51 80 52 81 53 89 54 82 55
REMARK SMILES IDX 88 56 83 57 84 58 85 59 86 60 87 61 66 62 67 63 75 64 68 65
REMARK SMILES IDX 74 66 69 67 70 68 71 69 72 70 73 71 10 72 11 73 12 74 13 75
REMARK SMILES IDX 14 76 15 77 16 78 17 79 18 80 19 81 40 82 20 83 39 84 21 85
REMARK SMILES IDX 22 86 23 87 38 88 24 89 26 90 25 91 27 92 28 93 29 94 30 95
REMARK SMILES IDX 37 96 31 97 36 98 32 99 35 100 33 101 34 102
REMARK H PARENT 94 27 64 38 33 103
REMARK Flexibility Score: inf
ROOT
ATOM      1  O   UNL A   1      37.701  31.825  43.873  1.00  0.00    -0.377 OA
ENDROOT
BRANCH   1   2
ATOM      2  C   UNL A   1      37.306  32.976  43.128  1.00  0.00     0.188 C 
BRANCH   2   3
ATOM      3  C   UNL A   1      36.955  34.204  43.968  1.00  0.00     0.188 C 
BRANCH   3   4
ATOM      4  O   UNL A   1      37.565  35.374  43.422  1.00  0.00    -0.376 OA
BRANCH   4   5
ATOM      5  C   UNL A   1      38.920  35.225  43.007  1.00  0.00     0.202 C 
BRANCH   5   6
ATOM      6  C   UNL A   1      39.660  36.546  42.789  1.00  0.00     0.261 C 
BRANCH   6   7
ATOM      7  O   UNL A   1      40.107  36.703  41.436  1.00  0.00    -0.460 OA
BRANCH   7   8
ATOM      8  C   UNL A   1      39.353  36.648  40.309  1.00  0.00     0.338 C 
ATOM      9  O   UNL A   1      38.399  37.421  40.214  1.00  0.00    -0.246 OA
BRANCH   8  10
ATOM     10  C   UNL A   1      39.608  35.711  39.167  1.00  0.00     0.060 A 
ATOM     11  C   UNL A   1      40.398  35.991  38.049  1.00  0.00     0.016 A 
ATOM     12  C   UNL A   1      39.078  34.414  39.279  1.00  0.00     0.016 A 
ATOM     13  C   UNL A   1      40.627  35.046  37.057  1.00  0.00     0.010 A 
ATOM     14  C   UNL A   1      39.322  33.447  38.299  1.00  0.00     0.010 A 
ATOM     15  C   UNL A   1      40.090  33.770  37.175  1.00  0.00    -0.014 A 
BRANCH  15  16
ATOM     16  C   UNL A   1      40.257  32.838  36.048  1.00  0.00     0.031 A 
ATOM     17  C   UNL A   1      41.303  31.772  36.167  1.00  0.00     0.074 A 
ATOM     18  C   UNL A   1      39.412  32.892  35.001  1.00  0.00     0.049 A 
ATOM     19  N   UNL A   1      41.687  30.894  35.284  1.00  0.00    -0.248 NA
ATOM     20  C   UNL A   1      41.999  31.671  37.463  1.00  0.00     0.031 C 
ATOM     21  C   UNL A   1      38.281  33.817  34.873  1.00  0.00     0.029 A 
ATOM     22  N   UNL A   1      39.360  32.145  33.855  1.00  0.00    -0.354 N 
ATOM     23  C   UNL A   1      42.699  30.167  35.900  1.00  0.00     0.074 A 
ATOM     24  C   UNL A   1      42.858  30.690  37.236  1.00  0.00     0.031 C 
ATOM     25  C   UNL A   1      37.649  33.580  33.711  1.00  0.00     0.029 A 
ATOM     26  C   UNL A   1      38.369  32.540  32.986  1.00  0.00     0.049 A 
ATOM     27  H   UNL A   1      39.972  31.396  33.671  1.00  0.00     0.167 HD
ATOM     28  C   UNL A   1      43.437  29.164  35.374  1.00  0.00     0.031 A 
ATOM     29  C   UNL A   1      38.119  32.140  31.723  1.00  0.00     0.031 A 
ATOM     30  C   UNL A   1      43.252  28.673  34.038  1.00  0.00     0.049 A 
ATOM     31  C   UNL A   1      39.027  31.094  31.129  1.00  0.00     0.074 A 
ATOM     32  C   UNL A   1      43.959  27.689  33.376  1.00  0.00     0.029 A 
ATOM     33  N   UNL A   1      42.285  29.143  33.159  1.00  0.00    -0.354 N 
ATOM     34  N   UNL A   1      40.006  30.432  31.703  1.00  0.00    -0.248 NA
ATOM     35  C   UNL A   1      38.819  30.758  29.715  1.00  0.00     0.031 C 
ATOM     36  C   UNL A   1      43.457  27.605  32.072  1.00  0.00     0.029 A 
ATOM     37  C   UNL A   1      42.401  28.497  31.944  1.00  0.00     0.049 A 
ATOM     38  H   UNL A   1      41.617  29.834  33.370  1.00  0.00     0.167 HD
ATOM     39  C   UNL A   1      40.530  29.601  30.722  1.00  0.00     0.074 A 
ATOM     40  C   UNL A   1      39.735  29.817  29.528  1.00  0.00     0.031 C 
ATOM     41  C   UNL A   1      41.579  28.745  30.787  1.00  0.00     0.031 A 
BRANCH  28  42
ATOM     42  C   UNL A   1      44.554  28.608  36.210  1.00  0.00    -0.014 A 
ATOM     43  C   UNL A   1      44.619  27.245  36.549  1.00  0.00     0.010 A 
ATOM     44  C   UNL A   1      45.577  29.473  36.643  1.00  0.00     0.010 A 
ATOM     45  C   UNL A   1      45.681  26.762  37.320  1.00  0.00     0.020 A 
ATOM     46  C   UNL A   1      46.650  28.990  37.395  1.00  0.00     0.020 A 
ATOM     47  C   UNL A   1      46.690  27.637  37.737  1.00  0.00     0.054 A 
BRANCH  47  48
ATOM     48  S   UNL A   1      48.081  26.975  38.695  1.00  0.00     0.124 S 
ATOM     49  O   UNL A   1      48.015  25.550  38.378  1.00  0.00    -0.237 OA
ATOM     50  O   UNL A   1      49.225  27.689  38.134  1.00  0.00    -0.237 OA
ATOM     51  O   UNL A   1      47.749  27.320  40.075  1.00  0.00    -0.744 OA
ENDBRANCH  47  48
ENDBRANCH  28  42
BRANCH  29  52
ATOM     52  C   UNL A   1      37.056  32.797  30.909  1.00  0.00    -0.014 A 
ATOM     53  C   UNL A   1      37.367  33.530  29.751  1.00  0.00     0.010 A 
ATOM     54  C   UNL A   1      35.711  32.730  31.325  1.00  0.00     0.010 A 
ATOM     55  C   UNL A   1      36.364  34.213  29.050  1.00  0.00     0.020 A 
ATOM     56  C   UNL A   1      34.702  33.382  30.610  1.00  0.00     0.020 A 
ATOM     57  C   UNL A   1      35.039  34.139  29.489  1.00  0.00     0.054 A 
BRANCH  57  58
ATOM     58  S   UNL A   1      33.753  35.036  28.574  1.00  0.00     0.124 S 
ATOM     59  O   UNL A   1      33.990  34.589  27.205  1.00  0.00    -0.237 OA
ATOM     60  O   UNL A   1      32.523  34.551  29.195  1.00  0.00    -0.237 OA
ATOM     61  O   UNL A   1      34.063  36.440  28.838  1.00  0.00    -0.744 OA
ENDBRANCH  57  58
ENDBRANCH  29  52
BRANCH  41  62
ATOM     62  C   UNL A   1      41.913  27.979  29.540  1.00  0.00    -0.014 A 
ATOM     63  C   UNL A   1      43.153  28.154  28.900  1.00  0.00     0.010 A 
ATOM     64  C   UNL A   1      41.010  27.016  29.055  1.00  0.00     0.010 A 
ATOM     65  C   UNL A   1      43.477  27.385  27.782  1.00  0.00     0.020 A 
ATOM     66  C   UNL A   1      41.345  26.226  27.955  1.00  0.00     0.020 A 
ATOM     67  C   UNL A   1      42.574  26.424  27.320  1.00  0.00     0.054 A 
BRANCH  67  68
ATOM     68  S   UNL A   1      43.050  25.389  25.910  1.00  0.00     0.124 S 
ATOM     69  O   UNL A   1      43.195  24.077  26.532  1.00  0.00    -0.237 OA
ATOM     70  O   UNL A   1      41.911  25.536  25.006  1.00  0.00    -0.237 OA
ATOM     71  O   UNL A   1      44.292  25.998  25.438  1.00  0.00    -0.744 OA
ENDBRANCH  67  68
ENDBRANCH  41  62
ENDBRANCH  15  16
ENDBRANCH   8  10
ENDBRANCH   7   8
ENDBRANCH   6   7
ENDBRANCH   5   6
ENDBRANCH   4   5
ENDBRANCH   3   4
ENDBRANCH   2   3
ENDBRANCH   1   2
BRANCH   1  72
ATOM     72  C   UNL A   1      39.026  31.346  43.664  1.00  0.00     0.188 C 
BRANCH  72  73
ATOM     73  C   UNL A   1      39.527  31.104  42.221  1.00  0.00     0.188 C 
BRANCH  73  74
ATOM     74  O   UNL A   1      40.791  30.465  42.114  1.00  0.00    -0.376 OA
BRANCH  74  75
ATOM     75  C   UNL A   1      41.695  30.716  43.190  1.00  0.00     0.202 C 
BRANCH  75  76
ATOM     76  C   UNL A   1      43.103  31.113  42.732  1.00  0.00     0.261 C 
BRANCH  76  77
ATOM     77  O   UNL A   1      43.362  30.896  41.334  1.00  0.00    -0.460 OA
BRANCH  77  78
ATOM     78  C   UNL A   1      44.586  31.217  40.859  1.00  0.00     0.338 C 
ATOM     79  O   UNL A   1      45.598  30.540  40.897  1.00  0.00    -0.246 OA
BRANCH  78  80
ATOM     80  C   UNL A   1      44.441  32.458  40.068  1.00  0.00     0.060 A 
ATOM     81  C   UNL A   1      43.577  33.461  40.525  1.00  0.00     0.016 A 
ATOM     82  C   UNL A   1      45.241  32.684  38.948  1.00  0.00     0.016 A 
ATOM     83  C   UNL A   1      43.503  34.681  39.847  1.00  0.00     0.005 A 
ATOM     84  C   UNL A   1      45.154  33.900  38.267  1.00  0.00     0.005 A 
ATOM     85  C   UNL A   1      44.263  34.903  38.684  1.00  0.00    -0.043 A 
BRANCH  85  86
ATOM     86  C   UNL A   1      44.016  36.163  37.868  1.00  0.00     0.039 C 
ATOM     87  C   UNL A   1      44.828  37.388  38.334  1.00  0.00     0.012 C 
ATOM     88  C   UNL A   1      44.239  35.953  36.360  1.00  0.00     0.128 C 
ATOM     89  C   UNL A   1      44.490  38.624  37.480  1.00  0.00     0.022 C 
ATOM     90  N   UNL A   1      43.874  37.146  35.615  1.00  0.00    -0.338 N 
ATOM     91  C   UNL A   1      44.619  38.351  35.979  1.00  0.00     0.120 C 
BRANCH  90  92
ATOM     92  C   UNL A   1      42.822  37.059  34.714  1.00  0.00     0.253 C 
ATOM     93  O   UNL A   1      41.723  37.582  34.876  1.00  0.00    -0.269 OA
BRANCH  92  94
ATOM     94  C   UNL A   1      43.015  36.283  33.484  1.00  0.00     0.040 A 
ATOM     95  C   UNL A   1      43.772  36.836  32.451  1.00  0.00     0.016 A 
ATOM     96  C   UNL A   1      42.367  35.047  33.355  1.00  0.00     0.024 A 
ATOM     97  C   UNL A   1      43.937  36.141  31.252  1.00  0.00     0.027 A 
ATOM     98  C   UNL A   1      42.510  34.347  32.145  1.00  0.00     0.000 A 
ATOM     99  C   UNL A   1      43.294  34.901  31.131  1.00  0.00     0.045 A 
ATOM    100  C   UNL A   1      41.993  33.117  31.653  1.00  0.00     0.028 A 
ATOM    101  N   UNL A   1      43.268  34.017  30.076  1.00  0.00    -0.361 N 
ATOM    102  C   UNL A   1      42.475  32.942  30.376  1.00  0.00     0.083 A 
ATOM    103  H   UNL A   1      43.750  34.141  29.226  1.00  0.00     0.166 HD
ENDBRANCH  92  94
ENDBRANCH  90  92
ENDBRANCH  85  86
ENDBRANCH  78  80
ENDBRANCH  77  78
ENDBRANCH  76  77
ENDBRANCH  75  76
ENDBRANCH  74  75
ENDBRANCH  73  74
ENDBRANCH  72  73
ENDBRANCH   1  72
TORSDOF 26
ENDMDL
