MODEL 1
REMARK VINA RESULT:      -6.4      0.000      0.000
REMARK SMILES O=C(OCCOCCOCCOCCOC(=O)[C@H]1O[C@@H](Oc2c(-c3cc(O)c(O)c(O)c3)oc3cc(O)cc(O)c3c2=O)[C@H](O)[C@@H](O)[C@@H]1O)c1ccc(-c2c3nc(c(-c4ccc(S(=O)(=O)[O-])cc4)c4ccc([nH]4)c(-c4ccc(S(=O)(=O)[O-])cc4)c4nc(c(-c5ccc(S(=O)(=O)[O-])cc5)c5ccc2[nH]5)C=C4)C=C3)cc1
REMARK SMILES IDX 10 1 9 2 8 3 7 4 6 5 5 6 4 7 3 8 2 9 1 10 50 11 51 12 109 13
REMARK SMILES IDX 52 14 108 15 53 16 54 17 55 18 102 19 56 20 107 21 101 22
REMARK SMILES IDX 103 23 57 24 106 25 100 26 99 27 58 29 88 30 69 31 87 32
REMARK SMILES IDX 70 33 73 34 86 35 104 36 71 37 72 38 85 40 105 41 74 42
REMARK SMILES IDX 59 43 60 44 68 45 61 46 67 47 62 48 63 49 64 50 65 51 66 52
REMARK SMILES IDX 89 53 90 54 98 55 91 56 97 57 92 58 93 59 94 60 95 61 96 62
REMARK SMILES IDX 75 63 76 64 84 65 77 66 83 67 78 68 79 69 80 70 81 71 82 72
REMARK SMILES IDX 11 73 12 74 13 75 14 76 15 77 16 78 17 79 18 80 19 81 48 82
REMARK SMILES IDX 20 83 46 84 44 85 49 86 21 88 22 89 23 90 42 91 33 92 41 93
REMARK SMILES IDX 43 94 34 95 39 96 35 97 38 98 36 99 24 100 25 101 32 102
REMARK SMILES IDX 26 103 30 104 28 105 27 106 31 108 29 110 40 112 37 114
REMARK SMILES IDX 47 116 45 118
REMARK H PARENT 103 28 73 39 49 87 27 107 31 109 29 111 40 113 37 115 47 117
REMARK H PARENT 45 119
REMARK Flexibility Score: inf
ROOT
ATOM      1  C   UNL A   1      41.833  34.959  30.627  1.00  0.00     0.188 C 
ENDROOT
BRANCH   1   2
ATOM      2  O   UNL A   1      42.866  35.504  29.814  1.00  0.00    -0.377 OA
BRANCH   2   3
ATOM      3  C   UNL A   1      44.098  35.744  30.485  1.00  0.00     0.188 C 
BRANCH   3   4
ATOM      4  C   UNL A   1      44.009  35.806  32.012  1.00  0.00     0.188 C 
BRANCH   4   5
ATOM      5  O   UNL A   1      45.290  35.874  32.616  1.00  0.00    -0.376 OA
BRANCH   5   6
ATOM      6  C   UNL A   1      45.471  36.264  33.968  1.00  0.00     0.202 C 
BRANCH   6   7
ATOM      7  C   UNL A   1      46.874  36.613  34.415  1.00  0.00     0.261 C 
BRANCH   7   8
ATOM      8  O   UNL A   1      47.254  36.248  35.758  1.00  0.00    -0.460 OA
BRANCH   8   9
ATOM      9  C   UNL A   1      47.788  35.148  36.329  1.00  0.00     0.338 C 
ATOM     10  O   UNL A   1      48.464  35.292  37.347  1.00  0.00    -0.246 OA
BRANCH   9  11
ATOM     11  C   UNL A   1      47.561  33.763  35.849  1.00  0.00     0.060 A 
ATOM     12  C   UNL A   1      48.432  33.033  35.051  1.00  0.00     0.016 A 
ATOM     13  C   UNL A   1      46.427  33.102  36.335  1.00  0.00     0.016 A 
ATOM     14  C   UNL A   1      48.093  31.807  34.525  1.00  0.00     0.010 A 
ATOM     15  C   UNL A   1      46.124  31.807  35.909  1.00  0.00     0.010 A 
ATOM     16  C   UNL A   1      46.918  31.200  34.928  1.00  0.00    -0.014 A 
BRANCH  16  17
ATOM     17  C   UNL A   1      46.444  30.074  34.113  1.00  0.00     0.031 A 
ATOM     18  C   UNL A   1      46.211  30.348  32.656  1.00  0.00     0.074 A 
ATOM     19  C   UNL A   1      46.429  28.827  34.620  1.00  0.00     0.049 A 
ATOM     20  N   UNL A   1      45.724  29.569  31.735  1.00  0.00    -0.248 NA
ATOM     21  C   UNL A   1      46.586  31.691  32.166  1.00  0.00     0.031 C 
ATOM     22  C   UNL A   1      46.842  28.456  35.979  1.00  0.00     0.029 A 
ATOM     23  N   UNL A   1      46.111  27.635  34.035  1.00  0.00    -0.354 N 
ATOM     24  C   UNL A   1      45.660  30.348  30.586  1.00  0.00     0.074 A 
ATOM     25  C   UNL A   1      46.163  31.658  30.915  1.00  0.00     0.031 C 
ATOM     26  C   UNL A   1      46.794  27.121  36.104  1.00  0.00     0.029 A 
ATOM     27  C   UNL A   1      46.249  26.557  34.878  1.00  0.00     0.049 A 
ATOM     28  H   UNL A   1      45.812  27.554  33.100  1.00  0.00     0.167 HD
ATOM     29  C   UNL A   1      45.201  29.990  29.367  1.00  0.00     0.031 A 
ATOM     30  C   UNL A   1      45.919  25.269  34.680  1.00  0.00     0.031 A 
ATOM     31  C   UNL A   1      44.732  28.664  29.086  1.00  0.00     0.049 A 
ATOM     32  C   UNL A   1      45.314  24.915  33.349  1.00  0.00     0.074 A 
ATOM     33  C   UNL A   1      44.174  28.169  27.925  1.00  0.00     0.029 A 
ATOM     34  N   UNL A   1      44.784  27.614  29.996  1.00  0.00    -0.354 N 
ATOM     35  N   UNL A   1      45.133  25.684  32.298  1.00  0.00    -0.248 NA
ATOM     36  C   UNL A   1      44.855  23.535  33.177  1.00  0.00     0.031 C 
ATOM     37  C   UNL A   1      43.835  26.831  28.154  1.00  0.00     0.029 A 
ATOM     38  C   UNL A   1      44.251  26.474  29.430  1.00  0.00     0.049 A 
ATOM     39  H   UNL A   1      45.146  27.675  30.908  1.00  0.00     0.167 HD
ATOM     40  C   UNL A   1      44.564  24.873  31.327  1.00  0.00     0.074 A 
ATOM     41  C   UNL A   1      44.446  23.551  31.915  1.00  0.00     0.031 C 
ATOM     42  C   UNL A   1      44.170  25.181  30.065  1.00  0.00     0.031 A 
BRANCH  29  43
ATOM     43  C   UNL A   1      45.088  31.074  28.330  1.00  0.00    -0.014 A 
ATOM     44  C   UNL A   1      44.061  32.036  28.355  1.00  0.00     0.010 A 
ATOM     45  C   UNL A   1      46.012  31.090  27.268  1.00  0.00     0.010 A 
ATOM     46  C   UNL A   1      43.935  32.963  27.315  1.00  0.00     0.020 A 
ATOM     47  C   UNL A   1      45.908  32.034  26.243  1.00  0.00     0.020 A 
ATOM     48  C   UNL A   1      44.858  32.953  26.264  1.00  0.00     0.054 A 
BRANCH  48  49
ATOM     49  S   UNL A   1      44.678  34.168  24.930  1.00  0.00     0.124 S 
ATOM     50  O   UNL A   1      43.514  34.932  25.372  1.00  0.00    -0.237 OA
ATOM     51  O   UNL A   1      45.951  34.883  24.978  1.00  0.00    -0.237 OA
ATOM     52  O   UNL A   1      44.471  33.349  23.738  1.00  0.00    -0.744 OA
ENDBRANCH  48  49
ENDBRANCH  29  43
BRANCH  30  53
ATOM     53  C   UNL A   1      46.082  24.264  35.769  1.00  0.00    -0.014 A 
ATOM     54  C   UNL A   1      45.091  24.087  36.750  1.00  0.00     0.010 A 
ATOM     55  C   UNL A   1      47.244  23.470  35.833  1.00  0.00     0.010 A 
ATOM     56  C   UNL A   1      45.268  23.156  37.782  1.00  0.00     0.020 A 
ATOM     57  C   UNL A   1      47.411  22.515  36.840  1.00  0.00     0.020 A 
ATOM     58  C   UNL A   1      46.427  22.376  37.819  1.00  0.00     0.054 A 
BRANCH  58  59
ATOM     59  S   UNL A   1      46.625  21.159  39.152  1.00  0.00     0.124 S 
ATOM     60  O   UNL A   1      48.076  21.106  39.301  1.00  0.00    -0.237 OA
ATOM     61  O   UNL A   1      45.897  21.780  40.255  1.00  0.00    -0.237 OA
ATOM     62  O   UNL A   1      46.006  19.952  38.607  1.00  0.00    -0.744 OA
ENDBRANCH  58  59
ENDBRANCH  30  53
BRANCH  42  63
ATOM     63  C   UNL A   1      43.649  24.050  29.228  1.00  0.00    -0.014 A 
ATOM     64  C   UNL A   1      42.312  23.626  29.316  1.00  0.00     0.010 A 
ATOM     65  C   UNL A   1      44.511  23.444  28.297  1.00  0.00     0.010 A 
ATOM     66  C   UNL A   1      41.858  22.579  28.515  1.00  0.00     0.020 A 
ATOM     67  C   UNL A   1      44.051  22.424  27.468  1.00  0.00     0.020 A 
ATOM     68  C   UNL A   1      42.731  21.985  27.596  1.00  0.00     0.054 A 
BRANCH  68  69
ATOM     69  S   UNL A   1      42.109  20.652  26.540  1.00  0.00     0.124 S 
ATOM     70  O   UNL A   1      41.981  19.550  27.490  1.00  0.00    -0.237 OA
ATOM     71  O   UNL A   1      40.852  21.201  26.039  1.00  0.00    -0.237 OA
ATOM     72  O   UNL A   1      43.156  20.490  25.534  1.00  0.00    -0.744 OA
ENDBRANCH  68  69
ENDBRANCH  42  63
ENDBRANCH  16  17
ENDBRANCH   9  11
ENDBRANCH   8   9
ENDBRANCH   7   8
ENDBRANCH   6   7
ENDBRANCH   5   6
ENDBRANCH   4   5
ENDBRANCH   3   4
ENDBRANCH   2   3
ENDBRANCH   1   2
BRANCH   1  73
ATOM     73  C   UNL A   1      41.786  33.433  30.917  1.00  0.00     0.188 C 
BRANCH  73  74
ATOM     74  O   UNL A   1      41.824  33.114  32.301  1.00  0.00    -0.376 OA
BRANCH  74  75
ATOM     75  C   UNL A   1      43.009  32.457  32.740  1.00  0.00     0.202 C 
BRANCH  75  76
ATOM     76  C   UNL A   1      43.535  32.775  34.156  1.00  0.00     0.261 C 
BRANCH  76  77
ATOM     77  O   UNL A   1      42.741  32.254  35.233  1.00  0.00    -0.461 OA
BRANCH  77  78
ATOM     78  C   UNL A   1      41.859  33.054  35.893  1.00  0.00     0.338 C 
ATOM     79  O   UNL A   1      42.165  33.971  36.657  1.00  0.00    -0.249 OA
BRANCH  78  80
ATOM     80  C   UNL A   1      40.432  32.652  35.508  1.00  0.00     0.263 C 
ATOM     81  O   UNL A   1      40.349  31.321  35.026  1.00  0.00    -0.322 OA
ATOM     82  C   UNL A   1      39.433  32.738  36.679  1.00  0.00     0.186 C 
ATOM     83  C   UNL A   1      39.114  31.058  34.348  1.00  0.00     0.340 C 
ATOM     84  C   UNL A   1      38.026  32.680  36.072  1.00  0.00     0.181 C 
ATOM     85  C   UNL A   1      37.861  31.468  35.168  1.00  0.00     0.214 C 
BRANCH  82  86
ATOM     86  O   UNL A   1      39.489  33.894  37.510  1.00  0.00    -0.387 OA
ATOM     87  H   UNL A   1      38.643  34.367  37.464  1.00  0.00     0.211 HD
ENDBRANCH  82  86
BRANCH  83  88
ATOM     88  O   UNL A   1      38.953  29.647  34.046  1.00  0.00    -0.454 OA
BRANCH  88  89
ATOM     89  C   UNL A   1      39.419  29.311  32.783  1.00  0.00     0.214 A 
ATOM     90  C   UNL A   1      40.516  28.554  32.563  1.00  0.00     0.181 A 
ATOM     91  C   UNL A   1      38.678  29.865  31.609  1.00  0.00     0.239 A 
ATOM     92  O   UNL A   1      41.020  28.261  31.313  1.00  0.00    -0.452 OA
ATOM     93  C   UNL A   1      39.134  29.410  30.275  1.00  0.00     0.111 A 
ATOM     94  O   UNL A   1      37.743  30.641  31.771  1.00  0.00    -0.285 OA
ATOM     95  C   UNL A   1      40.284  28.620  30.215  1.00  0.00     0.146 A 
ATOM     96  C   UNL A   1      38.452  29.704  29.085  1.00  0.00     0.134 A 
ATOM     97  C   UNL A   1      40.743  28.118  28.997  1.00  0.00     0.094 A 
ATOM     98  C   UNL A   1      38.896  29.186  27.865  1.00  0.00     0.093 A 
ATOM     99  C   UNL A   1      40.033  28.386  27.836  1.00  0.00     0.123 A 
BRANCH  90 100
ATOM    100  C   UNL A   1      41.394  28.090  33.660  1.00  0.00     0.029 A 
ATOM    101  C   UNL A   1      42.252  29.022  34.280  1.00  0.00     0.062 A 
ATOM    102  C   UNL A   1      41.242  26.810  34.226  1.00  0.00     0.062 A 
ATOM    103  C   UNL A   1      42.839  28.714  35.504  1.00  0.00     0.162 A 
ATOM    104  C   UNL A   1      41.832  26.529  35.458  1.00  0.00     0.162 A 
ATOM    105  C   UNL A   1      42.599  27.488  36.109  1.00  0.00     0.200 A 
BRANCH 103 106
ATOM    106  O   UNL A   1      43.534  29.682  36.169  1.00  0.00    -0.504 OA
ATOM    107  H   UNL A   1      43.997  29.472  36.956  1.00  0.00     0.293 HD
ENDBRANCH 103 106
BRANCH 104 108
ATOM    108  O   UNL A   1      41.512  25.366  36.100  1.00  0.00    -0.504 OA
ATOM    109  H   UNL A   1      41.251  25.386  36.999  1.00  0.00     0.293 HD
ENDBRANCH 104 108
BRANCH 105 110
ATOM    110  O   UNL A   1      42.959  27.268  37.411  1.00  0.00    -0.502 OA
ATOM    111  H   UNL A   1      42.358  26.853  38.000  1.00  0.00     0.293 HD
ENDBRANCH 105 110
ENDBRANCH  90 100
BRANCH  96 112
ATOM    112  O   UNL A   1      37.318  30.465  29.093  1.00  0.00    -0.507 OA
ATOM    113  H   UNL A   1      37.015  30.863  28.300  1.00  0.00     0.293 HD
ENDBRANCH  96 112
BRANCH  99 114
ATOM    114  O   UNL A   1      40.479  27.818  26.681  1.00  0.00    -0.508 OA
ATOM    115  H   UNL A   1      40.545  28.332  25.900  1.00  0.00     0.293 HD
ENDBRANCH  99 114
ENDBRANCH  88  89
ENDBRANCH  83  88
BRANCH  84 116
ATOM    116  O   UNL A   1      37.052  32.651  37.150  1.00  0.00    -0.387 OA
ATOM    117  H   UNL A   1      37.510  32.527  37.996  1.00  0.00     0.211 HD
ENDBRANCH  84 116
BRANCH  85 118
ATOM    118  O   UNL A   1      36.698  31.623  34.342  1.00  0.00    -0.384 OA
ATOM    119  H   UNL A   1      36.971  31.741  33.419  1.00  0.00     0.211 HD
ENDBRANCH  85 118
ENDBRANCH  78  80
ENDBRANCH  77  78
ENDBRANCH  76  77
ENDBRANCH  75  76
ENDBRANCH  74  75
ENDBRANCH  73  74
ENDBRANCH   1  73
TORSDOF 34
ENDMDL
MODEL 2
REMARK VINA RESULT:      -6.3      3.844      9.468
REMARK SMILES O=C(OCCOCCOCCOCCOC(=O)[C@H]1O[C@@H](Oc2c(-c3cc(O)c(O)c(O)c3)oc3cc(O)cc(O)c3c2=O)[C@H](O)[C@@H](O)[C@@H]1O)c1ccc(-c2c3nc(c(-c4ccc(S(=O)(=O)[O-])cc4)c4ccc([nH]4)c(-c4ccc(S(=O)(=O)[O-])cc4)c4nc(c(-c5ccc(S(=O)(=O)[O-])cc5)c5ccc2[nH]5)C=C4)C=C3)cc1
REMARK SMILES IDX 10 1 9 2 8 3 7 4 6 5 5 6 4 7 3 8 2 9 1 10 50 11 51 12 109 13
REMARK SMILES IDX 52 14 108 15 53 16 54 17 55 18 102 19 56 20 107 21 101 22
REMARK SMILES IDX 103 23 57 24 106 25 100 26 99 27 58 29 88 30 69 31 87 32
REMARK SMILES IDX 70 33 73 34 86 35 104 36 71 37 72 38 85 40 105 41 74 42
REMARK SMILES IDX 59 43 60 44 68 45 61 46 67 47 62 48 63 49 64 50 65 51 66 52
REMARK SMILES IDX 89 53 90 54 98 55 91 56 97 57 92 58 93 59 94 60 95 61 96 62
REMARK SMILES IDX 75 63 76 64 84 65 77 66 83 67 78 68 79 69 80 70 81 71 82 72
REMARK SMILES IDX 11 73 12 74 13 75 14 76 15 77 16 78 17 79 18 80 19 81 48 82
REMARK SMILES IDX 20 83 46 84 44 85 49 86 21 88 22 89 23 90 42 91 33 92 41 93
REMARK SMILES IDX 43 94 34 95 39 96 35 97 38 98 36 99 24 100 25 101 32 102
REMARK SMILES IDX 26 103 30 104 28 105 27 106 31 108 29 110 40 112 37 114
REMARK SMILES IDX 47 116 45 118
REMARK H PARENT 103 28 73 39 49 87 27 107 31 109 29 111 40 113 37 115 47 117
REMARK H PARENT 45 119
REMARK Flexibility Score: inf
ROOT
ATOM      1  C   UNL A   1      35.182  33.434  31.835  1.00  0.00     0.188 C 
ENDROOT
BRANCH   1   2
ATOM      2  O   UNL A   1      35.311  34.618  32.614  1.00  0.00    -0.377 OA
BRANCH   2   3
ATOM      3  C   UNL A   1      35.972  34.449  33.862  1.00  0.00     0.188 C 
BRANCH   3   4
ATOM      4  C   UNL A   1      36.207  32.996  34.285  1.00  0.00     0.188 C 
BRANCH   4   5
ATOM      5  O   UNL A   1      37.544  32.585  34.052  1.00  0.00    -0.376 OA
BRANCH   5   6
ATOM      6  C   UNL A   1      38.460  32.349  35.108  1.00  0.00     0.202 C 
BRANCH   6   7
ATOM      7  C   UNL A   1      38.860  30.915  35.384  1.00  0.00     0.261 C 
BRANCH   7   8
ATOM      8  O   UNL A   1      40.267  30.630  35.513  1.00  0.00    -0.460 OA
BRANCH   8   9
ATOM      9  C   UNL A   1      41.006  29.503  35.588  1.00  0.00     0.338 C 
ATOM     10  O   UNL A   1      40.940  28.833  36.617  1.00  0.00    -0.246 OA
BRANCH   9  11
ATOM     11  C   UNL A   1      41.846  28.978  34.483  1.00  0.00     0.060 A 
ATOM     12  C   UNL A   1      43.012  28.241  34.637  1.00  0.00     0.016 A 
ATOM     13  C   UNL A   1      41.359  29.149  33.182  1.00  0.00     0.016 A 
ATOM     14  C   UNL A   1      43.817  27.910  33.571  1.00  0.00     0.010 A 
ATOM     15  C   UNL A   1      42.103  28.711  32.083  1.00  0.00     0.010 A 
ATOM     16  C   UNL A   1      43.379  28.173  32.286  1.00  0.00    -0.014 A 
BRANCH  16  17
ATOM     17  C   UNL A   1      44.387  28.108  31.220  1.00  0.00     0.031 A 
ATOM     18  C   UNL A   1      44.203  27.039  30.182  1.00  0.00     0.074 A 
ATOM     19  C   UNL A   1      45.295  29.092  31.083  1.00  0.00     0.049 A 
ATOM     20  N   UNL A   1      44.977  26.709  29.189  1.00  0.00    -0.248 NA
ATOM     21  C   UNL A   1      42.969  26.232  30.275  1.00  0.00     0.031 C 
ATOM     22  C   UNL A   1      45.401  30.278  31.943  1.00  0.00     0.029 A 
ATOM     23  N   UNL A   1      46.261  29.284  30.137  1.00  0.00    -0.354 N 
ATOM     24  C   UNL A   1      44.365  25.612  28.593  1.00  0.00     0.074 A 
ATOM     25  C   UNL A   1      43.155  25.332  29.325  1.00  0.00     0.031 C 
ATOM     26  C   UNL A   1      46.348  31.093  31.453  1.00  0.00     0.029 A 
ATOM     27  C   UNL A   1      46.983  30.440  30.317  1.00  0.00     0.049 A 
ATOM     28  H   UNL A   1      46.425  28.655  29.397  1.00  0.00     0.167 HD
ATOM     29  C   UNL A   1      44.799  24.897  27.533  1.00  0.00     0.031 A 
ATOM     30  C   UNL A   1      48.068  30.884  29.657  1.00  0.00     0.031 A 
ATOM     31  C   UNL A   1      46.001  25.232  26.825  1.00  0.00     0.049 A 
ATOM     32  C   UNL A   1      48.592  30.016  28.546  1.00  0.00     0.074 A 
ATOM     33  C   UNL A   1      46.606  24.566  25.779  1.00  0.00     0.029 A 
ATOM     34  N   UNL A   1      46.775  26.354  27.099  1.00  0.00    -0.354 N 
ATOM     35  N   UNL A   1      48.085  28.904  28.061  1.00  0.00    -0.248 NA
ATOM     36  C   UNL A   1      49.836  30.447  27.902  1.00  0.00     0.031 C 
ATOM     37  C   UNL A   1      47.780  25.256  25.459  1.00  0.00     0.029 A 
ATOM     38  C   UNL A   1      47.865  26.392  26.253  1.00  0.00     0.049 A 
ATOM     39  H   UNL A   1      46.576  27.022  27.793  1.00  0.00     0.167 HD
ATOM     40  C   UNL A   1      48.933  28.515  27.035  1.00  0.00     0.074 A 
ATOM     41  C   UNL A   1      49.977  29.522  26.962  1.00  0.00     0.031 C 
ATOM     42  C   UNL A   1      48.867  27.429  26.223  1.00  0.00     0.031 A 
BRANCH  29  43
ATOM     43  C   UNL A   1      44.033  23.650  27.184  1.00  0.00    -0.014 A 
ATOM     44  C   UNL A   1      43.598  23.375  25.875  1.00  0.00     0.010 A 
ATOM     45  C   UNL A   1      43.694  22.756  28.217  1.00  0.00     0.010 A 
ATOM     46  C   UNL A   1      42.801  22.255  25.615  1.00  0.00     0.020 A 
ATOM     47  C   UNL A   1      42.924  21.620  27.956  1.00  0.00     0.020 A 
ATOM     48  C   UNL A   1      42.467  21.387  26.659  1.00  0.00     0.054 A 
BRANCH  48  49
ATOM     49  S   UNL A   1      41.438  19.938  26.296  1.00  0.00     0.124 S 
ATOM     50  O   UNL A   1      40.161  20.554  25.945  1.00  0.00    -0.237 OA
ATOM     51  O   UNL A   1      42.155  19.308  25.190  1.00  0.00    -0.237 OA
ATOM     52  O   UNL A   1      41.444  19.185  27.548  1.00  0.00    -0.744 OA
ENDBRANCH  48  49
ENDBRANCH  29  43
BRANCH  30  53
ATOM     53  C   UNL A   1      48.751  32.142  30.071  1.00  0.00    -0.014 A 
ATOM     54  C   UNL A   1      48.338  33.391  29.574  1.00  0.00     0.010 A 
ATOM     55  C   UNL A   1      49.830  32.099  30.975  1.00  0.00     0.010 A 
ATOM     56  C   UNL A   1      49.005  34.563  29.952  1.00  0.00     0.020 A 
ATOM     57  C   UNL A   1      50.477  33.269  31.383  1.00  0.00     0.020 A 
ATOM     58  C   UNL A   1      50.069  34.494  30.855  1.00  0.00     0.054 A 
BRANCH  58  59
ATOM     59  S   UNL A   1      50.903  36.029  31.350  1.00  0.00     0.124 S 
ATOM     60  O   UNL A   1      51.454  36.497  30.082  1.00  0.00    -0.237 OA
ATOM     61  O   UNL A   1      49.805  36.822  31.895  1.00  0.00    -0.237 OA
ATOM     62  O   UNL A   1      51.887  35.581  32.334  1.00  0.00    -0.744 OA
ENDBRANCH  58  59
ENDBRANCH  30  53
BRANCH  42  63
ATOM     63  C   UNL A   1      49.911  27.327  25.150  1.00  0.00    -0.014 A 
ATOM     64  C   UNL A   1      49.771  27.995  23.922  1.00  0.00     0.010 A 
ATOM     65  C   UNL A   1      51.078  26.587  25.411  1.00  0.00     0.010 A 
ATOM     66  C   UNL A   1      50.767  27.888  22.952  1.00  0.00     0.020 A 
ATOM     67  C   UNL A   1      52.091  26.508  24.458  1.00  0.00     0.020 A 
ATOM     68  C   UNL A   1      51.921  27.144  23.226  1.00  0.00     0.054 A 
BRANCH  68  69
ATOM     69  S   UNL A   1      53.216  27.049  21.965  1.00  0.00     0.124 S 
ATOM     70  O   UNL A   1      54.185  26.157  22.595  1.00  0.00    -0.237 OA
ATOM     71  O   UNL A   1      52.504  26.494  20.817  1.00  0.00    -0.237 OA
ATOM     72  O   UNL A   1      53.652  28.434  21.811  1.00  0.00    -0.744 OA
ENDBRANCH  68  69
ENDBRANCH  42  63
ENDBRANCH  16  17
ENDBRANCH   9  11
ENDBRANCH   8   9
ENDBRANCH   7   8
ENDBRANCH   6   7
ENDBRANCH   5   6
ENDBRANCH   4   5
ENDBRANCH   3   4
ENDBRANCH   2   3
ENDBRANCH   1   2
BRANCH   1  73
ATOM     73  C   UNL A   1      34.547  33.493  30.417  1.00  0.00     0.188 C 
BRANCH  73  74
ATOM     74  O   UNL A   1      35.416  33.053  29.383  1.00  0.00    -0.376 OA
BRANCH  74  75
ATOM     75  C   UNL A   1      35.798  31.683  29.454  1.00  0.00     0.202 C 
BRANCH  75  76
ATOM     76  C   UNL A   1      37.255  31.314  29.098  1.00  0.00     0.261 C 
BRANCH  76  77
ATOM     77  O   UNL A   1      37.518  29.906  28.992  1.00  0.00    -0.461 OA
BRANCH  77  78
ATOM     78  C   UNL A   1      38.546  29.341  29.683  1.00  0.00     0.338 C 
ATOM     79  O   UNL A   1      38.490  28.952  30.851  1.00  0.00    -0.249 OA
BRANCH  78  80
ATOM     80  C   UNL A   1      39.769  29.238  28.767  1.00  0.00     0.263 C 
ATOM     81  O   UNL A   1      40.950  29.737  29.371  1.00  0.00    -0.322 OA
ATOM     82  C   UNL A   1      40.095  27.793  28.337  1.00  0.00     0.186 C 
ATOM     83  C   UNL A   1      41.999  29.967  28.422  1.00  0.00     0.340 C 
ATOM     84  C   UNL A   1      41.071  27.887  27.158  1.00  0.00     0.181 C 
ATOM     85  C   UNL A   1      42.277  28.747  27.502  1.00  0.00     0.214 C 
BRANCH  82  86
ATOM     86  O   UNL A   1      39.009  26.968  27.925  1.00  0.00    -0.387 OA
ATOM     87  H   UNL A   1      39.265  26.468  27.133  1.00  0.00     0.211 HD
ENDBRANCH  82  86
BRANCH  83  88
ATOM     88  O   UNL A   1      43.259  30.275  29.073  1.00  0.00    -0.454 OA
BRANCH  88  89
ATOM     89  C   UNL A   1      43.782  31.500  28.681  1.00  0.00     0.214 A 
ATOM     90  C   UNL A   1      43.333  32.689  29.139  1.00  0.00     0.181 A 
ATOM     91  C   UNL A   1      44.871  31.486  27.658  1.00  0.00     0.239 A 
ATOM     92  O   UNL A   1      43.806  33.913  28.715  1.00  0.00    -0.452 OA
ATOM     93  C   UNL A   1      45.478  32.797  27.333  1.00  0.00     0.111 A 
ATOM     94  O   UNL A   1      45.228  30.433  27.142  1.00  0.00    -0.285 OA
ATOM     95  C   UNL A   1      44.905  33.938  27.897  1.00  0.00     0.146 A 
ATOM     96  C   UNL A   1      46.613  32.940  26.520  1.00  0.00     0.134 A 
ATOM     97  C   UNL A   1      45.455  35.200  27.671  1.00  0.00     0.094 A 
ATOM     98  C   UNL A   1      47.180  34.201  26.307  1.00  0.00     0.093 A 
ATOM     99  C   UNL A   1      46.600  35.318  26.897  1.00  0.00     0.123 A 
BRANCH  90 100
ATOM    100  C   UNL A   1      42.163  32.806  30.036  1.00  0.00     0.029 A 
ATOM    101  C   UNL A   1      42.316  32.464  31.396  1.00  0.00     0.062 A 
ATOM    102  C   UNL A   1      40.978  33.439  29.613  1.00  0.00     0.062 A 
ATOM    103  C   UNL A   1      41.357  32.864  32.323  1.00  0.00     0.162 A 
ATOM    104  C   UNL A   1      40.037  33.838  30.562  1.00  0.00     0.162 A 
ATOM    105  C   UNL A   1      40.242  33.582  31.912  1.00  0.00     0.200 A 
BRANCH 103 106
ATOM    106  O   UNL A   1      41.596  32.669  33.652  1.00  0.00    -0.504 OA
ATOM    107  H   UNL A   1      41.793  33.399  34.205  1.00  0.00     0.293 HD
ENDBRANCH 103 106
BRANCH 104 108
ATOM    108  O   UNL A   1      38.995  34.632  30.173  1.00  0.00    -0.504 OA
ATOM    109  H   UNL A   1      38.949  34.944  29.291  1.00  0.00     0.293 HD
ENDBRANCH 104 108
BRANCH 105 110
ATOM    110  O   UNL A   1      39.427  34.193  32.828  1.00  0.00    -0.502 OA
ATOM    111  H   UNL A   1      38.597  34.538  32.560  1.00  0.00     0.293 HD
ENDBRANCH 105 110
ENDBRANCH  90 100
BRANCH  96 112
ATOM    112  O   UNL A   1      47.214  31.853  25.951  1.00  0.00    -0.507 OA
ATOM    113  H   UNL A   1      48.126  31.692  26.098  1.00  0.00     0.293 HD
ENDBRANCH  96 112
BRANCH  99 114
ATOM    114  O   UNL A   1      47.141  36.561  26.761  1.00  0.00    -0.508 OA
ATOM    115  H   UNL A   1      47.890  36.805  27.270  1.00  0.00     0.293 HD
ENDBRANCH  99 114
ENDBRANCH  88  89
ENDBRANCH  83  88
BRANCH  84 116
ATOM    116  O   UNL A   1      41.489  26.545  26.789  1.00  0.00    -0.387 OA
ATOM    117  H   UNL A   1      42.281  26.594  26.232  1.00  0.00     0.211 HD
ENDBRANCH  84 116
BRANCH  85 118
ATOM    118  O   UNL A   1      42.977  29.117  26.306  1.00  0.00    -0.384 OA
ATOM    119  H   UNL A   1      42.627  28.612  25.557  1.00  0.00     0.211 HD
ENDBRANCH  85 118
ENDBRANCH  78  80
ENDBRANCH  77  78
ENDBRANCH  76  77
ENDBRANCH  75  76
ENDBRANCH  74  75
ENDBRANCH  73  74
ENDBRANCH   1  73
TORSDOF 34
ENDMDL
MODEL 3
REMARK VINA RESULT:      -6.1      6.312     12.204
REMARK SMILES O=C(OCCOCCOCCOCCOC(=O)[C@H]1O[C@@H](Oc2c(-c3cc(O)c(O)c(O)c3)oc3cc(O)cc(O)c3c2=O)[C@H](O)[C@@H](O)[C@@H]1O)c1ccc(-c2c3nc(c(-c4ccc(S(=O)(=O)[O-])cc4)c4ccc([nH]4)c(-c4ccc(S(=O)(=O)[O-])cc4)c4nc(c(-c5ccc(S(=O)(=O)[O-])cc5)c5ccc2[nH]5)C=C4)C=C3)cc1
REMARK SMILES IDX 10 1 9 2 8 3 7 4 6 5 5 6 4 7 3 8 2 9 1 10 50 11 51 12 109 13
REMARK SMILES IDX 52 14 108 15 53 16 54 17 55 18 102 19 56 20 107 21 101 22
REMARK SMILES IDX 103 23 57 24 106 25 100 26 99 27 58 29 88 30 69 31 87 32
REMARK SMILES IDX 70 33 73 34 86 35 104 36 71 37 72 38 85 40 105 41 74 42
REMARK SMILES IDX 59 43 60 44 68 45 61 46 67 47 62 48 63 49 64 50 65 51 66 52
REMARK SMILES IDX 89 53 90 54 98 55 91 56 97 57 92 58 93 59 94 60 95 61 96 62
REMARK SMILES IDX 75 63 76 64 84 65 77 66 83 67 78 68 79 69 80 70 81 71 82 72
REMARK SMILES IDX 11 73 12 74 13 75 14 76 15 77 16 78 17 79 18 80 19 81 48 82
REMARK SMILES IDX 20 83 46 84 44 85 49 86 21 88 22 89 23 90 42 91 33 92 41 93
REMARK SMILES IDX 43 94 34 95 39 96 35 97 38 98 36 99 24 100 25 101 32 102
REMARK SMILES IDX 26 103 30 104 28 105 27 106 31 108 29 110 40 112 37 114
REMARK SMILES IDX 47 116 45 118
REMARK H PARENT 103 28 73 39 49 87 27 107 31 109 29 111 40 113 37 115 47 117
REMARK H PARENT 45 119
REMARK Flexibility Score: inf
ROOT
ATOM      1  C   UNL A   1      38.516  29.181  28.605  1.00  0.00     0.188 C 
ENDROOT
BRANCH   1   2
ATOM      2  O   UNL A   1      37.227  29.603  29.033  1.00  0.00    -0.377 OA
BRANCH   2   3
ATOM      3  C   UNL A   1      37.223  30.681  29.963  1.00  0.00     0.188 C 
BRANCH   3   4
ATOM      4  C   UNL A   1      36.779  30.318  31.382  1.00  0.00     0.188 C 
BRANCH   4   5
ATOM      5  O   UNL A   1      37.877  29.971  32.209  1.00  0.00    -0.376 OA
BRANCH   5   6
ATOM      6  C   UNL A   1      38.952  30.863  32.456  1.00  0.00     0.202 C 
BRANCH   6   7
ATOM      7  C   UNL A   1      38.609  32.291  32.826  1.00  0.00     0.261 C 
BRANCH   7   8
ATOM      8  O   UNL A   1      39.543  33.320  32.441  1.00  0.00    -0.460 OA
BRANCH   8   9
ATOM      9  C   UNL A   1      40.881  33.470  32.527  1.00  0.00     0.338 C 
ATOM     10  O   UNL A   1      41.326  34.253  33.365  1.00  0.00    -0.246 OA
BRANCH   9  11
ATOM     11  C   UNL A   1      41.862  32.701  31.723  1.00  0.00     0.060 A 
ATOM     12  C   UNL A   1      42.745  31.751  32.220  1.00  0.00     0.016 A 
ATOM     13  C   UNL A   1      41.815  32.870  30.334  1.00  0.00     0.016 A 
ATOM     14  C   UNL A   1      43.725  31.181  31.440  1.00  0.00     0.010 A 
ATOM     15  C   UNL A   1      42.723  32.207  29.507  1.00  0.00     0.010 A 
ATOM     16  C   UNL A   1      43.739  31.431  30.081  1.00  0.00    -0.014 A 
BRANCH  16  17
ATOM     17  C   UNL A   1      44.968  31.079  29.358  1.00  0.00     0.031 A 
ATOM     18  C   UNL A   1      44.980  29.752  28.657  1.00  0.00     0.074 A 
ATOM     19  C   UNL A   1      45.933  31.998  29.171  1.00  0.00     0.049 A 
ATOM     20  N   UNL A   1      45.949  29.162  28.020  1.00  0.00    -0.248 NA
ATOM     21  C   UNL A   1      43.719  28.983  28.672  1.00  0.00     0.031 C 
ATOM     22  C   UNL A   1      45.894  33.384  29.655  1.00  0.00     0.029 A 
ATOM     23  N   UNL A   1      47.106  31.925  28.476  1.00  0.00    -0.354 N 
ATOM     24  C   UNL A   1      45.441  27.928  27.632  1.00  0.00     0.074 A 
ATOM     25  C   UNL A   1      44.077  27.850  28.095  1.00  0.00     0.031 C 
ATOM     26  C   UNL A   1      46.973  34.039  29.199  1.00  0.00     0.029 A 
ATOM     27  C   UNL A   1      47.825  33.097  28.488  1.00  0.00     0.049 A 
ATOM     28  H   UNL A   1      47.408  31.112  28.010  1.00  0.00     0.167 HD
ATOM     29  C   UNL A   1      46.077  26.944  26.961  1.00  0.00     0.031 A 
ATOM     30  C   UNL A   1      49.058  33.350  28.015  1.00  0.00     0.031 A 
ATOM     31  C   UNL A   1      47.429  27.082  26.502  1.00  0.00     0.049 A 
ATOM     32  C   UNL A   1      49.785  32.208  27.361  1.00  0.00     0.074 A 
ATOM     33  C   UNL A   1      48.230  26.152  25.871  1.00  0.00     0.029 A 
ATOM     34  N   UNL A   1      48.174  28.249  26.624  1.00  0.00    -0.354 N 
ATOM     35  N   UNL A   1      49.350  30.994  27.106  1.00  0.00    -0.248 NA
ATOM     36  C   UNL A   1      51.168  32.456  26.945  1.00  0.00     0.031 C 
ATOM     37  C   UNL A   1      49.482  26.742  25.664  1.00  0.00     0.029 A 
ATOM     38  C   UNL A   1      49.434  28.061  26.095  1.00  0.00     0.049 A 
ATOM     39  H   UNL A   1      47.850  29.086  27.027  1.00  0.00     0.167 HD
ATOM     40  C   UNL A   1      50.397  30.339  26.474  1.00  0.00     0.074 A 
ATOM     41  C   UNL A   1      51.480  31.301  26.373  1.00  0.00     0.031 C 
ATOM     42  C   UNL A   1      50.469  29.063  26.016  1.00  0.00     0.031 A 
BRANCH  29  43
ATOM     43  C   UNL A   1      45.350  25.635  26.807  1.00  0.00    -0.014 A 
ATOM     44  C   UNL A   1      45.735  24.474  27.501  1.00  0.00     0.010 A 
ATOM     45  C   UNL A   1      44.281  25.562  25.894  1.00  0.00     0.010 A 
ATOM     46  C   UNL A   1      45.095  23.256  27.251  1.00  0.00     0.020 A 
ATOM     47  C   UNL A   1      43.619  24.353  25.664  1.00  0.00     0.020 A 
ATOM     48  C   UNL A   1      44.043  23.203  26.331  1.00  0.00     0.054 A 
BRANCH  48  49
ATOM     49  S   UNL A   1      43.224  21.614  26.029  1.00  0.00     0.124 S 
ATOM     50  O   UNL A   1      42.641  21.321  27.336  1.00  0.00    -0.237 OA
ATOM     51  O   UNL A   1      42.266  21.945  24.976  1.00  0.00    -0.237 OA
ATOM     52  O   UNL A   1      44.315  20.732  25.621  1.00  0.00    -0.744 OA
ENDBRANCH  48  49
ENDBRANCH  29  43
BRANCH  30  53
ATOM     53  C   UNL A   1      49.688  34.688  28.205  1.00  0.00    -0.014 A 
ATOM     54  C   UNL A   1      50.255  35.055  29.438  1.00  0.00     0.010 A 
ATOM     55  C   UNL A   1      49.725  35.612  27.142  1.00  0.00     0.010 A 
ATOM     56  C   UNL A   1      50.822  36.324  29.610  1.00  0.00     0.020 A 
ATOM     57  C   UNL A   1      50.321  36.867  27.298  1.00  0.00     0.020 A 
ATOM     58  C   UNL A   1      50.852  37.221  28.538  1.00  0.00     0.054 A 
BRANCH  58  59
ATOM     59  S   UNL A   1      51.614  38.851  28.777  1.00  0.00     0.124 S 
ATOM     60  O   UNL A   1      50.647  39.513  29.648  1.00  0.00    -0.237 OA
ATOM     61  O   UNL A   1      52.893  38.514  29.394  1.00  0.00    -0.237 OA
ATOM     62  O   UNL A   1      51.706  39.388  27.421  1.00  0.00    -0.744 OA
ENDBRANCH  58  59
ENDBRANCH  30  53
BRANCH  42  63
ATOM     63  C   UNL A   1      51.732  28.673  25.305  1.00  0.00    -0.014 A 
ATOM     64  C   UNL A   1      51.840  28.742  23.906  1.00  0.00     0.010 A 
ATOM     65  C   UNL A   1      52.846  28.284  26.071  1.00  0.00     0.010 A 
ATOM     66  C   UNL A   1      53.033  28.383  23.280  1.00  0.00     0.020 A 
ATOM     67  C   UNL A   1      54.050  27.961  25.451  1.00  0.00     0.020 A 
ATOM     68  C   UNL A   1      54.131  27.995  24.058  1.00  0.00     0.054 A 
BRANCH  68  69
ATOM     69  S   UNL A   1      55.681  27.568  23.224  1.00  0.00     0.124 S 
ATOM     70  O   UNL A   1      56.398  26.848  24.272  1.00  0.00    -0.237 OA
ATOM     71  O   UNL A   1      55.226  26.756  22.100  1.00  0.00    -0.237 OA
ATOM     72  O   UNL A   1      56.246  28.865  22.860  1.00  0.00    -0.744 OA
ENDBRANCH  68  69
ENDBRANCH  42  63
ENDBRANCH  16  17
ENDBRANCH   9  11
ENDBRANCH   8   9
ENDBRANCH   7   8
ENDBRANCH   6   7
ENDBRANCH   5   6
ENDBRANCH   4   5
ENDBRANCH   3   4
ENDBRANCH   2   3
ENDBRANCH   1   2
BRANCH   1  73
ATOM     73  C   UNL A   1      38.752  27.710  28.157  1.00  0.00     0.188 C 
BRANCH  73  74
ATOM     74  O   UNL A   1      39.992  27.173  28.593  1.00  0.00    -0.376 OA
BRANCH  74  75
ATOM     75  C   UNL A   1      40.358  25.931  28.000  1.00  0.00     0.202 C 
BRANCH  75  76
ATOM     76  C   UNL A   1      39.527  24.680  28.358  1.00  0.00     0.261 C 
BRANCH  76  77
ATOM     77  O   UNL A   1      39.203  23.826  27.251  1.00  0.00    -0.461 OA
BRANCH  77  78
ATOM     78  C   UNL A   1      38.083  24.050  26.509  1.00  0.00     0.338 C 
ATOM     79  O   UNL A   1      37.631  25.159  26.221  1.00  0.00    -0.249 OA
BRANCH  78  80
ATOM     80  C   UNL A   1      37.497  22.705  26.068  1.00  0.00     0.263 C 
ATOM     81  O   UNL A   1      36.598  22.831  24.979  1.00  0.00    -0.322 OA
ATOM     82  C   UNL A   1      38.564  21.688  25.618  1.00  0.00     0.186 C 
ATOM     83  C   UNL A   1      35.794  21.659  24.792  1.00  0.00     0.340 C 
ATOM     84  C   UNL A   1      37.883  20.315  25.576  1.00  0.00     0.181 C 
ATOM     85  C   UNL A   1      36.621  20.347  24.727  1.00  0.00     0.214 C 
BRANCH  82  86
ATOM     86  O   UNL A   1      39.731  21.557  26.425  1.00  0.00    -0.387 OA
ATOM     87  H   UNL A   1      40.520  21.610  25.863  1.00  0.00     0.211 HD
ENDBRANCH  82  86
BRANCH  83  88
ATOM     88  O   UNL A   1      35.034  21.717  23.557  1.00  0.00    -0.454 OA
BRANCH  88  89
ATOM     89  C   UNL A   1      33.910  22.526  23.653  1.00  0.00     0.214 A 
ATOM     90  C   UNL A   1      32.677  22.067  23.959  1.00  0.00     0.181 A 
ATOM     91  C   UNL A   1      34.084  23.980  23.351  1.00  0.00     0.239 A 
ATOM     92  O   UNL A   1      31.544  22.853  24.001  1.00  0.00    -0.452 OA
ATOM     93  C   UNL A   1      32.894  24.837  23.559  1.00  0.00     0.111 A 
ATOM     94  O   UNL A   1      35.165  24.411  22.967  1.00  0.00    -0.285 OA
ATOM     95  C   UNL A   1      31.689  24.210  23.884  1.00  0.00     0.146 A 
ATOM     96  C   UNL A   1      32.929  26.237  23.479  1.00  0.00     0.134 A 
ATOM     97  C   UNL A   1      30.541  24.959  24.139  1.00  0.00     0.094 A 
ATOM     98  C   UNL A   1      31.785  26.993  23.754  1.00  0.00     0.093 A 
ATOM     99  C   UNL A   1      30.604  26.344  24.094  1.00  0.00     0.123 A 
BRANCH  90 100
ATOM    100  C   UNL A   1      32.383  20.627  24.124  1.00  0.00     0.029 A 
ATOM    101  C   UNL A   1      32.169  19.843  22.971  1.00  0.00     0.062 A 
ATOM    102  C   UNL A   1      32.518  19.992  25.374  1.00  0.00     0.062 A 
ATOM    103  C   UNL A   1      32.217  18.455  23.059  1.00  0.00     0.162 A 
ATOM    104  C   UNL A   1      32.573  18.600  25.435  1.00  0.00     0.162 A 
ATOM    105  C   UNL A   1      32.457  17.837  24.278  1.00  0.00     0.200 A 
BRANCH 103 106
ATOM    106  O   UNL A   1      32.170  17.716  21.913  1.00  0.00    -0.504 OA
ATOM    107  H   UNL A   1      32.656  17.986  21.159  1.00  0.00     0.293 HD
ENDBRANCH 103 106
BRANCH 104 108
ATOM    108  O   UNL A   1      32.912  17.997  26.613  1.00  0.00    -0.504 OA
ATOM    109  H   UNL A   1      33.295  18.502  27.303  1.00  0.00     0.293 HD
ENDBRANCH 104 108
BRANCH 105 110
ATOM    110  O   UNL A   1      32.754  16.502  24.340  1.00  0.00    -0.502 OA
ATOM    111  H   UNL A   1      32.362  15.965  25.001  1.00  0.00     0.293 HD
ENDBRANCH 105 110
ENDBRANCH  90 100
BRANCH  96 112
ATOM    112  O   UNL A   1      34.085  26.897  23.173  1.00  0.00    -0.507 OA
ATOM    113  H   UNL A   1      34.143  27.824  23.296  1.00  0.00     0.293 HD
ENDBRANCH  96 112
BRANCH  99 114
ATOM    114  O   UNL A   1      29.475  27.035  24.418  1.00  0.00    -0.508 OA
ATOM    115  H   UNL A   1      29.145  27.010  25.296  1.00  0.00     0.293 HD
ENDBRANCH  99 114
ENDBRANCH  88  89
ENDBRANCH  83  88
BRANCH  84 116
ATOM    116  O   UNL A   1      38.826  19.341  25.053  1.00  0.00    -0.387 OA
ATOM    117  H   UNL A   1      39.319  18.942  25.786  1.00  0.00     0.211 HD
ENDBRANCH  84 116
BRANCH  85 118
ATOM    118  O   UNL A   1      35.820  19.186  24.989  1.00  0.00    -0.384 OA
ATOM    119  H   UNL A   1      35.650  19.119  25.941  1.00  0.00     0.211 HD
ENDBRANCH  85 118
ENDBRANCH  78  80
ENDBRANCH  77  78
ENDBRANCH  76  77
ENDBRANCH  75  76
ENDBRANCH  74  75
ENDBRANCH  73  74
ENDBRANCH   1  73
TORSDOF 34
ENDMDL
