MODEL 1
REMARK VINA RESULT:     -10.7      0.000      0.000
REMARK SMILES Cc1cc(C(=O)N[C@H](C(=O)OCCOCCOCCOCCOC(=O)c2ccc(-c3c4nc(c(-c5ccc(S(=O)(=O)[O-])cc5)c5ccc([nH]5)c(-c5ccc(S(=O)(=O)[O-])cc5)c5nc(c(-c6ccc(S(=O)(=O)[O-])cc6)c6ccc3[nH]6)C=C5)C=C4)cc2)c2c(C)n[nH]c2C)c2ccc(C)c(C)c2n1
REMARK SMILES IDX 18 1 17 2 16 3 15 4 14 5 13 6 12 7 11 8 9 9 10 10 8 11 7 12
REMARK SMILES IDX 5 13 6 14 4 16 1 17 2 18 3 19 101 20 100 21 93 22 98 23
REMARK SMILES IDX 94 24 96 25 99 26 95 27 97 28 86 29 87 30 91 31 88 32 89 33
REMARK SMILES IDX 90 34 92 35 19 37 20 38 21 39 22 40 23 41 24 42 25 43 26 44
REMARK SMILES IDX 27 45 85 46 28 47 84 48 29 49 30 50 31 51 78 52 32 53 83 54
REMARK SMILES IDX 77 55 79 56 33 57 82 58 76 59 75 60 34 62 64 63 45 64 63 65
REMARK SMILES IDX 46 66 49 67 62 68 80 69 47 70 48 71 61 73 81 74 50 75 35 76
REMARK SMILES IDX 36 77 44 78 37 79 43 80 38 81 39 82 40 83 41 84 42 85 65 86
REMARK SMILES IDX 66 87 74 88 67 89 73 90 68 91 69 92 70 93 71 94 72 95 51 96
REMARK SMILES IDX 52 97 60 98 53 99 59 100 54 101 55 102 56 103 57 104 58 105
REMARK H PARENT 7 15 90 36 79 61 49 72
REMARK Flexibility Score: inf
ROOT
ATOM      1  C   UNL A   1      35.716  20.367  24.940  1.00  0.00     0.188 C 
ENDROOT
BRANCH   1   2
ATOM      2  O   UNL A   1      34.973  21.066  25.919  1.00  0.00    -0.377 OA
BRANCH   2   3
ATOM      3  C   UNL A   1      33.566  20.965  25.771  1.00  0.00     0.188 C 
BRANCH   3   4
ATOM      4  C   UNL A   1      33.030  20.773  24.333  1.00  0.00     0.188 C 
BRANCH   4   5
ATOM      5  O   UNL A   1      32.579  21.985  23.748  1.00  0.00    -0.376 OA
BRANCH   5   6
ATOM      6  C   UNL A   1      33.406  22.697  22.847  1.00  0.00     0.202 C 
BRANCH   6   7
ATOM      7  C   UNL A   1      32.835  23.945  22.165  1.00  0.00     0.261 C 
BRANCH   7   8
ATOM      8  O   UNL A   1      31.700  24.555  22.786  1.00  0.00    -0.461 OA
BRANCH   8   9
ATOM      9  C   UNL A   1      31.154  25.665  22.234  1.00  0.00     0.333 C 
ATOM     10  O   UNL A   1      31.399  26.069  21.102  1.00  0.00    -0.249 OA
BRANCH   9  11
ATOM     11  C   UNL A   1      30.097  26.308  23.169  1.00  0.00     0.227 C 
BRANCH  11  12
ATOM     12  N   UNL A   1      29.844  25.619  24.446  1.00  0.00    -0.335 N 
ATOM     13  C   UNL A   1      30.549  25.472  25.623  1.00  0.00     0.252 C 
ATOM     14  O   UNL A   1      29.978  24.893  26.546  1.00  0.00    -0.269 OA
ATOM     15  H   UNL A   1      28.973  25.160  24.464  1.00  0.00     0.165 HD
BRANCH  13  16
ATOM     16  C   UNL A   1      31.943  25.978  25.801  1.00  0.00     0.051 A 
ATOM     17  C   UNL A   1      35.323  24.406  25.680  1.00  0.00     0.067 C 
ATOM     18  C   UNL A   1      34.262  25.462  25.725  1.00  0.00     0.039 A 
ATOM     19  C   UNL A   1      32.975  25.161  25.361  1.00  0.00     0.038 A 
ATOM     20  N   UNL A   1      34.585  26.654  26.240  1.00  0.00    -0.253 NA
ATOM     21  C   UNL A   1      33.624  27.560  26.494  1.00  0.00     0.074 A 
ATOM     22  C   UNL A   1      32.252  27.250  26.372  1.00  0.00     0.013 A 
ATOM     23  C   UNL A   1      34.033  28.844  26.889  1.00  0.00    -0.022 A 
ATOM     24  C   UNL A   1      31.321  28.228  26.808  1.00  0.00     0.011 A 
ATOM     25  C   UNL A   1      33.093  29.822  27.269  1.00  0.00    -0.046 A 
ATOM     26  C   UNL A   1      35.519  29.133  26.864  1.00  0.00     0.047 C 
ATOM     27  C   UNL A   1      31.738  29.488  27.252  1.00  0.00     0.004 A 
ATOM     28  C   UNL A   1      33.511  31.214  27.657  1.00  0.00     0.044 C 
ENDBRANCH  13  16
ENDBRANCH  11  12
BRANCH  11  29
ATOM     29  C   UNL A   1      30.297  27.793  23.254  1.00  0.00     0.029 A 
ATOM     30  C   UNL A   1      29.190  28.700  23.295  1.00  0.00     0.065 A 
ATOM     31  C   UNL A   1      31.410  28.624  23.255  1.00  0.00     0.038 A 
ATOM     32  C   UNL A   1      27.742  28.381  23.165  1.00  0.00     0.069 C 
ATOM     33  N   UNL A   1      29.583  29.962  23.441  1.00  0.00    -0.180 NA
ATOM     34  N   UNL A   1      30.919  29.897  23.403  1.00  0.00    -0.282 N 
ATOM     35  C   UNL A   1      32.874  28.418  23.107  1.00  0.00     0.066 C 
ATOM     36  H   UNL A   1      31.497  30.691  23.475  1.00  0.00     0.190 HD
ENDBRANCH  11  29
ENDBRANCH   9  11
ENDBRANCH   8   9
ENDBRANCH   7   8
ENDBRANCH   6   7
ENDBRANCH   5   6
ENDBRANCH   4   5
ENDBRANCH   3   4
ENDBRANCH   2   3
ENDBRANCH   1   2
BRANCH   1  37
ATOM     37  C   UNL A   1      37.233  20.654  24.994  1.00  0.00     0.188 C 
BRANCH  37  38
ATOM     38  O   UNL A   1      37.748  21.981  25.003  1.00  0.00    -0.376 OA
BRANCH  38  39
ATOM     39  C   UNL A   1      38.486  22.491  26.101  1.00  0.00     0.202 C 
BRANCH  39  40
ATOM     40  C   UNL A   1      38.868  23.972  26.243  1.00  0.00     0.261 C 
BRANCH  40  41
ATOM     41  O   UNL A   1      40.166  24.256  26.766  1.00  0.00    -0.460 OA
BRANCH  41  42
ATOM     42  C   UNL A   1      40.681  25.455  26.420  1.00  0.00     0.338 C 
ATOM     43  O   UNL A   1      40.891  25.878  25.295  1.00  0.00    -0.246 OA
BRANCH  42  44
ATOM     44  C   UNL A   1      40.785  26.272  27.639  1.00  0.00     0.060 A 
ATOM     45  C   UNL A   1      39.874  26.043  28.680  1.00  0.00     0.016 A 
ATOM     46  C   UNL A   1      41.776  27.249  27.757  1.00  0.00     0.016 A 
ATOM     47  C   UNL A   1      39.953  26.786  29.850  1.00  0.00     0.010 A 
ATOM     48  C   UNL A   1      41.808  28.045  28.901  1.00  0.00     0.010 A 
ATOM     49  C   UNL A   1      40.876  27.834  29.931  1.00  0.00    -0.014 A 
BRANCH  49  50
ATOM     50  C   UNL A   1      40.656  28.875  30.952  1.00  0.00     0.031 A 
ATOM     51  C   UNL A   1      41.554  28.853  32.157  1.00  0.00     0.074 A 
ATOM     52  C   UNL A   1      39.724  29.828  30.795  1.00  0.00     0.049 A 
ATOM     53  N   UNL A   1      41.555  29.640  33.197  1.00  0.00    -0.248 NA
ATOM     54  C   UNL A   1      42.597  27.809  32.188  1.00  0.00     0.031 C 
ATOM     55  C   UNL A   1      38.859  29.988  29.628  1.00  0.00     0.029 A 
ATOM     56  N   UNL A   1      39.359  30.849  31.633  1.00  0.00    -0.354 N 
ATOM     57  C   UNL A   1      42.595  29.191  34.000  1.00  0.00     0.074 A 
ATOM     58  C   UNL A   1      43.199  28.059  33.340  1.00  0.00     0.031 C 
ATOM     59  C   UNL A   1      38.051  31.045  29.830  1.00  0.00     0.029 A 
ATOM     60  C   UNL A   1      38.325  31.612  31.151  1.00  0.00     0.049 A 
ATOM     61  H   UNL A   1      39.797  31.020  32.498  1.00  0.00     0.167 HD
ATOM     62  C   UNL A   1      43.008  29.681  35.189  1.00  0.00     0.031 A 
ATOM     63  C   UNL A   1      37.666  32.639  31.723  1.00  0.00     0.031 A 
ATOM     64  C   UNL A   1      42.382  30.785  35.856  1.00  0.00     0.049 A 
ATOM     65  C   UNL A   1      38.074  33.099  33.097  1.00  0.00     0.074 A 
ATOM     66  C   UNL A   1      42.716  31.350  37.072  1.00  0.00     0.029 A 
ATOM     67  N   UNL A   1      41.290  31.485  35.368  1.00  0.00    -0.354 N 
ATOM     68  N   UNL A   1      39.051  32.659  33.855  1.00  0.00    -0.248 NA
ATOM     69  C   UNL A   1      37.293  34.192  33.696  1.00  0.00     0.031 C 
ATOM     70  C   UNL A   1      41.790  32.358  37.347  1.00  0.00     0.029 A 
ATOM     71  C   UNL A   1      40.919  32.460  36.273  1.00  0.00     0.049 A 
ATOM     72  H   UNL A   1      40.845  31.311  34.508  1.00  0.00     0.167 HD
ATOM     73  C   UNL A   1      39.017  33.436  35.008  1.00  0.00     0.074 A 
ATOM     74  C   UNL A   1      37.924  34.373  34.850  1.00  0.00     0.031 C 
ATOM     75  C   UNL A   1      39.826  33.382  36.095  1.00  0.00     0.031 A 
BRANCH  62  76
ATOM     76  C   UNL A   1      44.163  29.001  35.863  1.00  0.00    -0.014 A 
ATOM     77  C   UNL A   1      43.968  27.847  36.641  1.00  0.00     0.010 A 
ATOM     78  C   UNL A   1      45.467  29.486  35.659  1.00  0.00     0.010 A 
ATOM     79  C   UNL A   1      45.062  27.188  37.206  1.00  0.00     0.020 A 
ATOM     80  C   UNL A   1      46.564  28.818  36.203  1.00  0.00     0.020 A 
ATOM     81  C   UNL A   1      46.355  27.671  36.972  1.00  0.00     0.054 A 
BRANCH  81  82
ATOM     82  S   UNL A   1      47.757  26.761  37.674  1.00  0.00     0.124 S 
ATOM     83  O   UNL A   1      48.001  27.487  38.919  1.00  0.00    -0.237 OA
ATOM     84  O   UNL A   1      47.211  25.417  37.828  1.00  0.00    -0.237 OA
ATOM     85  O   UNL A   1      48.802  26.899  36.664  1.00  0.00    -0.744 OA
ENDBRANCH  81  82
ENDBRANCH  62  76
BRANCH  63  86
ATOM     86  C   UNL A   1      36.546  33.287  30.993  1.00  0.00    -0.014 A 
ATOM     87  C   UNL A   1      35.254  33.314  31.545  1.00  0.00     0.010 A 
ATOM     88  C   UNL A   1      36.778  33.922  29.758  1.00  0.00     0.010 A 
ATOM     89  C   UNL A   1      34.216  33.975  30.882  1.00  0.00     0.020 A 
ATOM     90  C   UNL A   1      35.747  34.600  29.102  1.00  0.00     0.020 A 
ATOM     91  C   UNL A   1      34.473  34.627  29.671  1.00  0.00     0.054 A 
BRANCH  91  92
ATOM     92  S   UNL A   1      33.122  35.535  28.870  1.00  0.00     0.124 S 
ATOM     93  O   UNL A   1      33.843  36.513  28.061  1.00  0.00    -0.237 OA
ATOM     94  O   UNL A   1      32.442  34.477  28.129  1.00  0.00    -0.237 OA
ATOM     95  O   UNL A   1      32.368  36.089  29.992  1.00  0.00    -0.744 OA
ENDBRANCH  91  92
ENDBRANCH  63  86
BRANCH  75  96
ATOM     96  C   UNL A   1      39.595  34.374  37.201  1.00  0.00    -0.014 A 
ATOM     97  C   UNL A   1      38.929  34.001  38.380  1.00  0.00     0.010 A 
ATOM     98  C   UNL A   1      40.175  35.654  37.110  1.00  0.00     0.010 A 
ATOM     99  C   UNL A   1      38.844  34.895  39.450  1.00  0.00     0.020 A 
ATOM    100  C   UNL A   1      40.112  36.541  38.186  1.00  0.00     0.020 A 
ATOM    101  C   UNL A   1      39.446  36.155  39.350  1.00  0.00     0.054 A 
BRANCH 101 102
ATOM    102  S   UNL A   1      39.371  37.266  40.781  1.00  0.00     0.124 S 
ATOM    103  O   UNL A   1      38.489  38.327  40.301  1.00  0.00    -0.237 OA
ATOM    104  O   UNL A   1      38.811  36.404  41.818  1.00  0.00    -0.237 OA
ATOM    105  O   UNL A   1      40.762  37.663  40.988  1.00  0.00    -0.744 OA
ENDBRANCH 101 102
ENDBRANCH  75  96
ENDBRANCH  49  50
ENDBRANCH  42  44
ENDBRANCH  41  42
ENDBRANCH  40  41
ENDBRANCH  39  40
ENDBRANCH  38  39
ENDBRANCH  37  38
ENDBRANCH   1  37
TORSDOF 26
ENDMDL
MODEL 2
REMARK VINA RESULT:     -10.3      1.305      7.611
REMARK SMILES Cc1cc(C(=O)N[C@H](C(=O)OCCOCCOCCOCCOC(=O)c2ccc(-c3c4nc(c(-c5ccc(S(=O)(=O)[O-])cc5)c5ccc([nH]5)c(-c5ccc(S(=O)(=O)[O-])cc5)c5nc(c(-c6ccc(S(=O)(=O)[O-])cc6)c6ccc3[nH]6)C=C5)C=C4)cc2)c2c(C)n[nH]c2C)c2ccc(C)c(C)c2n1
REMARK SMILES IDX 18 1 17 2 16 3 15 4 14 5 13 6 12 7 11 8 9 9 10 10 8 11 7 12
REMARK SMILES IDX 5 13 6 14 4 16 1 17 2 18 3 19 101 20 100 21 93 22 98 23
REMARK SMILES IDX 94 24 96 25 99 26 95 27 97 28 86 29 87 30 91 31 88 32 89 33
REMARK SMILES IDX 90 34 92 35 19 37 20 38 21 39 22 40 23 41 24 42 25 43 26 44
REMARK SMILES IDX 27 45 85 46 28 47 84 48 29 49 30 50 31 51 78 52 32 53 83 54
REMARK SMILES IDX 77 55 79 56 33 57 82 58 76 59 75 60 34 62 64 63 45 64 63 65
REMARK SMILES IDX 46 66 49 67 62 68 80 69 47 70 48 71 61 73 81 74 50 75 35 76
REMARK SMILES IDX 36 77 44 78 37 79 43 80 38 81 39 82 40 83 41 84 42 85 65 86
REMARK SMILES IDX 66 87 74 88 67 89 73 90 68 91 69 92 70 93 71 94 72 95 51 96
REMARK SMILES IDX 52 97 60 98 53 99 59 100 54 101 55 102 56 103 57 104 58 105
REMARK H PARENT 7 15 90 36 79 61 49 72
REMARK Flexibility Score: inf
ROOT
ATOM      1  C   UNL A   1      35.997  20.631  24.995  1.00  0.00     0.188 C 
ENDROOT
BRANCH   1   2
ATOM      2  O   UNL A   1      35.185  21.247  25.975  1.00  0.00    -0.377 OA
BRANCH   2   3
ATOM      3  C   UNL A   1      33.791  21.131  25.740  1.00  0.00     0.188 C 
BRANCH   3   4
ATOM      4  C   UNL A   1      33.354  20.829  24.287  1.00  0.00     0.188 C 
BRANCH   4   5
ATOM      5  O   UNL A   1      32.502  21.829  23.749  1.00  0.00    -0.376 OA
BRANCH   5   6
ATOM      6  C   UNL A   1      32.810  22.441  22.510  1.00  0.00     0.202 C 
BRANCH   6   7
ATOM      7  C   UNL A   1      32.650  23.960  22.389  1.00  0.00     0.261 C 
BRANCH   7   8
ATOM      8  O   UNL A   1      31.394  24.510  22.798  1.00  0.00    -0.461 OA
BRANCH   8   9
ATOM      9  C   UNL A   1      31.003  25.712  22.312  1.00  0.00     0.333 C 
ATOM     10  O   UNL A   1      31.365  26.177  21.236  1.00  0.00    -0.249 OA
BRANCH   9  11
ATOM     11  C   UNL A   1      29.954  26.388  23.233  1.00  0.00     0.227 C 
BRANCH  11  12
ATOM     12  N   UNL A   1      29.715  25.745  24.537  1.00  0.00    -0.335 N 
ATOM     13  C   UNL A   1      30.444  25.620  25.703  1.00  0.00     0.252 C 
ATOM     14  O   UNL A   1      29.882  25.083  26.657  1.00  0.00    -0.269 OA
ATOM     15  H   UNL A   1      28.835  25.306  24.589  1.00  0.00     0.165 HD
BRANCH  13  16
ATOM     16  C   UNL A   1      31.852  26.100  25.833  1.00  0.00     0.051 A 
ATOM     17  C   UNL A   1      35.197  24.470  25.579  1.00  0.00     0.067 C 
ATOM     18  C   UNL A   1      34.157  25.544  25.670  1.00  0.00     0.039 A 
ATOM     19  C   UNL A   1      32.853  25.268  25.351  1.00  0.00     0.038 A 
ATOM     20  N   UNL A   1      34.520  26.726  26.181  1.00  0.00    -0.253 NA
ATOM     21  C   UNL A   1      33.585  27.647  26.475  1.00  0.00     0.074 A 
ATOM     22  C   UNL A   1      32.204  27.362  26.402  1.00  0.00     0.013 A 
ATOM     23  C   UNL A   1      34.031  28.920  26.864  1.00  0.00    -0.022 A 
ATOM     24  C   UNL A   1      31.307  28.353  26.878  1.00  0.00     0.011 A 
ATOM     25  C   UNL A   1      33.122  29.912  27.285  1.00  0.00    -0.046 A 
ATOM     26  C   UNL A   1      35.519  29.184  26.787  1.00  0.00     0.047 C 
ATOM     27  C   UNL A   1      31.762  29.603  27.314  1.00  0.00     0.004 A 
ATOM     28  C   UNL A   1      33.579  31.294  27.667  1.00  0.00     0.044 C 
ENDBRANCH  13  16
ENDBRANCH  11  12
BRANCH  11  29
ATOM     29  C   UNL A   1      30.152  27.874  23.263  1.00  0.00     0.029 A 
ATOM     30  C   UNL A   1      29.044  28.781  23.266  1.00  0.00     0.065 A 
ATOM     31  C   UNL A   1      31.264  28.707  23.235  1.00  0.00     0.038 A 
ATOM     32  C   UNL A   1      27.597  28.455  23.144  1.00  0.00     0.069 C 
ATOM     33  N   UNL A   1      29.434  30.049  23.364  1.00  0.00    -0.180 NA
ATOM     34  N   UNL A   1      30.771  29.984  23.333  1.00  0.00    -0.282 N 
ATOM     35  C   UNL A   1      32.728  28.497  23.099  1.00  0.00     0.066 C 
ATOM     36  H   UNL A   1      31.347  30.780  23.376  1.00  0.00     0.190 HD
ENDBRANCH  11  29
ENDBRANCH   9  11
ENDBRANCH   8   9
ENDBRANCH   7   8
ENDBRANCH   6   7
ENDBRANCH   5   6
ENDBRANCH   4   5
ENDBRANCH   3   4
ENDBRANCH   2   3
ENDBRANCH   1   2
BRANCH   1  37
ATOM     37  C   UNL A   1      37.506  20.907  25.179  1.00  0.00     0.188 C 
BRANCH  37  38
ATOM     38  O   UNL A   1      38.035  22.228  25.170  1.00  0.00    -0.376 OA
BRANCH  38  39
ATOM     39  C   UNL A   1      38.745  22.759  26.278  1.00  0.00     0.202 C 
BRANCH  39  40
ATOM     40  C   UNL A   1      38.817  24.261  26.589  1.00  0.00     0.261 C 
BRANCH  40  41
ATOM     41  O   UNL A   1      39.981  24.721  27.277  1.00  0.00    -0.460 OA
BRANCH  41  42
ATOM     42  C   UNL A   1      40.416  25.949  26.923  1.00  0.00     0.338 C 
ATOM     43  O   UNL A   1      40.760  26.326  25.815  1.00  0.00    -0.246 OA
BRANCH  42  44
ATOM     44  C   UNL A   1      40.232  26.845  28.077  1.00  0.00     0.060 A 
ATOM     45  C   UNL A   1      40.964  28.040  28.121  1.00  0.00     0.016 A 
ATOM     46  C   UNL A   1      39.342  26.511  29.100  1.00  0.00     0.016 A 
ATOM     47  C   UNL A   1      40.804  28.914  29.188  1.00  0.00     0.010 A 
ATOM     48  C   UNL A   1      39.238  27.352  30.207  1.00  0.00     0.010 A 
ATOM     49  C   UNL A   1      39.993  28.536  30.263  1.00  0.00    -0.014 A 
BRANCH  49  50
ATOM     50  C   UNL A   1      40.179  29.231  31.550  1.00  0.00     0.031 A 
ATOM     51  C   UNL A   1      39.180  30.296  31.905  1.00  0.00     0.074 A 
ATOM     52  C   UNL A   1      41.172  28.900  32.391  1.00  0.00     0.049 A 
ATOM     53  N   UNL A   1      39.131  31.060  32.961  1.00  0.00    -0.248 NA
ATOM     54  C   UNL A   1      38.083  30.522  30.944  1.00  0.00     0.031 C 
ATOM     55  C   UNL A   1      42.144  27.828  32.180  1.00  0.00     0.029 A 
ATOM     56  N   UNL A   1      41.517  29.441  33.602  1.00  0.00    -0.354 N 
ATOM     57  C   UNL A   1      38.002  31.851  32.794  1.00  0.00     0.074 A 
ATOM     58  C   UNL A   1      37.397  31.487  31.534  1.00  0.00     0.031 C 
ATOM     59  C   UNL A   1      42.987  27.797  33.228  1.00  0.00     0.029 A 
ATOM     60  C   UNL A   1      42.630  28.865  34.163  1.00  0.00     0.049 A 
ATOM     61  H   UNL A   1      41.016  30.173  34.029  1.00  0.00     0.167 HD
ATOM     62  C   UNL A   1      37.514  32.802  33.620  1.00  0.00     0.031 A 
ATOM     63  C   UNL A   1      43.292  29.181  35.295  1.00  0.00     0.031 A 
ATOM     64  C   UNL A   1      38.138  33.182  34.853  1.00  0.00     0.049 A 
ATOM     65  C   UNL A   1      42.791  30.316  36.146  1.00  0.00     0.074 A 
ATOM     66  C   UNL A   1      37.730  34.144  35.757  1.00  0.00     0.029 A 
ATOM     67  N   UNL A   1      39.305  32.624  35.351  1.00  0.00    -0.354 N 
ATOM     68  N   UNL A   1      41.729  31.068  35.972  1.00  0.00    -0.248 NA
ATOM     69  C   UNL A   1      43.575  30.650  37.344  1.00  0.00     0.031 C 
ATOM     70  C   UNL A   1      38.683  34.208  36.776  1.00  0.00     0.029 A 
ATOM     71  C   UNL A   1      39.649  33.242  36.537  1.00  0.00     0.049 A 
ATOM     72  H   UNL A   1      39.813  31.899  34.922  1.00  0.00     0.167 HD
ATOM     73  C   UNL A   1      41.704  31.946  37.050  1.00  0.00     0.074 A 
ATOM     74  C   UNL A   1      42.856  31.634  37.871  1.00  0.00     0.031 C 
ATOM     75  C   UNL A   1      40.802  32.916  37.338  1.00  0.00     0.031 A 
BRANCH  62  76
ATOM     76  C   UNL A   1      36.269  33.524  33.197  1.00  0.00    -0.014 A 
ATOM     77  C   UNL A   1      35.002  33.090  33.624  1.00  0.00     0.010 A 
ATOM     78  C   UNL A   1      36.375  34.689  32.419  1.00  0.00     0.010 A 
ATOM     79  C   UNL A   1      33.859  33.814  33.277  1.00  0.00     0.020 A 
ATOM     80  C   UNL A   1      35.237  35.427  32.088  1.00  0.00     0.020 A 
ATOM     81  C   UNL A   1      33.986  34.985  32.521  1.00  0.00     0.054 A 
BRANCH  81  82
ATOM     82  S   UNL A   1      32.487  35.929  32.135  1.00  0.00     0.124 S 
ATOM     83  O   UNL A   1      32.611  36.123  30.691  1.00  0.00    -0.237 OA
ATOM     84  O   UNL A   1      31.427  35.020  32.557  1.00  0.00    -0.237 OA
ATOM     85  O   UNL A   1      32.625  37.143  32.935  1.00  0.00    -0.744 OA
ENDBRANCH  81  82
ENDBRANCH  62  76
BRANCH  63  86
ATOM     86  C   UNL A   1      44.505  28.409  35.671  1.00  0.00    -0.014 A 
ATOM     87  C   UNL A   1      45.774  28.812  35.222  1.00  0.00     0.010 A 
ATOM     88  C   UNL A   1      44.400  27.292  36.521  1.00  0.00     0.010 A 
ATOM     89  C   UNL A   1      46.918  28.118  35.626  1.00  0.00     0.020 A 
ATOM     90  C   UNL A   1      45.544  26.608  36.942  1.00  0.00     0.020 A 
ATOM     91  C   UNL A   1      46.797  27.030  36.495  1.00  0.00     0.054 A 
BRANCH  91  92
ATOM     92  S   UNL A   1      48.306  26.194  37.057  1.00  0.00     0.124 S 
ATOM     93  O   UNL A   1      49.082  26.094  35.824  1.00  0.00    -0.237 OA
ATOM     94  O   UNL A   1      48.818  27.128  38.054  1.00  0.00    -0.237 OA
ATOM     95  O   UNL A   1      47.818  24.924  37.590  1.00  0.00    -0.744 OA
ENDBRANCH  91  92
ENDBRANCH  63  86
BRANCH  75  96
ATOM     96  C   UNL A   1      40.989  33.707  38.602  1.00  0.00    -0.014 A 
ATOM     97  C   UNL A   1      40.511  33.228  39.833  1.00  0.00     0.010 A 
ATOM     98  C   UNL A   1      41.773  34.876  38.573  1.00  0.00     0.010 A 
ATOM     99  C   UNL A   1      40.813  33.908  41.015  1.00  0.00     0.020 A 
ATOM    100  C   UNL A   1      42.096  35.545  39.754  1.00  0.00     0.020 A 
ATOM    101  C   UNL A   1      41.613  35.056  40.969  1.00  0.00     0.054 A 
BRANCH 101 102
ATOM    102  S   UNL A   1      42.036  35.879  42.529  1.00  0.00     0.124 S 
ATOM    103  O   UNL A   1      41.550  37.237  42.303  1.00  0.00    -0.237 OA
ATOM    104  O   UNL A   1      41.287  35.098  43.509  1.00  0.00    -0.237 OA
ATOM    105  O   UNL A   1      43.490  35.747  42.610  1.00  0.00    -0.744 OA
ENDBRANCH 101 102
ENDBRANCH  75  96
ENDBRANCH  49  50
ENDBRANCH  42  44
ENDBRANCH  41  42
ENDBRANCH  40  41
ENDBRANCH  39  40
ENDBRANCH  38  39
ENDBRANCH  37  38
ENDBRANCH   1  37
TORSDOF 26
ENDMDL
MODEL 3
REMARK VINA RESULT:      -9.9      5.622      7.663
REMARK SMILES Cc1cc(C(=O)N[C@H](C(=O)OCCOCCOCCOCCOC(=O)c2ccc(-c3c4nc(c(-c5ccc(S(=O)(=O)[O-])cc5)c5ccc([nH]5)c(-c5ccc(S(=O)(=O)[O-])cc5)c5nc(c(-c6ccc(S(=O)(=O)[O-])cc6)c6ccc3[nH]6)C=C5)C=C4)cc2)c2c(C)n[nH]c2C)c2ccc(C)c(C)c2n1
REMARK SMILES IDX 18 1 17 2 16 3 15 4 14 5 13 6 12 7 11 8 9 9 10 10 8 11 7 12
REMARK SMILES IDX 5 13 6 14 4 16 1 17 2 18 3 19 101 20 100 21 93 22 98 23
REMARK SMILES IDX 94 24 96 25 99 26 95 27 97 28 86 29 87 30 91 31 88 32 89 33
REMARK SMILES IDX 90 34 92 35 19 37 20 38 21 39 22 40 23 41 24 42 25 43 26 44
REMARK SMILES IDX 27 45 85 46 28 47 84 48 29 49 30 50 31 51 78 52 32 53 83 54
REMARK SMILES IDX 77 55 79 56 33 57 82 58 76 59 75 60 34 62 64 63 45 64 63 65
REMARK SMILES IDX 46 66 49 67 62 68 80 69 47 70 48 71 61 73 81 74 50 75 35 76
REMARK SMILES IDX 36 77 44 78 37 79 43 80 38 81 39 82 40 83 41 84 42 85 65 86
REMARK SMILES IDX 66 87 74 88 67 89 73 90 68 91 69 92 70 93 71 94 72 95 51 96
REMARK SMILES IDX 52 97 60 98 53 99 59 100 54 101 55 102 56 103 57 104 58 105
REMARK H PARENT 7 15 90 36 79 61 49 72
REMARK Flexibility Score: inf
ROOT
ATOM      1  C   UNL A   1      35.205  19.832  25.037  1.00  0.00     0.188 C 
ENDROOT
BRANCH   1   2
ATOM      2  O   UNL A   1      34.565  20.613  26.027  1.00  0.00    -0.377 OA
BRANCH   2   3
ATOM      3  C   UNL A   1      33.347  21.208  25.610  1.00  0.00     0.188 C 
BRANCH   3   4
ATOM      4  C   UNL A   1      32.926  20.972  24.140  1.00  0.00     0.188 C 
BRANCH   4   5
ATOM      5  O   UNL A   1      32.344  22.122  23.543  1.00  0.00    -0.376 OA
BRANCH   5   6
ATOM      6  C   UNL A   1      32.864  22.643  22.335  1.00  0.00     0.202 C 
BRANCH   6   7
ATOM      7  C   UNL A   1      32.658  24.131  22.036  1.00  0.00     0.261 C 
BRANCH   7   8
ATOM      8  O   UNL A   1      31.568  24.777  22.702  1.00  0.00    -0.461 OA
BRANCH   8   9
ATOM      9  C   UNL A   1      31.077  25.937  22.205  1.00  0.00     0.333 C 
ATOM     10  O   UNL A   1      31.396  26.419  21.124  1.00  0.00    -0.249 OA
BRANCH   9  11
ATOM     11  C   UNL A   1      29.977  26.531  23.123  1.00  0.00     0.227 C 
BRANCH  11  12
ATOM     12  N   UNL A   1      29.710  25.810  24.379  1.00  0.00    -0.335 N 
ATOM     13  C   UNL A   1      30.414  25.609  25.549  1.00  0.00     0.252 C 
ATOM     14  O   UNL A   1      29.831  25.017  26.456  1.00  0.00    -0.269 OA
ATOM     15  H   UNL A   1      28.827  25.373  24.386  1.00  0.00     0.165 HD
BRANCH  13  16
ATOM     16  C   UNL A   1      31.822  26.073  25.737  1.00  0.00     0.051 A 
ATOM     17  C   UNL A   1      35.156  24.406  25.609  1.00  0.00     0.067 C 
ATOM     18  C   UNL A   1      34.125  25.491  25.662  1.00  0.00     0.039 A 
ATOM     19  C   UNL A   1      32.831  25.232  25.291  1.00  0.00     0.038 A 
ATOM     20  N   UNL A   1      34.480  26.668  26.192  1.00  0.00    -0.253 NA
ATOM     21  C   UNL A   1      33.545  27.598  26.453  1.00  0.00     0.074 A 
ATOM     22  C   UNL A   1      32.165  27.329  26.323  1.00  0.00     0.013 A 
ATOM     23  C   UNL A   1      33.989  28.865  26.864  1.00  0.00    -0.022 A 
ATOM     24  C   UNL A   1      31.261  28.328  26.767  1.00  0.00     0.011 A 
ATOM     25  C   UNL A   1      33.075  29.866  27.252  1.00  0.00    -0.046 A 
ATOM     26  C   UNL A   1      35.482  29.112  26.847  1.00  0.00     0.047 C 
ATOM     27  C   UNL A   1      31.711  29.571  27.226  1.00  0.00     0.004 A 
ATOM     28  C   UNL A   1      33.531  31.241  27.657  1.00  0.00     0.044 C 
ENDBRANCH  13  16
ENDBRANCH  11  12
BRANCH  11  29
ATOM     29  C   UNL A   1      30.132  28.019  23.242  1.00  0.00     0.029 A 
ATOM     30  C   UNL A   1      28.999  28.894  23.266  1.00  0.00     0.065 A 
ATOM     31  C   UNL A   1      31.220  28.881  23.294  1.00  0.00     0.038 A 
ATOM     32  C   UNL A   1      27.565  28.537  23.084  1.00  0.00     0.069 C 
ATOM     33  N   UNL A   1      29.350  30.164  23.446  1.00  0.00    -0.180 NA
ATOM     34  N   UNL A   1      30.689  30.137  23.450  1.00  0.00    -0.282 N 
ATOM     35  C   UNL A   1      32.693  28.719  23.188  1.00  0.00     0.066 C 
ATOM     36  H   UNL A   1      31.240  30.945  23.555  1.00  0.00     0.190 HD
ENDBRANCH  11  29
ENDBRANCH   9  11
ENDBRANCH   8   9
ENDBRANCH   7   8
ENDBRANCH   6   7
ENDBRANCH   5   6
ENDBRANCH   4   5
ENDBRANCH   3   4
ENDBRANCH   2   3
ENDBRANCH   1   2
BRANCH   1  37
ATOM     37  C   UNL A   1      36.719  20.108  24.914  1.00  0.00     0.188 C 
BRANCH  37  38
ATOM     38  O   UNL A   1      37.239  21.431  24.834  1.00  0.00    -0.376 OA
BRANCH  38  39
ATOM     39  C   UNL A   1      38.034  21.988  25.868  1.00  0.00     0.202 C 
BRANCH  39  40
ATOM     40  C   UNL A   1      39.553  21.781  25.965  1.00  0.00     0.261 C 
BRANCH  40  41
ATOM     41  O   UNL A   1      40.000  20.518  26.459  1.00  0.00    -0.460 OA
BRANCH  41  42
ATOM     42  C   UNL A   1      41.287  20.213  26.188  1.00  0.00     0.338 C 
ATOM     43  O   UNL A   1      41.721  19.187  25.691  1.00  0.00    -0.246 OA
BRANCH  42  44
ATOM     44  C   UNL A   1      42.097  21.420  26.425  1.00  0.00     0.060 A 
ATOM     45  C   UNL A   1      42.408  21.770  27.746  1.00  0.00     0.016 A 
ATOM     46  C   UNL A   1      42.551  22.191  25.353  1.00  0.00     0.016 A 
ATOM     47  C   UNL A   1      43.182  22.894  28.004  1.00  0.00     0.010 A 
ATOM     48  C   UNL A   1      43.264  23.360  25.616  1.00  0.00     0.010 A 
ATOM     49  C   UNL A   1      43.551  23.725  26.942  1.00  0.00    -0.014 A 
BRANCH  49  50
ATOM     50  C   UNL A   1      43.963  25.106  27.253  1.00  0.00     0.031 A 
ATOM     51  C   UNL A   1      45.380  25.488  26.929  1.00  0.00     0.074 A 
ATOM     52  C   UNL A   1      43.101  26.000  27.764  1.00  0.00     0.049 A 
ATOM     53  N   UNL A   1      45.991  26.625  27.120  1.00  0.00    -0.248 NA
ATOM     54  C   UNL A   1      46.217  24.452  26.295  1.00  0.00     0.031 C 
ATOM     55  C   UNL A   1      41.686  25.755  28.039  1.00  0.00     0.029 A 
ATOM     56  N   UNL A   1      43.302  27.303  28.139  1.00  0.00    -0.354 N 
ATOM     57  C   UNL A   1      47.277  26.442  26.628  1.00  0.00     0.074 A 
ATOM     58  C   UNL A   1      47.368  25.087  26.140  1.00  0.00     0.031 C 
ATOM     59  C   UNL A   1      41.145  26.876  28.550  1.00  0.00     0.029 A 
ATOM     60  C   UNL A   1      42.184  27.900  28.666  1.00  0.00     0.049 A 
ATOM     61  H   UNL A   1      44.165  27.766  28.040  1.00  0.00     0.167 HD
ATOM     62  C   UNL A   1      48.294  27.329  26.591  1.00  0.00     0.031 A 
ATOM     63  C   UNL A   1      42.028  29.130  29.198  1.00  0.00     0.031 A 
ATOM     64  C   UNL A   1      48.207  28.663  27.108  1.00  0.00     0.049 A 
ATOM     65  C   UNL A   1      43.206  30.065  29.243  1.00  0.00     0.074 A 
ATOM     66  C   UNL A   1      49.187  29.637  27.131  1.00  0.00     0.029 A 
ATOM     67  N   UNL A   1      47.079  29.207  27.701  1.00  0.00    -0.354 N 
ATOM     68  N   UNL A   1      44.423  29.877  28.788  1.00  0.00    -0.248 NA
ATOM     69  C   UNL A   1      42.995  31.376  29.874  1.00  0.00     0.031 C 
ATOM     70  C   UNL A   1      48.668  30.754  27.789  1.00  0.00     0.029 A 
ATOM     71  C   UNL A   1      47.346  30.496  28.119  1.00  0.00     0.049 A 
ATOM     72  H   UNL A   1      46.217  28.743  27.809  1.00  0.00     0.167 HD
ATOM     73  C   UNL A   1      45.115  31.053  29.055  1.00  0.00     0.074 A 
ATOM     74  C   UNL A   1      44.183  31.947  29.712  1.00  0.00     0.031 C 
ATOM     75  C   UNL A   1      46.403  31.367  28.773  1.00  0.00     0.031 A 
BRANCH  62  76
ATOM     76  C   UNL A   1      49.599  26.872  26.009  1.00  0.00    -0.014 A 
ATOM     77  C   UNL A   1      49.970  27.228  24.701  1.00  0.00     0.010 A 
ATOM     78  C   UNL A   1      50.493  26.136  26.805  1.00  0.00     0.010 A 
ATOM     79  C   UNL A   1      51.218  26.852  24.198  1.00  0.00     0.020 A 
ATOM     80  C   UNL A   1      51.749  25.776  26.314  1.00  0.00     0.020 A 
ATOM     81  C   UNL A   1      52.104  26.139  25.013  1.00  0.00     0.054 A 
BRANCH  81  82
ATOM     82  S   UNL A   1      53.736  25.713  24.349  1.00  0.00     0.124 S 
ATOM     83  O   UNL A   1      54.599  26.697  25.001  1.00  0.00    -0.237 OA
ATOM     84  O   UNL A   1      53.906  24.335  24.797  1.00  0.00    -0.237 OA
ATOM     85  O   UNL A   1      53.582  25.887  22.907  1.00  0.00    -0.744 OA
ENDBRANCH  81  82
ENDBRANCH  62  76
BRANCH  63  86
ATOM     86  C   UNL A   1      40.702  29.531  29.735  1.00  0.00    -0.014 A 
ATOM     87  C   UNL A   1      40.469  29.548  31.120  1.00  0.00     0.010 A 
ATOM     88  C   UNL A   1      39.678  29.942  28.862  1.00  0.00     0.010 A 
ATOM     89  C   UNL A   1      39.240  29.981  31.625  1.00  0.00     0.020 A 
ATOM     90  C   UNL A   1      38.454  30.394  29.363  1.00  0.00     0.020 A 
ATOM     91  C   UNL A   1      38.245  30.416  30.743  1.00  0.00     0.054 A 
BRANCH  91  92
ATOM     92  S   UNL A   1      36.686  31.039  31.431  1.00  0.00     0.124 S 
ATOM     93  O   UNL A   1      35.898  31.298  30.229  1.00  0.00    -0.237 OA
ATOM     94  O   UNL A   1      36.243  29.913  32.248  1.00  0.00    -0.237 OA
ATOM     95  O   UNL A   1      37.090  32.227  32.179  1.00  0.00    -0.744 OA
ENDBRANCH  91  92
ENDBRANCH  63  86
BRANCH  75  96
ATOM     96  C   UNL A   1      46.897  32.739  29.140  1.00  0.00    -0.014 A 
ATOM     97  C   UNL A   1      47.478  32.987  30.394  1.00  0.00     0.010 A 
ATOM     98  C   UNL A   1      46.901  33.753  28.163  1.00  0.00     0.010 A 
ATOM     99  C   UNL A   1      48.054  34.231  30.666  1.00  0.00     0.020 A 
ATOM    100  C   UNL A   1      47.496  34.988  28.424  1.00  0.00     0.020 A 
ATOM    101  C   UNL A   1      48.069  35.219  29.675  1.00  0.00     0.054 A 
BRANCH 101 102
ATOM    102  S   UNL A   1      48.880  36.799  30.041  1.00  0.00     0.124 S 
ATOM    103  O   UNL A   1      49.682  36.470  31.216  1.00  0.00    -0.237 OA
ATOM    104  O   UNL A   1      49.634  37.056  28.817  1.00  0.00    -0.237 OA
ATOM    105  O   UNL A   1      47.766  37.714  30.288  1.00  0.00    -0.744 OA
ENDBRANCH 101 102
ENDBRANCH  75  96
ENDBRANCH  49  50
ENDBRANCH  42  44
ENDBRANCH  41  42
ENDBRANCH  40  41
ENDBRANCH  39  40
ENDBRANCH  38  39
ENDBRANCH  37  38
ENDBRANCH   1  37
TORSDOF 26
ENDMDL
