MODEL 1
REMARK VINA RESULT:     -10.5      0.000      0.000
REMARK SMILES Cc1cc(C(=O)OCCOCCOCCOCCOC(=O)c2ccc(-c3c4nc(c(-c5ccc(S(=O)(=O)[O-])cc5)c5ccc([nH]5)c(-c5ccc(S(=O)(=O)[O-])cc5)c5nc(c(-c6ccc(S(=O)(=O)[O-])cc6)c6ccc3[nH]6)C=C5)C=C4)cc2)ccc1NC(=O)N1C[C@@H](C)[C@H](C)C1
REMARK SMILES IDX 14 1 13 2 12 3 11 4 10 5 9 6 8 7 7 8 5 9 6 10 4 11 1 12 2 13
REMARK SMILES IDX 3 14 84 15 83 16 82 17 85 18 86 19 87 21 88 22 89 23 94 24
REMARK SMILES IDX 90 25 92 26 91 27 93 28 15 29 16 30 17 31 18 32 19 33 20 34
REMARK SMILES IDX 21 35 22 36 23 37 81 38 24 39 80 40 25 41 26 42 27 43 74 44
REMARK SMILES IDX 28 45 79 46 73 47 75 48 29 49 78 50 72 51 71 52 30 54 60 55
REMARK SMILES IDX 41 56 59 57 42 58 45 59 58 60 76 61 43 62 44 63 57 65 77 66
REMARK SMILES IDX 46 67 31 68 32 69 40 70 33 71 39 72 34 73 35 74 36 75 37 76
REMARK SMILES IDX 38 77 61 78 62 79 70 80 63 81 69 82 64 83 65 84 66 85 67 86
REMARK SMILES IDX 68 87 47 88 48 89 56 90 49 91 55 92 50 93 51 94 52 95 53 96
REMARK SMILES IDX 54 97
REMARK H PARENT 85 20 75 53 45 64
REMARK Flexibility Score: inf
ROOT
ATOM      1  C   UNL A   1      33.905  31.710  27.860  1.00  0.00     0.188 C 
ENDROOT
BRANCH   1   2
ATOM      2  O   UNL A   1      33.617  30.353  27.487  1.00  0.00    -0.377 OA
BRANCH   2   3
ATOM      3  C   UNL A   1      32.358  30.066  26.898  1.00  0.00     0.188 C 
BRANCH   3   4
ATOM      4  C   UNL A   1      32.326  29.145  25.670  1.00  0.00     0.188 C 
BRANCH   4   5
ATOM      5  O   UNL A   1      32.437  29.719  24.375  1.00  0.00    -0.376 OA
BRANCH   5   6
ATOM      6  C   UNL A   1      31.702  29.049  23.349  1.00  0.00     0.202 C 
BRANCH   6   7
ATOM      7  C   UNL A   1      30.234  28.744  23.645  1.00  0.00     0.261 C 
BRANCH   7   8
ATOM      8  O   UNL A   1      29.947  27.438  23.151  1.00  0.00    -0.460 OA
BRANCH   8   9
ATOM      9  C   UNL A   1      29.513  26.556  24.067  1.00  0.00     0.338 C 
ATOM     10  O   UNL A   1      28.378  26.175  24.265  1.00  0.00    -0.246 OA
BRANCH   9  11
ATOM     11  C   UNL A   1      30.722  25.864  24.552  1.00  0.00     0.060 A 
ATOM     12  C   UNL A   1      34.009  25.064  22.913  1.00  0.00     0.046 C 
ATOM     13  C   UNL A   1      32.946  25.077  23.978  1.00  0.00    -0.027 A 
ATOM     14  C   UNL A   1      31.693  25.575  23.596  1.00  0.00     0.021 A 
ATOM     15  C   UNL A   1      33.175  24.793  25.339  1.00  0.00     0.045 A 
ATOM     16  C   UNL A   1      32.286  25.298  26.285  1.00  0.00     0.027 A 
ATOM     17  C   UNL A   1      31.037  25.771  25.907  1.00  0.00     0.018 A 
BRANCH  15  18
ATOM     18  N   UNL A   1      34.272  24.002  25.705  1.00  0.00    -0.308 N 
ATOM     19  C   UNL A   1      34.460  22.670  25.863  1.00  0.00     0.321 C 
ATOM     20  H   UNL A   1      35.083  24.529  25.889  1.00  0.00     0.171 HD
ATOM     21  O   UNL A   1      35.498  22.325  26.439  1.00  0.00    -0.248 OA
ATOM     22  N   UNL A   1      33.555  21.749  25.418  1.00  0.00    -0.324 N 
ATOM     23  C   UNL A   1      33.478  20.462  26.087  1.00  0.00     0.125 C 
ATOM     24  C   UNL A   1      33.018  21.645  24.056  1.00  0.00     0.125 C 
ATOM     25  C   UNL A   1      33.185  19.454  24.982  1.00  0.00     0.010 C 
ATOM     26  C   UNL A   1      32.327  20.275  24.010  1.00  0.00     0.010 C 
ATOM     27  C   UNL A   1      32.511  18.202  25.515  1.00  0.00     0.010 C 
ATOM     28  C   UNL A   1      32.243  19.690  22.606  1.00  0.00     0.010 C 
ENDBRANCH  15  18
ENDBRANCH   9  11
ENDBRANCH   8   9
ENDBRANCH   7   8
ENDBRANCH   6   7
ENDBRANCH   5   6
ENDBRANCH   4   5
ENDBRANCH   3   4
ENDBRANCH   2   3
ENDBRANCH   1   2
BRANCH   1  29
ATOM     29  C   UNL A   1      35.364  32.133  28.009  1.00  0.00     0.188 C 
BRANCH  29  30
ATOM     30  O   UNL A   1      35.708  32.025  29.397  1.00  0.00    -0.376 OA
BRANCH  30  31
ATOM     31  C   UNL A   1      36.664  31.023  29.714  1.00  0.00     0.202 C 
BRANCH  31  32
ATOM     32  C   UNL A   1      36.437  30.344  31.068  1.00  0.00     0.261 C 
BRANCH  32  33
ATOM     33  O   UNL A   1      36.940  28.991  31.077  1.00  0.00    -0.460 OA
BRANCH  33  34
ATOM     34  C   UNL A   1      37.774  28.679  32.112  1.00  0.00     0.338 C 
ATOM     35  O   UNL A   1      37.412  28.618  33.274  1.00  0.00    -0.246 OA
BRANCH  34  36
ATOM     36  C   UNL A   1      39.107  28.252  31.615  1.00  0.00     0.060 A 
ATOM     37  C   UNL A   1      40.283  28.518  32.327  1.00  0.00     0.016 A 
ATOM     38  C   UNL A   1      39.188  27.638  30.374  1.00  0.00     0.016 A 
ATOM     39  C   UNL A   1      41.541  28.304  31.731  1.00  0.00     0.010 A 
ATOM     40  C   UNL A   1      40.422  27.478  29.779  1.00  0.00     0.010 A 
ATOM     41  C   UNL A   1      41.620  27.839  30.417  1.00  0.00    -0.014 A 
BRANCH  41  42
ATOM     42  C   UNL A   1      42.823  27.847  29.548  1.00  0.00     0.031 A 
ATOM     43  C   UNL A   1      43.540  26.563  29.216  1.00  0.00     0.074 A 
ATOM     44  C   UNL A   1      43.009  28.922  28.735  1.00  0.00     0.049 A 
ATOM     45  N   UNL A   1      44.543  26.469  28.407  1.00  0.00    -0.248 NA
ATOM     46  C   UNL A   1      43.181  25.249  29.761  1.00  0.00     0.031 C 
ATOM     47  C   UNL A   1      43.637  28.914  27.411  1.00  0.00     0.029 A 
ATOM     48  N   UNL A   1      42.650  30.259  28.882  1.00  0.00    -0.354 N 
ATOM     49  C   UNL A   1      44.673  25.149  28.023  1.00  0.00     0.074 A 
ATOM     50  C   UNL A   1      43.892  24.417  28.988  1.00  0.00     0.031 C 
ATOM     51  C   UNL A   1      43.730  30.160  26.928  1.00  0.00     0.029 A 
ATOM     52  C   UNL A   1      43.443  31.039  28.036  1.00  0.00     0.049 A 
ATOM     53  H   UNL A   1      41.949  30.601  29.485  1.00  0.00     0.167 HD
ATOM     54  C   UNL A   1      45.287  24.843  26.839  1.00  0.00     0.031 A 
ATOM     55  C   UNL A   1      44.328  31.981  28.478  1.00  0.00     0.031 A 
ATOM     56  C   UNL A   1      45.925  26.020  26.221  1.00  0.00     0.049 A 
ATOM     57  C   UNL A   1      45.749  31.548  28.155  1.00  0.00     0.074 A 
ATOM     58  C   UNL A   1      45.866  26.604  24.968  1.00  0.00     0.029 A 
ATOM     59  N   UNL A   1      46.675  26.894  27.011  1.00  0.00    -0.354 N 
ATOM     60  N   UNL A   1      46.064  30.292  27.949  1.00  0.00    -0.248 NA
ATOM     61  C   UNL A   1      46.883  32.436  27.915  1.00  0.00     0.031 C 
ATOM     62  C   UNL A   1      46.457  27.897  25.056  1.00  0.00     0.029 A 
ATOM     63  C   UNL A   1      46.956  28.064  26.340  1.00  0.00     0.049 A 
ATOM     64  H   UNL A   1      46.967  26.697  27.931  1.00  0.00     0.167 HD
ATOM     65  C   UNL A   1      47.321  30.206  27.435  1.00  0.00     0.074 A 
ATOM     66  C   UNL A   1      47.830  31.565  27.507  1.00  0.00     0.031 C 
ATOM     67  C   UNL A   1      47.850  29.056  26.926  1.00  0.00     0.031 A 
BRANCH  54  68
ATOM     68  C   UNL A   1      45.146  23.509  26.097  1.00  0.00    -0.014 A 
ATOM     69  C   UNL A   1      43.975  22.735  26.259  1.00  0.00     0.010 A 
ATOM     70  C   UNL A   1      46.158  22.913  25.312  1.00  0.00     0.010 A 
ATOM     71  C   UNL A   1      43.819  21.458  25.682  1.00  0.00     0.020 A 
ATOM     72  C   UNL A   1      46.001  21.654  24.694  1.00  0.00     0.020 A 
ATOM     73  C   UNL A   1      44.835  20.925  24.893  1.00  0.00     0.054 A 
BRANCH  73  74
ATOM     74  S   UNL A   1      44.609  19.296  24.120  1.00  0.00     0.124 S 
ATOM     75  O   UNL A   1      43.393  18.804  24.762  1.00  0.00    -0.237 OA
ATOM     76  O   UNL A   1      44.482  19.626  22.703  1.00  0.00    -0.237 OA
ATOM     77  O   UNL A   1      45.830  18.573  24.473  1.00  0.00    -0.744 OA
ENDBRANCH  73  74
ENDBRANCH  54  68
BRANCH  55  78
ATOM     78  C   UNL A   1      43.777  32.846  29.563  1.00  0.00    -0.014 A 
ATOM     79  C   UNL A   1      42.945  33.890  29.093  1.00  0.00     0.010 A 
ATOM     80  C   UNL A   1      43.504  32.294  30.831  1.00  0.00     0.010 A 
ATOM     81  C   UNL A   1      41.723  34.161  29.715  1.00  0.00     0.020 A 
ATOM     82  C   UNL A   1      42.272  32.566  31.458  1.00  0.00     0.020 A 
ATOM     83  C   UNL A   1      41.358  33.432  30.845  1.00  0.00     0.054 A 
BRANCH  83  84
ATOM     84  S   UNL A   1      39.591  33.397  31.297  1.00  0.00     0.124 S 
ATOM     85  O   UNL A   1      38.935  33.657  30.022  1.00  0.00    -0.237 OA
ATOM     86  O   UNL A   1      39.433  32.043  31.829  1.00  0.00    -0.237 OA
ATOM     87  O   UNL A   1      39.483  34.457  32.293  1.00  0.00    -0.744 OA
ENDBRANCH  83  84
ENDBRANCH  55  78
BRANCH  67  88
ATOM     88  C   UNL A   1      49.323  28.755  26.903  1.00  0.00    -0.014 A 
ATOM     89  C   UNL A   1      50.071  28.599  28.079  1.00  0.00     0.010 A 
ATOM     90  C   UNL A   1      49.932  28.362  25.685  1.00  0.00     0.010 A 
ATOM     91  C   UNL A   1      51.379  28.109  28.040  1.00  0.00     0.020 A 
ATOM     92  C   UNL A   1      51.220  27.832  25.641  1.00  0.00     0.020 A 
ATOM     93  C   UNL A   1      51.943  27.727  26.821  1.00  0.00     0.054 A 
BRANCH  93  94
ATOM     94  S   UNL A   1      53.606  27.019  26.809  1.00  0.00     0.124 S 
ATOM     95  O   UNL A   1      54.016  27.254  25.427  1.00  0.00    -0.237 OA
ATOM     96  O   UNL A   1      54.305  27.816  27.815  1.00  0.00    -0.237 OA
ATOM     97  O   UNL A   1      53.391  25.621  27.173  1.00  0.00    -0.744 OA
ENDBRANCH  93  94
ENDBRANCH  67  88
ENDBRANCH  41  42
ENDBRANCH  34  36
ENDBRANCH  33  34
ENDBRANCH  32  33
ENDBRANCH  31  32
ENDBRANCH  30  31
ENDBRANCH  29  30
ENDBRANCH   1  29
TORSDOF 24
ENDMDL
MODEL 2
REMARK VINA RESULT:     -10.1      4.240     10.271
REMARK SMILES Cc1cc(C(=O)OCCOCCOCCOCCOC(=O)c2ccc(-c3c4nc(c(-c5ccc(S(=O)(=O)[O-])cc5)c5ccc([nH]5)c(-c5ccc(S(=O)(=O)[O-])cc5)c5nc(c(-c6ccc(S(=O)(=O)[O-])cc6)c6ccc3[nH]6)C=C5)C=C4)cc2)ccc1NC(=O)N1C[C@@H](C)[C@H](C)C1
REMARK SMILES IDX 14 1 13 2 12 3 11 4 10 5 9 6 8 7 7 8 5 9 6 10 4 11 1 12 2 13
REMARK SMILES IDX 3 14 84 15 83 16 82 17 85 18 86 19 87 21 88 22 89 23 94 24
REMARK SMILES IDX 90 25 92 26 91 27 93 28 15 29 16 30 17 31 18 32 19 33 20 34
REMARK SMILES IDX 21 35 22 36 23 37 81 38 24 39 80 40 25 41 26 42 27 43 74 44
REMARK SMILES IDX 28 45 79 46 73 47 75 48 29 49 78 50 72 51 71 52 30 54 60 55
REMARK SMILES IDX 41 56 59 57 42 58 45 59 58 60 76 61 43 62 44 63 57 65 77 66
REMARK SMILES IDX 46 67 31 68 32 69 40 70 33 71 39 72 34 73 35 74 36 75 37 76
REMARK SMILES IDX 38 77 61 78 62 79 70 80 63 81 69 82 64 83 65 84 66 85 67 86
REMARK SMILES IDX 68 87 47 88 48 89 56 90 49 91 55 92 50 93 51 94 52 95 53 96
REMARK SMILES IDX 54 97
REMARK H PARENT 85 20 75 53 45 64
REMARK Flexibility Score: inf
ROOT
ATOM      1  C   UNL A   1      31.754  30.677  26.936  1.00  0.00     0.188 C 
ENDROOT
BRANCH   1   2
ATOM      2  O   UNL A   1      32.582  31.836  26.749  1.00  0.00    -0.377 OA
BRANCH   2   3
ATOM      3  C   UNL A   1      32.131  33.079  27.267  1.00  0.00     0.188 C 
BRANCH   3   4
ATOM      4  C   UNL A   1      33.098  33.892  28.140  1.00  0.00     0.188 C 
BRANCH   4   5
ATOM      5  O   UNL A   1      32.585  34.959  28.925  1.00  0.00    -0.376 OA
BRANCH   5   6
ATOM      6  C   UNL A   1      33.421  36.116  28.997  1.00  0.00     0.202 C 
BRANCH   6   7
ATOM      7  C   UNL A   1      33.240  37.019  30.217  1.00  0.00     0.261 C 
BRANCH   7   8
ATOM      8  O   UNL A   1      33.038  36.184  31.355  1.00  0.00    -0.460 OA
BRANCH   8   9
ATOM      9  C   UNL A   1      33.836  36.438  32.406  1.00  0.00     0.338 C 
ATOM     10  O   UNL A   1      33.789  37.374  33.177  1.00  0.00    -0.246 OA
BRANCH   9  11
ATOM     11  C   UNL A   1      34.556  35.177  32.668  1.00  0.00     0.060 A 
ATOM     12  C   UNL A   1      36.110  33.748  35.778  1.00  0.00     0.046 C 
ATOM     13  C   UNL A   1      35.729  33.846  34.326  1.00  0.00    -0.027 A 
ATOM     14  C   UNL A   1      35.168  35.063  33.914  1.00  0.00     0.021 A 
ATOM     15  C   UNL A   1      35.737  32.765  33.422  1.00  0.00     0.045 A 
ATOM     16  C   UNL A   1      34.929  32.834  32.290  1.00  0.00     0.027 A 
ATOM     17  C   UNL A   1      34.393  34.044  31.872  1.00  0.00     0.018 A 
BRANCH  15  18
ATOM     18  N   UNL A   1      36.564  31.662  33.672  1.00  0.00    -0.308 N 
ATOM     19  C   UNL A   1      37.846  31.356  33.355  1.00  0.00     0.321 C 
ATOM     20  H   UNL A   1      36.117  30.954  34.189  1.00  0.00     0.171 HD
ATOM     21  O   UNL A   1      38.189  30.181  33.524  1.00  0.00    -0.248 OA
ATOM     22  N   UNL A   1      38.718  32.289  32.872  1.00  0.00    -0.324 N 
ATOM     23  C   UNL A   1      39.814  31.851  32.025  1.00  0.00     0.125 C 
ATOM     24  C   UNL A   1      39.040  33.581  33.489  1.00  0.00     0.125 C 
ATOM     25  C   UNL A   1      40.989  32.750  32.394  1.00  0.00     0.010 C 
ATOM     26  C   UNL A   1      40.291  34.071  32.745  1.00  0.00     0.010 C 
ATOM     27  C   UNL A   1      42.004  32.853  31.270  1.00  0.00     0.010 C 
ATOM     28  C   UNL A   1      41.144  35.028  33.568  1.00  0.00     0.010 C 
ENDBRANCH  15  18
ENDBRANCH   9  11
ENDBRANCH   8   9
ENDBRANCH   7   8
ENDBRANCH   6   7
ENDBRANCH   5   6
ENDBRANCH   4   5
ENDBRANCH   3   4
ENDBRANCH   2   3
ENDBRANCH   1   2
BRANCH   1  29
ATOM     29  C   UNL A   1      32.210  29.349  26.335  1.00  0.00     0.188 C 
BRANCH  29  30
ATOM     30  O   UNL A   1      33.160  28.767  27.237  1.00  0.00    -0.376 OA
BRANCH  30  31
ATOM     31  C   UNL A   1      34.521  28.875  26.847  1.00  0.00     0.202 C 
BRANCH  31  32
ATOM     32  C   UNL A   1      35.370  29.762  27.762  1.00  0.00     0.261 C 
BRANCH  32  33
ATOM     33  O   UNL A   1      36.782  29.556  27.546  1.00  0.00    -0.460 OA
BRANCH  33  34
ATOM     34  C   UNL A   1      37.613  30.240  28.384  1.00  0.00     0.338 C 
ATOM     35  O   UNL A   1      37.229  31.088  29.172  1.00  0.00    -0.246 OA
BRANCH  34  36
ATOM     36  C   UNL A   1      38.992  29.691  28.336  1.00  0.00     0.060 A 
ATOM     37  C   UNL A   1      39.931  29.956  29.341  1.00  0.00     0.016 A 
ATOM     38  C   UNL A   1      39.376  28.957  27.224  1.00  0.00     0.016 A 
ATOM     39  C   UNL A   1      41.285  29.613  29.160  1.00  0.00     0.010 A 
ATOM     40  C   UNL A   1      40.712  28.669  27.033  1.00  0.00     0.010 A 
ATOM     41  C   UNL A   1      41.700  29.020  27.966  1.00  0.00    -0.014 A 
BRANCH  41  42
ATOM     42  C   UNL A   1      43.099  28.874  27.493  1.00  0.00     0.031 A 
ATOM     43  C   UNL A   1      43.880  30.074  27.019  1.00  0.00     0.074 A 
ATOM     44  C   UNL A   1      43.786  27.766  27.882  1.00  0.00     0.049 A 
ATOM     45  N   UNL A   1      45.123  30.050  26.667  1.00  0.00    -0.248 NA
ATOM     46  C   UNL A   1      43.330  31.429  26.910  1.00  0.00     0.031 C 
ATOM     47  C   UNL A   1      45.227  27.680  28.138  1.00  0.00     0.029 A 
ATOM     48  N   UNL A   1      43.358  26.474  28.175  1.00  0.00    -0.354 N 
ATOM     49  C   UNL A   1      45.611  31.341  26.699  1.00  0.00     0.074 A 
ATOM     50  C   UNL A   1      44.432  32.169  26.726  1.00  0.00     0.031 C 
ATOM     51  C   UNL A   1      45.578  26.420  28.424  1.00  0.00     0.029 A 
ATOM     52  C   UNL A   1      44.444  25.600  28.071  1.00  0.00     0.049 A 
ATOM     53  H   UNL A   1      42.438  26.217  28.417  1.00  0.00     0.167 HD
ATOM     54  C   UNL A   1      46.951  31.557  26.866  1.00  0.00     0.031 A 
ATOM     55  C   UNL A   1      44.521  24.588  27.157  1.00  0.00     0.031 A 
ATOM     56  C   UNL A   1      47.732  30.309  26.783  1.00  0.00     0.049 A 
ATOM     57  C   UNL A   1      45.634  24.873  26.162  1.00  0.00     0.074 A 
ATOM     58  C   UNL A   1      48.675  29.703  27.594  1.00  0.00     0.029 A 
ATOM     59  N   UNL A   1      47.454  29.386  25.772  1.00  0.00    -0.354 N 
ATOM     60  N   UNL A   1      46.079  26.087  25.944  1.00  0.00    -0.248 NA
ATOM     61  C   UNL A   1      46.414  23.874  25.438  1.00  0.00     0.031 C 
ATOM     62  C   UNL A   1      48.844  28.361  27.147  1.00  0.00     0.029 A 
ATOM     63  C   UNL A   1      48.073  28.178  26.008  1.00  0.00     0.049 A 
ATOM     64  H   UNL A   1      46.888  29.576  24.989  1.00  0.00     0.167 HD
ATOM     65  C   UNL A   1      47.228  26.039  25.216  1.00  0.00     0.074 A 
ATOM     66  C   UNL A   1      47.357  24.638  24.849  1.00  0.00     0.031 C 
ATOM     67  C   UNL A   1      48.034  27.119  25.007  1.00  0.00     0.031 A 
BRANCH  54  68
ATOM     68  C   UNL A   1      47.577  32.879  27.324  1.00  0.00    -0.014 A 
ATOM     69  C   UNL A   1      47.211  34.088  26.687  1.00  0.00     0.010 A 
ATOM     70  C   UNL A   1      48.596  32.996  28.295  1.00  0.00     0.010 A 
ATOM     71  C   UNL A   1      47.815  35.324  26.994  1.00  0.00     0.020 A 
ATOM     72  C   UNL A   1      49.181  34.232  28.642  1.00  0.00     0.020 A 
ATOM     73  C   UNL A   1      48.796  35.391  27.979  1.00  0.00     0.054 A 
BRANCH  73  74
ATOM     74  S   UNL A   1      49.540  36.996  28.396  1.00  0.00     0.124 S 
ATOM     75  O   UNL A   1      49.800  37.578  27.081  1.00  0.00    -0.237 OA
ATOM     76  O   UNL A   1      48.490  37.646  29.174  1.00  0.00    -0.237 OA
ATOM     77  O   UNL A   1      50.735  36.636  29.158  1.00  0.00    -0.744 OA
ENDBRANCH  73  74
ENDBRANCH  54  68
BRANCH  55  78
ATOM     78  C   UNL A   1      43.255  23.808  27.032  1.00  0.00    -0.014 A 
ATOM     79  C   UNL A   1      43.007  23.330  25.723  1.00  0.00     0.010 A 
ATOM     80  C   UNL A   1      42.790  23.044  28.122  1.00  0.00     0.010 A 
ATOM     81  C   UNL A   1      42.590  22.011  25.514  1.00  0.00     0.020 A 
ATOM     82  C   UNL A   1      42.370  21.715  27.911  1.00  0.00     0.020 A 
ATOM     83  C   UNL A   1      42.360  21.188  26.614  1.00  0.00     0.054 A 
BRANCH  83  84
ATOM     84  S   UNL A   1      42.367  19.384  26.339  1.00  0.00     0.124 S 
ATOM     85  O   UNL A   1      41.137  19.177  25.584  1.00  0.00    -0.237 OA
ATOM     86  O   UNL A   1      43.611  19.188  25.594  1.00  0.00    -0.237 OA
ATOM     87  O   UNL A   1      42.377  18.843  27.694  1.00  0.00    -0.744 OA
ENDBRANCH  83  84
ENDBRANCH  55  78
BRANCH  67  88
ATOM     88  C   UNL A   1      48.923  27.275  23.804  1.00  0.00    -0.014 A 
ATOM     89  C   UNL A   1      50.306  27.049  23.864  1.00  0.00     0.010 A 
ATOM     90  C   UNL A   1      48.337  27.400  22.520  1.00  0.00     0.010 A 
ATOM     91  C   UNL A   1      51.076  26.989  22.700  1.00  0.00     0.020 A 
ATOM     92  C   UNL A   1      49.090  27.297  21.352  1.00  0.00     0.020 A 
ATOM     93  C   UNL A   1      50.462  27.110  21.452  1.00  0.00     0.054 A 
BRANCH  93  94
ATOM     94  S   UNL A   1      51.469  26.944  19.960  1.00  0.00     0.124 S 
ATOM     95  O   UNL A   1      50.461  26.595  18.963  1.00  0.00    -0.237 OA
ATOM     96  O   UNL A   1      52.059  28.273  19.817  1.00  0.00    -0.237 OA
ATOM     97  O   UNL A   1      52.415  25.883  20.297  1.00  0.00    -0.744 OA
ENDBRANCH  93  94
ENDBRANCH  67  88
ENDBRANCH  41  42
ENDBRANCH  34  36
ENDBRANCH  33  34
ENDBRANCH  32  33
ENDBRANCH  31  32
ENDBRANCH  30  31
ENDBRANCH  29  30
ENDBRANCH   1  29
TORSDOF 24
ENDMDL
MODEL 3
REMARK VINA RESULT:      -9.9      2.453      3.235
REMARK SMILES Cc1cc(C(=O)OCCOCCOCCOCCOC(=O)c2ccc(-c3c4nc(c(-c5ccc(S(=O)(=O)[O-])cc5)c5ccc([nH]5)c(-c5ccc(S(=O)(=O)[O-])cc5)c5nc(c(-c6ccc(S(=O)(=O)[O-])cc6)c6ccc3[nH]6)C=C5)C=C4)cc2)ccc1NC(=O)N1C[C@@H](C)[C@H](C)C1
REMARK SMILES IDX 14 1 13 2 12 3 11 4 10 5 9 6 8 7 7 8 5 9 6 10 4 11 1 12 2 13
REMARK SMILES IDX 3 14 84 15 83 16 82 17 85 18 86 19 87 21 88 22 89 23 94 24
REMARK SMILES IDX 90 25 92 26 91 27 93 28 15 29 16 30 17 31 18 32 19 33 20 34
REMARK SMILES IDX 21 35 22 36 23 37 81 38 24 39 80 40 25 41 26 42 27 43 74 44
REMARK SMILES IDX 28 45 79 46 73 47 75 48 29 49 78 50 72 51 71 52 30 54 60 55
REMARK SMILES IDX 41 56 59 57 42 58 45 59 58 60 76 61 43 62 44 63 57 65 77 66
REMARK SMILES IDX 46 67 31 68 32 69 40 70 33 71 39 72 34 73 35 74 36 75 37 76
REMARK SMILES IDX 38 77 61 78 62 79 70 80 63 81 69 82 64 83 65 84 66 85 67 86
REMARK SMILES IDX 68 87 47 88 48 89 56 90 49 91 55 92 50 93 51 94 52 95 53 96
REMARK SMILES IDX 54 97
REMARK H PARENT 85 20 75 53 45 64
REMARK Flexibility Score: inf
ROOT
ATOM      1  C   UNL A   1      34.264  32.793  28.003  1.00  0.00     0.188 C 
ENDROOT
BRANCH   1   2
ATOM      2  O   UNL A   1      33.873  31.426  28.205  1.00  0.00    -0.377 OA
BRANCH   2   3
ATOM      3  C   UNL A   1      33.565  30.636  27.066  1.00  0.00     0.188 C 
BRANCH   3   4
ATOM      4  C   UNL A   1      32.091  30.300  26.796  1.00  0.00     0.188 C 
BRANCH   4   5
ATOM      5  O   UNL A   1      31.571  29.060  27.256  1.00  0.00    -0.376 OA
BRANCH   5   6
ATOM      6  C   UNL A   1      31.675  27.977  26.330  1.00  0.00     0.202 C 
BRANCH   6   7
ATOM      7  C   UNL A   1      32.095  26.623  26.902  1.00  0.00     0.261 C 
BRANCH   7   8
ATOM      8  O   UNL A   1      31.527  25.604  26.084  1.00  0.00    -0.460 OA
BRANCH   8   9
ATOM      9  C   UNL A   1      31.299  24.430  26.697  1.00  0.00     0.338 C 
ATOM     10  O   UNL A   1      30.254  24.010  27.149  1.00  0.00    -0.246 OA
BRANCH   9  11
ATOM     11  C   UNL A   1      32.476  23.593  26.397  1.00  0.00     0.060 A 
ATOM     12  C   UNL A   1      35.025  23.704  23.638  1.00  0.00     0.046 C 
ATOM     13  C   UNL A   1      34.311  23.192  24.859  1.00  0.00    -0.027 A 
ATOM     14  C   UNL A   1      33.092  23.811  25.167  1.00  0.00     0.021 A 
ATOM     15  C   UNL A   1      34.860  22.281  25.783  1.00  0.00     0.045 A 
ATOM     16  C   UNL A   1      34.352  22.256  27.080  1.00  0.00     0.027 A 
ATOM     17  C   UNL A   1      33.133  22.850  27.378  1.00  0.00     0.018 A 
BRANCH  15  18
ATOM     18  N   UNL A   1      35.883  21.414  25.375  1.00  0.00    -0.308 N 
ATOM     19  C   UNL A   1      35.922  20.109  25.015  1.00  0.00     0.321 C 
ATOM     20  H   UNL A   1      36.766  21.848  25.344  1.00  0.00     0.171 HD
ATOM     21  O   UNL A   1      37.042  19.590  24.948  1.00  0.00    -0.248 OA
ATOM     22  N   UNL A   1      34.790  19.394  24.743  1.00  0.00    -0.324 N 
ATOM     23  C   UNL A   1      34.804  17.956  24.945  1.00  0.00     0.125 C 
ATOM     24  C   UNL A   1      33.738  19.762  23.788  1.00  0.00     0.125 C 
ATOM     25  C   UNL A   1      33.944  17.386  23.822  1.00  0.00     0.010 C 
ATOM     26  C   UNL A   1      32.895  18.489  23.623  1.00  0.00     0.010 C 
ATOM     27  C   UNL A   1      33.370  16.026  24.177  1.00  0.00     0.010 C 
ATOM     28  C   UNL A   1      32.164  18.420  22.289  1.00  0.00     0.010 C 
ENDBRANCH  15  18
ENDBRANCH   9  11
ENDBRANCH   8   9
ENDBRANCH   7   8
ENDBRANCH   6   7
ENDBRANCH   5   6
ENDBRANCH   4   5
ENDBRANCH   3   4
ENDBRANCH   2   3
ENDBRANCH   1   2
BRANCH   1  29
ATOM     29  C   UNL A   1      35.659  33.227  28.448  1.00  0.00     0.188 C 
BRANCH  29  30
ATOM     30  O   UNL A   1      35.628  33.398  29.872  1.00  0.00    -0.376 OA
BRANCH  30  31
ATOM     31  C   UNL A   1      36.633  32.703  30.594  1.00  0.00     0.202 C 
BRANCH  31  32
ATOM     32  C   UNL A   1      36.475  31.180  30.585  1.00  0.00     0.261 C 
BRANCH  32  33
ATOM     33  O   UNL A   1      37.718  30.516  30.277  1.00  0.00    -0.460 OA
BRANCH  33  34
ATOM     34  C   UNL A   1      37.784  29.925  29.049  1.00  0.00     0.338 C 
ATOM     35  O   UNL A   1      36.805  29.682  28.364  1.00  0.00    -0.246 OA
BRANCH  34  36
ATOM     36  C   UNL A   1      39.191  29.793  28.592  1.00  0.00     0.060 A 
ATOM     37  C   UNL A   1      39.516  29.262  27.338  1.00  0.00     0.016 A 
ATOM     38  C   UNL A   1      40.208  30.137  29.469  1.00  0.00     0.016 A 
ATOM     39  C   UNL A   1      40.852  28.942  27.024  1.00  0.00     0.010 A 
ATOM     40  C   UNL A   1      41.507  29.775  29.173  1.00  0.00     0.010 A 
ATOM     41  C   UNL A   1      41.857  29.138  27.973  1.00  0.00    -0.014 A 
BRANCH  41  42
ATOM     42  C   UNL A   1      43.234  28.587  27.926  1.00  0.00     0.031 A 
ATOM     43  C   UNL A   1      43.477  27.108  28.098  1.00  0.00     0.074 A 
ATOM     44  C   UNL A   1      44.194  29.335  27.319  1.00  0.00     0.049 A 
ATOM     45  N   UNL A   1      44.631  26.536  27.992  1.00  0.00    -0.248 NA
ATOM     46  C   UNL A   1      42.429  26.126  28.395  1.00  0.00     0.031 C 
ATOM     47  C   UNL A   1      45.351  28.830  26.575  1.00  0.00     0.029 A 
ATOM     48  N   UNL A   1      44.343  30.714  27.193  1.00  0.00    -0.354 N 
ATOM     49  C   UNL A   1      44.431  25.184  27.793  1.00  0.00     0.074 A 
ATOM     50  C   UNL A   1      43.061  24.964  28.181  1.00  0.00     0.031 C 
ATOM     51  C   UNL A   1      46.136  29.842  26.183  1.00  0.00     0.029 A 
ATOM     52  C   UNL A   1      45.681  31.003  26.909  1.00  0.00     0.049 A 
ATOM     53  H   UNL A   1      43.622  31.378  27.289  1.00  0.00     0.167 HD
ATOM     54  C   UNL A   1      45.393  24.440  27.167  1.00  0.00     0.031 A 
ATOM     55  C   UNL A   1      46.496  31.721  27.737  1.00  0.00     0.031 A 
ATOM     56  C   UNL A   1      46.643  25.196  26.971  1.00  0.00     0.049 A 
ATOM     57  C   UNL A   1      47.599  30.827  28.280  1.00  0.00     0.074 A 
ATOM     58  C   UNL A   1      47.454  25.458  25.879  1.00  0.00     0.029 A 
ATOM     59  N   UNL A   1      47.152  25.974  28.014  1.00  0.00    -0.354 N 
ATOM     60  N   UNL A   1      47.477  29.523  28.330  1.00  0.00    -0.248 NA
ATOM     61  C   UNL A   1      48.934  31.261  28.684  1.00  0.00     0.031 C 
ATOM     62  C   UNL A   1      48.353  26.504  26.238  1.00  0.00     0.029 A 
ATOM     63  C   UNL A   1      48.150  26.816  27.574  1.00  0.00     0.049 A 
ATOM     64  H   UNL A   1      46.838  25.924  28.946  1.00  0.00     0.167 HD
ATOM     65  C   UNL A   1      48.680  28.953  28.610  1.00  0.00     0.074 A 
ATOM     66  C   UNL A   1      49.548  30.080  28.907  1.00  0.00     0.031 C 
ATOM     67  C   UNL A   1      48.918  27.612  28.525  1.00  0.00     0.031 A 
BRANCH  54  68
ATOM     68  C   UNL A   1      45.161  23.070  26.521  1.00  0.00    -0.014 A 
ATOM     69  C   UNL A   1      46.131  22.533  25.644  1.00  0.00     0.010 A 
ATOM     70  C   UNL A   1      43.979  22.308  26.649  1.00  0.00     0.010 A 
ATOM     71  C   UNL A   1      45.941  21.324  24.943  1.00  0.00     0.020 A 
ATOM     72  C   UNL A   1      43.790  21.076  25.987  1.00  0.00     0.020 A 
ATOM     73  C   UNL A   1      44.769  20.595  25.125  1.00  0.00     0.054 A 
BRANCH  73  74
ATOM     74  S   UNL A   1      44.549  19.018  24.250  1.00  0.00     0.124 S 
ATOM     75  O   UNL A   1      43.346  18.472  24.874  1.00  0.00    -0.237 OA
ATOM     76  O   UNL A   1      44.401  19.438  22.860  1.00  0.00    -0.237 OA
ATOM     77  O   UNL A   1      45.781  18.285  24.541  1.00  0.00    -0.744 OA
ENDBRANCH  73  74
ENDBRANCH  54  68
BRANCH  55  78
ATOM     78  C   UNL A   1      45.842  32.941  28.297  1.00  0.00    -0.014 A 
ATOM     79  C   UNL A   1      46.217  34.140  27.644  1.00  0.00     0.010 A 
ATOM     80  C   UNL A   1      44.546  32.855  28.844  1.00  0.00     0.010 A 
ATOM     81  C   UNL A   1      45.251  35.085  27.284  1.00  0.00     0.020 A 
ATOM     82  C   UNL A   1      43.573  33.807  28.481  1.00  0.00     0.020 A 
ATOM     83  C   UNL A   1      43.920  34.865  27.632  1.00  0.00     0.054 A 
BRANCH  83  84
ATOM     84  S   UNL A   1      42.640  35.779  26.706  1.00  0.00     0.124 S 
ATOM     85  O   UNL A   1      42.700  35.157  25.390  1.00  0.00    -0.237 OA
ATOM     86  O   UNL A   1      41.434  35.501  27.487  1.00  0.00    -0.237 OA
ATOM     87  O   UNL A   1      43.104  37.161  26.776  1.00  0.00    -0.744 OA
ENDBRANCH  83  84
ENDBRANCH  55  78
BRANCH  67  88
ATOM     88  C   UNL A   1      49.959  26.896  29.340  1.00  0.00    -0.014 A 
ATOM     89  C   UNL A   1      51.329  27.152  29.190  1.00  0.00     0.010 A 
ATOM     90  C   UNL A   1      49.556  26.135  30.465  1.00  0.00     0.010 A 
ATOM     91  C   UNL A   1      52.260  26.641  30.099  1.00  0.00     0.020 A 
ATOM     92  C   UNL A   1      50.472  25.658  31.401  1.00  0.00     0.020 A 
ATOM     93  C   UNL A   1      51.824  25.900  31.199  1.00  0.00     0.054 A 
BRANCH  93  94
ATOM     94  S   UNL A   1      53.042  25.322  32.403  1.00  0.00     0.124 S 
ATOM     95  O   UNL A   1      52.561  23.971  32.682  1.00  0.00    -0.237 OA
ATOM     96  O   UNL A   1      54.297  25.400  31.659  1.00  0.00    -0.237 OA
ATOM     97  O   UNL A   1      52.918  26.273  33.505  1.00  0.00    -0.744 OA
ENDBRANCH  93  94
ENDBRANCH  67  88
ENDBRANCH  41  42
ENDBRANCH  34  36
ENDBRANCH  33  34
ENDBRANCH  32  33
ENDBRANCH  31  32
ENDBRANCH  30  31
ENDBRANCH  29  30
ENDBRANCH   1  29
TORSDOF 24
ENDMDL
