MODEL 1
REMARK VINA RESULT:      -7.2      0.000      0.000
REMARK SMILES O=C(OCCOCCOCCOCCOC(=O)[C@]1(CCCCO)CCc2ccccc2C1)c1ccc(-c2c3nc(c(-c4ccc(S(=O)(=O)[O-])cc4)c4ccc([nH]4)c(-c4ccc(S(=O)(=O)[O-])cc4)c4nc(c(-c5ccc(S(=O)(=O)[O-])cc5)c5ccc2[nH]5)C=C4)C=C3)cc1
REMARK SMILES IDX 10 1 9 2 8 3 7 4 6 5 5 6 4 7 3 8 2 9 1 10 33 11 34 12 92 13
REMARK SMILES IDX 35 14 91 15 36 16 37 17 38 18 85 19 39 20 90 21 84 22 86 23
REMARK SMILES IDX 40 24 89 25 83 26 82 27 41 29 71 30 52 31 70 32 53 33 56 34
REMARK SMILES IDX 69 35 87 36 54 37 55 38 68 40 88 41 57 42 42 43 43 44 51 45
REMARK SMILES IDX 44 46 50 47 45 48 46 49 47 50 48 51 49 52 72 53 73 54 81 55
REMARK SMILES IDX 74 56 80 57 75 58 76 59 77 60 78 61 79 62 58 63 59 64 67 65
REMARK SMILES IDX 60 66 66 67 61 68 62 69 63 70 64 71 65 72 11 73 12 74 13 75
REMARK SMILES IDX 14 76 15 77 16 78 17 79 18 80 24 81 32 82 25 83 31 84 26 85
REMARK SMILES IDX 30 86 27 87 29 88 28 89 19 90 20 91 21 92 22 93 23 94
REMARK H PARENT 86 28 56 39 23 95
REMARK Flexibility Score: inf
ROOT
ATOM      1  C   UNL A   1      45.573  23.768  27.801  1.00  0.00     0.188 C 
ENDROOT
BRANCH   1   2
ATOM      2  O   UNL A   1      44.344  23.637  27.083  1.00  0.00    -0.377 OA
BRANCH   2   3
ATOM      3  C   UNL A   1      44.380  23.594  25.664  1.00  0.00     0.188 C 
BRANCH   3   4
ATOM      4  C   UNL A   1      43.914  22.275  25.077  1.00  0.00     0.188 C 
BRANCH   4   5
ATOM      5  O   UNL A   1      43.482  21.478  26.158  1.00  0.00    -0.376 OA
BRANCH   5   6
ATOM      6  C   UNL A   1      42.318  20.692  26.119  1.00  0.00     0.202 C 
BRANCH   6   7
ATOM      7  C   UNL A   1      41.540  20.557  27.404  1.00  0.00     0.261 C 
BRANCH   7   8
ATOM      8  O   UNL A   1      40.406  21.435  27.622  1.00  0.00    -0.460 OA
BRANCH   8   9
ATOM      9  C   UNL A   1      39.921  22.563  27.065  1.00  0.00     0.338 C 
ATOM     10  O   UNL A   1      39.151  22.469  26.104  1.00  0.00    -0.246 OA
BRANCH   9  11
ATOM     11  C   UNL A   1      40.194  23.916  27.589  1.00  0.00     0.060 A 
ATOM     12  C   UNL A   1      39.352  25.002  27.412  1.00  0.00     0.016 A 
ATOM     13  C   UNL A   1      41.290  24.083  28.437  1.00  0.00     0.016 A 
ATOM     14  C   UNL A   1      39.750  26.281  27.714  1.00  0.00     0.010 A 
ATOM     15  C   UNL A   1      41.606  25.352  28.930  1.00  0.00     0.010 A 
ATOM     16  C   UNL A   1      40.889  26.469  28.475  1.00  0.00    -0.014 A 
BRANCH  16  17
ATOM     17  C   UNL A   1      41.403  27.842  28.595  1.00  0.00     0.031 A 
ATOM     18  C   UNL A   1      42.696  28.143  27.895  1.00  0.00     0.074 A 
ATOM     19  C   UNL A   1      40.645  28.808  29.146  1.00  0.00     0.049 A 
ATOM     20  N   UNL A   1      43.430  29.217  27.942  1.00  0.00    -0.248 NA
ATOM     21  C   UNL A   1      43.238  27.084  27.020  1.00  0.00     0.031 C 
ATOM     22  C   UNL A   1      39.281  28.633  29.666  1.00  0.00     0.029 A 
ATOM     23  N   UNL A   1      40.885  30.144  29.311  1.00  0.00    -0.354 N 
ATOM     24  C   UNL A   1      44.556  28.928  27.180  1.00  0.00     0.074 A 
ATOM     25  C   UNL A   1      44.409  27.587  26.670  1.00  0.00     0.031 C 
ATOM     26  C   UNL A   1      38.790  29.826  30.033  1.00  0.00     0.029 A 
ATOM     27  C   UNL A   1      39.841  30.821  29.896  1.00  0.00     0.049 A 
ATOM     28  H   UNL A   1      41.724  30.578  29.036  1.00  0.00     0.167 HD
ATOM     29  C   UNL A   1      45.625  29.720  26.953  1.00  0.00     0.031 A 
ATOM     30  C   UNL A   1      39.777  32.096  30.323  1.00  0.00     0.031 A 
ATOM     31  C   UNL A   1      45.704  31.059  27.466  1.00  0.00     0.049 A 
ATOM     32  C   UNL A   1      41.018  32.927  30.154  1.00  0.00     0.074 A 
ATOM     33  C   UNL A   1      46.746  31.960  27.387  1.00  0.00     0.029 A 
ATOM     34  N   UNL A   1      44.671  31.686  28.152  1.00  0.00    -0.354 N 
ATOM     35  N   UNL A   1      42.144  32.610  29.552  1.00  0.00    -0.248 NA
ATOM     36  C   UNL A   1      40.997  34.271  30.736  1.00  0.00     0.031 C 
ATOM     37  C   UNL A   1      46.361  33.114  28.079  1.00  0.00     0.029 A 
ATOM     38  C   UNL A   1      45.054  32.959  28.523  1.00  0.00     0.049 A 
ATOM     39  H   UNL A   1      43.794  31.283  28.346  1.00  0.00     0.167 HD
ATOM     40  C   UNL A   1      42.961  33.726  29.663  1.00  0.00     0.074 A 
ATOM     41  C   UNL A   1      42.187  34.730  30.374  1.00  0.00     0.031 C 
ATOM     42  C   UNL A   1      44.232  33.913  29.226  1.00  0.00     0.031 A 
BRANCH  29  43
ATOM     43  C   UNL A   1      46.799  29.103  26.242  1.00  0.00    -0.014 A 
ATOM     44  C   UNL A   1      46.692  28.546  24.954  1.00  0.00     0.010 A 
ATOM     45  C   UNL A   1      48.029  29.022  26.919  1.00  0.00     0.010 A 
ATOM     46  C   UNL A   1      47.779  27.878  24.380  1.00  0.00     0.020 A 
ATOM     47  C   UNL A   1      49.126  28.382  26.337  1.00  0.00     0.020 A 
ATOM     48  C   UNL A   1      48.987  27.795  25.078  1.00  0.00     0.054 A 
BRANCH  48  49
ATOM     49  S   UNL A   1      50.382  26.922  24.314  1.00  0.00     0.124 S 
ATOM     50  O   UNL A   1      50.585  25.810  25.237  1.00  0.00    -0.237 OA
ATOM     51  O   UNL A   1      49.851  26.561  23.002  1.00  0.00    -0.237 OA
ATOM     52  O   UNL A   1      51.449  27.921  24.297  1.00  0.00    -0.744 OA
ENDBRANCH  48  49
ENDBRANCH  29  43
BRANCH  30  53
ATOM     53  C   UNL A   1      38.558  32.614  31.006  1.00  0.00    -0.014 A 
ATOM     54  C   UNL A   1      38.439  32.575  32.406  1.00  0.00     0.010 A 
ATOM     55  C   UNL A   1      37.496  33.156  30.254  1.00  0.00     0.010 A 
ATOM     56  C   UNL A   1      37.281  33.045  33.036  1.00  0.00     0.020 A 
ATOM     57  C   UNL A   1      36.351  33.657  30.881  1.00  0.00     0.020 A 
ATOM     58  C   UNL A   1      36.243  33.583  32.269  1.00  0.00     0.054 A 
BRANCH  58  59
ATOM     59  S   UNL A   1      34.761  34.209  33.109  1.00  0.00     0.124 S 
ATOM     60  O   UNL A   1      33.801  34.288  32.013  1.00  0.00    -0.237 OA
ATOM     61  O   UNL A   1      34.503  33.173  34.105  1.00  0.00    -0.237 OA
ATOM     62  O   UNL A   1      35.194  35.495  33.656  1.00  0.00    -0.744 OA
ENDBRANCH  58  59
ENDBRANCH  30  53
BRANCH  42  63
ATOM     63  C   UNL A   1      44.824  35.272  29.456  1.00  0.00    -0.014 A 
ATOM     64  C   UNL A   1      44.647  36.312  28.528  1.00  0.00     0.010 A 
ATOM     65  C   UNL A   1      45.518  35.515  30.654  1.00  0.00     0.010 A 
ATOM     66  C   UNL A   1      45.193  37.570  28.781  1.00  0.00     0.020 A 
ATOM     67  C   UNL A   1      46.033  36.780  30.926  1.00  0.00     0.020 A 
ATOM     68  C   UNL A   1      45.882  37.795  29.979  1.00  0.00     0.054 A 
BRANCH  68  69
ATOM     69  S   UNL A   1      46.546  39.448  30.303  1.00  0.00     0.124 S 
ATOM     70  O   UNL A   1      46.531  40.045  28.971  1.00  0.00    -0.237 OA
ATOM     71  O   UNL A   1      45.582  40.000  31.251  1.00  0.00    -0.237 OA
ATOM     72  O   UNL A   1      47.874  39.185  30.855  1.00  0.00    -0.744 OA
ENDBRANCH  68  69
ENDBRANCH  42  63
ENDBRANCH  16  17
ENDBRANCH   9  11
ENDBRANCH   8   9
ENDBRANCH   7   8
ENDBRANCH   6   7
ENDBRANCH   5   6
ENDBRANCH   4   5
ENDBRANCH   3   4
ENDBRANCH   2   3
ENDBRANCH   1   2
BRANCH   1  73
ATOM     73  C   UNL A   1      46.586  24.881  27.525  1.00  0.00     0.188 C 
BRANCH  73  74
ATOM     74  O   UNL A   1      47.615  25.036  28.468  1.00  0.00    -0.376 OA
BRANCH  74  75
ATOM     75  C   UNL A   1      47.644  26.232  29.237  1.00  0.00     0.202 C 
BRANCH  75  76
ATOM     76  C   UNL A   1      47.442  26.268  30.769  1.00  0.00     0.261 C 
BRANCH  76  77
ATOM     77  O   UNL A   1      46.089  26.089  31.263  1.00  0.00    -0.463 OA
BRANCH  77  78
ATOM     78  C   UNL A   1      45.949  25.801  32.581  1.00  0.00     0.312 C 
ATOM     79  O   UNL A   1      46.560  24.865  33.095  1.00  0.00    -0.252 OA
BRANCH  78  80
ATOM     80  C   UNL A   1      44.883  26.634  33.392  1.00  0.00     0.072 C 
ATOM     81  C   UNL A   1      45.215  27.322  34.744  1.00  0.00     0.024 C 
ATOM     82  C   UNL A   1      43.856  25.501  33.772  1.00  0.00     0.054 C 
ATOM     83  C   UNL A   1      44.003  27.919  35.471  1.00  0.00     0.037 C 
ATOM     84  C   UNL A   1      42.924  25.710  34.941  1.00  0.00    -0.044 A 
ATOM     85  C   UNL A   1      43.000  26.838  35.766  1.00  0.00    -0.045 A 
ATOM     86  C   UNL A   1      42.050  24.664  35.278  1.00  0.00     0.004 A 
ATOM     87  C   UNL A   1      42.165  26.929  36.888  1.00  0.00     0.004 A 
ATOM     88  C   UNL A   1      41.241  24.751  36.407  1.00  0.00     0.000 A 
ATOM     89  C   UNL A   1      41.292  25.888  37.208  1.00  0.00     0.000 A 
BRANCH  80  90
ATOM     90  C   UNL A   1      44.268  27.662  32.397  1.00  0.00     0.019 C 
BRANCH  90  91
ATOM     91  C   UNL A   1      42.729  27.669  32.214  1.00  0.00     0.004 C 
BRANCH  91  92
ATOM     92  C   UNL A   1      41.943  28.950  32.525  1.00  0.00     0.028 C 
BRANCH  92  93
ATOM     93  C   UNL A   1      40.851  28.809  33.577  1.00  0.00     0.156 C 
BRANCH  93  94
ATOM     94  O   UNL A   1      39.944  27.776  33.219  1.00  0.00    -0.396 OA
ATOM     95  H   UNL A   1      39.556  27.973  32.352  1.00  0.00     0.210 HD
ENDBRANCH  93  94
ENDBRANCH  92  93
ENDBRANCH  91  92
ENDBRANCH  90  91
ENDBRANCH  80  90
ENDBRANCH  78  80
ENDBRANCH  77  78
ENDBRANCH  76  77
ENDBRANCH  75  76
ENDBRANCH  74  75
ENDBRANCH  73  74
ENDBRANCH   1  73
TORSDOF 28
ENDMDL
MODEL 2
REMARK VINA RESULT:      -6.9      4.202     11.173
REMARK SMILES O=C(OCCOCCOCCOCCOC(=O)[C@]1(CCCCO)CCc2ccccc2C1)c1ccc(-c2c3nc(c(-c4ccc(S(=O)(=O)[O-])cc4)c4ccc([nH]4)c(-c4ccc(S(=O)(=O)[O-])cc4)c4nc(c(-c5ccc(S(=O)(=O)[O-])cc5)c5ccc2[nH]5)C=C4)C=C3)cc1
REMARK SMILES IDX 10 1 9 2 8 3 7 4 6 5 5 6 4 7 3 8 2 9 1 10 33 11 34 12 92 13
REMARK SMILES IDX 35 14 91 15 36 16 37 17 38 18 85 19 39 20 90 21 84 22 86 23
REMARK SMILES IDX 40 24 89 25 83 26 82 27 41 29 71 30 52 31 70 32 53 33 56 34
REMARK SMILES IDX 69 35 87 36 54 37 55 38 68 40 88 41 57 42 42 43 43 44 51 45
REMARK SMILES IDX 44 46 50 47 45 48 46 49 47 50 48 51 49 52 72 53 73 54 81 55
REMARK SMILES IDX 74 56 80 57 75 58 76 59 77 60 78 61 79 62 58 63 59 64 67 65
REMARK SMILES IDX 60 66 66 67 61 68 62 69 63 70 64 71 65 72 11 73 12 74 13 75
REMARK SMILES IDX 14 76 15 77 16 78 17 79 18 80 24 81 32 82 25 83 31 84 26 85
REMARK SMILES IDX 30 86 27 87 29 88 28 89 19 90 20 91 21 92 22 93 23 94
REMARK H PARENT 86 28 56 39 23 95
REMARK Flexibility Score: inf
ROOT
ATOM      1  C   UNL A   1      33.956  26.061  25.063  1.00  0.00     0.188 C 
ENDROOT
BRANCH   1   2
ATOM      2  O   UNL A   1      34.137  24.837  24.348  1.00  0.00    -0.377 OA
BRANCH   2   3
ATOM      3  C   UNL A   1      34.548  23.680  25.063  1.00  0.00     0.188 C 
BRANCH   3   4
ATOM      4  C   UNL A   1      35.901  23.821  25.735  1.00  0.00     0.188 C 
BRANCH   4   5
ATOM      5  O   UNL A   1      36.812  23.051  24.981  1.00  0.00    -0.376 OA
BRANCH   5   6
ATOM      6  C   UNL A   1      37.519  21.958  25.511  1.00  0.00     0.202 C 
BRANCH   6   7
ATOM      7  C   UNL A   1      38.860  22.248  26.138  1.00  0.00     0.261 C 
BRANCH   7   8
ATOM      8  O   UNL A   1      40.029  21.565  25.619  1.00  0.00    -0.460 OA
BRANCH   8   9
ATOM      9  C   UNL A   1      41.247  21.217  26.084  1.00  0.00     0.338 C 
ATOM     10  O   UNL A   1      41.469  20.028  26.336  1.00  0.00    -0.246 OA
BRANCH   9  11
ATOM     11  C   UNL A   1      42.366  22.166  26.234  1.00  0.00     0.060 A 
ATOM     12  C   UNL A   1      43.680  21.789  26.455  1.00  0.00     0.016 A 
ATOM     13  C   UNL A   1      42.117  23.519  25.997  1.00  0.00     0.016 A 
ATOM     14  C   UNL A   1      44.643  22.700  26.816  1.00  0.00     0.010 A 
ATOM     15  C   UNL A   1      43.138  24.458  26.161  1.00  0.00     0.010 A 
ATOM     16  C   UNL A   1      44.378  24.050  26.676  1.00  0.00    -0.014 A 
BRANCH  16  17
ATOM     17  C   UNL A   1      45.338  24.993  27.270  1.00  0.00     0.031 A 
ATOM     18  C   UNL A   1      45.129  25.352  28.712  1.00  0.00     0.074 A 
ATOM     19  C   UNL A   1      46.446  25.352  26.596  1.00  0.00     0.049 A 
ATOM     20  N   UNL A   1      45.737  26.245  29.437  1.00  0.00    -0.248 NA
ATOM     21  C   UNL A   1      44.084  24.600  29.437  1.00  0.00     0.031 C 
ATOM     22  C   UNL A   1      46.826  24.876  25.257  1.00  0.00     0.029 A 
ATOM     23  N   UNL A   1      47.489  26.156  26.961  1.00  0.00    -0.354 N 
ATOM     24  C   UNL A   1      45.093  26.222  30.669  1.00  0.00     0.074 A 
ATOM     25  C   UNL A   1      44.055  25.223  30.602  1.00  0.00     0.031 C 
ATOM     26  C   UNL A   1      48.041  25.350  24.947  1.00  0.00     0.029 A 
ATOM     27  C   UNL A   1      48.466  26.259  25.999  1.00  0.00     0.049 A 
ATOM     28  H   UNL A   1      47.537  26.616  27.830  1.00  0.00     0.167 HD
ATOM     29  C   UNL A   1      45.344  26.994  31.747  1.00  0.00     0.031 A 
ATOM     30  C   UNL A   1      49.553  27.051  25.961  1.00  0.00     0.031 A 
ATOM     31  C   UNL A   1      46.410  27.955  31.764  1.00  0.00     0.049 A 
ATOM     32  C   UNL A   1      49.754  27.979  27.128  1.00  0.00     0.074 A 
ATOM     33  C   UNL A   1      46.748  28.862  32.747  1.00  0.00     0.029 A 
ATOM     34  N   UNL A   1      47.323  28.116  30.727  1.00  0.00    -0.354 N 
ATOM     35  N   UNL A   1      49.060  28.058  28.242  1.00  0.00    -0.248 NA
ATOM     36  C   UNL A   1      50.859  28.935  27.029  1.00  0.00     0.031 C 
ATOM     37  C   UNL A   1      47.832  29.612  32.278  1.00  0.00     0.029 A 
ATOM     38  C   UNL A   1      48.215  29.122  31.036  1.00  0.00     0.049 A 
ATOM     39  H   UNL A   1      47.332  27.590  29.895  1.00  0.00     0.167 HD
ATOM     40  C   UNL A   1      49.659  29.061  28.990  1.00  0.00     0.074 A 
ATOM     41  C   UNL A   1      50.783  29.541  28.205  1.00  0.00     0.031 C 
ATOM     42  C   UNL A   1      49.319  29.549  30.210  1.00  0.00     0.031 A 
BRANCH  29  43
ATOM     43  C   UNL A   1      44.381  26.899  32.899  1.00  0.00    -0.014 A 
ATOM     44  C   UNL A   1      43.183  27.634  32.943  1.00  0.00     0.010 A 
ATOM     45  C   UNL A   1      44.729  26.096  34.002  1.00  0.00     0.010 A 
ATOM     46  C   UNL A   1      42.377  27.606  34.086  1.00  0.00     0.020 A 
ATOM     47  C   UNL A   1      43.912  26.042  35.133  1.00  0.00     0.020 A 
ATOM     48  C   UNL A   1      42.750  26.814  35.176  1.00  0.00     0.054 A 
BRANCH  48  49
ATOM     49  S   UNL A   1      41.689  26.794  36.648  1.00  0.00     0.124 S 
ATOM     50  O   UNL A   1      42.653  26.524  37.711  1.00  0.00    -0.237 OA
ATOM     51  O   UNL A   1      41.116  28.138  36.646  1.00  0.00    -0.237 OA
ATOM     52  O   UNL A   1      40.740  25.716  36.378  1.00  0.00    -0.744 OA
ENDBRANCH  48  49
ENDBRANCH  29  43
BRANCH  30  53
ATOM     53  C   UNL A   1      50.454  27.059  24.773  1.00  0.00    -0.014 A 
ATOM     54  C   UNL A   1      50.082  27.713  23.585  1.00  0.00     0.010 A 
ATOM     55  C   UNL A   1      51.702  26.406  24.821  1.00  0.00     0.010 A 
ATOM     56  C   UNL A   1      50.927  27.697  22.469  1.00  0.00     0.020 A 
ATOM     57  C   UNL A   1      52.563  26.414  23.720  1.00  0.00     0.020 A 
ATOM     58  C   UNL A   1      52.163  27.047  22.543  1.00  0.00     0.054 A 
BRANCH  58  59
ATOM     59  S   UNL A   1      53.251  27.059  21.091  1.00  0.00     0.124 S 
ATOM     60  O   UNL A   1      54.503  26.552  21.645  1.00  0.00    -0.237 OA
ATOM     61  O   UNL A   1      52.558  26.163  20.170  1.00  0.00    -0.237 OA
ATOM     62  O   UNL A   1      53.269  28.464  20.688  1.00  0.00    -0.744 OA
ENDBRANCH  58  59
ENDBRANCH  30  53
BRANCH  42  63
ATOM     63  C   UNL A   1      50.215  30.608  30.780  1.00  0.00    -0.014 A 
ATOM     64  C   UNL A   1      51.409  30.277  31.443  1.00  0.00     0.010 A 
ATOM     65  C   UNL A   1      49.875  31.959  30.588  1.00  0.00     0.010 A 
ATOM     66  C   UNL A   1      52.230  31.286  31.944  1.00  0.00     0.020 A 
ATOM     67  C   UNL A   1      50.711  32.969  31.054  1.00  0.00     0.020 A 
ATOM     68  C   UNL A   1      51.875  32.626  31.745  1.00  0.00     0.054 A 
BRANCH  68  69
ATOM     69  S   UNL A   1      52.980  33.919  32.367  1.00  0.00     0.124 S 
ATOM     70  O   UNL A   1      52.045  34.819  33.033  1.00  0.00    -0.237 OA
ATOM     71  O   UNL A   1      53.877  33.176  33.250  1.00  0.00    -0.237 OA
ATOM     72  O   UNL A   1      53.605  34.450  31.157  1.00  0.00    -0.744 OA
ENDBRANCH  68  69
ENDBRANCH  42  63
ENDBRANCH  16  17
ENDBRANCH   9  11
ENDBRANCH   8   9
ENDBRANCH   7   8
ENDBRANCH   6   7
ENDBRANCH   5   6
ENDBRANCH   4   5
ENDBRANCH   3   4
ENDBRANCH   2   3
ENDBRANCH   1   2
BRANCH   1  73
ATOM     73  C   UNL A   1      33.572  27.376  24.383  1.00  0.00     0.188 C 
BRANCH  73  74
ATOM     74  O   UNL A   1      34.077  28.550  24.965  1.00  0.00    -0.376 OA
BRANCH  74  75
ATOM     75  C   UNL A   1      33.688  28.857  26.298  1.00  0.00     0.202 C 
BRANCH  75  76
ATOM     76  C   UNL A   1      34.691  29.201  27.423  1.00  0.00     0.261 C 
BRANCH  76  77
ATOM     77  O   UNL A   1      35.302  30.516  27.387  1.00  0.00    -0.463 OA
BRANCH  77  78
ATOM     78  C   UNL A   1      34.721  31.485  28.137  1.00  0.00     0.312 C 
ATOM     79  O   UNL A   1      33.525  31.746  28.022  1.00  0.00    -0.252 OA
BRANCH  78  80
ATOM     80  C   UNL A   1      35.666  32.341  29.066  1.00  0.00     0.072 C 
ATOM     81  C   UNL A   1      36.960  31.762  29.700  1.00  0.00     0.024 C 
ATOM     82  C   UNL A   1      34.711  32.599  30.293  1.00  0.00     0.054 C 
ATOM     83  C   UNL A   1      37.638  32.683  30.722  1.00  0.00     0.037 C 
ATOM     84  C   UNL A   1      35.309  32.957  31.632  1.00  0.00    -0.044 A 
ATOM     85  C   UNL A   1      36.691  32.977  31.853  1.00  0.00    -0.045 A 
ATOM     86  C   UNL A   1      34.433  33.141  32.714  1.00  0.00     0.004 A 
ATOM     87  C   UNL A   1      37.180  33.230  33.142  1.00  0.00     0.004 A 
ATOM     88  C   UNL A   1      34.925  33.368  33.996  1.00  0.00     0.000 A 
ATOM     89  C   UNL A   1      36.300  33.421  34.209  1.00  0.00     0.000 A 
BRANCH  80  90
ATOM     90  C   UNL A   1      35.983  33.655  28.294  1.00  0.00     0.019 C 
BRANCH  90  91
ATOM     91  C   UNL A   1      34.793  34.504  27.778  1.00  0.00     0.004 C 
BRANCH  91  92
ATOM     92  C   UNL A   1      34.391  35.773  28.543  1.00  0.00     0.028 C 
BRANCH  92  93
ATOM     93  C   UNL A   1      32.913  35.886  28.893  1.00  0.00     0.156 C 
BRANCH  93  94
ATOM     94  O   UNL A   1      32.620  35.137  30.064  1.00  0.00    -0.396 OA
ATOM     95  H   UNL A   1      33.429  35.030  30.590  1.00  0.00     0.210 HD
ENDBRANCH  93  94
ENDBRANCH  92  93
ENDBRANCH  91  92
ENDBRANCH  90  91
ENDBRANCH  80  90
ENDBRANCH  78  80
ENDBRANCH  77  78
ENDBRANCH  76  77
ENDBRANCH  75  76
ENDBRANCH  74  75
ENDBRANCH  73  74
ENDBRANCH   1  73
TORSDOF 28
ENDMDL
MODEL 3
REMARK VINA RESULT:      -6.8      3.327      7.553
REMARK SMILES O=C(OCCOCCOCCOCCOC(=O)[C@]1(CCCCO)CCc2ccccc2C1)c1ccc(-c2c3nc(c(-c4ccc(S(=O)(=O)[O-])cc4)c4ccc([nH]4)c(-c4ccc(S(=O)(=O)[O-])cc4)c4nc(c(-c5ccc(S(=O)(=O)[O-])cc5)c5ccc2[nH]5)C=C4)C=C3)cc1
REMARK SMILES IDX 10 1 9 2 8 3 7 4 6 5 5 6 4 7 3 8 2 9 1 10 33 11 34 12 92 13
REMARK SMILES IDX 35 14 91 15 36 16 37 17 38 18 85 19 39 20 90 21 84 22 86 23
REMARK SMILES IDX 40 24 89 25 83 26 82 27 41 29 71 30 52 31 70 32 53 33 56 34
REMARK SMILES IDX 69 35 87 36 54 37 55 38 68 40 88 41 57 42 42 43 43 44 51 45
REMARK SMILES IDX 44 46 50 47 45 48 46 49 47 50 48 51 49 52 72 53 73 54 81 55
REMARK SMILES IDX 74 56 80 57 75 58 76 59 77 60 78 61 79 62 58 63 59 64 67 65
REMARK SMILES IDX 60 66 66 67 61 68 62 69 63 70 64 71 65 72 11 73 12 74 13 75
REMARK SMILES IDX 14 76 15 77 16 78 17 79 18 80 24 81 32 82 25 83 31 84 26 85
REMARK SMILES IDX 30 86 27 87 29 88 28 89 19 90 20 91 21 92 22 93 23 94
REMARK H PARENT 86 28 56 39 23 95
REMARK Flexibility Score: inf
ROOT
ATOM      1  C   UNL A   1      38.726  30.674  34.116  1.00  0.00     0.188 C 
ENDROOT
BRANCH   1   2
ATOM      2  O   UNL A   1      38.820  32.036  33.696  1.00  0.00    -0.377 OA
BRANCH   2   3
ATOM      3  C   UNL A   1      37.676  32.659  33.129  1.00  0.00     0.188 C 
BRANCH   3   4
ATOM      4  C   UNL A   1      37.114  31.930  31.922  1.00  0.00     0.188 C 
BRANCH   4   5
ATOM      5  O   UNL A   1      35.719  31.843  32.112  1.00  0.00    -0.376 OA
BRANCH   5   6
ATOM      6  C   UNL A   1      34.786  32.469  31.268  1.00  0.00     0.202 C 
BRANCH   6   7
ATOM      7  C   UNL A   1      35.083  32.456  29.789  1.00  0.00     0.261 C 
BRANCH   7   8
ATOM      8  O   UNL A   1      34.602  31.340  28.997  1.00  0.00    -0.460 OA
BRANCH   8   9
ATOM      9  C   UNL A   1      35.141  30.253  28.408  1.00  0.00     0.338 C 
ATOM     10  O   UNL A   1      34.438  29.576  27.651  1.00  0.00    -0.246 OA
BRANCH   9  11
ATOM     11  C   UNL A   1      36.558  29.864  28.550  1.00  0.00     0.060 A 
ATOM     12  C   UNL A   1      37.075  29.206  29.654  1.00  0.00     0.016 A 
ATOM     13  C   UNL A   1      37.401  30.037  27.452  1.00  0.00     0.016 A 
ATOM     14  C   UNL A   1      38.428  29.070  29.846  1.00  0.00     0.010 A 
ATOM     15  C   UNL A   1      38.757  29.715  27.552  1.00  0.00     0.010 A 
ATOM     16  C   UNL A   1      39.286  29.330  28.793  1.00  0.00    -0.014 A 
BRANCH  16  17
ATOM     17  C   UNL A   1      40.725  29.385  29.091  1.00  0.00     0.031 A 
ATOM     18  C   UNL A   1      41.583  28.316  28.482  1.00  0.00     0.074 A 
ATOM     19  C   UNL A   1      41.252  30.454  29.719  1.00  0.00     0.049 A 
ATOM     20  N   UNL A   1      42.842  28.053  28.682  1.00  0.00    -0.248 NA
ATOM     21  C   UNL A   1      40.929  27.413  27.513  1.00  0.00     0.031 C 
ATOM     22  C   UNL A   1      40.503  31.640  30.161  1.00  0.00     0.029 A 
ATOM     23  N   UNL A   1      42.546  30.747  30.046  1.00  0.00    -0.354 N 
ATOM     24  C   UNL A   1      43.103  26.909  27.936  1.00  0.00     0.074 A 
ATOM     25  C   UNL A   1      41.882  26.531  27.270  1.00  0.00     0.031 C 
ATOM     26  C   UNL A   1      41.362  32.550  30.644  1.00  0.00     0.029 A 
ATOM     27  C   UNL A   1      42.693  31.966  30.664  1.00  0.00     0.049 A 
ATOM     28  H   UNL A   1      43.299  30.143  29.857  1.00  0.00     0.167 HD
ATOM     29  C   UNL A   1      44.267  26.231  27.845  1.00  0.00     0.031 A 
ATOM     30  C   UNL A   1      43.783  32.515  31.232  1.00  0.00     0.031 A 
ATOM     31  C   UNL A   1      45.460  26.671  28.511  1.00  0.00     0.049 A 
ATOM     32  C   UNL A   1      45.042  31.692  31.209  1.00  0.00     0.074 A 
ATOM     33  C   UNL A   1      46.695  26.059  28.577  1.00  0.00     0.029 A 
ATOM     34  N   UNL A   1      45.553  27.861  29.224  1.00  0.00    -0.354 N 
ATOM     35  N   UNL A   1      45.257  30.536  30.620  1.00  0.00    -0.248 NA
ATOM     36  C   UNL A   1      46.193  32.226  31.941  1.00  0.00     0.031 C 
ATOM     37  C   UNL A   1      47.519  26.853  29.382  1.00  0.00     0.029 A 
ATOM     38  C   UNL A   1      46.820  27.995  29.753  1.00  0.00     0.049 A 
ATOM     39  H   UNL A   1      44.823  28.512  29.335  1.00  0.00     0.167 HD
ATOM     40  C   UNL A   1      46.579  30.213  30.891  1.00  0.00     0.074 A 
ATOM     41  C   UNL A   1      47.114  31.309  31.682  1.00  0.00     0.031 C 
ATOM     42  C   UNL A   1      47.292  29.117  30.529  1.00  0.00     0.031 A 
BRANCH  29  43
ATOM     43  C   UNL A   1      44.240  24.916  27.113  1.00  0.00    -0.014 A 
ATOM     44  C   UNL A   1      43.811  23.723  27.722  1.00  0.00     0.010 A 
ATOM     45  C   UNL A   1      44.727  24.871  25.793  1.00  0.00     0.010 A 
ATOM     46  C   UNL A   1      43.915  22.504  27.043  1.00  0.00     0.020 A 
ATOM     47  C   UNL A   1      44.804  23.660  25.100  1.00  0.00     0.020 A 
ATOM     48  C   UNL A   1      44.416  22.481  25.737  1.00  0.00     0.054 A 
BRANCH  48  49
ATOM     49  S   UNL A   1      44.542  20.888  24.877  1.00  0.00     0.124 S 
ATOM     50  O   UNL A   1      43.342  20.198  25.341  1.00  0.00    -0.237 OA
ATOM     51  O   UNL A   1      44.535  21.285  23.471  1.00  0.00    -0.237 OA
ATOM     52  O   UNL A   1      45.806  20.333  25.358  1.00  0.00    -0.744 OA
ENDBRANCH  48  49
ENDBRANCH  29  43
BRANCH  30  53
ATOM     53  C   UNL A   1      43.705  33.834  31.922  1.00  0.00    -0.014 A 
ATOM     54  C   UNL A   1      43.324  33.925  33.272  1.00  0.00     0.010 A 
ATOM     55  C   UNL A   1      44.015  35.020  31.227  1.00  0.00     0.010 A 
ATOM     56  C   UNL A   1      43.235  35.171  33.904  1.00  0.00     0.020 A 
ATOM     57  C   UNL A   1      43.959  36.264  31.863  1.00  0.00     0.020 A 
ATOM     58  C   UNL A   1      43.553  36.333  33.196  1.00  0.00     0.054 A 
BRANCH  58  59
ATOM     59  S   UNL A   1      43.453  37.935  34.043  1.00  0.00     0.124 S 
ATOM     60  O   UNL A   1      42.234  37.786  34.832  1.00  0.00    -0.237 OA
ATOM     61  O   UNL A   1      44.699  37.967  34.803  1.00  0.00    -0.237 OA
ATOM     62  O   UNL A   1      43.374  38.899  32.946  1.00  0.00    -0.744 OA
ENDBRANCH  58  59
ENDBRANCH  30  53
BRANCH  42  63
ATOM     63  C   UNL A   1      48.735  29.094  30.937  1.00  0.00    -0.014 A 
ATOM     64  C   UNL A   1      49.146  28.487  32.135  1.00  0.00     0.010 A 
ATOM     65  C   UNL A   1      49.694  29.642  30.067  1.00  0.00     0.010 A 
ATOM     66  C   UNL A   1      50.498  28.465  32.476  1.00  0.00     0.020 A 
ATOM     67  C   UNL A   1      51.048  29.589  30.387  1.00  0.00     0.020 A 
ATOM     68  C   UNL A   1      51.440  29.016  31.599  1.00  0.00     0.054 A 
BRANCH  68  69
ATOM     69  S   UNL A   1      53.193  28.937  32.044  1.00  0.00     0.124 S 
ATOM     70  O   UNL A   1      53.308  27.584  32.578  1.00  0.00    -0.237 OA
ATOM     71  O   UNL A   1      53.859  29.169  30.765  1.00  0.00    -0.237 OA
ATOM     72  O   UNL A   1      53.348  30.011  33.024  1.00  0.00    -0.744 OA
ENDBRANCH  68  69
ENDBRANCH  42  63
ENDBRANCH  16  17
ENDBRANCH   9  11
ENDBRANCH   8   9
ENDBRANCH   7   8
ENDBRANCH   6   7
ENDBRANCH   5   6
ENDBRANCH   4   5
ENDBRANCH   3   4
ENDBRANCH   2   3
ENDBRANCH   1   2
BRANCH   1  73
ATOM     73  C   UNL A   1      39.635  29.569  33.575  1.00  0.00     0.188 C 
BRANCH  73  74
ATOM     74  O   UNL A   1      40.899  29.971  33.113  1.00  0.00    -0.376 OA
BRANCH  74  75
ATOM     75  C   UNL A   1      41.997  29.089  33.313  1.00  0.00     0.202 C 
BRANCH  75  76
ATOM     76  C   UNL A   1      42.654  28.271  32.177  1.00  0.00     0.261 C 
BRANCH  76  77
ATOM     77  O   UNL A   1      44.062  27.953  32.319  1.00  0.00    -0.463 OA
BRANCH  77  78
ATOM     78  C   UNL A   1      44.413  26.648  32.196  1.00  0.00     0.312 C 
ATOM     79  O   UNL A   1      43.882  25.924  31.355  1.00  0.00    -0.252 OA
BRANCH  78  80
ATOM     80  C   UNL A   1      45.431  26.073  33.254  1.00  0.00     0.072 C 
ATOM     81  C   UNL A   1      46.899  25.719  32.891  1.00  0.00     0.024 C 
ATOM     82  C   UNL A   1      44.762  24.684  33.576  1.00  0.00     0.054 C 
ATOM     83  C   UNL A   1      47.674  24.996  34.001  1.00  0.00     0.037 C 
ATOM     84  C   UNL A   1      45.604  23.576  34.163  1.00  0.00    -0.044 A 
ATOM     85  C   UNL A   1      46.986  23.704  34.346  1.00  0.00    -0.045 A 
ATOM     86  C   UNL A   1      44.987  22.338  34.401  1.00  0.00     0.004 A 
ATOM     87  C   UNL A   1      47.724  22.608  34.812  1.00  0.00     0.004 A 
ATOM     88  C   UNL A   1      45.730  21.246  34.841  1.00  0.00     0.000 A 
ATOM     89  C   UNL A   1      47.098  21.383  35.055  1.00  0.00     0.000 A 
BRANCH  80  90
ATOM     90  C   UNL A   1      45.392  27.032  34.480  1.00  0.00     0.019 C 
BRANCH  90  91
ATOM     91  C   UNL A   1      46.399  28.209  34.519  1.00  0.00     0.004 C 
BRANCH  91  92
ATOM     92  C   UNL A   1      45.887  29.625  34.815  1.00  0.00     0.028 C 
BRANCH  92  93
ATOM     93  C   UNL A   1      46.868  30.539  35.536  1.00  0.00     0.156 C 
BRANCH  93  94
ATOM     94  O   UNL A   1      48.151  30.472  34.928  1.00  0.00    -0.396 OA
ATOM     95  H   UNL A   1      48.463  31.371  34.735  1.00  0.00     0.210 HD
ENDBRANCH  93  94
ENDBRANCH  92  93
ENDBRANCH  91  92
ENDBRANCH  90  91
ENDBRANCH  80  90
ENDBRANCH  78  80
ENDBRANCH  77  78
ENDBRANCH  76  77
ENDBRANCH  75  76
ENDBRANCH  74  75
ENDBRANCH  73  74
ENDBRANCH   1  73
TORSDOF 28
ENDMDL
