MODEL 1
REMARK VINA RESULT:     -10.8      0.000      0.000
REMARK SMILES Cn1cc(C[C@@H](NC(=O)OCC2c3ccccc3-c3ccccc32)C(=O)OCCOCCOCCOCCOC(=O)c2ccc(-c3c4nc(c(-c5ccc(S(=O)(=O)[O-])cc5)c5ccc([nH]5)c(-c5ccc(S(=O)(=O)[O-])cc5)c5nc(c(-c6ccc(S(=O)(=O)[O-])cc6)c6ccc3[nH]6)C=C5)C=C4)cc2)c2ccccc21
REMARK SMILES IDX 32 1 31 2 30 3 29 4 28 5 27 6 25 7 26 8 6 9 5 10 4 11 1 12
REMARK SMILES IDX 2 13 3 14 107 15 102 16 106 17 103 18 105 19 104 20 7 21
REMARK SMILES IDX 8 22 9 24 10 25 11 26 12 27 13 28 24 29 14 30 18 31 19 32
REMARK SMILES IDX 23 33 15 34 17 35 20 36 22 37 16 38 21 39 33 40 34 41 35 42
REMARK SMILES IDX 36 43 37 44 38 45 39 46 40 47 41 48 42 49 43 50 101 51 44 52
REMARK SMILES IDX 100 53 45 54 46 55 47 56 94 57 48 58 99 59 93 60 95 61 49 62
REMARK SMILES IDX 98 63 92 64 91 65 50 67 80 68 61 69 79 70 62 71 65 72 78 73
REMARK SMILES IDX 96 74 63 75 64 76 77 78 97 79 66 80 51 81 52 82 60 83 53 84
REMARK SMILES IDX 59 85 54 86 55 87 56 88 57 89 58 90 81 91 82 92 90 93 83 94
REMARK SMILES IDX 89 95 84 96 85 97 86 98 87 99 88 100 67 101 68 102 76 103
REMARK SMILES IDX 69 104 75 105 70 106 71 107 72 108 73 109 74 110
REMARK H PARENT 7 23 95 66 65 77
REMARK Flexibility Score: inf
ROOT
ATOM      1  C   UNL A   1      35.612  22.207  26.780  1.00  0.00     0.188 C 
ENDROOT
BRANCH   1   2
ATOM      2  C   UNL A   1      34.263  22.941  26.836  1.00  0.00     0.188 C 
BRANCH   2   3
ATOM      3  O   UNL A   1      33.909  23.865  25.817  1.00  0.00    -0.376 OA
BRANCH   3   4
ATOM      4  C   UNL A   1      34.917  24.461  25.006  1.00  0.00     0.202 C 
BRANCH   4   5
ATOM      5  C   UNL A   1      35.236  23.906  23.618  1.00  0.00     0.261 C 
BRANCH   5   6
ATOM      6  O   UNL A   1      34.339  22.882  23.156  1.00  0.00    -0.462 OA
BRANCH   6   7
ATOM      7  C   UNL A   1      33.371  23.287  22.292  1.00  0.00     0.329 C 
ATOM      8  O   UNL A   1      33.481  24.235  21.519  1.00  0.00    -0.250 OA
BRANCH   7   9
ATOM      9  C   UNL A   1      32.046  22.548  22.488  1.00  0.00     0.200 C 
BRANCH   9  10
ATOM     10  C   UNL A   1      31.947  21.043  22.154  1.00  0.00     0.075 C 
BRANCH  10  11
ATOM     11  C   UNL A   1      32.312  20.198  23.370  1.00  0.00    -0.020 A 
ATOM     12  C   UNL A   1      32.946  19.637  26.908  1.00  0.00     0.149 C 
ATOM     13  N   UNL A   1      32.831  19.609  25.466  1.00  0.00    -0.350 N 
ATOM     14  C   UNL A   1      32.299  20.609  24.694  1.00  0.00     0.090 A 
ATOM     15  C   UNL A   1      33.250  18.565  24.673  1.00  0.00     0.048 A 
ATOM     16  C   UNL A   1      32.831  18.857  23.372  1.00  0.00     0.003 A 
ATOM     17  C   UNL A   1      33.952  17.388  24.989  1.00  0.00     0.027 A 
ATOM     18  C   UNL A   1      33.040  17.883  22.373  1.00  0.00     0.010 A 
ATOM     19  C   UNL A   1      34.218  16.484  23.957  1.00  0.00     0.002 A 
ATOM     20  C   UNL A   1      33.753  16.718  22.669  1.00  0.00     0.001 A 
ENDBRANCH  10  11
ENDBRANCH   9  10
BRANCH   9  21
ATOM     21  N   UNL A   1      31.443  22.862  23.779  1.00  0.00    -0.308 N 
ATOM     22  C   UNL A   1      31.026  24.084  24.213  1.00  0.00     0.407 C 
ATOM     23  H   UNL A   1      31.325  22.110  24.404  1.00  0.00     0.168 HD
ATOM     24  O   UNL A   1      31.059  24.376  25.400  1.00  0.00    -0.225 OA
BRANCH  22  25
ATOM     25  O   UNL A   1      30.425  24.814  23.242  1.00  0.00    -0.449 OA
BRANCH  25  26
ATOM     26  C   UNL A   1      30.904  26.163  23.076  1.00  0.00     0.248 C 
BRANCH  26  27
ATOM     27  C   UNL A   1      30.414  27.111  24.201  1.00  0.00     0.088 C 
ATOM     28  C   UNL A   1      31.520  27.908  24.900  1.00  0.00    -0.029 A 
ATOM     29  C   UNL A   1      29.485  28.234  23.739  1.00  0.00    -0.029 A 
ATOM     30  C   UNL A   1      32.597  27.436  25.639  1.00  0.00     0.005 A 
ATOM     31  C   UNL A   1      31.254  29.292  24.811  1.00  0.00    -0.014 A 
ATOM     32  C   UNL A   1      30.050  29.491  24.039  1.00  0.00    -0.014 A 
ATOM     33  C   UNL A   1      28.281  28.139  23.059  1.00  0.00     0.005 A 
ATOM     34  C   UNL A   1      33.401  28.366  26.307  1.00  0.00     0.000 A 
ATOM     35  C   UNL A   1      32.053  30.214  25.472  1.00  0.00     0.009 A 
ATOM     36  C   UNL A   1      29.460  30.657  23.579  1.00  0.00     0.009 A 
ATOM     37  C   UNL A   1      27.700  29.312  22.572  1.00  0.00     0.000 A 
ATOM     38  C   UNL A   1      33.127  29.743  26.230  1.00  0.00     0.001 A 
ATOM     39  C   UNL A   1      28.290  30.560  22.820  1.00  0.00     0.001 A 
ENDBRANCH  26  27
ENDBRANCH  25  26
ENDBRANCH  22  25
ENDBRANCH   9  21
ENDBRANCH   7   9
ENDBRANCH   6   7
ENDBRANCH   5   6
ENDBRANCH   4   5
ENDBRANCH   3   4
ENDBRANCH   2   3
ENDBRANCH   1   2
BRANCH   1  40
ATOM     40  O   UNL A   1      35.697  21.178  25.814  1.00  0.00    -0.377 OA
BRANCH  40  41
ATOM     41  C   UNL A   1      36.946  20.939  25.171  1.00  0.00     0.188 C 
BRANCH  41  42
ATOM     42  C   UNL A   1      38.119  21.907  25.418  1.00  0.00     0.188 C 
BRANCH  42  43
ATOM     43  O   UNL A   1      39.306  21.263  25.868  1.00  0.00    -0.376 OA
BRANCH  43  44
ATOM     44  C   UNL A   1      40.130  21.971  26.786  1.00  0.00     0.202 C 
BRANCH  44  45
ATOM     45  C   UNL A   1      40.072  23.503  26.706  1.00  0.00     0.261 C 
BRANCH  45  46
ATOM     46  O   UNL A   1      41.326  24.181  26.507  1.00  0.00    -0.460 OA
BRANCH  46  47
ATOM     47  C   UNL A   1      41.313  25.486  26.166  1.00  0.00     0.338 C 
ATOM     48  O   UNL A   1      41.126  25.962  25.063  1.00  0.00    -0.246 OA
BRANCH  47  49
ATOM     49  C   UNL A   1      41.382  26.271  27.413  1.00  0.00     0.060 A 
ATOM     50  C   UNL A   1      40.493  25.976  28.455  1.00  0.00     0.016 A 
ATOM     51  C   UNL A   1      42.303  27.313  27.535  1.00  0.00     0.016 A 
ATOM     52  C   UNL A   1      40.493  26.757  29.610  1.00  0.00     0.010 A 
ATOM     53  C   UNL A   1      42.287  28.106  28.682  1.00  0.00     0.010 A 
ATOM     54  C   UNL A   1      41.357  27.856  29.706  1.00  0.00    -0.014 A 
BRANCH  54  55
ATOM     55  C   UNL A   1      41.148  28.882  30.753  1.00  0.00     0.031 A 
ATOM     56  C   UNL A   1      42.027  28.830  31.974  1.00  0.00     0.074 A 
ATOM     57  C   UNL A   1      40.192  29.821  30.640  1.00  0.00     0.049 A 
ATOM     58  N   UNL A   1      41.971  29.544  33.067  1.00  0.00    -0.248 NA
ATOM     59  C   UNL A   1      43.113  27.835  31.957  1.00  0.00     0.031 C 
ATOM     60  C   UNL A   1      39.314  30.004  29.486  1.00  0.00     0.029 A 
ATOM     61  N   UNL A   1      39.794  30.791  31.525  1.00  0.00    -0.354 N 
ATOM     62  C   UNL A   1      43.002  29.076  33.873  1.00  0.00     0.074 A 
ATOM     63  C   UNL A   1      43.655  28.005  33.153  1.00  0.00     0.031 C 
ATOM     64  C   UNL A   1      38.466  31.016  29.741  1.00  0.00     0.029 A 
ATOM     65  C   UNL A   1      38.715  31.524  31.089  1.00  0.00     0.049 A 
ATOM     66  H   UNL A   1      40.238  30.946  32.389  1.00  0.00     0.167 HD
ATOM     67  C   UNL A   1      43.373  29.499  35.103  1.00  0.00     0.031 A 
ATOM     68  C   UNL A   1      37.997  32.473  31.721  1.00  0.00     0.031 A 
ATOM     69  C   UNL A   1      42.707  30.549  35.824  1.00  0.00     0.049 A 
ATOM     70  C   UNL A   1      38.373  32.870  33.127  1.00  0.00     0.074 A 
ATOM     71  C   UNL A   1      43.005  31.056  37.077  1.00  0.00     0.029 A 
ATOM     72  N   UNL A   1      41.603  31.248  35.361  1.00  0.00    -0.354 N 
ATOM     73  N   UNL A   1      39.361  32.430  33.873  1.00  0.00    -0.248 NA
ATOM     74  C   UNL A   1      37.539  33.892  33.776  1.00  0.00     0.031 C 
ATOM     75  C   UNL A   1      42.047  32.024  37.393  1.00  0.00     0.029 A 
ATOM     76  C   UNL A   1      41.191  32.165  36.311  1.00  0.00     0.049 A 
ATOM     77  H   UNL A   1      41.175  31.112  34.484  1.00  0.00     0.167 HD
ATOM     78  C   UNL A   1      39.284  33.146  35.064  1.00  0.00     0.074 A 
ATOM     79  C   UNL A   1      38.161  34.051  34.938  1.00  0.00     0.031 C 
ATOM     80  C   UNL A   1      40.075  33.065  36.163  1.00  0.00     0.031 A 
BRANCH  67  81
ATOM     81  C   UNL A   1      44.529  28.795  35.760  1.00  0.00    -0.014 A 
ATOM     82  C   UNL A   1      44.342  27.599  36.474  1.00  0.00     0.010 A 
ATOM     83  C   UNL A   1      45.825  29.326  35.637  1.00  0.00     0.010 A 
ATOM     84  C   UNL A   1      45.427  26.965  37.086  1.00  0.00     0.020 A 
ATOM     85  C   UNL A   1      46.917  28.681  36.224  1.00  0.00     0.020 A 
ATOM     86  C   UNL A   1      46.707  27.512  36.959  1.00  0.00     0.054 A 
BRANCH  86  87
ATOM     87  S   UNL A   1      48.100  26.657  37.745  1.00  0.00     0.124 S 
ATOM     88  O   UNL A   1      49.187  27.613  37.553  1.00  0.00    -0.237 OA
ATOM     89  O   UNL A   1      47.642  26.496  39.123  1.00  0.00    -0.237 OA
ATOM     90  O   UNL A   1      48.220  25.415  36.983  1.00  0.00    -0.744 OA
ENDBRANCH  86  87
ENDBRANCH  67  81
BRANCH  68  91
ATOM     91  C   UNL A   1      36.829  33.102  31.044  1.00  0.00    -0.014 A 
ATOM     92  C   UNL A   1      36.977  33.723  29.791  1.00  0.00     0.010 A 
ATOM     93  C   UNL A   1      35.561  33.091  31.655  1.00  0.00     0.010 A 
ATOM     94  C   UNL A   1      35.884  34.338  29.172  1.00  0.00     0.020 A 
ATOM     95  C   UNL A   1      34.460  33.680  31.026  1.00  0.00     0.020 A 
ATOM     96  C   UNL A   1      34.631  34.310  29.792  1.00  0.00     0.054 A 
BRANCH  96  97
ATOM     97  S   UNL A   1      33.219  35.074  28.947  1.00  0.00     0.124 S 
ATOM     98  O   UNL A   1      32.852  34.047  27.979  1.00  0.00    -0.237 OA
ATOM     99  O   UNL A   1      32.274  35.282  30.041  1.00  0.00    -0.237 OA
ATOM    100  O   UNL A   1      33.782  36.298  28.380  1.00  0.00    -0.744 OA
ENDBRANCH  96  97
ENDBRANCH  68  91
BRANCH  80 101
ATOM    101  C   UNL A   1      39.792  34.006  37.304  1.00  0.00    -0.014 A 
ATOM    102  C   UNL A   1      38.863  33.681  38.307  1.00  0.00     0.010 A 
ATOM    103  C   UNL A   1      40.532  35.199  37.413  1.00  0.00     0.010 A 
ATOM    104  C   UNL A   1      38.666  34.543  39.391  1.00  0.00     0.020 A 
ATOM    105  C   UNL A   1      40.356  36.048  38.508  1.00  0.00     0.020 A 
ATOM    106  C   UNL A   1      39.415  35.720  39.486  1.00  0.00     0.054 A 
BRANCH 106 107
ATOM    107  S   UNL A   1      39.185  36.789  40.933  1.00  0.00     0.124 S 
ATOM    108  O   UNL A   1      38.502  37.941  40.354  1.00  0.00    -0.237 OA
ATOM    109  O   UNL A   1      38.377  35.957  41.820  1.00  0.00    -0.237 OA
ATOM    110  O   UNL A   1      40.548  37.041  41.397  1.00  0.00    -0.744 OA
ENDBRANCH 106 107
ENDBRANCH  80 101
ENDBRANCH  54  55
ENDBRANCH  47  49
ENDBRANCH  46  47
ENDBRANCH  45  46
ENDBRANCH  44  45
ENDBRANCH  43  44
ENDBRANCH  42  43
ENDBRANCH  41  42
ENDBRANCH  40  41
ENDBRANCH   1  40
TORSDOF 29
ENDMDL
MODEL 2
REMARK VINA RESULT:     -10.7      5.983      9.056
REMARK SMILES Cn1cc(C[C@@H](NC(=O)OCC2c3ccccc3-c3ccccc32)C(=O)OCCOCCOCCOCCOC(=O)c2ccc(-c3c4nc(c(-c5ccc(S(=O)(=O)[O-])cc5)c5ccc([nH]5)c(-c5ccc(S(=O)(=O)[O-])cc5)c5nc(c(-c6ccc(S(=O)(=O)[O-])cc6)c6ccc3[nH]6)C=C5)C=C4)cc2)c2ccccc21
REMARK SMILES IDX 32 1 31 2 30 3 29 4 28 5 27 6 25 7 26 8 6 9 5 10 4 11 1 12
REMARK SMILES IDX 2 13 3 14 107 15 102 16 106 17 103 18 105 19 104 20 7 21
REMARK SMILES IDX 8 22 9 24 10 25 11 26 12 27 13 28 24 29 14 30 18 31 19 32
REMARK SMILES IDX 23 33 15 34 17 35 20 36 22 37 16 38 21 39 33 40 34 41 35 42
REMARK SMILES IDX 36 43 37 44 38 45 39 46 40 47 41 48 42 49 43 50 101 51 44 52
REMARK SMILES IDX 100 53 45 54 46 55 47 56 94 57 48 58 99 59 93 60 95 61 49 62
REMARK SMILES IDX 98 63 92 64 91 65 50 67 80 68 61 69 79 70 62 71 65 72 78 73
REMARK SMILES IDX 96 74 63 75 64 76 77 78 97 79 66 80 51 81 52 82 60 83 53 84
REMARK SMILES IDX 59 85 54 86 55 87 56 88 57 89 58 90 81 91 82 92 90 93 83 94
REMARK SMILES IDX 89 95 84 96 85 97 86 98 87 99 88 100 67 101 68 102 76 103
REMARK SMILES IDX 69 104 75 105 70 106 71 107 72 108 73 109 74 110
REMARK H PARENT 7 23 95 66 65 77
REMARK Flexibility Score: inf
ROOT
ATOM      1  C   UNL A   1      37.679  22.773  25.534  1.00  0.00     0.188 C 
ENDROOT
BRANCH   1   2
ATOM      2  C   UNL A   1      36.819  21.889  24.615  1.00  0.00     0.188 C 
BRANCH   2   3
ATOM      3  O   UNL A   1      35.433  22.154  24.462  1.00  0.00    -0.376 OA
BRANCH   3   4
ATOM      4  C   UNL A   1      34.516  21.801  25.494  1.00  0.00     0.202 C 
BRANCH   4   5
ATOM      5  C   UNL A   1      33.413  22.767  25.927  1.00  0.00     0.261 C 
BRANCH   5   6
ATOM      6  O   UNL A   1      33.881  23.994  26.513  1.00  0.00    -0.462 OA
BRANCH   6   7
ATOM      7  C   UNL A   1      33.655  25.122  25.789  1.00  0.00     0.329 C 
ATOM      8  O   UNL A   1      34.350  25.496  24.849  1.00  0.00    -0.250 OA
BRANCH   7   9
ATOM      9  C   UNL A   1      32.532  25.987  26.365  1.00  0.00     0.200 C 
BRANCH   9  10
ATOM     10  C   UNL A   1      32.208  27.354  25.723  1.00  0.00     0.075 C 
BRANCH  10  11
ATOM     11  C   UNL A   1      33.083  28.449  26.324  1.00  0.00    -0.020 A 
ATOM     12  C   UNL A   1      35.971  29.722  28.133  1.00  0.00     0.149 C 
ATOM     13  N   UNL A   1      34.712  29.477  27.465  1.00  0.00    -0.350 N 
ATOM     14  C   UNL A   1      34.322  28.279  26.923  1.00  0.00     0.090 A 
ATOM     15  C   UNL A   1      33.729  30.425  27.286  1.00  0.00     0.048 A 
ATOM     16  C   UNL A   1      32.752  29.840  26.475  1.00  0.00     0.003 A 
ATOM     17  C   UNL A   1      33.621  31.743  27.760  1.00  0.00     0.027 A 
ATOM     18  C   UNL A   1      31.677  30.647  26.046  1.00  0.00     0.010 A 
ATOM     19  C   UNL A   1      32.498  32.487  27.386  1.00  0.00     0.002 A 
ATOM     20  C   UNL A   1      31.547  31.953  26.525  1.00  0.00     0.001 A 
ENDBRANCH  10  11
ENDBRANCH   9  10
BRANCH   9  21
ATOM     21  N   UNL A   1      31.327  25.203  26.616  1.00  0.00    -0.308 N 
ATOM     22  C   UNL A   1      30.100  25.384  26.053  1.00  0.00     0.407 C 
ATOM     23  H   UNL A   1      31.409  24.465  27.263  1.00  0.00     0.168 HD
ATOM     24  O   UNL A   1      29.079  25.103  26.663  1.00  0.00    -0.225 OA
BRANCH  22  25
ATOM     25  O   UNL A   1      30.164  25.708  24.739  1.00  0.00    -0.449 OA
BRANCH  25  26
ATOM     26  C   UNL A   1      28.959  26.249  24.160  1.00  0.00     0.248 C 
BRANCH  26  27
ATOM     27  C   UNL A   1      29.243  27.165  22.943  1.00  0.00     0.088 C 
ATOM     28  C   UNL A   1      28.816  28.625  23.121  1.00  0.00    -0.029 A 
ATOM     29  C   UNL A   1      30.722  27.328  22.589  1.00  0.00    -0.029 A 
ATOM     30  C   UNL A   1      27.544  29.140  23.329  1.00  0.00     0.005 A 
ATOM     31  C   UNL A   1      29.920  29.483  22.922  1.00  0.00    -0.014 A 
ATOM     32  C   UNL A   1      31.097  28.685  22.670  1.00  0.00    -0.014 A 
ATOM     33  C   UNL A   1      31.655  26.349  22.287  1.00  0.00     0.005 A 
ATOM     34  C   UNL A   1      27.381  30.529  23.319  1.00  0.00     0.000 A 
ATOM     35  C   UNL A   1      29.758  30.861  22.914  1.00  0.00     0.009 A 
ATOM     36  C   UNL A   1      32.425  29.058  22.539  1.00  0.00     0.009 A 
ATOM     37  C   UNL A   1      32.996  26.720  22.183  1.00  0.00     0.000 A 
ATOM     38  C   UNL A   1      28.477  31.383  23.106  1.00  0.00     0.001 A 
ATOM     39  C   UNL A   1      33.381  28.062  22.320  1.00  0.00     0.001 A 
ENDBRANCH  26  27
ENDBRANCH  25  26
ENDBRANCH  22  25
ENDBRANCH   9  21
ENDBRANCH   7   9
ENDBRANCH   6   7
ENDBRANCH   5   6
ENDBRANCH   4   5
ENDBRANCH   3   4
ENDBRANCH   2   3
ENDBRANCH   1   2
BRANCH   1  40
ATOM     40  O   UNL A   1      38.772  22.119  26.147  1.00  0.00    -0.377 OA
BRANCH  40  41
ATOM     41  C   UNL A   1      39.906  22.889  26.532  1.00  0.00     0.188 C 
BRANCH  41  42
ATOM     42  C   UNL A   1      40.876  22.329  27.589  1.00  0.00     0.188 C 
BRANCH  42  43
ATOM     43  O   UNL A   1      40.582  20.993  27.984  1.00  0.00    -0.376 OA
BRANCH  43  44
ATOM     44  C   UNL A   1      41.510  19.980  27.615  1.00  0.00     0.202 C 
BRANCH  44  45
ATOM     45  C   UNL A   1      41.463  19.518  26.152  1.00  0.00     0.261 C 
BRANCH  45  46
ATOM     46  O   UNL A   1      42.269  20.262  25.220  1.00  0.00    -0.460 OA
BRANCH  46  47
ATOM     47  C   UNL A   1      43.612  20.155  25.291  1.00  0.00     0.338 C 
ATOM     48  O   UNL A   1      44.285  19.158  25.123  1.00  0.00    -0.246 OA
BRANCH  47  49
ATOM     49  C   UNL A   1      44.159  21.519  25.428  1.00  0.00     0.060 A 
ATOM     50  C   UNL A   1      45.329  21.713  26.173  1.00  0.00     0.016 A 
ATOM     51  C   UNL A   1      43.497  22.600  24.844  1.00  0.00     0.016 A 
ATOM     52  C   UNL A   1      45.816  23.004  26.377  1.00  0.00     0.010 A 
ATOM     53  C   UNL A   1      43.974  23.892  25.066  1.00  0.00     0.010 A 
ATOM     54  C   UNL A   1      45.111  24.101  25.866  1.00  0.00    -0.014 A 
BRANCH  54  55
ATOM     55  C   UNL A   1      45.413  25.471  26.342  1.00  0.00     0.031 A 
ATOM     56  C   UNL A   1      46.770  26.042  26.029  1.00  0.00     0.074 A 
ATOM     57  C   UNL A   1      44.520  26.183  27.052  1.00  0.00     0.049 A 
ATOM     58  N   UNL A   1      47.308  27.165  26.423  1.00  0.00    -0.248 NA
ATOM     59  C   UNL A   1      47.636  25.230  25.156  1.00  0.00     0.031 C 
ATOM     60  C   UNL A   1      43.159  25.759  27.374  1.00  0.00     0.029 A 
ATOM     61  N   UNL A   1      44.639  27.415  27.643  1.00  0.00    -0.354 N 
ATOM     62  C   UNL A   1      48.578  27.190  25.859  1.00  0.00     0.074 A 
ATOM     63  C   UNL A   1      48.739  25.962  25.113  1.00  0.00     0.031 C 
ATOM     64  C   UNL A   1      42.574  26.710  28.123  1.00  0.00     0.029 A 
ATOM     65  C   UNL A   1      43.530  27.789  28.364  1.00  0.00     0.049 A 
ATOM     66  H   UNL A   1      45.444  27.977  27.561  1.00  0.00     0.167 HD
ATOM     67  C   UNL A   1      49.527  28.150  25.953  1.00  0.00     0.031 A 
ATOM     68  C   UNL A   1      43.326  28.865  29.150  1.00  0.00     0.031 A 
ATOM     69  C   UNL A   1      49.371  29.359  26.714  1.00  0.00     0.049 A 
ATOM     70  C   UNL A   1      44.429  29.881  29.312  1.00  0.00     0.074 A 
ATOM     71  C   UNL A   1      50.272  30.398  26.873  1.00  0.00     0.029 A 
ATOM     72  N   UNL A   1      48.244  29.688  27.451  1.00  0.00    -0.354 N 
ATOM     73  N   UNL A   1      45.621  29.901  28.761  1.00  0.00    -0.248 NA
ATOM     74  C   UNL A   1      44.160  31.021  30.201  1.00  0.00     0.031 C 
ATOM     75  C   UNL A   1      49.709  31.330  27.751  1.00  0.00     0.029 A 
ATOM     76  C   UNL A   1      48.433  30.902  28.087  1.00  0.00     0.049 A 
ATOM     77  H   UNL A   1      47.428  29.140  27.512  1.00  0.00     0.167 HD
ATOM     78  C   UNL A   1      46.229  31.069  29.211  1.00  0.00     0.074 A 
ATOM     79  C   UNL A   1      45.273  31.733  30.073  1.00  0.00     0.031 C 
ATOM     80  C   UNL A   1      47.465  31.552  28.934  1.00  0.00     0.031 A 
BRANCH  67  81
ATOM     81  C   UNL A   1      50.832  27.907  25.245  1.00  0.00    -0.014 A 
ATOM     82  C   UNL A   1      50.945  28.065  23.853  1.00  0.00     0.010 A 
ATOM     83  C   UNL A   1      51.967  27.540  25.989  1.00  0.00     0.010 A 
ATOM     84  C   UNL A   1      52.164  27.823  23.212  1.00  0.00     0.020 A 
ATOM     85  C   UNL A   1      53.194  27.325  25.356  1.00  0.00     0.020 A 
ATOM     86  C   UNL A   1      53.280  27.452  23.968  1.00  0.00     0.054 A 
BRANCH  86  87
ATOM     87  S   UNL A   1      54.853  27.167  23.113  1.00  0.00     0.124 S 
ATOM     88  O   UNL A   1      55.490  26.177  23.977  1.00  0.00    -0.237 OA
ATOM     89  O   UNL A   1      54.423  26.675  21.806  1.00  0.00    -0.237 OA
ATOM     90  O   UNL A   1      55.487  28.483  23.101  1.00  0.00    -0.744 OA
ENDBRANCH  86  87
ENDBRANCH  67  81
BRANCH  68  91
ATOM     91  C   UNL A   1      42.032  29.031  29.869  1.00  0.00    -0.014 A 
ATOM     92  C   UNL A   1      41.820  28.410  31.112  1.00  0.00     0.010 A 
ATOM     93  C   UNL A   1      41.000  29.806  29.308  1.00  0.00     0.010 A 
ATOM     94  C   UNL A   1      40.594  28.544  31.771  1.00  0.00     0.020 A 
ATOM     95  C   UNL A   1      39.782  29.965  29.977  1.00  0.00     0.020 A 
ATOM     96  C   UNL A   1      39.583  29.324  31.200  1.00  0.00     0.054 A 
BRANCH  96  97
ATOM     97  S   UNL A   1      38.018  29.519  32.097  1.00  0.00     0.124 S 
ATOM     98  O   UNL A   1      37.110  28.695  31.307  1.00  0.00    -0.237 OA
ATOM     99  O   UNL A   1      38.350  29.004  33.423  1.00  0.00    -0.237 OA
ATOM    100  O   UNL A   1      37.770  30.958  32.041  1.00  0.00    -0.744 OA
ENDBRANCH  96  97
ENDBRANCH  68  91
BRANCH  80 101
ATOM    101  C   UNL A   1      47.849  32.883  29.525  1.00  0.00    -0.014 A 
ATOM    102  C   UNL A   1      47.898  34.046  28.738  1.00  0.00     0.010 A 
ATOM    103  C   UNL A   1      48.083  32.980  30.910  1.00  0.00     0.010 A 
ATOM    104  C   UNL A   1      48.193  35.281  29.325  1.00  0.00     0.020 A 
ATOM    105  C   UNL A   1      48.352  34.216  31.503  1.00  0.00     0.020 A 
ATOM    106  C   UNL A   1      48.416  35.359  30.703  1.00  0.00     0.054 A 
BRANCH 106 107
ATOM    107  S   UNL A   1      48.735  36.981  31.448  1.00  0.00     0.124 S 
ATOM    108  O   UNL A   1      47.988  37.873  30.566  1.00  0.00    -0.237 OA
ATOM    109  O   UNL A   1      48.192  36.828  32.796  1.00  0.00    -0.237 OA
ATOM    110  O   UNL A   1      50.189  37.114  31.381  1.00  0.00    -0.744 OA
ENDBRANCH 106 107
ENDBRANCH  80 101
ENDBRANCH  54  55
ENDBRANCH  47  49
ENDBRANCH  46  47
ENDBRANCH  45  46
ENDBRANCH  44  45
ENDBRANCH  43  44
ENDBRANCH  42  43
ENDBRANCH  41  42
ENDBRANCH  40  41
ENDBRANCH   1  40
TORSDOF 29
ENDMDL
MODEL 3
REMARK VINA RESULT:     -10.6      5.872     10.476
REMARK SMILES Cn1cc(C[C@@H](NC(=O)OCC2c3ccccc3-c3ccccc32)C(=O)OCCOCCOCCOCCOC(=O)c2ccc(-c3c4nc(c(-c5ccc(S(=O)(=O)[O-])cc5)c5ccc([nH]5)c(-c5ccc(S(=O)(=O)[O-])cc5)c5nc(c(-c6ccc(S(=O)(=O)[O-])cc6)c6ccc3[nH]6)C=C5)C=C4)cc2)c2ccccc21
REMARK SMILES IDX 32 1 31 2 30 3 29 4 28 5 27 6 25 7 26 8 6 9 5 10 4 11 1 12
REMARK SMILES IDX 2 13 3 14 107 15 102 16 106 17 103 18 105 19 104 20 7 21
REMARK SMILES IDX 8 22 9 24 10 25 11 26 12 27 13 28 24 29 14 30 18 31 19 32
REMARK SMILES IDX 23 33 15 34 17 35 20 36 22 37 16 38 21 39 33 40 34 41 35 42
REMARK SMILES IDX 36 43 37 44 38 45 39 46 40 47 41 48 42 49 43 50 101 51 44 52
REMARK SMILES IDX 100 53 45 54 46 55 47 56 94 57 48 58 99 59 93 60 95 61 49 62
REMARK SMILES IDX 98 63 92 64 91 65 50 67 80 68 61 69 79 70 62 71 65 72 78 73
REMARK SMILES IDX 96 74 63 75 64 76 77 78 97 79 66 80 51 81 52 82 60 83 53 84
REMARK SMILES IDX 59 85 54 86 55 87 56 88 57 89 58 90 81 91 82 92 90 93 83 94
REMARK SMILES IDX 89 95 84 96 85 97 86 98 87 99 88 100 67 101 68 102 76 103
REMARK SMILES IDX 69 104 75 105 70 106 71 107 72 108 73 109 74 110
REMARK H PARENT 7 23 95 66 65 77
REMARK Flexibility Score: inf
ROOT
ATOM      1  C   UNL A   1      37.798  22.068  25.483  1.00  0.00     0.188 C 
ENDROOT
BRANCH   1   2
ATOM      2  C   UNL A   1      36.908  21.077  24.715  1.00  0.00     0.188 C 
BRANCH   2   3
ATOM      3  O   UNL A   1      35.499  21.247  24.698  1.00  0.00    -0.376 OA
BRANCH   3   4
ATOM      4  C   UNL A   1      34.780  21.409  25.917  1.00  0.00     0.202 C 
BRANCH   4   5
ATOM      5  C   UNL A   1      33.648  22.430  26.030  1.00  0.00     0.261 C 
BRANCH   5   6
ATOM      6  O   UNL A   1      34.030  23.696  26.594  1.00  0.00    -0.462 OA
BRANCH   6   7
ATOM      7  C   UNL A   1      34.219  24.708  25.707  1.00  0.00     0.329 C 
ATOM      8  O   UNL A   1      34.901  24.623  24.690  1.00  0.00    -0.250 OA
BRANCH   7   9
ATOM      9  C   UNL A   1      33.628  26.037  26.181  1.00  0.00     0.200 C 
BRANCH   9  10
ATOM     10  C   UNL A   1      33.687  27.277  25.261  1.00  0.00     0.075 C 
BRANCH  10  11
ATOM     11  C   UNL A   1      33.961  28.537  26.074  1.00  0.00    -0.020 A 
ATOM     12  C   UNL A   1      35.755  30.535  28.529  1.00  0.00     0.149 C 
ATOM     13  N   UNL A   1      34.836  29.940  27.584  1.00  0.00    -0.350 N 
ATOM     14  C   UNL A   1      35.027  28.746  26.936  1.00  0.00     0.090 A 
ATOM     15  C   UNL A   1      33.635  30.499  27.210  1.00  0.00     0.048 A 
ATOM     16  C   UNL A   1      33.125  29.701  26.181  1.00  0.00     0.003 A 
ATOM     17  C   UNL A   1      32.960  31.639  27.680  1.00  0.00     0.027 A 
ATOM     18  C   UNL A   1      31.942  30.124  25.538  1.00  0.00     0.010 A 
ATOM     19  C   UNL A   1      31.746  31.980  27.078  1.00  0.00     0.002 A 
ATOM     20  C   UNL A   1      31.251  31.245  26.009  1.00  0.00     0.001 A 
ENDBRANCH  10  11
ENDBRANCH   9  10
BRANCH   9  21
ATOM     21  N   UNL A   1      32.306  25.857  26.771  1.00  0.00    -0.308 N 
ATOM     22  C   UNL A   1      31.104  26.016  26.150  1.00  0.00     0.407 C 
ATOM     23  H   UNL A   1      32.280  25.592  27.718  1.00  0.00     0.168 HD
ATOM     24  O   UNL A   1      30.118  26.385  26.771  1.00  0.00    -0.225 OA
BRANCH  22  25
ATOM     25  O   UNL A   1      31.100  25.553  24.877  1.00  0.00    -0.449 OA
BRANCH  25  26
ATOM     26  C   UNL A   1      29.831  25.589  24.193  1.00  0.00     0.248 C 
BRANCH  26  27
ATOM     27  C   UNL A   1      29.866  26.474  22.921  1.00  0.00     0.088 C 
ATOM     28  C   UNL A   1      29.176  27.835  23.064  1.00  0.00    -0.029 A 
ATOM     29  C   UNL A   1      31.264  26.896  22.467  1.00  0.00    -0.029 A 
ATOM     30  C   UNL A   1      27.841  28.108  23.331  1.00  0.00     0.005 A 
ATOM     31  C   UNL A   1      30.081  28.875  22.757  1.00  0.00    -0.014 A 
ATOM     32  C   UNL A   1      31.375  28.302  22.465  1.00  0.00    -0.014 A 
ATOM     33  C   UNL A   1      32.350  26.097  22.148  1.00  0.00     0.005 A 
ATOM     34  C   UNL A   1      27.413  29.439  23.272  1.00  0.00     0.000 A 
ATOM     35  C   UNL A   1      29.656  30.194  22.701  1.00  0.00     0.009 A 
ATOM     36  C   UNL A   1      32.596  28.913  22.233  1.00  0.00     0.009 A 
ATOM     37  C   UNL A   1      33.587  26.710  21.942  1.00  0.00     0.000 A 
ATOM     38  C   UNL A   1      28.311  30.472  22.953  1.00  0.00     0.001 A 
ATOM     39  C   UNL A   1      33.713  28.106  21.996  1.00  0.00     0.001 A 
ENDBRANCH  26  27
ENDBRANCH  25  26
ENDBRANCH  22  25
ENDBRANCH   9  21
ENDBRANCH   7   9
ENDBRANCH   6   7
ENDBRANCH   5   6
ENDBRANCH   4   5
ENDBRANCH   3   4
ENDBRANCH   2   3
ENDBRANCH   1   2
BRANCH   1  40
ATOM     40  O   UNL A   1      38.907  21.493  26.146  1.00  0.00    -0.377 OA
BRANCH  40  41
ATOM     41  C   UNL A   1      39.977  22.338  26.555  1.00  0.00     0.188 C 
BRANCH  41  42
ATOM     42  C   UNL A   1      40.978  21.831  27.611  1.00  0.00     0.188 C 
BRANCH  42  43
ATOM     43  O   UNL A   1      40.812  20.457  27.943  1.00  0.00    -0.376 OA
BRANCH  43  44
ATOM     44  C   UNL A   1      41.881  19.572  27.632  1.00  0.00     0.202 C 
BRANCH  44  45
ATOM     45  C   UNL A   1      41.762  18.803  26.308  1.00  0.00     0.261 C 
BRANCH  45  46
ATOM     46  O   UNL A   1      42.308  19.447  25.143  1.00  0.00    -0.460 OA
BRANCH  46  47
ATOM     47  C   UNL A   1      43.627  19.319  24.887  1.00  0.00     0.338 C 
ATOM     48  O   UNL A   1      44.195  18.369  24.384  1.00  0.00    -0.246 OA
BRANCH  47  49
ATOM     49  C   UNL A   1      44.259  20.625  25.154  1.00  0.00     0.060 A 
ATOM     50  C   UNL A   1      45.633  20.676  25.425  1.00  0.00     0.016 A 
ATOM     51  C   UNL A   1      43.487  21.788  25.163  1.00  0.00     0.016 A 
ATOM     52  C   UNL A   1      46.231  21.891  25.756  1.00  0.00     0.010 A 
ATOM     53  C   UNL A   1      44.083  22.999  25.514  1.00  0.00     0.010 A 
ATOM     54  C   UNL A   1      45.447  23.049  25.850  1.00  0.00    -0.014 A 
BRANCH  54  55
ATOM     55  C   UNL A   1      45.981  24.260  26.512  1.00  0.00     0.031 A 
ATOM     56  C   UNL A   1      47.047  25.044  25.794  1.00  0.00     0.074 A 
ATOM     57  C   UNL A   1      45.552  24.647  27.727  1.00  0.00     0.049 A 
ATOM     58  N   UNL A   1      47.742  26.070  26.207  1.00  0.00    -0.248 NA
ATOM     59  C   UNL A   1      47.372  24.604  24.426  1.00  0.00     0.031 C 
ATOM     60  C   UNL A   1      44.492  24.001  28.498  1.00  0.00     0.029 A 
ATOM     61  N   UNL A   1      45.975  25.676  28.530  1.00  0.00    -0.354 N 
ATOM     62  C   UNL A   1      48.596  26.390  25.158  1.00  0.00     0.074 A 
ATOM     63  C   UNL A   1      48.347  25.439  24.098  1.00  0.00     0.031 C 
ATOM     64  C   UNL A   1      44.359  24.640  29.674  1.00  0.00     0.029 A 
ATOM     65  C   UNL A   1      45.350  25.712  29.753  1.00  0.00     0.049 A 
ATOM     66  H   UNL A   1      46.663  26.325  28.256  1.00  0.00     0.167 HD
ATOM     67  C   UNL A   1      49.507  27.388  25.083  1.00  0.00     0.031 A 
ATOM     68  C   UNL A   1      45.575  26.502  30.822  1.00  0.00     0.031 A 
ATOM     69  C   UNL A   1      49.766  28.318  26.147  1.00  0.00     0.049 A 
ATOM     70  C   UNL A   1      46.656  27.552  30.749  1.00  0.00     0.074 A 
ATOM     71  C   UNL A   1      50.668  29.368  26.172  1.00  0.00     0.029 A 
ATOM     72  N   UNL A   1      49.132  28.305  27.379  1.00  0.00    -0.354 N 
ATOM     73  N   UNL A   1      47.446  27.855  29.745  1.00  0.00    -0.248 NA
ATOM     74  C   UNL A   1      46.874  28.368  31.953  1.00  0.00     0.031 C 
ATOM     75  C   UNL A   1      50.616  29.955  27.439  1.00  0.00     0.029 A 
ATOM     76  C   UNL A   1      49.637  29.312  28.182  1.00  0.00     0.049 A 
ATOM     77  H   UNL A   1      48.425  27.672  27.644  1.00  0.00     0.167 HD
ATOM     78  C   UNL A   1      48.231  28.916  30.186  1.00  0.00     0.074 A 
ATOM     79  C   UNL A   1      47.817  29.208  31.543  1.00  0.00     0.031 C 
ATOM     80  C   UNL A   1      49.205  29.593  29.528  1.00  0.00     0.031 A 
BRANCH  67  81
ATOM     81  C   UNL A   1      50.315  27.496  23.818  1.00  0.00    -0.014 A 
ATOM     82  C   UNL A   1      51.641  27.029  23.760  1.00  0.00     0.010 A 
ATOM     83  C   UNL A   1      49.730  28.047  22.665  1.00  0.00     0.010 A 
ATOM     84  C   UNL A   1      52.379  27.148  22.579  1.00  0.00     0.020 A 
ATOM     85  C   UNL A   1      50.455  28.142  21.474  1.00  0.00     0.020 A 
ATOM     86  C   UNL A   1      51.782  27.706  21.444  1.00  0.00     0.054 A 
BRANCH  86  87
ATOM     87  S   UNL A   1      52.756  27.827  19.920  1.00  0.00     0.124 S 
ATOM     88  O   UNL A   1      53.488  26.564  19.929  1.00  0.00    -0.237 OA
ATOM     89  O   UNL A   1      51.727  27.948  18.890  1.00  0.00    -0.237 OA
ATOM     90  O   UNL A   1      53.572  29.022  20.123  1.00  0.00    -0.744 OA
ENDBRANCH  86  87
ENDBRANCH  67  81
BRANCH  68  91
ATOM     91  C   UNL A   1      44.780  26.319  32.068  1.00  0.00    -0.014 A 
ATOM     92  C   UNL A   1      43.753  27.219  32.401  1.00  0.00     0.010 A 
ATOM     93  C   UNL A   1      45.055  25.245  32.936  1.00  0.00     0.010 A 
ATOM     94  C   UNL A   1      43.028  27.061  33.586  1.00  0.00     0.020 A 
ATOM     95  C   UNL A   1      44.314  25.067  34.108  1.00  0.00     0.020 A 
ATOM     96  C   UNL A   1      43.312  25.983  34.431  1.00  0.00     0.054 A 
BRANCH  96  97
ATOM     97  S   UNL A   1      42.326  25.774  35.941  1.00  0.00     0.124 S 
ATOM     98  O   UNL A   1      41.912  24.379  35.841  1.00  0.00    -0.237 OA
ATOM     99  O   UNL A   1      43.296  26.073  36.992  1.00  0.00    -0.237 OA
ATOM    100  O   UNL A   1      41.258  26.759  35.791  1.00  0.00    -0.744 OA
ENDBRANCH  96  97
ENDBRANCH  68  91
BRANCH  80 101
ATOM    101  C   UNL A   1      49.864  30.745  30.238  1.00  0.00    -0.014 A 
ATOM    102  C   UNL A   1      49.226  31.992  30.357  1.00  0.00     0.010 A 
ATOM    103  C   UNL A   1      51.108  30.547  30.866  1.00  0.00     0.010 A 
ATOM    104  C   UNL A   1      49.831  33.027  31.078  1.00  0.00     0.020 A 
ATOM    105  C   UNL A   1      51.702  31.570  31.609  1.00  0.00     0.020 A 
ATOM    106  C   UNL A   1      51.064  32.808  31.701  1.00  0.00     0.054 A 
BRANCH 106 107
ATOM    107  S   UNL A   1      51.797  34.146  32.682  1.00  0.00     0.124 S 
ATOM    108  O   UNL A   1      50.648  34.636  33.436  1.00  0.00    -0.237 OA
ATOM    109  O   UNL A   1      52.814  33.450  33.465  1.00  0.00    -0.237 OA
ATOM    110  O   UNL A   1      52.320  35.068  31.675  1.00  0.00    -0.744 OA
ENDBRANCH 106 107
ENDBRANCH  80 101
ENDBRANCH  54  55
ENDBRANCH  47  49
ENDBRANCH  46  47
ENDBRANCH  45  46
ENDBRANCH  44  45
ENDBRANCH  43  44
ENDBRANCH  42  43
ENDBRANCH  41  42
ENDBRANCH  40  41
ENDBRANCH   1  40
TORSDOF 29
ENDMDL
