MODEL 1
REMARK VINA RESULT:     -10.2      0.000      0.000
REMARK SMILES Cc1cc(Br)cc2c1O[C@H](C(F)(F)F)C(C(=O)OCCOCCOCCOCCOC(=O)c1ccc(-c3c4nc(c(-c5ccc(S(=O)(=O)[O-])cc5)c5ccc([nH]5)c(-c5ccc(S(=O)(=O)[O-])cc5)c5nc(c(-c6ccc(S(=O)(=O)[O-])cc6)c6ccc3[nH]6)C=C5)C=C4)cc1)=C2
REMARK SMILES IDX 25 1 24 2 23 3 22 4 21 5 20 6 19 7 18 8 16 9 17 10 15 11
REMARK SMILES IDX 1 12 2 13 3 14 8 15 4 16 7 17 9 18 5 19 6 20 93 21 10 22
REMARK SMILES IDX 11 23 12 24 13 25 14 26 26 27 27 28 28 29 29 30 30 31 31 32
REMARK SMILES IDX 32 33 33 34 34 35 92 36 35 37 91 38 36 39 37 40 38 41 85 42
REMARK SMILES IDX 39 43 90 44 84 45 86 46 40 47 89 48 83 49 82 50 41 52 71 53
REMARK SMILES IDX 52 54 70 55 53 56 56 57 69 58 87 59 54 60 55 61 68 63 88 64
REMARK SMILES IDX 57 65 42 66 43 67 51 68 44 69 50 70 45 71 46 72 47 73 48 74
REMARK SMILES IDX 49 75 72 76 73 77 81 78 74 79 80 80 75 81 76 82 77 83 78 84
REMARK SMILES IDX 79 85 58 86 59 87 67 88 60 89 66 90 61 91 62 92 63 93 64 94
REMARK SMILES IDX 65 95
REMARK H PARENT 86 51 56 62
REMARK Flexibility Score: inf
ROOT
ATOM      1  C   UNL A   1      32.286  29.484  25.403  1.00  0.00     0.188 C 
ENDROOT
BRANCH   1   2
ATOM      2  O   UNL A   1      31.012  29.009  24.966  1.00  0.00    -0.377 OA
BRANCH   2   3
ATOM      3  C   UNL A   1      30.496  29.481  23.734  1.00  0.00     0.188 C 
BRANCH   3   4
ATOM      4  C   UNL A   1      29.979  28.373  22.799  1.00  0.00     0.188 C 
BRANCH   4   5
ATOM      5  O   UNL A   1      28.707  27.862  23.182  1.00  0.00    -0.376 OA
BRANCH   5   6
ATOM      6  C   UNL A   1      28.666  26.571  23.773  1.00  0.00     0.202 C 
BRANCH   6   7
ATOM      7  C   UNL A   1      29.993  25.953  24.241  1.00  0.00     0.261 C 
BRANCH   7   8
ATOM      8  O   UNL A   1      30.385  24.752  23.563  1.00  0.00    -0.460 OA
BRANCH   8   9
ATOM      9  C   UNL A   1      31.481  24.798  22.782  1.00  0.00     0.338 C 
ATOM     10  O   UNL A   1      31.735  25.624  21.924  1.00  0.00    -0.246 OA
BRANCH   9  11
ATOM     11  C   UNL A   1      32.428  23.771  23.272  1.00  0.00     0.087 C 
ATOM     12  C   UNL A   1      36.407  21.248  25.274  1.00  0.00     0.048 C 
ATOM     13  C   UNL A   1      35.048  20.866  24.754  1.00  0.00    -0.007 A 
ATOM     14  C   UNL A   1      34.593  19.547  24.897  1.00  0.00     0.023 A 
ATOM     15  C   UNL A   1      34.191  21.830  24.197  1.00  0.00     0.130 A 
ATOM     16  C   UNL A   1      33.314  19.199  24.465  1.00  0.00     0.019 A 
ATOM     17  C   UNL A   1      32.892  21.485  23.812  1.00  0.00     0.019 A 
ATOM     18  O   UNL A   1      34.693  23.096  24.077  1.00  0.00    -0.475 OA
ATOM     19  Br  UNL A   1      32.715  17.415  24.658  1.00  0.00    -0.051 Br
ATOM     20  C   UNL A   1      32.463  20.158  23.922  1.00  0.00     0.027 A 
ATOM     21  C   UNL A   1      31.973  22.515  23.354  1.00  0.00     0.027 C 
ATOM     22  C   UNL A   1      33.852  24.168  23.570  1.00  0.00     0.316 C 
BRANCH  22  23
ATOM     23  C   UNL A   1      33.937  25.332  24.567  1.00  0.00     0.430 C 
ATOM     24  F   UNL A   1      32.876  25.332  25.408  1.00  0.00    -0.167 F 
ATOM     25  F   UNL A   1      35.049  25.271  25.330  1.00  0.00    -0.167 F 
ATOM     26  F   UNL A   1      33.948  26.526  23.928  1.00  0.00    -0.167 F 
ENDBRANCH  22  23
ENDBRANCH   9  11
ENDBRANCH   8   9
ENDBRANCH   7   8
ENDBRANCH   6   7
ENDBRANCH   5   6
ENDBRANCH   4   5
ENDBRANCH   3   4
ENDBRANCH   2   3
ENDBRANCH   1   2
BRANCH   1  27
ATOM     27  C   UNL A   1      32.620  29.736  26.893  1.00  0.00     0.188 C 
BRANCH  27  28
ATOM     28  O   UNL A   1      32.922  31.090  27.213  1.00  0.00    -0.376 OA
BRANCH  28  29
ATOM     29  C   UNL A   1      34.229  31.355  27.701  1.00  0.00     0.202 C 
BRANCH  29  30
ATOM     30  C   UNL A   1      35.106  30.106  27.845  1.00  0.00     0.261 C 
BRANCH  30  31
ATOM     31  O   UNL A   1      36.488  30.360  28.134  1.00  0.00    -0.460 OA
BRANCH  31  32
ATOM     32  C   UNL A   1      37.046  29.683  29.161  1.00  0.00     0.338 C 
ATOM     33  O   UNL A   1      36.492  29.283  30.170  1.00  0.00    -0.246 OA
BRANCH  32  34
ATOM     34  C   UNL A   1      38.424  29.341  28.758  1.00  0.00     0.060 A 
ATOM     35  C   UNL A   1      39.353  28.981  29.741  1.00  0.00     0.016 A 
ATOM     36  C   UNL A   1      38.777  29.331  27.407  1.00  0.00     0.016 A 
ATOM     37  C   UNL A   1      40.650  28.621  29.369  1.00  0.00     0.010 A 
ATOM     38  C   UNL A   1      40.078  28.987  27.038  1.00  0.00     0.010 A 
ATOM     39  C   UNL A   1      41.026  28.651  28.017  1.00  0.00    -0.014 A 
BRANCH  39  40
ATOM     40  C   UNL A   1      42.451  28.487  27.648  1.00  0.00     0.031 A 
ATOM     41  C   UNL A   1      43.383  29.647  27.863  1.00  0.00     0.074 A 
ATOM     42  C   UNL A   1      42.917  27.322  27.162  1.00  0.00     0.049 A 
ATOM     43  N   UNL A   1      44.672  29.717  27.664  1.00  0.00    -0.248 NA
ATOM     44  C   UNL A   1      42.781  30.891  28.374  1.00  0.00     0.031 C 
ATOM     45  C   UNL A   1      42.117  26.119  26.938  1.00  0.00     0.029 A 
ATOM     46  N   UNL A   1      44.185  26.961  26.779  1.00  0.00    -0.354 N 
ATOM     47  C   UNL A   1      45.040  31.002  28.043  1.00  0.00     0.074 A 
ATOM     48  C   UNL A   1      43.833  31.694  28.438  1.00  0.00     0.031 C 
ATOM     49  C   UNL A   1      42.919  25.145  26.467  1.00  0.00     0.029 A 
ATOM     50  C   UNL A   1      44.281  25.662  26.337  1.00  0.00     0.049 A 
ATOM     51  H   UNL A   1      44.953  27.574  26.817  1.00  0.00     0.167 HD
ATOM     52  C   UNL A   1      46.275  31.553  28.078  1.00  0.00     0.031 A 
ATOM     53  C   UNL A   1      45.345  24.970  25.882  1.00  0.00     0.031 A 
ATOM     54  C   UNL A   1      47.471  30.876  27.658  1.00  0.00     0.049 A 
ATOM     55  C   UNL A   1      46.698  25.636  25.840  1.00  0.00     0.074 A 
ATOM     56  C   UNL A   1      48.769  31.352  27.653  1.00  0.00     0.029 A 
ATOM     57  N   UNL A   1      47.513  29.583  27.160  1.00  0.00    -0.354 N 
ATOM     58  N   UNL A   1      47.035  26.840  26.238  1.00  0.00    -0.248 NA
ATOM     59  C   UNL A   1      47.817  24.850  25.295  1.00  0.00     0.031 C 
ATOM     60  C   UNL A   1      49.591  30.366  27.102  1.00  0.00     0.029 A 
ATOM     61  C   UNL A   1      48.813  29.253  26.822  1.00  0.00     0.049 A 
ATOM     62  H   UNL A   1      46.735  28.987  27.063  1.00  0.00     0.167 HD
ATOM     63  C   UNL A   1      48.407  26.942  26.023  1.00  0.00     0.074 A 
ATOM     64  C   UNL A   1      48.839  25.679  25.461  1.00  0.00     0.031 C 
ATOM     65  C   UNL A   1      49.232  27.987  26.276  1.00  0.00     0.031 A 
BRANCH  52  66
ATOM     66  C   UNL A   1      46.393  32.966  28.580  1.00  0.00    -0.014 A 
ATOM     67  C   UNL A   1      46.633  33.226  29.942  1.00  0.00     0.010 A 
ATOM     68  C   UNL A   1      46.320  34.041  27.677  1.00  0.00     0.010 A 
ATOM     69  C   UNL A   1      46.768  34.539  30.395  1.00  0.00     0.020 A 
ATOM     70  C   UNL A   1      46.480  35.355  28.124  1.00  0.00     0.020 A 
ATOM     71  C   UNL A   1      46.691  35.596  29.483  1.00  0.00     0.054 A 
BRANCH  71  72
ATOM     72  S   UNL A   1      46.902  37.288  30.099  1.00  0.00     0.124 S 
ATOM     73  O   UNL A   1      45.901  37.348  31.163  1.00  0.00    -0.237 OA
ATOM     74  O   UNL A   1      48.292  37.294  30.546  1.00  0.00    -0.237 OA
ATOM     75  O   UNL A   1      46.619  38.122  28.933  1.00  0.00    -0.744 OA
ENDBRANCH  71  72
ENDBRANCH  52  66
BRANCH  53  76
ATOM     76  C   UNL A   1      45.182  23.555  25.448  1.00  0.00    -0.014 A 
ATOM     77  C   UNL A   1      44.917  23.248  24.101  1.00  0.00     0.010 A 
ATOM     78  C   UNL A   1      45.302  22.504  26.376  1.00  0.00     0.010 A 
ATOM     79  C   UNL A   1      44.768  21.919  23.694  1.00  0.00     0.020 A 
ATOM     80  C   UNL A   1      45.177  21.173  25.968  1.00  0.00     0.020 A 
ATOM     81  C   UNL A   1      44.904  20.889  24.629  1.00  0.00     0.054 A 
BRANCH  81  82
ATOM     82  S   UNL A   1      44.760  19.171  24.061  1.00  0.00     0.124 S 
ATOM     83  O   UNL A   1      44.511  19.342  22.633  1.00  0.00    -0.237 OA
ATOM     84  O   UNL A   1      46.065  18.616  24.414  1.00  0.00    -0.237 OA
ATOM     85  O   UNL A   1      43.638  18.647  24.834  1.00  0.00    -0.744 OA
ENDBRANCH  81  82
ENDBRANCH  53  76
BRANCH  65  86
ATOM     86  C   UNL A   1      50.702  27.825  25.988  1.00  0.00    -0.014 A 
ATOM     87  C   UNL A   1      51.574  27.293  26.952  1.00  0.00     0.010 A 
ATOM     88  C   UNL A   1      51.181  28.070  24.687  1.00  0.00     0.010 A 
ATOM     89  C   UNL A   1      52.899  26.999  26.616  1.00  0.00     0.020 A 
ATOM     90  C   UNL A   1      52.498  27.755  24.342  1.00  0.00     0.020 A 
ATOM     91  C   UNL A   1      53.348  27.220  25.309  1.00  0.00     0.054 A 
BRANCH  91  92
ATOM     92  S   UNL A   1      55.039  26.722  24.875  1.00  0.00     0.124 S 
ATOM     93  O   UNL A   1      55.828  27.836  25.394  1.00  0.00    -0.237 OA
ATOM     94  O   UNL A   1      55.191  25.457  25.589  1.00  0.00    -0.237 OA
ATOM     95  O   UNL A   1      55.005  26.609  23.418  1.00  0.00    -0.744 OA
ENDBRANCH  91  92
ENDBRANCH  65  86
ENDBRANCH  39  40
ENDBRANCH  32  34
ENDBRANCH  31  32
ENDBRANCH  30  31
ENDBRANCH  29  30
ENDBRANCH  28  29
ENDBRANCH  27  28
ENDBRANCH   1  27
TORSDOF 24
ENDMDL
MODEL 2
REMARK VINA RESULT:      -9.5      6.606     11.283
REMARK SMILES Cc1cc(Br)cc2c1O[C@H](C(F)(F)F)C(C(=O)OCCOCCOCCOCCOC(=O)c1ccc(-c3c4nc(c(-c5ccc(S(=O)(=O)[O-])cc5)c5ccc([nH]5)c(-c5ccc(S(=O)(=O)[O-])cc5)c5nc(c(-c6ccc(S(=O)(=O)[O-])cc6)c6ccc3[nH]6)C=C5)C=C4)cc1)=C2
REMARK SMILES IDX 25 1 24 2 23 3 22 4 21 5 20 6 19 7 18 8 16 9 17 10 15 11
REMARK SMILES IDX 1 12 2 13 3 14 8 15 4 16 7 17 9 18 5 19 6 20 93 21 10 22
REMARK SMILES IDX 11 23 12 24 13 25 14 26 26 27 27 28 28 29 29 30 30 31 31 32
REMARK SMILES IDX 32 33 33 34 34 35 92 36 35 37 91 38 36 39 37 40 38 41 85 42
REMARK SMILES IDX 39 43 90 44 84 45 86 46 40 47 89 48 83 49 82 50 41 52 71 53
REMARK SMILES IDX 52 54 70 55 53 56 56 57 69 58 87 59 54 60 55 61 68 63 88 64
REMARK SMILES IDX 57 65 42 66 43 67 51 68 44 69 50 70 45 71 46 72 47 73 48 74
REMARK SMILES IDX 49 75 72 76 73 77 81 78 74 79 80 80 75 81 76 82 77 83 78 84
REMARK SMILES IDX 79 85 58 86 59 87 67 88 60 89 66 90 61 91 62 92 63 93 64 94
REMARK SMILES IDX 65 95
REMARK H PARENT 86 51 56 62
REMARK Flexibility Score: inf
ROOT
ATOM      1  C   UNL A   1      32.895  29.687  25.373  1.00  0.00     0.188 C 
ENDROOT
BRANCH   1   2
ATOM      2  O   UNL A   1      32.708  28.329  24.969  1.00  0.00    -0.377 OA
BRANCH   2   3
ATOM      3  C   UNL A   1      32.098  28.070  23.717  1.00  0.00     0.188 C 
BRANCH   3   4
ATOM      4  C   UNL A   1      31.141  26.865  23.718  1.00  0.00     0.188 C 
BRANCH   4   5
ATOM      5  O   UNL A   1      30.242  26.862  24.821  1.00  0.00    -0.376 OA
BRANCH   5   6
ATOM      6  C   UNL A   1      30.210  25.702  25.643  1.00  0.00     0.202 C 
BRANCH   6   7
ATOM      7  C   UNL A   1      31.552  25.119  26.111  1.00  0.00     0.261 C 
BRANCH   7   8
ATOM      8  O   UNL A   1      31.637  23.687  26.100  1.00  0.00    -0.460 OA
BRANCH   8   9
ATOM      9  C   UNL A   1      32.855  23.130  25.960  1.00  0.00     0.338 C 
ATOM     10  O   UNL A   1      33.879  23.452  26.537  1.00  0.00    -0.246 OA
BRANCH   9  11
ATOM     11  C   UNL A   1      32.706  21.923  25.116  1.00  0.00     0.087 C 
ATOM     12  C   UNL A   1      32.157  18.612  21.251  1.00  0.00     0.048 C 
ATOM     13  C   UNL A   1      32.394  18.500  22.732  1.00  0.00    -0.007 A 
ATOM     14  C   UNL A   1      32.658  17.246  23.302  1.00  0.00     0.023 A 
ATOM     15  C   UNL A   1      32.436  19.645  23.545  1.00  0.00     0.130 A 
ATOM     16  C   UNL A   1      32.930  17.142  24.665  1.00  0.00     0.019 A 
ATOM     17  C   UNL A   1      32.759  19.539  24.901  1.00  0.00     0.019 A 
ATOM     18  O   UNL A   1      32.162  20.837  22.935  1.00  0.00    -0.475 OA
ATOM     19  Br  UNL A   1      33.278  15.444  25.423  1.00  0.00    -0.051 Br
ATOM     20  C   UNL A   1      32.981  18.279  25.468  1.00  0.00     0.027 A 
ATOM     21  C   UNL A   1      32.921  20.740  25.705  1.00  0.00     0.027 C 
ATOM     22  C   UNL A   1      32.246  22.077  23.688  1.00  0.00     0.316 C 
BRANCH  22  23
ATOM     23  C   UNL A   1      33.134  23.043  22.891  1.00  0.00     0.430 C 
ATOM     24  F   UNL A   1      33.114  22.746  21.570  1.00  0.00    -0.167 F 
ATOM     25  F   UNL A   1      32.731  24.326  23.015  1.00  0.00    -0.167 F 
ATOM     26  F   UNL A   1      34.422  22.981  23.303  1.00  0.00    -0.167 F 
ENDBRANCH  22  23
ENDBRANCH   9  11
ENDBRANCH   8   9
ENDBRANCH   7   8
ENDBRANCH   6   7
ENDBRANCH   5   6
ENDBRANCH   4   5
ENDBRANCH   3   4
ENDBRANCH   2   3
ENDBRANCH   1   2
BRANCH   1  27
ATOM     27  C   UNL A   1      32.155  30.310  26.581  1.00  0.00     0.188 C 
BRANCH  27  28
ATOM     28  O   UNL A   1      31.259  31.367  26.249  1.00  0.00    -0.376 OA
BRANCH  28  29
ATOM     29  C   UNL A   1      31.653  32.679  26.623  1.00  0.00     0.202 C 
BRANCH  29  30
ATOM     30  C   UNL A   1      32.872  32.724  27.549  1.00  0.00     0.261 C 
BRANCH  30  31
ATOM     31  O   UNL A   1      33.523  33.999  27.641  1.00  0.00    -0.460 OA
BRANCH  31  32
ATOM     32  C   UNL A   1      33.428  34.667  28.811  1.00  0.00     0.338 C 
ATOM     33  O   UNL A   1      32.535  35.419  29.162  1.00  0.00    -0.246 OA
BRANCH  32  34
ATOM     34  C   UNL A   1      34.513  34.174  29.682  1.00  0.00     0.060 A 
ATOM     35  C   UNL A   1      35.843  34.371  29.292  1.00  0.00     0.016 A 
ATOM     36  C   UNL A   1      34.211  33.564  30.902  1.00  0.00     0.016 A 
ATOM     37  C   UNL A   1      36.878  33.941  30.124  1.00  0.00     0.010 A 
ATOM     38  C   UNL A   1      35.247  33.120  31.724  1.00  0.00     0.010 A 
ATOM     39  C   UNL A   1      36.584  33.288  31.330  1.00  0.00    -0.014 A 
BRANCH  39  40
ATOM     40  C   UNL A   1      37.673  32.638  32.097  1.00  0.00     0.031 A 
ATOM     41  C   UNL A   1      38.326  31.415  31.516  1.00  0.00     0.074 A 
ATOM     42  C   UNL A   1      38.095  33.141  33.271  1.00  0.00     0.049 A 
ATOM     43  N   UNL A   1      39.326  30.714  31.981  1.00  0.00    -0.248 NA
ATOM     44  C   UNL A   1      37.781  30.920  30.240  1.00  0.00     0.031 C 
ATOM     45  C   UNL A   1      37.561  34.337  33.922  1.00  0.00     0.029 A 
ATOM     46  N   UNL A   1      39.084  32.709  34.121  1.00  0.00    -0.354 N 
ATOM     47  C   UNL A   1      39.544  29.709  31.047  1.00  0.00     0.074 A 
ATOM     48  C   UNL A   1      38.543  29.860  30.014  1.00  0.00     0.031 C 
ATOM     49  C   UNL A   1      38.239  34.551  35.064  1.00  0.00     0.029 A 
ATOM     50  C   UNL A   1      39.238  33.497  35.237  1.00  0.00     0.049 A 
ATOM     51  H   UNL A   1      39.631  31.910  33.947  1.00  0.00     0.167 HD
ATOM     52  C   UNL A   1      40.504  28.756  31.039  1.00  0.00     0.031 A 
ATOM     53  C   UNL A   1      40.089  33.383  36.278  1.00  0.00     0.031 A 
ATOM     54  C   UNL A   1      41.481  28.588  32.079  1.00  0.00     0.049 A 
ATOM     55  C   UNL A   1      41.090  32.254  36.294  1.00  0.00     0.074 A 
ATOM     56  C   UNL A   1      42.493  27.649  32.161  1.00  0.00     0.029 A 
ATOM     57  N   UNL A   1      41.562  29.370  33.220  1.00  0.00    -0.354 N 
ATOM     58  N   UNL A   1      41.307  31.334  35.384  1.00  0.00    -0.248 NA
ATOM     59  C   UNL A   1      41.965  32.150  37.473  1.00  0.00     0.031 C 
ATOM     60  C   UNL A   1      43.153  27.829  33.379  1.00  0.00     0.029 A 
ATOM     61  C   UNL A   1      42.592  28.919  34.026  1.00  0.00     0.049 A 
ATOM     62  H   UNL A   1      40.975  30.134  33.427  1.00  0.00     0.167 HD
ATOM     63  C   UNL A   1      42.364  30.566  35.865  1.00  0.00     0.074 A 
ATOM     64  C   UNL A   1      42.744  31.128  37.144  1.00  0.00     0.031 C 
ATOM     65  C   UNL A   1      42.969  29.497  35.292  1.00  0.00     0.031 A 
BRANCH  52  66
ATOM     66  C   UNL A   1      40.538  27.812  29.868  1.00  0.00    -0.014 A 
ATOM     67  C   UNL A   1      41.557  27.902  28.903  1.00  0.00     0.010 A 
ATOM     68  C   UNL A   1      39.576  26.792  29.760  1.00  0.00     0.010 A 
ATOM     69  C   UNL A   1      41.596  27.004  27.834  1.00  0.00     0.020 A 
ATOM     70  C   UNL A   1      39.628  25.877  28.706  1.00  0.00     0.020 A 
ATOM     71  C   UNL A   1      40.631  25.997  27.742  1.00  0.00     0.054 A 
BRANCH  71  72
ATOM     72  S   UNL A   1      40.728  24.829  26.359  1.00  0.00     0.124 S 
ATOM     73  O   UNL A   1      41.638  23.814  26.887  1.00  0.00    -0.237 OA
ATOM     74  O   UNL A   1      39.340  24.405  26.202  1.00  0.00    -0.237 OA
ATOM     75  O   UNL A   1      41.263  25.631  25.261  1.00  0.00    -0.744 OA
ENDBRANCH  71  72
ENDBRANCH  52  66
BRANCH  53  76
ATOM     76  C   UNL A   1      40.048  34.378  37.385  1.00  0.00    -0.014 A 
ATOM     77  C   UNL A   1      39.045  34.312  38.367  1.00  0.00     0.010 A 
ATOM     78  C   UNL A   1      41.021  35.391  37.470  1.00  0.00     0.010 A 
ATOM     79  C   UNL A   1      39.010  35.244  39.409  1.00  0.00     0.020 A 
ATOM     80  C   UNL A   1      41.003  36.310  38.523  1.00  0.00     0.020 A 
ATOM     81  C   UNL A   1      39.993  36.235  39.483  1.00  0.00     0.054 A 
BRANCH  81  82
ATOM     82  S   UNL A   1      39.954  37.397  40.877  1.00  0.00     0.124 S 
ATOM     83  O   UNL A   1      41.329  37.335  41.363  1.00  0.00    -0.237 OA
ATOM     84  O   UNL A   1      39.567  38.648  40.229  1.00  0.00    -0.237 OA
ATOM     85  O   UNL A   1      38.948  36.828  41.770  1.00  0.00    -0.744 OA
ENDBRANCH  81  82
ENDBRANCH  53  76
BRANCH  65  86
ATOM     86  C   UNL A   1      44.132  28.862  36.007  1.00  0.00    -0.014 A 
ATOM     87  C   UNL A   1      45.428  29.392  35.894  1.00  0.00     0.010 A 
ATOM     88  C   UNL A   1      43.893  27.815  36.919  1.00  0.00     0.010 A 
ATOM     89  C   UNL A   1      46.464  28.892  36.689  1.00  0.00     0.020 A 
ATOM     90  C   UNL A   1      44.922  27.331  37.731  1.00  0.00     0.020 A 
ATOM     91  C   UNL A   1      46.201  27.874  37.612  1.00  0.00     0.054 A 
BRANCH  91  92
ATOM     92  S   UNL A   1      47.540  27.326  38.708  1.00  0.00     0.124 S 
ATOM     93  O   UNL A   1      48.012  26.119  38.035  1.00  0.00    -0.237 OA
ATOM     94  O   UNL A   1      48.458  28.462  38.680  1.00  0.00    -0.237 OA
ATOM     95  O   UNL A   1      46.871  27.103  39.989  1.00  0.00    -0.744 OA
ENDBRANCH  91  92
ENDBRANCH  65  86
ENDBRANCH  39  40
ENDBRANCH  32  34
ENDBRANCH  31  32
ENDBRANCH  30  31
ENDBRANCH  29  30
ENDBRANCH  28  29
ENDBRANCH  27  28
ENDBRANCH   1  27
TORSDOF 24
ENDMDL
MODEL 3
REMARK VINA RESULT:      -8.9      5.231      6.361
REMARK SMILES Cc1cc(Br)cc2c1O[C@H](C(F)(F)F)C(C(=O)OCCOCCOCCOCCOC(=O)c1ccc(-c3c4nc(c(-c5ccc(S(=O)(=O)[O-])cc5)c5ccc([nH]5)c(-c5ccc(S(=O)(=O)[O-])cc5)c5nc(c(-c6ccc(S(=O)(=O)[O-])cc6)c6ccc3[nH]6)C=C5)C=C4)cc1)=C2
REMARK SMILES IDX 25 1 24 2 23 3 22 4 21 5 20 6 19 7 18 8 16 9 17 10 15 11
REMARK SMILES IDX 1 12 2 13 3 14 8 15 4 16 7 17 9 18 5 19 6 20 93 21 10 22
REMARK SMILES IDX 11 23 12 24 13 25 14 26 26 27 27 28 28 29 29 30 30 31 31 32
REMARK SMILES IDX 32 33 33 34 34 35 92 36 35 37 91 38 36 39 37 40 38 41 85 42
REMARK SMILES IDX 39 43 90 44 84 45 86 46 40 47 89 48 83 49 82 50 41 52 71 53
REMARK SMILES IDX 52 54 70 55 53 56 56 57 69 58 87 59 54 60 55 61 68 63 88 64
REMARK SMILES IDX 57 65 42 66 43 67 51 68 44 69 50 70 45 71 46 72 47 73 48 74
REMARK SMILES IDX 49 75 72 76 73 77 81 78 74 79 80 80 75 81 76 82 77 83 78 84
REMARK SMILES IDX 79 85 58 86 59 87 67 88 60 89 66 90 61 91 62 92 63 93 64 94
REMARK SMILES IDX 65 95
REMARK H PARENT 86 51 56 62
REMARK Flexibility Score: inf
ROOT
ATOM      1  C   UNL A   1      32.821  29.034  24.658  1.00  0.00     0.188 C 
ENDROOT
BRANCH   1   2
ATOM      2  O   UNL A   1      32.735  28.933  23.235  1.00  0.00    -0.377 OA
BRANCH   2   3
ATOM      3  C   UNL A   1      32.397  27.683  22.662  1.00  0.00     0.188 C 
BRANCH   3   4
ATOM      4  C   UNL A   1      33.491  26.609  22.797  1.00  0.00     0.188 C 
BRANCH   4   5
ATOM      5  O   UNL A   1      33.008  25.286  22.597  1.00  0.00    -0.376 OA
BRANCH   5   6
ATOM      6  C   UNL A   1      31.611  25.117  22.398  1.00  0.00     0.202 C 
BRANCH   6   7
ATOM      7  C   UNL A   1      30.815  24.387  23.491  1.00  0.00     0.261 C 
BRANCH   7   8
ATOM      8  O   UNL A   1      31.371  24.462  24.811  1.00  0.00    -0.460 OA
BRANCH   8   9
ATOM      9  C   UNL A   1      31.195  23.408  25.629  1.00  0.00     0.338 C 
ATOM     10  O   UNL A   1      30.236  23.190  26.348  1.00  0.00    -0.246 OA
BRANCH   9  11
ATOM     11  C   UNL A   1      32.291  22.447  25.369  1.00  0.00     0.087 C 
ATOM     12  C   UNL A   1      36.815  20.117  24.815  1.00  0.00     0.048 C 
ATOM     13  C   UNL A   1      35.375  19.692  24.738  1.00  0.00    -0.007 A 
ATOM     14  C   UNL A   1      35.057  18.333  24.598  1.00  0.00     0.023 A 
ATOM     15  C   UNL A   1      34.337  20.627  24.887  1.00  0.00     0.130 A 
ATOM     16  C   UNL A   1      33.724  17.926  24.579  1.00  0.00     0.019 A 
ATOM     17  C   UNL A   1      33.004  20.206  24.917  1.00  0.00     0.019 A 
ATOM     18  O   UNL A   1      34.709  21.936  25.012  1.00  0.00    -0.475 OA
ATOM     19  Br  UNL A   1      33.308  16.092  24.383  1.00  0.00    -0.051 Br
ATOM     20  C   UNL A   1      32.696  18.853  24.736  1.00  0.00     0.027 A 
ATOM     21  C   UNL A   1      31.946  21.165  25.196  1.00  0.00     0.027 C 
ATOM     22  C   UNL A   1      33.702  22.961  25.233  1.00  0.00     0.316 C 
BRANCH  22  23
ATOM     23  C   UNL A   1      34.142  23.786  26.451  1.00  0.00     0.430 C 
ATOM     24  F   UNL A   1      33.804  25.089  26.305  1.00  0.00    -0.167 F 
ATOM     25  F   UNL A   1      33.569  23.353  27.594  1.00  0.00    -0.167 F 
ATOM     26  F   UNL A   1      35.484  23.732  26.623  1.00  0.00    -0.167 F 
ENDBRANCH  22  23
ENDBRANCH   9  11
ENDBRANCH   8   9
ENDBRANCH   7   8
ENDBRANCH   6   7
ENDBRANCH   5   6
ENDBRANCH   4   5
ENDBRANCH   3   4
ENDBRANCH   2   3
ENDBRANCH   1   2
BRANCH   1  27
ATOM     27  C   UNL A   1      31.735  29.727  25.515  1.00  0.00     0.188 C 
BRANCH  27  28
ATOM     28  O   UNL A   1      32.126  30.007  26.856  1.00  0.00    -0.376 OA
BRANCH  28  29
ATOM     29  C   UNL A   1      33.498  29.826  27.173  1.00  0.00     0.202 C 
BRANCH  29  30
ATOM     30  C   UNL A   1      34.260  31.134  27.412  1.00  0.00     0.261 C 
BRANCH  30  31
ATOM     31  O   UNL A   1      33.664  32.024  28.366  1.00  0.00    -0.460 OA
BRANCH  31  32
ATOM     32  C   UNL A   1      34.448  32.987  28.897  1.00  0.00     0.338 C 
ATOM     33  O   UNL A   1      34.135  34.137  29.154  1.00  0.00    -0.246 OA
BRANCH  32  34
ATOM     34  C   UNL A   1      35.716  32.345  29.296  1.00  0.00     0.060 A 
ATOM     35  C   UNL A   1      35.684  31.277  30.200  1.00  0.00     0.016 A 
ATOM     36  C   UNL A   1      36.923  32.770  28.737  1.00  0.00     0.016 A 
ATOM     37  C   UNL A   1      36.873  30.638  30.558  1.00  0.00     0.010 A 
ATOM     38  C   UNL A   1      38.112  32.141  29.109  1.00  0.00     0.010 A 
ATOM     39  C   UNL A   1      38.095  31.087  30.036  1.00  0.00    -0.014 A 
BRANCH  39  40
ATOM     40  C   UNL A   1      39.366  30.558  30.584  1.00  0.00     0.031 A 
ATOM     41  C   UNL A   1      39.949  31.219  31.801  1.00  0.00     0.074 A 
ATOM     42  C   UNL A   1      39.974  29.492  30.033  1.00  0.00     0.049 A 
ATOM     43  N   UNL A   1      41.018  30.899  32.482  1.00  0.00    -0.248 NA
ATOM     44  C   UNL A   1      39.231  32.395  32.321  1.00  0.00     0.031 C 
ATOM     45  C   UNL A   1      39.490  28.749  28.870  1.00  0.00     0.029 A 
ATOM     46  N   UNL A   1      41.130  28.843  30.389  1.00  0.00    -0.354 N 
ATOM     47  C   UNL A   1      41.089  31.819  33.521  1.00  0.00     0.074 A 
ATOM     48  C   UNL A   1      39.986  32.739  33.355  1.00  0.00     0.031 C 
ATOM     49  C   UNL A   1      40.338  27.735  28.617  1.00  0.00     0.029 A 
ATOM     50  C   UNL A   1      41.435  27.771  29.584  1.00  0.00     0.049 A 
ATOM     51  H   UNL A   1      41.689  29.121  31.150  1.00  0.00     0.167 HD
ATOM     52  C   UNL A   1      41.982  31.881  34.535  1.00  0.00     0.031 A 
ATOM     53  C   UNL A   1      42.477  26.915  29.624  1.00  0.00     0.031 A 
ATOM     54  C   UNL A   1      43.094  30.984  34.685  1.00  0.00     0.049 A 
ATOM     55  C   UNL A   1      43.514  27.064  30.710  1.00  0.00     0.074 A 
ATOM     56  C   UNL A   1      44.056  30.970  35.679  1.00  0.00     0.029 A 
ATOM     57  N   UNL A   1      43.399  29.951  33.813  1.00  0.00    -0.354 N 
ATOM     58  N   UNL A   1      43.546  27.916  31.707  1.00  0.00    -0.248 NA
ATOM     59  C   UNL A   1      44.652  26.131  30.682  1.00  0.00     0.031 C 
ATOM     60  C   UNL A   1      44.974  29.961  35.379  1.00  0.00     0.029 A 
ATOM     61  C   UNL A   1      44.550  29.308  34.233  1.00  0.00     0.049 A 
ATOM     62  H   UNL A   1      42.875  29.710  33.015  1.00  0.00     0.167 HD
ATOM     63  C   UNL A   1      44.685  27.600  32.441  1.00  0.00     0.074 A 
ATOM     64  C   UNL A   1      45.316  26.478  31.776  1.00  0.00     0.031 C 
ATOM     65  C   UNL A   1      45.160  28.183  33.569  1.00  0.00     0.031 A 
BRANCH  52  66
ATOM     66  C   UNL A   1      41.795  32.966  35.561  1.00  0.00    -0.014 A 
ATOM     67  C   UNL A   1      42.486  34.186  35.449  1.00  0.00     0.010 A 
ATOM     68  C   UNL A   1      40.882  32.787  36.614  1.00  0.00     0.010 A 
ATOM     69  C   UNL A   1      42.287  35.198  36.390  1.00  0.00     0.020 A 
ATOM     70  C   UNL A   1      40.661  33.807  37.543  1.00  0.00     0.020 A 
ATOM     71  C   UNL A   1      41.375  35.002  37.431  1.00  0.00     0.054 A 
BRANCH  71  72
ATOM     72  S   UNL A   1      41.116  36.347  38.619  1.00  0.00     0.124 S 
ATOM     73  O   UNL A   1      39.818  36.872  38.200  1.00  0.00    -0.237 OA
ATOM     74  O   UNL A   1      41.124  35.647  39.901  1.00  0.00    -0.237 OA
ATOM     75  O   UNL A   1      42.250  37.239  38.389  1.00  0.00    -0.744 OA
ENDBRANCH  71  72
ENDBRANCH  52  66
BRANCH  53  76
ATOM     76  C   UNL A   1      42.584  25.825  28.616  1.00  0.00    -0.014 A 
ATOM     77  C   UNL A   1      43.048  26.097  27.317  1.00  0.00     0.010 A 
ATOM     78  C   UNL A   1      42.233  24.504  28.952  1.00  0.00     0.010 A 
ATOM     79  C   UNL A   1      43.151  25.072  26.371  1.00  0.00     0.020 A 
ATOM     80  C   UNL A   1      42.358  23.473  28.017  1.00  0.00     0.020 A 
ATOM     81  C   UNL A   1      42.811  23.765  26.729  1.00  0.00     0.054 A 
BRANCH  81  82
ATOM     82  S   UNL A   1      43.008  22.445  25.498  1.00  0.00     0.124 S 
ATOM     83  O   UNL A   1      44.074  21.640  26.084  1.00  0.00    -0.237 OA
ATOM     84  O   UNL A   1      41.683  21.830  25.486  1.00  0.00    -0.237 OA
ATOM     85  O   UNL A   1      43.364  23.165  24.278  1.00  0.00    -0.744 OA
ENDBRANCH  81  82
ENDBRANCH  53  76
BRANCH  65  86
ATOM     86  C   UNL A   1      46.406  27.619  34.199  1.00  0.00    -0.014 A 
ATOM     87  C   UNL A   1      46.389  26.371  34.845  1.00  0.00     0.010 A 
ATOM     88  C   UNL A   1      47.636  28.278  34.007  1.00  0.00     0.010 A 
ATOM     89  C   UNL A   1      47.583  25.789  35.281  1.00  0.00     0.020 A 
ATOM     90  C   UNL A   1      48.832  27.687  34.421  1.00  0.00     0.020 A 
ATOM     91  C   UNL A   1      48.798  26.444  35.053  1.00  0.00     0.054 A 
BRANCH  91  92
ATOM     92  S   UNL A   1      50.339  25.611  35.528  1.00  0.00     0.124 S 
ATOM     93  O   UNL A   1      51.353  26.558  35.073  1.00  0.00    -0.237 OA
ATOM     94  O   UNL A   1      50.199  25.486  36.977  1.00  0.00    -0.237 OA
ATOM     95  O   UNL A   1      50.291  24.348  34.793  1.00  0.00    -0.744 OA
ENDBRANCH  91  92
ENDBRANCH  65  86
ENDBRANCH  39  40
ENDBRANCH  32  34
ENDBRANCH  31  32
ENDBRANCH  30  31
ENDBRANCH  29  30
ENDBRANCH  28  29
ENDBRANCH  27  28
ENDBRANCH   1  27
TORSDOF 24
ENDMDL
