MODEL 1
REMARK VINA RESULT:     -10.0      0.000      0.000
REMARK SMILES CC(C)CCc1cc2c(cc1Cl)C=C(C(=O)OCCOCCOCCOCCOC(=O)c1ccc(-c3c4nc(c(-c5ccc(S(=O)(=O)[O-])cc5)c5ccc([nH]5)c(-c5ccc(S(=O)(=O)[O-])cc5)c5nc(c(-c6ccc(S(=O)(=O)[O-])cc6)c6ccc3[nH]6)C=C5)C=C4)cc1)[C@@H](C(F)(F)F)O2
REMARK SMILES IDX 23 1 22 2 21 3 20 4 19 5 18 6 17 7 15 8 16 9 14 10 6 11 7 12
REMARK SMILES IDX 11 13 8 14 10 15 12 16 9 17 97 18 13 19 92 20 5 21 4 22 2 23
REMARK SMILES IDX 1 24 3 25 93 26 94 27 95 28 96 29 24 30 25 31 26 32 27 33
REMARK SMILES IDX 28 34 29 35 30 36 31 37 32 38 33 39 91 40 34 41 90 42 35 43
REMARK SMILES IDX 36 44 37 45 84 46 38 47 89 48 83 49 85 50 39 51 88 52 82 53
REMARK SMILES IDX 81 54 40 56 70 57 51 58 69 59 52 60 55 61 68 62 86 63 53 64
REMARK SMILES IDX 54 65 67 67 87 68 56 69 41 70 42 71 50 72 43 73 49 74 44 75
REMARK SMILES IDX 45 76 46 77 47 78 48 79 71 80 72 81 80 82 73 83 79 84 74 85
REMARK SMILES IDX 75 86 76 87 77 88 78 89 57 90 58 91 66 92 59 93 65 94 60 95
REMARK SMILES IDX 61 96 62 97 63 98 64 99
REMARK H PARENT 85 55 55 66
REMARK Flexibility Score: inf
ROOT
ATOM      1  O   UNL A   1      34.222  34.887  28.998  1.00  0.00    -0.377 OA
ENDROOT
BRANCH   1   2
ATOM      2  C   UNL A   1      33.338  34.034  28.291  1.00  0.00     0.188 C 
BRANCH   2   3
ATOM      3  C   UNL A   1      33.941  32.641  28.030  1.00  0.00     0.188 C 
BRANCH   3   4
ATOM      4  O   UNL A   1      32.966  31.673  27.652  1.00  0.00    -0.376 OA
BRANCH   4   5
ATOM      5  C   UNL A   1      33.399  30.565  26.870  1.00  0.00     0.202 C 
BRANCH   5   6
ATOM      6  C   UNL A   1      32.385  29.889  25.934  1.00  0.00     0.261 C 
BRANCH   6   7
ATOM      7  O   UNL A   1      32.498  28.462  25.829  1.00  0.00    -0.460 OA
BRANCH   7   8
ATOM      8  C   UNL A   1      32.740  27.933  24.617  1.00  0.00     0.338 C 
ATOM      9  O   UNL A   1      32.951  28.537  23.579  1.00  0.00    -0.246 OA
BRANCH   8  10
ATOM     10  C   UNL A   1      32.903  26.472  24.793  1.00  0.00     0.087 C 
ATOM     11  C   UNL A   1      34.679  21.794  25.140  1.00  0.00    -0.026 A 
ATOM     12  C   UNL A   1      33.393  22.366  25.158  1.00  0.00     0.052 A 
ATOM     13  C   UNL A   1      35.781  22.652  25.286  1.00  0.00     0.045 A 
ATOM     14  C   UNL A   1      33.220  23.749  25.144  1.00  0.00     0.128 A 
ATOM     15  C   UNL A   1      35.604  24.040  25.295  1.00  0.00     0.032 A 
ATOM     16  Cl  UNL A   1      37.401  22.065  25.423  1.00  0.00    -0.084 Cl
ATOM     17  C   UNL A   1      34.328  24.590  25.160  1.00  0.00     0.019 A 
ATOM     18  O   UNL A   1      31.930  24.185  25.078  1.00  0.00    -0.475 OA
ATOM     19  C   UNL A   1      34.150  26.019  24.979  1.00  0.00     0.027 C 
ATOM     20  C   UNL A   1      31.673  25.598  24.842  1.00  0.00     0.316 C 
BRANCH  11  21
ATOM     21  C   UNL A   1      34.819  20.305  24.901  1.00  0.00     0.037 C 
BRANCH  21  22
ATOM     22  C   UNL A   1      33.497  19.595  24.540  1.00  0.00     0.008 C 
BRANCH  22  23
ATOM     23  C   UNL A   1      33.643  18.182  23.930  1.00  0.00    -0.017 C 
ATOM     24  C   UNL A   1      33.569  17.079  24.985  1.00  0.00     0.007 C 
ATOM     25  C   UNL A   1      32.567  17.960  22.864  1.00  0.00     0.007 C 
ENDBRANCH  22  23
ENDBRANCH  21  22
ENDBRANCH  11  21
BRANCH  20  26
ATOM     26  C   UNL A   1      30.820  25.728  23.572  1.00  0.00     0.430 C 
ATOM     27  F   UNL A   1      31.596  25.884  22.474  1.00  0.00    -0.167 F 
ATOM     28  F   UNL A   1      30.052  24.637  23.366  1.00  0.00    -0.167 F 
ATOM     29  F   UNL A   1      29.993  26.799  23.641  1.00  0.00    -0.167 F 
ENDBRANCH  20  26
ENDBRANCH   8  10
ENDBRANCH   7   8
ENDBRANCH   6   7
ENDBRANCH   5   6
ENDBRANCH   4   5
ENDBRANCH   3   4
ENDBRANCH   2   3
ENDBRANCH   1   2
BRANCH   1  30
ATOM     30  C   UNL A   1      33.767  35.425  30.239  1.00  0.00     0.188 C 
BRANCH  30  31
ATOM     31  C   UNL A   1      34.434  35.044  31.582  1.00  0.00     0.188 C 
BRANCH  31  32
ATOM     32  O   UNL A   1      33.887  33.875  32.192  1.00  0.00    -0.376 OA
BRANCH  32  33
ATOM     33  C   UNL A   1      34.494  32.635  31.856  1.00  0.00     0.202 C 
BRANCH  33  34
ATOM     34  C   UNL A   1      35.939  32.761  31.361  1.00  0.00     0.261 C 
BRANCH  34  35
ATOM     35  O   UNL A   1      36.381  31.710  30.490  1.00  0.00    -0.460 OA
BRANCH  35  36
ATOM     36  C   UNL A   1      36.778  30.547  31.053  1.00  0.00     0.338 C 
ATOM     37  O   UNL A   1      36.087  29.757  31.672  1.00  0.00    -0.246 OA
BRANCH  36  38
ATOM     38  C   UNL A   1      38.163  30.296  30.605  1.00  0.00     0.060 A 
ATOM     39  C   UNL A   1      39.162  29.999  31.537  1.00  0.00     0.016 A 
ATOM     40  C   UNL A   1      38.472  30.402  29.242  1.00  0.00     0.016 A 
ATOM     41  C   UNL A   1      40.467  29.779  31.099  1.00  0.00     0.010 A 
ATOM     42  C   UNL A   1      39.782  30.185  28.807  1.00  0.00     0.010 A 
ATOM     43  C   UNL A   1      40.782  29.848  29.730  1.00  0.00    -0.014 A 
BRANCH  43  44
ATOM     44  C   UNL A   1      42.106  29.369  29.266  1.00  0.00     0.031 A 
ATOM     45  C   UNL A   1      42.325  27.975  28.768  1.00  0.00     0.074 A 
ATOM     46  C   UNL A   1      43.125  30.250  29.290  1.00  0.00     0.049 A 
ATOM     47  N   UNL A   1      43.401  27.465  28.225  1.00  0.00    -0.248 NA
ATOM     48  C   UNL A   1      41.205  27.031  28.891  1.00  0.00     0.031 C 
ATOM     49  C   UNL A   1      43.022  31.630  29.772  1.00  0.00     0.029 A 
ATOM     50  N   UNL A   1      44.431  30.131  28.891  1.00  0.00    -0.354 N 
ATOM     51  C   UNL A   1      43.087  26.149  27.916  1.00  0.00     0.074 A 
ATOM     52  C   UNL A   1      41.731  25.923  28.376  1.00  0.00     0.031 C 
ATOM     53  C   UNL A   1      44.204  32.239  29.607  1.00  0.00     0.029 A 
ATOM     54  C   UNL A   1      45.156  31.290  29.037  1.00  0.00     0.049 A 
ATOM     55  H   UNL A   1      44.814  29.297  28.535  1.00  0.00     0.167 HD
ATOM     56  C   UNL A   1      43.858  25.227  27.290  1.00  0.00     0.031 A 
ATOM     57  C   UNL A   1      46.439  31.571  28.736  1.00  0.00     0.031 A 
ATOM     58  C   UNL A   1      45.215  25.463  26.860  1.00  0.00     0.049 A 
ATOM     59  C   UNL A   1      47.286  30.516  28.087  1.00  0.00     0.074 A 
ATOM     60  C   UNL A   1      46.058  24.601  26.177  1.00  0.00     0.029 A 
ATOM     61  N   UNL A   1      45.936  26.629  27.077  1.00  0.00    -0.354 N 
ATOM     62  N   UNL A   1      46.947  29.300  27.727  1.00  0.00    -0.248 NA
ATOM     63  C   UNL A   1      48.681  30.867  27.790  1.00  0.00     0.031 C 
ATOM     64  C   UNL A   1      47.306  25.215  26.051  1.00  0.00     0.029 A 
ATOM     65  C   UNL A   1      47.223  26.492  26.581  1.00  0.00     0.049 A 
ATOM     66  H   UNL A   1      45.584  27.435  27.519  1.00  0.00     0.167 HD
ATOM     67  C   UNL A   1      48.083  28.746  27.149  1.00  0.00     0.074 A 
ATOM     68  C   UNL A   1      49.111  29.768  27.185  1.00  0.00     0.031 C 
ATOM     69  C   UNL A   1      48.253  27.503  26.636  1.00  0.00     0.031 A 
BRANCH  56  70
ATOM     70  C   UNL A   1      43.266  23.870  27.000  1.00  0.00    -0.014 A 
ATOM     71  C   UNL A   1      42.853  23.041  28.059  1.00  0.00     0.010 A 
ATOM     72  C   UNL A   1      43.265  23.355  25.691  1.00  0.00     0.010 A 
ATOM     73  C   UNL A   1      42.485  21.712  27.821  1.00  0.00     0.020 A 
ATOM     74  C   UNL A   1      42.871  22.035  25.444  1.00  0.00     0.020 A 
ATOM     75  C   UNL A   1      42.507  21.214  26.516  1.00  0.00     0.054 A 
BRANCH  75  76
ATOM     76  S   UNL A   1      42.067  19.477  26.233  1.00  0.00     0.124 S 
ATOM     77  O   UNL A   1      40.612  19.540  26.132  1.00  0.00    -0.237 OA
ATOM     78  O   UNL A   1      42.775  19.167  24.993  1.00  0.00    -0.237 OA
ATOM     79  O   UNL A   1      42.581  18.797  27.420  1.00  0.00    -0.744 OA
ENDBRANCH  75  76
ENDBRANCH  56  70
BRANCH  57  80
ATOM     80  C   UNL A   1      46.956  32.939  29.006  1.00  0.00    -0.014 A 
ATOM     81  C   UNL A   1      46.811  33.956  28.043  1.00  0.00     0.010 A 
ATOM     82  C   UNL A   1      47.691  33.203  30.174  1.00  0.00     0.010 A 
ATOM     83  C   UNL A   1      47.444  35.189  28.214  1.00  0.00     0.020 A 
ATOM     84  C   UNL A   1      48.299  34.447  30.364  1.00  0.00     0.020 A 
ATOM     85  C   UNL A   1      48.199  35.420  29.366  1.00  0.00     0.054 A 
BRANCH  85  86
ATOM     86  S   UNL A   1      49.068  37.003  29.535  1.00  0.00     0.124 S 
ATOM     87  O   UNL A   1      50.422  36.565  29.866  1.00  0.00    -0.237 OA
ATOM     88  O   UNL A   1      48.907  37.598  28.211  1.00  0.00    -0.237 OA
ATOM     89  O   UNL A   1      48.348  37.677  30.611  1.00  0.00    -0.744 OA
ENDBRANCH  85  86
ENDBRANCH  57  80
BRANCH  69  90
ATOM     90  C   UNL A   1      49.610  27.142  26.086  1.00  0.00    -0.014 A 
ATOM     91  C   UNL A   1      49.917  27.413  24.740  1.00  0.00     0.010 A 
ATOM     92  C   UNL A   1      50.535  26.426  26.866  1.00  0.00     0.010 A 
ATOM     93  C   UNL A   1      51.105  26.942  24.173  1.00  0.00     0.020 A 
ATOM     94  C   UNL A   1      51.739  25.981  26.312  1.00  0.00     0.020 A 
ATOM     95  C   UNL A   1      52.004  26.219  24.962  1.00  0.00     0.054 A 
BRANCH  95  96
ATOM     96  S   UNL A   1      53.524  25.586  24.200  1.00  0.00     0.124 S 
ATOM     97  O   UNL A   1      53.259  25.781  22.777  1.00  0.00    -0.237 OA
ATOM     98  O   UNL A   1      54.555  26.449  24.773  1.00  0.00    -0.237 OA
ATOM     99  O   UNL A   1      53.574  24.193  24.640  1.00  0.00    -0.744 OA
ENDBRANCH  95  96
ENDBRANCH  69  90
ENDBRANCH  43  44
ENDBRANCH  36  38
ENDBRANCH  35  36
ENDBRANCH  34  35
ENDBRANCH  33  34
ENDBRANCH  32  33
ENDBRANCH  31  32
ENDBRANCH  30  31
ENDBRANCH   1  30
TORSDOF 27
ENDMDL
MODEL 2
REMARK VINA RESULT:      -9.2      5.909      8.320
REMARK SMILES CC(C)CCc1cc2c(cc1Cl)C=C(C(=O)OCCOCCOCCOCCOC(=O)c1ccc(-c3c4nc(c(-c5ccc(S(=O)(=O)[O-])cc5)c5ccc([nH]5)c(-c5ccc(S(=O)(=O)[O-])cc5)c5nc(c(-c6ccc(S(=O)(=O)[O-])cc6)c6ccc3[nH]6)C=C5)C=C4)cc1)[C@@H](C(F)(F)F)O2
REMARK SMILES IDX 23 1 22 2 21 3 20 4 19 5 18 6 17 7 15 8 16 9 14 10 6 11 7 12
REMARK SMILES IDX 11 13 8 14 10 15 12 16 9 17 97 18 13 19 92 20 5 21 4 22 2 23
REMARK SMILES IDX 1 24 3 25 93 26 94 27 95 28 96 29 24 30 25 31 26 32 27 33
REMARK SMILES IDX 28 34 29 35 30 36 31 37 32 38 33 39 91 40 34 41 90 42 35 43
REMARK SMILES IDX 36 44 37 45 84 46 38 47 89 48 83 49 85 50 39 51 88 52 82 53
REMARK SMILES IDX 81 54 40 56 70 57 51 58 69 59 52 60 55 61 68 62 86 63 53 64
REMARK SMILES IDX 54 65 67 67 87 68 56 69 41 70 42 71 50 72 43 73 49 74 44 75
REMARK SMILES IDX 45 76 46 77 47 78 48 79 71 80 72 81 80 82 73 83 79 84 74 85
REMARK SMILES IDX 75 86 76 87 77 88 78 89 57 90 58 91 66 92 59 93 65 94 60 95
REMARK SMILES IDX 61 96 62 97 63 98 64 99
REMARK H PARENT 85 55 55 66
REMARK Flexibility Score: inf
ROOT
ATOM      1  O   UNL A   1      35.791  31.680  28.414  1.00  0.00    -0.377 OA
ENDROOT
BRANCH   1   2
ATOM      2  C   UNL A   1      35.390  30.626  27.556  1.00  0.00     0.188 C 
BRANCH   2   3
ATOM      3  C   UNL A   1      33.879  30.647  27.259  1.00  0.00     0.188 C 
BRANCH   3   4
ATOM      4  O   UNL A   1      33.409  29.437  26.670  1.00  0.00    -0.376 OA
BRANCH   4   5
ATOM      5  C   UNL A   1      32.585  28.590  27.464  1.00  0.00     0.202 C 
BRANCH   5   6
ATOM      6  C   UNL A   1      31.982  27.335  26.812  1.00  0.00     0.261 C 
BRANCH   6   7
ATOM      7  O   UNL A   1      31.622  27.470  25.429  1.00  0.00    -0.460 OA
BRANCH   7   8
ATOM      8  C   UNL A   1      32.547  27.165  24.502  1.00  0.00     0.338 C 
ATOM      9  O   UNL A   1      33.136  27.938  23.767  1.00  0.00    -0.246 OA
BRANCH   8  10
ATOM     10  C   UNL A   1      32.879  25.730  24.660  1.00  0.00     0.087 C 
ATOM     11  C   UNL A   1      35.197  21.297  25.025  1.00  0.00    -0.026 A 
ATOM     12  C   UNL A   1      33.851  21.706  24.976  1.00  0.00     0.052 A 
ATOM     13  C   UNL A   1      36.173  22.279  25.255  1.00  0.00     0.045 A 
ATOM     14  C   UNL A   1      33.509  23.058  24.978  1.00  0.00     0.128 A 
ATOM     15  C   UNL A   1      35.827  23.634  25.279  1.00  0.00     0.032 A 
ATOM     16  Cl  UNL A   1      37.843  21.891  25.479  1.00  0.00    -0.084 Cl
ATOM     17  C   UNL A   1      34.502  24.028  25.078  1.00  0.00     0.019 A 
ATOM     18  O   UNL A   1      32.182  23.335  24.843  1.00  0.00    -0.475 OA
ATOM     19  C   UNL A   1      34.160  25.428  24.913  1.00  0.00     0.027 C 
ATOM     20  C   UNL A   1      31.766  24.712  24.618  1.00  0.00     0.316 C 
BRANCH  11  21
ATOM     21  C   UNL A   1      35.533  19.843  24.768  1.00  0.00     0.037 C 
BRANCH  21  22
ATOM     22  C   UNL A   1      34.308  18.904  24.743  1.00  0.00     0.008 C 
BRANCH  22  23
ATOM     23  C   UNL A   1      34.520  17.547  24.034  1.00  0.00    -0.017 C 
ATOM     24  C   UNL A   1      34.997  16.456  24.992  1.00  0.00     0.007 C 
ATOM     25  C   UNL A   1      33.225  17.111  23.345  1.00  0.00     0.007 C 
ENDBRANCH  22  23
ENDBRANCH  21  22
ENDBRANCH  11  21
BRANCH  20  26
ATOM     26  C   UNL A   1      30.978  24.770  23.301  1.00  0.00     0.430 C 
ATOM     27  F   UNL A   1      29.919  25.608  23.402  1.00  0.00    -0.167 F 
ATOM     28  F   UNL A   1      31.739  25.210  22.276  1.00  0.00    -0.167 F 
ATOM     29  F   UNL A   1      30.500  23.550  22.958  1.00  0.00    -0.167 F 
ENDBRANCH  20  26
ENDBRANCH   8  10
ENDBRANCH   7   8
ENDBRANCH   6   7
ENDBRANCH   5   6
ENDBRANCH   4   5
ENDBRANCH   3   4
ENDBRANCH   2   3
ENDBRANCH   1   2
BRANCH   1  30
ATOM     30  C   UNL A   1      35.156  31.772  29.689  1.00  0.00     0.188 C 
BRANCH  30  31
ATOM     31  C   UNL A   1      34.120  32.877  30.001  1.00  0.00     0.188 C 
BRANCH  31  32
ATOM     32  O   UNL A   1      34.256  34.046  29.194  1.00  0.00    -0.376 OA
BRANCH  32  33
ATOM     33  C   UNL A   1      33.118  34.891  29.093  1.00  0.00     0.202 C 
BRANCH  33  34
ATOM     34  C   UNL A   1      33.043  35.969  30.180  1.00  0.00     0.261 C 
BRANCH  34  35
ATOM     35  O   UNL A   1      32.524  35.529  31.443  1.00  0.00    -0.460 OA
BRANCH  35  36
ATOM     36  C   UNL A   1      33.122  35.987  32.567  1.00  0.00     0.338 C 
ATOM     37  O   UNL A   1      32.702  36.843  33.325  1.00  0.00    -0.246 OA
BRANCH  36  38
ATOM     38  C   UNL A   1      34.284  35.113  32.830  1.00  0.00     0.060 A 
ATOM     39  C   UNL A   1      35.553  35.474  32.370  1.00  0.00     0.016 A 
ATOM     40  C   UNL A   1      34.090  33.902  33.506  1.00  0.00     0.016 A 
ATOM     41  C   UNL A   1      36.637  34.632  32.614  1.00  0.00     0.010 A 
ATOM     42  C   UNL A   1      35.177  33.057  33.745  1.00  0.00     0.010 A 
ATOM     43  C   UNL A   1      36.462  33.429  33.321  1.00  0.00    -0.014 A 
BRANCH  43  44
ATOM     44  C   UNL A   1      37.654  32.679  33.784  1.00  0.00     0.031 A 
ATOM     45  C   UNL A   1      38.251  31.556  32.995  1.00  0.00     0.074 A 
ATOM     46  C   UNL A   1      38.206  33.057  34.953  1.00  0.00     0.049 A 
ATOM     47  N   UNL A   1      39.357  30.897  33.229  1.00  0.00    -0.248 NA
ATOM     48  C   UNL A   1      37.525  31.111  31.798  1.00  0.00     0.031 C 
ATOM     49  C   UNL A   1      37.692  34.130  35.809  1.00  0.00     0.029 A 
ATOM     50  N   UNL A   1      39.317  32.604  35.616  1.00  0.00    -0.354 N 
ATOM     51  C   UNL A   1      39.479  29.976  32.198  1.00  0.00     0.074 A 
ATOM     52  C   UNL A   1      38.306  30.129  31.360  1.00  0.00     0.031 C 
ATOM     53  C   UNL A   1      38.506  34.275  36.863  1.00  0.00     0.029 A 
ATOM     54  C   UNL A   1      39.581  33.291  36.777  1.00  0.00     0.049 A 
ATOM     55  H   UNL A   1      39.873  31.858  35.292  1.00  0.00     0.167 HD
ATOM     56  C   UNL A   1      40.488  29.101  31.968  1.00  0.00     0.031 A 
ATOM     57  C   UNL A   1      40.581  33.160  37.671  1.00  0.00     0.031 A 
ATOM     58  C   UNL A   1      41.638  28.947  32.828  1.00  0.00     0.049 A 
ATOM     59  C   UNL A   1      41.660  32.148  37.418  1.00  0.00     0.074 A 
ATOM     60  C   UNL A   1      42.732  28.116  32.651  1.00  0.00     0.029 A 
ATOM     61  N   UNL A   1      41.842  29.618  34.025  1.00  0.00    -0.354 N 
ATOM     62  N   UNL A   1      41.803  31.341  36.393  1.00  0.00    -0.248 NA
ATOM     63  C   UNL A   1      42.721  32.036  38.428  1.00  0.00     0.031 C 
ATOM     64  C   UNL A   1      43.555  28.228  33.773  1.00  0.00     0.029 A 
ATOM     65  C   UNL A   1      43.020  29.188  34.616  1.00  0.00     0.049 A 
ATOM     66  H   UNL A   1      41.238  30.299  34.400  1.00  0.00     0.167 HD
ATOM     67  C   UNL A   1      42.976  30.634  36.629  1.00  0.00     0.074 A 
ATOM     68  C   UNL A   1      43.516  31.126  37.880  1.00  0.00     0.031 C 
ATOM     69  C   UNL A   1      43.547  29.664  35.873  1.00  0.00     0.031 A 
BRANCH  56  70
ATOM     70  C   UNL A   1      40.429  28.241  30.731  1.00  0.00    -0.014 A 
ATOM     71  C   UNL A   1      39.291  27.454  30.473  1.00  0.00     0.010 A 
ATOM     72  C   UNL A   1      41.560  28.093  29.907  1.00  0.00     0.010 A 
ATOM     73  C   UNL A   1      39.297  26.510  29.441  1.00  0.00     0.020 A 
ATOM     74  C   UNL A   1      41.561  27.170  28.856  1.00  0.00     0.020 A 
ATOM     75  C   UNL A   1      40.437  26.366  28.646  1.00  0.00     0.054 A 
BRANCH  75  76
ATOM     76  S   UNL A   1      40.440  25.107  27.339  1.00  0.00     0.124 S 
ATOM     77  O   UNL A   1      40.357  25.919  26.129  1.00  0.00    -0.237 OA
ATOM     78  O   UNL A   1      41.714  24.425  27.557  1.00  0.00    -0.237 OA
ATOM     79  O   UNL A   1      39.255  24.305  27.635  1.00  0.00    -0.744 OA
ENDBRANCH  75  76
ENDBRANCH  56  70
BRANCH  57  80
ATOM     80  C   UNL A   1      40.610  34.064  38.851  1.00  0.00    -0.014 A 
ATOM     81  C   UNL A   1      40.397  33.551  40.145  1.00  0.00     0.010 A 
ATOM     82  C   UNL A   1      40.741  35.453  38.679  1.00  0.00     0.010 A 
ATOM     83  C   UNL A   1      40.250  34.413  41.234  1.00  0.00     0.020 A 
ATOM     84  C   UNL A   1      40.626  36.317  39.772  1.00  0.00     0.020 A 
ATOM     85  C   UNL A   1      40.348  35.792  41.036  1.00  0.00     0.054 A 
BRANCH  85  86
ATOM     86  S   UNL A   1      40.085  36.895  42.452  1.00  0.00     0.124 S 
ATOM     87  O   UNL A   1      41.438  37.016  42.991  1.00  0.00    -0.237 OA
ATOM     88  O   UNL A   1      39.549  38.099  41.823  1.00  0.00    -0.237 OA
ATOM     89  O   UNL A   1      39.142  36.159  43.289  1.00  0.00    -0.744 OA
ENDBRANCH  85  86
ENDBRANCH  57  80
BRANCH  69  90
ATOM     90  C   UNL A   1      44.822  29.033  36.375  1.00  0.00    -0.014 A 
ATOM     91  C   UNL A   1      46.067  29.566  35.994  1.00  0.00     0.010 A 
ATOM     92  C   UNL A   1      44.788  27.842  37.122  1.00  0.00     0.010 A 
ATOM     93  C   UNL A   1      47.254  28.901  36.317  1.00  0.00     0.020 A 
ATOM     94  C   UNL A   1      45.974  27.191  37.475  1.00  0.00     0.020 A 
ATOM     95  C   UNL A   1      47.198  27.710  37.047  1.00  0.00     0.054 A 
BRANCH  95  96
ATOM     96  S   UNL A   1      48.745  26.843  37.426  1.00  0.00     0.124 S 
ATOM     97  O   UNL A   1      49.256  27.607  38.561  1.00  0.00    -0.237 OA
ATOM     98  O   UNL A   1      48.289  25.489  37.733  1.00  0.00    -0.237 OA
ATOM     99  O   UNL A   1      49.519  26.967  36.192  1.00  0.00    -0.744 OA
ENDBRANCH  95  96
ENDBRANCH  69  90
ENDBRANCH  43  44
ENDBRANCH  36  38
ENDBRANCH  35  36
ENDBRANCH  34  35
ENDBRANCH  33  34
ENDBRANCH  32  33
ENDBRANCH  31  32
ENDBRANCH  30  31
ENDBRANCH   1  30
TORSDOF 27
ENDMDL
MODEL 3
REMARK VINA RESULT:      -9.1      4.877     11.162
REMARK SMILES CC(C)CCc1cc2c(cc1Cl)C=C(C(=O)OCCOCCOCCOCCOC(=O)c1ccc(-c3c4nc(c(-c5ccc(S(=O)(=O)[O-])cc5)c5ccc([nH]5)c(-c5ccc(S(=O)(=O)[O-])cc5)c5nc(c(-c6ccc(S(=O)(=O)[O-])cc6)c6ccc3[nH]6)C=C5)C=C4)cc1)[C@@H](C(F)(F)F)O2
REMARK SMILES IDX 23 1 22 2 21 3 20 4 19 5 18 6 17 7 15 8 16 9 14 10 6 11 7 12
REMARK SMILES IDX 11 13 8 14 10 15 12 16 9 17 97 18 13 19 92 20 5 21 4 22 2 23
REMARK SMILES IDX 1 24 3 25 93 26 94 27 95 28 96 29 24 30 25 31 26 32 27 33
REMARK SMILES IDX 28 34 29 35 30 36 31 37 32 38 33 39 91 40 34 41 90 42 35 43
REMARK SMILES IDX 36 44 37 45 84 46 38 47 89 48 83 49 85 50 39 51 88 52 82 53
REMARK SMILES IDX 81 54 40 56 70 57 51 58 69 59 52 60 55 61 68 62 86 63 53 64
REMARK SMILES IDX 54 65 67 67 87 68 56 69 41 70 42 71 50 72 43 73 49 74 44 75
REMARK SMILES IDX 45 76 46 77 47 78 48 79 71 80 72 81 80 82 73 83 79 84 74 85
REMARK SMILES IDX 75 86 76 87 77 88 78 89 57 90 58 91 66 92 59 93 65 94 60 95
REMARK SMILES IDX 61 96 62 97 63 98 64 99
REMARK H PARENT 85 55 55 66
REMARK Flexibility Score: inf
ROOT
ATOM      1  O   UNL A   1      32.615  36.643  30.805  1.00  0.00    -0.377 OA
ENDROOT
BRANCH   1   2
ATOM      2  C   UNL A   1      32.414  35.748  31.885  1.00  0.00     0.188 C 
BRANCH   2   3
ATOM      3  C   UNL A   1      33.330  36.053  33.085  1.00  0.00     0.188 C 
BRANCH   3   4
ATOM      4  O   UNL A   1      34.698  35.739  32.837  1.00  0.00    -0.376 OA
BRANCH   4   5
ATOM      5  C   UNL A   1      35.087  34.372  32.908  1.00  0.00     0.202 C 
BRANCH   5   6
ATOM      6  C   UNL A   1      36.503  34.039  33.406  1.00  0.00     0.261 C 
BRANCH   6   7
ATOM      7  O   UNL A   1      36.801  32.641  33.528  1.00  0.00    -0.460 OA
BRANCH   7   8
ATOM      8  C   UNL A   1      37.913  32.287  34.197  1.00  0.00     0.338 C 
ATOM      9  O   UNL A   1      38.003  31.459  35.087  1.00  0.00    -0.246 OA
BRANCH   8  10
ATOM     10  C   UNL A   1      39.062  32.937  33.527  1.00  0.00     0.087 C 
ATOM     11  C   UNL A   1      42.249  34.945  30.214  1.00  0.00    -0.026 A 
ATOM     12  C   UNL A   1      42.311  34.647  31.588  1.00  0.00     0.052 A 
ATOM     13  C   UNL A   1      40.989  34.920  29.594  1.00  0.00     0.045 A 
ATOM     14  C   UNL A   1      41.193  34.173  32.274  1.00  0.00     0.128 A 
ATOM     15  C   UNL A   1      39.863  34.466  30.289  1.00  0.00     0.032 A 
ATOM     16  Cl  UNL A   1      40.756  35.402  27.950  1.00  0.00    -0.084 Cl
ATOM     17  C   UNL A   1      39.978  34.032  31.611  1.00  0.00     0.019 A 
ATOM     18  O   UNL A   1      41.394  33.840  33.580  1.00  0.00    -0.475 OA
ATOM     19  C   UNL A   1      38.864  33.385  32.280  1.00  0.00     0.027 C 
ATOM     20  C   UNL A   1      40.343  33.138  34.300  1.00  0.00     0.316 C 
BRANCH  11  21
ATOM     21  C   UNL A   1      43.535  35.212  29.460  1.00  0.00     0.037 C 
BRANCH  21  22
ATOM     22  C   UNL A   1      43.748  36.691  29.077  1.00  0.00     0.008 C 
BRANCH  22  23
ATOM     23  C   UNL A   1      44.244  36.943  27.634  1.00  0.00    -0.017 C 
ATOM     24  C   UNL A   1      43.759  35.874  26.655  1.00  0.00     0.007 C 
ATOM     25  C   UNL A   1      43.797  38.328  27.162  1.00  0.00     0.007 C 
ENDBRANCH  22  23
ENDBRANCH  21  22
ENDBRANCH  11  21
BRANCH  20  26
ATOM     26  C   UNL A   1      40.917  31.814  34.824  1.00  0.00     0.430 C 
ATOM     27  F   UNL A   1      40.466  31.545  36.073  1.00  0.00    -0.167 F 
ATOM     28  F   UNL A   1      40.570  30.768  34.042  1.00  0.00    -0.167 F 
ATOM     29  F   UNL A   1      42.269  31.849  34.879  1.00  0.00    -0.167 F 
ENDBRANCH  20  26
ENDBRANCH   8  10
ENDBRANCH   7   8
ENDBRANCH   6   7
ENDBRANCH   5   6
ENDBRANCH   4   5
ENDBRANCH   3   4
ENDBRANCH   2   3
ENDBRANCH   1   2
BRANCH   1  30
ATOM     30  C   UNL A   1      33.159  36.107  29.598  1.00  0.00     0.188 C 
BRANCH  30  31
ATOM     31  C   UNL A   1      33.731  34.671  29.534  1.00  0.00     0.188 C 
BRANCH  31  32
ATOM     32  O   UNL A   1      34.456  34.387  28.338  1.00  0.00    -0.376 OA
BRANCH  32  33
ATOM     33  C   UNL A   1      35.371  33.301  28.386  1.00  0.00     0.202 C 
BRANCH  33  34
ATOM     34  C   UNL A   1      34.792  32.025  29.005  1.00  0.00     0.261 C 
BRANCH  34  35
ATOM     35  O   UNL A   1      35.680  30.898  29.027  1.00  0.00    -0.460 OA
BRANCH  35  36
ATOM     36  C   UNL A   1      36.365  30.653  30.168  1.00  0.00     0.338 C 
ATOM     37  O   UNL A   1      35.932  30.686  31.305  1.00  0.00    -0.246 OA
BRANCH  36  38
ATOM     38  C   UNL A   1      37.690  30.131  29.776  1.00  0.00     0.060 A 
ATOM     39  C   UNL A   1      37.972  29.862  28.434  1.00  0.00     0.016 A 
ATOM     40  C   UNL A   1      38.644  29.869  30.768  1.00  0.00     0.016 A 
ATOM     41  C   UNL A   1      39.222  29.357  28.081  1.00  0.00     0.010 A 
ATOM     42  C   UNL A   1      39.895  29.358  30.413  1.00  0.00     0.010 A 
ATOM     43  C   UNL A   1      40.200  29.121  29.064  1.00  0.00    -0.014 A 
BRANCH  43  44
ATOM     44  C   UNL A   1      41.592  28.825  28.648  1.00  0.00     0.031 A 
ATOM     45  C   UNL A   1      42.682  29.848  28.712  1.00  0.00     0.074 A 
ATOM     46  C   UNL A   1      41.855  27.577  28.215  1.00  0.00     0.049 A 
ATOM     47  N   UNL A   1      43.962  29.687  28.488  1.00  0.00    -0.248 NA
ATOM     48  C   UNL A   1      42.300  31.222  29.067  1.00  0.00     0.031 C 
ATOM     49  C   UNL A   1      40.859  26.509  28.100  1.00  0.00     0.029 A 
ATOM     50  N   UNL A   1      43.025  26.989  27.813  1.00  0.00    -0.354 N 
ATOM     51  C   UNL A   1      44.547  30.927  28.700  1.00  0.00     0.074 A 
ATOM     52  C   UNL A   1      43.473  31.846  29.024  1.00  0.00     0.031 C 
ATOM     53  C   UNL A   1      41.467  25.388  27.690  1.00  0.00     0.029 A 
ATOM     54  C   UNL A   1      42.887  25.661  27.486  1.00  0.00     0.049 A 
ATOM     55  H   UNL A   1      43.883  27.471  27.762  1.00  0.00     0.167 HD
ATOM     56  C   UNL A   1      45.860  31.257  28.646  1.00  0.00     0.031 A 
ATOM     57  C   UNL A   1      43.797  24.754  27.080  1.00  0.00     0.031 A 
ATOM     58  C   UNL A   1      46.913  30.333  28.298  1.00  0.00     0.049 A 
ATOM     59  C   UNL A   1      45.239  25.158  26.981  1.00  0.00     0.074 A 
ATOM     60  C   UNL A   1      48.278  30.567  28.260  1.00  0.00     0.029 A 
ATOM     61  N   UNL A   1      46.729  29.012  27.916  1.00  0.00    -0.354 N 
ATOM     62  N   UNL A   1      45.786  26.316  27.265  1.00  0.00    -0.248 NA
ATOM     63  C   UNL A   1      46.189  24.136  26.523  1.00  0.00     0.031 C 
ATOM     64  C   UNL A   1      48.909  29.416  27.784  1.00  0.00     0.029 A 
ATOM     65  C   UNL A   1      47.949  28.434  27.601  1.00  0.00     0.049 A 
ATOM     66  H   UNL A   1      45.859  28.552  27.875  1.00  0.00     0.167 HD
ATOM     67  C   UNL A   1      47.147  26.158  27.031  1.00  0.00     0.074 A 
ATOM     68  C   UNL A   1      47.343  24.786  26.608  1.00  0.00     0.031 C 
ATOM     69  C   UNL A   1      48.140  27.073  27.158  1.00  0.00     0.031 A 
BRANCH  56  70
ATOM     70  C   UNL A   1      46.264  32.670  28.986  1.00  0.00    -0.014 A 
ATOM     71  C   UNL A   1      46.535  33.592  27.958  1.00  0.00     0.010 A 
ATOM     72  C   UNL A   1      46.525  33.038  30.318  1.00  0.00     0.010 A 
ATOM     73  C   UNL A   1      47.094  34.841  28.251  1.00  0.00     0.020 A 
ATOM     74  C   UNL A   1      47.058  34.296  30.618  1.00  0.00     0.020 A 
ATOM     75  C   UNL A   1      47.363  35.180  29.579  1.00  0.00     0.054 A 
BRANCH  75  76
ATOM     76  S   UNL A   1      48.127  36.787  29.935  1.00  0.00     0.124 S 
ATOM     77  O   UNL A   1      48.774  36.543  31.221  1.00  0.00    -0.237 OA
ATOM     78  O   UNL A   1      49.028  36.969  28.799  1.00  0.00    -0.237 OA
ATOM     79  O   UNL A   1      46.991  37.705  29.971  1.00  0.00    -0.744 OA
ENDBRANCH  75  76
ENDBRANCH  56  70
BRANCH  57  80
ATOM     80  C   UNL A   1      43.348  23.364  26.799  1.00  0.00    -0.014 A 
ATOM     81  C   UNL A   1      42.802  22.571  27.827  1.00  0.00     0.010 A 
ATOM     82  C   UNL A   1      43.565  22.790  25.535  1.00  0.00     0.010 A 
ATOM     83  C   UNL A   1      42.541  21.216  27.614  1.00  0.00     0.020 A 
ATOM     84  C   UNL A   1      43.275  21.441  25.309  1.00  0.00     0.020 A 
ATOM     85  C   UNL A   1      42.797  20.656  26.361  1.00  0.00     0.054 A 
BRANCH  85  86
ATOM     86  S   UNL A   1      42.516  18.879  26.128  1.00  0.00     0.124 S 
ATOM     87  O   UNL A   1      42.741  18.363  27.476  1.00  0.00    -0.237 OA
ATOM     88  O   UNL A   1      41.133  18.833  25.660  1.00  0.00    -0.237 OA
ATOM     89  O   UNL A   1      43.520  18.501  25.138  1.00  0.00    -0.744 OA
ENDBRANCH  85  86
ENDBRANCH  57  80
BRANCH  69  90
ATOM     90  C   UNL A   1      49.545  26.645  26.813  1.00  0.00    -0.014 A 
ATOM     91  C   UNL A   1      49.982  26.681  25.476  1.00  0.00     0.010 A 
ATOM     92  C   UNL A   1      50.390  26.095  27.793  1.00  0.00     0.010 A 
ATOM     93  C   UNL A   1      51.220  26.139  25.117  1.00  0.00     0.020 A 
ATOM     94  C   UNL A   1      51.643  25.581  27.444  1.00  0.00     0.020 A 
ATOM     95  C   UNL A   1      52.038  25.582  26.104  1.00  0.00     0.054 A 
BRANCH  95  96
ATOM     96  S   UNL A   1      53.626  24.853  25.616  1.00  0.00     0.124 S 
ATOM     97  O   UNL A   1      53.211  23.590  25.010  1.00  0.00    -0.237 OA
ATOM     98  O   UNL A   1      54.166  25.847  24.691  1.00  0.00    -0.237 OA
ATOM     99  O   UNL A   1      54.350  24.730  26.879  1.00  0.00    -0.744 OA
ENDBRANCH  95  96
ENDBRANCH  69  90
ENDBRANCH  43  44
ENDBRANCH  36  38
ENDBRANCH  35  36
ENDBRANCH  34  35
ENDBRANCH  33  34
ENDBRANCH  32  33
ENDBRANCH  31  32
ENDBRANCH  30  31
ENDBRANCH   1  30
TORSDOF 27
ENDMDL
