MODEL 1
REMARK VINA RESULT:     -10.8      0.000      0.000
REMARK SMILES Cc1c(CC(=O)OCCOCCOCCOCCOC(=O)c2ccc(-c3c4nc(c(-c5ccc(S(=O)(=O)[O-])cc5)c5ccc([nH]5)c(-c5ccc(S(=O)(=O)[O-])cc5)c5nc(c(-c6ccc(S(=O)(=O)[O-])cc6)c6ccc3[nH]6)C=C5)C=C4)cc2)cc(-c2ccccc2)cc1-c1ccccc1
REMARK SMILES IDX 14 1 13 2 12 3 11 4 10 5 9 6 8 7 7 8 5 9 6 10 4 11 3 12 1 13
REMARK SMILES IDX 2 14 91 15 82 16 90 17 83 18 92 19 93 20 97 21 94 22 96 23
REMARK SMILES IDX 95 24 84 25 85 26 89 27 86 28 88 29 87 30 15 31 16 32 17 33
REMARK SMILES IDX 18 34 19 35 20 36 21 37 22 38 23 39 81 40 24 41 80 42 25 43
REMARK SMILES IDX 26 44 27 45 74 46 28 47 79 48 73 49 75 50 29 51 78 52 72 53
REMARK SMILES IDX 71 54 30 56 60 57 41 58 59 59 42 60 45 61 58 62 76 63 43 64
REMARK SMILES IDX 44 65 57 67 77 68 46 69 31 70 32 71 40 72 33 73 39 74 34 75
REMARK SMILES IDX 35 76 36 77 37 78 38 79 61 80 62 81 70 82 63 83 69 84 64 85
REMARK SMILES IDX 65 86 66 87 67 88 68 89 47 90 48 91 56 92 49 93 55 94 50 95
REMARK SMILES IDX 51 96 52 97 53 98 54 99
REMARK H PARENT 75 55 45 66
REMARK Flexibility Score: inf
ROOT
ATOM      1  C   UNL A   1      36.813  22.664  24.705  1.00  0.00     0.188 C 
ENDROOT
BRANCH   1   2
ATOM      2  O   UNL A   1      35.550  22.155  25.049  1.00  0.00    -0.377 OA
BRANCH   2   3
ATOM      3  C   UNL A   1      35.423  20.756  25.105  1.00  0.00     0.188 C 
BRANCH   3   4
ATOM      4  C   UNL A   1      34.043  20.226  25.499  1.00  0.00     0.188 C 
BRANCH   4   5
ATOM      5  O   UNL A   1      32.904  20.909  24.975  1.00  0.00    -0.376 OA
BRANCH   5   6
ATOM      6  C   UNL A   1      32.559  20.628  23.620  1.00  0.00     0.202 C 
BRANCH   6   7
ATOM      7  C   UNL A   1      32.067  21.796  22.763  1.00  0.00     0.261 C 
BRANCH   7   8
ATOM      8  O   UNL A   1      32.755  23.039  23.028  1.00  0.00    -0.463 OA
BRANCH   8   9
ATOM      9  C   UNL A   1      31.969  24.140  23.100  1.00  0.00     0.310 C 
ATOM     10  O   UNL A   1      30.745  24.118  23.200  1.00  0.00    -0.252 OA
BRANCH   9  11
ATOM     11  C   UNL A   1      32.707  25.441  22.925  1.00  0.00     0.158 C 
BRANCH  11  12
ATOM     12  C   UNL A   1      32.208  26.706  23.603  1.00  0.00    -0.033 A 
ATOM     13  C   UNL A   1      33.704  26.299  25.615  1.00  0.00     0.045 C 
ATOM     14  C   UNL A   1      32.788  27.181  24.803  1.00  0.00    -0.039 A 
ATOM     15  C   UNL A   1      32.541  28.515  25.209  1.00  0.00    -0.015 A 
ATOM     16  C   UNL A   1      31.271  27.522  22.935  1.00  0.00     0.013 A 
ATOM     17  C   UNL A   1      31.506  29.234  24.589  1.00  0.00     0.017 A 
ATOM     18  C   UNL A   1      30.827  28.744  23.473  1.00  0.00    -0.017 A 
BRANCH  15  19
ATOM     19  C   UNL A   1      33.456  29.271  26.085  1.00  0.00    -0.018 A 
ATOM     20  C   UNL A   1      34.703  28.772  26.488  1.00  0.00     0.009 A 
ATOM     21  C   UNL A   1      32.991  30.457  26.685  1.00  0.00     0.009 A 
ATOM     22  C   UNL A   1      35.451  29.434  27.466  1.00  0.00     0.001 A 
ATOM     23  C   UNL A   1      33.737  31.119  27.658  1.00  0.00     0.001 A 
ATOM     24  C   UNL A   1      34.966  30.603  28.054  1.00  0.00     0.000 A 
ENDBRANCH  15  19
BRANCH  18  25
ATOM     25  C   UNL A   1      29.717  29.531  22.899  1.00  0.00    -0.018 A 
ATOM     26  C   UNL A   1      28.484  29.621  23.579  1.00  0.00     0.009 A 
ATOM     27  C   UNL A   1      29.849  30.235  21.695  1.00  0.00     0.009 A 
ATOM     28  C   UNL A   1      27.436  30.404  23.089  1.00  0.00     0.001 A 
ATOM     29  C   UNL A   1      28.796  31.014  21.197  1.00  0.00     0.001 A 
ATOM     30  C   UNL A   1      27.593  31.102  21.895  1.00  0.00     0.000 A 
ENDBRANCH  18  25
ENDBRANCH  11  12
ENDBRANCH   9  11
ENDBRANCH   8   9
ENDBRANCH   7   8
ENDBRANCH   6   7
ENDBRANCH   5   6
ENDBRANCH   4   5
ENDBRANCH   3   4
ENDBRANCH   2   3
ENDBRANCH   1   2
BRANCH   1  31
ATOM     31  C   UNL A   1      37.930  21.849  25.348  1.00  0.00     0.188 C 
BRANCH  31  32
ATOM     32  O   UNL A   1      38.903  22.513  26.143  1.00  0.00    -0.376 OA
BRANCH  32  33
ATOM     33  C   UNL A   1      38.699  23.868  26.548  1.00  0.00     0.202 C 
BRANCH  33  34
ATOM     34  C   UNL A   1      39.891  24.841  26.654  1.00  0.00     0.261 C 
BRANCH  34  35
ATOM     35  O   UNL A   1      39.461  26.183  26.946  1.00  0.00    -0.460 OA
BRANCH  35  36
ATOM     36  C   UNL A   1      40.480  27.016  27.312  1.00  0.00     0.338 C 
ATOM     37  O   UNL A   1      41.194  27.633  26.544  1.00  0.00    -0.246 OA
BRANCH  36  38
ATOM     38  C   UNL A   1      40.553  27.084  28.797  1.00  0.00     0.060 A 
ATOM     39  C   UNL A   1      39.399  26.927  29.560  1.00  0.00     0.016 A 
ATOM     40  C   UNL A   1      41.715  27.553  29.403  1.00  0.00     0.016 A 
ATOM     41  C   UNL A   1      39.353  27.480  30.849  1.00  0.00     0.010 A 
ATOM     42  C   UNL A   1      41.629  28.201  30.636  1.00  0.00     0.010 A 
ATOM     43  C   UNL A   1      40.402  28.297  31.307  1.00  0.00    -0.014 A 
BRANCH  43  44
ATOM     44  C   UNL A   1      40.134  29.490  32.174  1.00  0.00     0.031 A 
ATOM     45  C   UNL A   1      39.326  30.690  31.746  1.00  0.00     0.074 A 
ATOM     46  C   UNL A   1      40.460  29.409  33.500  1.00  0.00     0.049 A 
ATOM     47  N   UNL A   1      39.240  31.770  32.457  1.00  0.00    -0.248 NA
ATOM     48  C   UNL A   1      38.554  30.825  30.509  1.00  0.00     0.031 C 
ATOM     49  C   UNL A   1      40.024  30.282  34.592  1.00  0.00     0.029 A 
ATOM     50  N   UNL A   1      41.294  28.508  34.168  1.00  0.00    -0.354 N 
ATOM     51  C   UNL A   1      38.227  32.563  31.979  1.00  0.00     0.074 A 
ATOM     52  C   UNL A   1      37.875  31.965  30.717  1.00  0.00     0.031 C 
ATOM     53  C   UNL A   1      40.617  29.939  35.742  1.00  0.00     0.029 A 
ATOM     54  C   UNL A   1      41.679  29.023  35.417  1.00  0.00     0.049 A 
ATOM     55  H   UNL A   1      41.572  27.634  33.811  1.00  0.00     0.167 HD
ATOM     56  C   UNL A   1      37.750  33.591  32.745  1.00  0.00     0.031 A 
ATOM     57  C   UNL A   1      42.988  29.355  35.635  1.00  0.00     0.031 A 
ATOM     58  C   UNL A   1      38.647  33.917  33.871  1.00  0.00     0.049 A 
ATOM     59  C   UNL A   1      43.282  30.848  35.554  1.00  0.00     0.074 A 
ATOM     60  C   UNL A   1      38.510  34.136  35.230  1.00  0.00     0.029 A 
ATOM     61  N   UNL A   1      40.024  33.964  33.630  1.00  0.00    -0.354 N 
ATOM     62  N   UNL A   1      42.361  31.762  35.354  1.00  0.00    -0.248 NA
ATOM     63  C   UNL A   1      44.606  31.456  35.671  1.00  0.00     0.031 C 
ATOM     64  C   UNL A   1      39.814  34.121  35.816  1.00  0.00     0.029 A 
ATOM     65  C   UNL A   1      40.750  33.999  34.803  1.00  0.00     0.049 A 
ATOM     66  H   UNL A   1      40.428  33.971  32.732  1.00  0.00     0.167 HD
ATOM     67  C   UNL A   1      42.928  32.989  35.163  1.00  0.00     0.074 A 
ATOM     68  C   UNL A   1      44.336  32.755  35.435  1.00  0.00     0.031 C 
ATOM     69  C   UNL A   1      42.211  34.078  34.747  1.00  0.00     0.031 A 
BRANCH  56  70
ATOM     70  C   UNL A   1      36.388  34.246  32.528  1.00  0.00    -0.014 A 
ATOM     71  C   UNL A   1      35.884  35.198  33.443  1.00  0.00     0.010 A 
ATOM     72  C   UNL A   1      35.505  33.885  31.484  1.00  0.00     0.010 A 
ATOM     73  C   UNL A   1      34.598  35.766  33.311  1.00  0.00     0.020 A 
ATOM     74  C   UNL A   1      34.238  34.473  31.316  1.00  0.00     0.020 A 
ATOM     75  C   UNL A   1      33.784  35.408  32.238  1.00  0.00     0.054 A 
BRANCH  75  76
ATOM     76  S   UNL A   1      32.142  36.164  32.055  1.00  0.00     0.124 S 
ATOM     77  O   UNL A   1      32.193  37.263  33.016  1.00  0.00    -0.237 OA
ATOM     78  O   UNL A   1      32.123  36.557  30.648  1.00  0.00    -0.237 OA
ATOM     79  O   UNL A   1      31.222  35.081  32.402  1.00  0.00    -0.744 OA
ENDBRANCH  75  76
ENDBRANCH  56  70
BRANCH  57  80
ATOM     80  C   UNL A   1      43.873  28.157  35.517  1.00  0.00    -0.014 A 
ATOM     81  C   UNL A   1      43.766  27.258  36.604  1.00  0.00     0.010 A 
ATOM     82  C   UNL A   1      44.228  27.635  34.258  1.00  0.00     0.010 A 
ATOM     83  C   UNL A   1      43.735  25.876  36.390  1.00  0.00     0.020 A 
ATOM     84  C   UNL A   1      44.211  26.245  34.043  1.00  0.00     0.020 A 
ATOM     85  C   UNL A   1      43.869  25.388  35.093  1.00  0.00     0.054 A 
BRANCH  85  86
ATOM     86  S   UNL A   1      43.365  23.668  34.769  1.00  0.00     0.124 S 
ATOM     87  O   UNL A   1      41.954  23.673  35.145  1.00  0.00    -0.237 OA
ATOM     88  O   UNL A   1      43.635  23.547  33.337  1.00  0.00    -0.237 OA
ATOM     89  O   UNL A   1      44.245  22.896  35.641  1.00  0.00    -0.744 OA
ENDBRANCH  85  86
ENDBRANCH  57  80
BRANCH  69  90
ATOM     90  C   UNL A   1      42.817  35.364  34.228  1.00  0.00    -0.014 A 
ATOM     91  C   UNL A   1      43.322  35.520  32.927  1.00  0.00     0.010 A 
ATOM     92  C   UNL A   1      42.732  36.532  35.026  1.00  0.00     0.010 A 
ATOM     93  C   UNL A   1      43.778  36.763  32.467  1.00  0.00     0.020 A 
ATOM     94  C   UNL A   1      43.142  37.785  34.561  1.00  0.00     0.020 A 
ATOM     95  C   UNL A   1      43.689  37.888  33.289  1.00  0.00     0.054 A 
BRANCH  95  96
ATOM     96  S   UNL A   1      44.225  39.499  32.660  1.00  0.00     0.124 S 
ATOM     97  O   UNL A   1      42.964  40.076  32.204  1.00  0.00    -0.237 OA
ATOM     98  O   UNL A   1      44.813  40.130  33.840  1.00  0.00    -0.237 OA
ATOM     99  O   UNL A   1      45.177  39.157  31.607  1.00  0.00    -0.744 OA
ENDBRANCH  95  96
ENDBRANCH  69  90
ENDBRANCH  43  44
ENDBRANCH  36  38
ENDBRANCH  35  36
ENDBRANCH  34  35
ENDBRANCH  33  34
ENDBRANCH  32  33
ENDBRANCH  31  32
ENDBRANCH   1  31
TORSDOF 26
ENDMDL
MODEL 2
REMARK VINA RESULT:     -10.0      3.931      8.421
REMARK SMILES Cc1c(CC(=O)OCCOCCOCCOCCOC(=O)c2ccc(-c3c4nc(c(-c5ccc(S(=O)(=O)[O-])cc5)c5ccc([nH]5)c(-c5ccc(S(=O)(=O)[O-])cc5)c5nc(c(-c6ccc(S(=O)(=O)[O-])cc6)c6ccc3[nH]6)C=C5)C=C4)cc2)cc(-c2ccccc2)cc1-c1ccccc1
REMARK SMILES IDX 14 1 13 2 12 3 11 4 10 5 9 6 8 7 7 8 5 9 6 10 4 11 3 12 1 13
REMARK SMILES IDX 2 14 91 15 82 16 90 17 83 18 92 19 93 20 97 21 94 22 96 23
REMARK SMILES IDX 95 24 84 25 85 26 89 27 86 28 88 29 87 30 15 31 16 32 17 33
REMARK SMILES IDX 18 34 19 35 20 36 21 37 22 38 23 39 81 40 24 41 80 42 25 43
REMARK SMILES IDX 26 44 27 45 74 46 28 47 79 48 73 49 75 50 29 51 78 52 72 53
REMARK SMILES IDX 71 54 30 56 60 57 41 58 59 59 42 60 45 61 58 62 76 63 43 64
REMARK SMILES IDX 44 65 57 67 77 68 46 69 31 70 32 71 40 72 33 73 39 74 34 75
REMARK SMILES IDX 35 76 36 77 37 78 38 79 61 80 62 81 70 82 63 83 69 84 64 85
REMARK SMILES IDX 65 86 66 87 67 88 68 89 47 90 48 91 56 92 49 93 55 94 50 95
REMARK SMILES IDX 51 96 52 97 53 98 54 99
REMARK H PARENT 75 55 45 66
REMARK Flexibility Score: inf
ROOT
ATOM      1  C   UNL A   1      39.237  23.788  26.991  1.00  0.00     0.188 C 
ENDROOT
BRANCH   1   2
ATOM      2  O   UNL A   1      38.584  22.643  26.509  1.00  0.00    -0.377 OA
BRANCH   2   3
ATOM      3  C   UNL A   1      37.682  22.827  25.445  1.00  0.00     0.188 C 
BRANCH   3   4
ATOM      4  C   UNL A   1      36.658  21.710  25.236  1.00  0.00     0.188 C 
BRANCH   4   5
ATOM      5  O   UNL A   1      35.385  22.079  24.707  1.00  0.00    -0.376 OA
BRANCH   5   6
ATOM      6  C   UNL A   1      35.311  23.335  24.038  1.00  0.00     0.202 C 
BRANCH   6   7
ATOM      7  C   UNL A   1      34.107  24.227  24.348  1.00  0.00     0.261 C 
BRANCH   7   8
ATOM      8  O   UNL A   1      32.927  23.892  23.584  1.00  0.00    -0.463 OA
BRANCH   8   9
ATOM      9  C   UNL A   1      32.240  24.944  23.075  1.00  0.00     0.310 C 
ATOM     10  O   UNL A   1      32.549  25.550  22.052  1.00  0.00    -0.252 OA
BRANCH   9  11
ATOM     11  C   UNL A   1      31.097  25.413  23.936  1.00  0.00     0.158 C 
BRANCH  11  12
ATOM     12  C   UNL A   1      31.021  26.861  24.391  1.00  0.00    -0.033 A 
ATOM     13  C   UNL A   1      32.283  26.325  26.530  1.00  0.00     0.045 C 
ATOM     14  C   UNL A   1      31.709  27.311  25.543  1.00  0.00    -0.039 A 
ATOM     15  C   UNL A   1      31.898  28.702  25.736  1.00  0.00    -0.015 A 
ATOM     16  C   UNL A   1      30.404  27.815  23.555  1.00  0.00     0.013 A 
ATOM     17  C   UNL A   1      31.155  29.603  24.956  1.00  0.00     0.017 A 
ATOM     18  C   UNL A   1      30.369  29.183  23.882  1.00  0.00    -0.017 A 
BRANCH  15  19
ATOM     19  C   UNL A   1      32.996  29.259  26.548  1.00  0.00    -0.018 A 
ATOM     20  C   UNL A   1      32.894  30.484  27.220  1.00  0.00     0.009 A 
ATOM     21  C   UNL A   1      34.255  28.627  26.506  1.00  0.00     0.009 A 
ATOM     22  C   UNL A   1      34.019  31.062  27.818  1.00  0.00     0.001 A 
ATOM     23  C   UNL A   1      35.375  29.200  27.104  1.00  0.00     0.001 A 
ATOM     24  C   UNL A   1      35.257  30.423  27.755  1.00  0.00     0.000 A 
ENDBRANCH  15  19
BRANCH  18  25
ATOM     25  C   UNL A   1      29.577  30.179  23.133  1.00  0.00    -0.018 A 
ATOM     26  C   UNL A   1      28.819  31.149  23.822  1.00  0.00     0.009 A 
ATOM     27  C   UNL A   1      29.570  30.223  21.732  1.00  0.00     0.009 A 
ATOM     28  C   UNL A   1      28.106  32.138  23.140  1.00  0.00     0.001 A 
ATOM     29  C   UNL A   1      28.849  31.209  21.046  1.00  0.00     0.001 A 
ATOM     30  C   UNL A   1      28.121  32.168  21.749  1.00  0.00     0.000 A 
ENDBRANCH  18  25
ENDBRANCH  11  12
ENDBRANCH   9  11
ENDBRANCH   8   9
ENDBRANCH   7   8
ENDBRANCH   6   7
ENDBRANCH   5   6
ENDBRANCH   4   5
ENDBRANCH   3   4
ENDBRANCH   2   3
ENDBRANCH   1   2
BRANCH   1  31
ATOM     31  C   UNL A   1      39.756  24.653  25.847  1.00  0.00     0.188 C 
BRANCH  31  32
ATOM     32  O   UNL A   1      40.994  25.333  25.998  1.00  0.00    -0.376 OA
BRANCH  32  33
ATOM     33  C   UNL A   1      41.582  25.478  27.293  1.00  0.00     0.202 C 
BRANCH  33  34
ATOM     34  C   UNL A   1      40.992  26.474  28.313  1.00  0.00     0.261 C 
BRANCH  34  35
ATOM     35  O   UNL A   1      40.636  27.724  27.695  1.00  0.00    -0.460 OA
BRANCH  35  36
ATOM     36  C   UNL A   1      39.739  28.456  28.419  1.00  0.00     0.338 C 
ATOM     37  O   UNL A   1      38.841  29.130  27.950  1.00  0.00    -0.246 OA
BRANCH  36  38
ATOM     38  C   UNL A   1      40.004  28.267  29.871  1.00  0.00     0.060 A 
ATOM     39  C   UNL A   1      38.949  28.291  30.781  1.00  0.00     0.016 A 
ATOM     40  C   UNL A   1      41.313  28.322  30.339  1.00  0.00     0.016 A 
ATOM     41  C   UNL A   1      39.210  28.626  32.118  1.00  0.00     0.010 A 
ATOM     42  C   UNL A   1      41.555  28.767  31.640  1.00  0.00     0.010 A 
ATOM     43  C   UNL A   1      40.491  29.066  32.501  1.00  0.00    -0.014 A 
BRANCH  43  44
ATOM     44  C   UNL A   1      40.665  30.134  33.537  1.00  0.00     0.031 A 
ATOM     45  C   UNL A   1      41.404  29.947  34.839  1.00  0.00     0.074 A 
ATOM     46  C   UNL A   1      40.317  31.416  33.206  1.00  0.00     0.049 A 
ATOM     47  N   UNL A   1      41.407  30.837  35.781  1.00  0.00    -0.248 NA
ATOM     48  C   UNL A   1      42.192  28.778  35.234  1.00  0.00     0.031 C 
ATOM     49  C   UNL A   1      40.673  32.656  33.899  1.00  0.00     0.029 A 
ATOM     50  N   UNL A   1      39.528  31.890  32.155  1.00  0.00    -0.354 N 
ATOM     51  C   UNL A   1      42.377  30.536  36.704  1.00  0.00     0.074 A 
ATOM     52  C   UNL A   1      42.792  29.201  36.358  1.00  0.00     0.031 C 
ATOM     53  C   UNL A   1      40.080  33.710  33.326  1.00  0.00     0.029 A 
ATOM     54  C   UNL A   1      39.085  33.196  32.420  1.00  0.00     0.049 A 
ATOM     55  H   UNL A   1      39.314  31.379  31.342  1.00  0.00     0.167 HD
ATOM     56  C   UNL A   1      42.771  31.483  37.609  1.00  0.00     0.031 A 
ATOM     57  C   UNL A   1      37.753  33.428  32.632  1.00  0.00     0.031 A 
ATOM     58  C   UNL A   1      41.832  32.619  37.678  1.00  0.00     0.049 A 
ATOM     59  C   UNL A   1      37.367  33.597  34.096  1.00  0.00     0.074 A 
ATOM     60  C   UNL A   1      41.927  34.000  37.664  1.00  0.00     0.029 A 
ATOM     61  N   UNL A   1      40.460  32.347  37.686  1.00  0.00    -0.354 N 
ATOM     62  N   UNL A   1      38.232  33.588  35.083  1.00  0.00    -0.248 NA
ATOM     63  C   UNL A   1      36.005  33.776  34.595  1.00  0.00     0.031 C 
ATOM     64  C   UNL A   1      40.614  34.533  37.470  1.00  0.00     0.029 A 
ATOM     65  C   UNL A   1      39.709  33.484  37.473  1.00  0.00     0.049 A 
ATOM     66  H   UNL A   1      40.076  31.452  37.826  1.00  0.00     0.167 HD
ATOM     67  C   UNL A   1      37.593  33.595  36.288  1.00  0.00     0.074 A 
ATOM     68  C   UNL A   1      36.196  33.778  35.928  1.00  0.00     0.031 C 
ATOM     69  C   UNL A   1      38.248  33.397  37.474  1.00  0.00     0.031 A 
BRANCH  56  70
ATOM     70  C   UNL A   1      44.094  31.426  38.370  1.00  0.00    -0.014 A 
ATOM     71  C   UNL A   1      44.135  31.615  39.770  1.00  0.00     0.010 A 
ATOM     72  C   UNL A   1      45.352  31.290  37.741  1.00  0.00     0.010 A 
ATOM     73  C   UNL A   1      45.347  31.642  40.494  1.00  0.00     0.020 A 
ATOM     74  C   UNL A   1      46.565  31.273  38.454  1.00  0.00     0.020 A 
ATOM     75  C   UNL A   1      46.559  31.458  39.830  1.00  0.00     0.054 A 
BRANCH  75  76
ATOM     76  S   UNL A   1      48.116  31.464  40.769  1.00  0.00     0.124 S 
ATOM     77  O   UNL A   1      48.109  32.790  41.380  1.00  0.00    -0.237 OA
ATOM     78  O   UNL A   1      47.939  30.344  41.690  1.00  0.00    -0.237 OA
ATOM     79  O   UNL A   1      49.139  31.260  39.744  1.00  0.00    -0.744 OA
ENDBRANCH  75  76
ENDBRANCH  56  70
BRANCH  57  80
ATOM     80  C   UNL A   1      36.949  33.076  31.422  1.00  0.00    -0.014 A 
ATOM     81  C   UNL A   1      35.597  32.769  31.705  1.00  0.00     0.010 A 
ATOM     82  C   UNL A   1      37.256  33.619  30.160  1.00  0.00     0.010 A 
ATOM     83  C   UNL A   1      34.569  33.242  30.882  1.00  0.00     0.020 A 
ATOM     84  C   UNL A   1      36.224  34.083  29.324  1.00  0.00     0.020 A 
ATOM     85  C   UNL A   1      34.895  33.975  29.743  1.00  0.00     0.054 A 
BRANCH  85  86
ATOM     86  S   UNL A   1      33.583  34.966  28.959  1.00  0.00     0.124 S 
ATOM     87  O   UNL A   1      34.342  35.921  28.156  1.00  0.00    -0.237 OA
ATOM     88  O   UNL A   1      32.856  33.946  28.205  1.00  0.00    -0.237 OA
ATOM     89  O   UNL A   1      32.869  35.532  30.098  1.00  0.00    -0.744 OA
ENDBRANCH  85  86
ENDBRANCH  57  80
BRANCH  69  90
ATOM     90  C   UNL A   1      37.572  33.090  38.793  1.00  0.00    -0.014 A 
ATOM     91  C   UNL A   1      36.755  31.969  39.009  1.00  0.00     0.010 A 
ATOM     92  C   UNL A   1      37.899  33.872  39.929  1.00  0.00     0.010 A 
ATOM     93  C   UNL A   1      36.238  31.678  40.280  1.00  0.00     0.020 A 
ATOM     94  C   UNL A   1      37.426  33.566  41.208  1.00  0.00     0.020 A 
ATOM     95  C   UNL A   1      36.574  32.482  41.371  1.00  0.00     0.054 A 
BRANCH  95  96
ATOM     96  S   UNL A   1      35.948  32.060  43.017  1.00  0.00     0.124 S 
ATOM     97  O   UNL A   1      34.676  31.419  42.698  1.00  0.00    -0.237 OA
ATOM     98  O   UNL A   1      36.983  31.173  43.542  1.00  0.00    -0.237 OA
ATOM     99  O   UNL A   1      35.848  33.353  43.688  1.00  0.00    -0.744 OA
ENDBRANCH  95  96
ENDBRANCH  69  90
ENDBRANCH  43  44
ENDBRANCH  36  38
ENDBRANCH  35  36
ENDBRANCH  34  35
ENDBRANCH  33  34
ENDBRANCH  32  33
ENDBRANCH  31  32
ENDBRANCH   1  31
TORSDOF 26
ENDMDL
MODEL 3
REMARK VINA RESULT:      -9.6      6.438     12.092
REMARK SMILES Cc1c(CC(=O)OCCOCCOCCOCCOC(=O)c2ccc(-c3c4nc(c(-c5ccc(S(=O)(=O)[O-])cc5)c5ccc([nH]5)c(-c5ccc(S(=O)(=O)[O-])cc5)c5nc(c(-c6ccc(S(=O)(=O)[O-])cc6)c6ccc3[nH]6)C=C5)C=C4)cc2)cc(-c2ccccc2)cc1-c1ccccc1
REMARK SMILES IDX 14 1 13 2 12 3 11 4 10 5 9 6 8 7 7 8 5 9 6 10 4 11 3 12 1 13
REMARK SMILES IDX 2 14 91 15 82 16 90 17 83 18 92 19 93 20 97 21 94 22 96 23
REMARK SMILES IDX 95 24 84 25 85 26 89 27 86 28 88 29 87 30 15 31 16 32 17 33
REMARK SMILES IDX 18 34 19 35 20 36 21 37 22 38 23 39 81 40 24 41 80 42 25 43
REMARK SMILES IDX 26 44 27 45 74 46 28 47 79 48 73 49 75 50 29 51 78 52 72 53
REMARK SMILES IDX 71 54 30 56 60 57 41 58 59 59 42 60 45 61 58 62 76 63 43 64
REMARK SMILES IDX 44 65 57 67 77 68 46 69 31 70 32 71 40 72 33 73 39 74 34 75
REMARK SMILES IDX 35 76 36 77 37 78 38 79 61 80 62 81 70 82 63 83 69 84 64 85
REMARK SMILES IDX 65 86 66 87 67 88 68 89 47 90 48 91 56 92 49 93 55 94 50 95
REMARK SMILES IDX 51 96 52 97 53 98 54 99
REMARK H PARENT 75 55 45 66
REMARK Flexibility Score: inf
ROOT
ATOM      1  C   UNL A   1      39.842  30.892  35.834  1.00  0.00     0.188 C 
ENDROOT
BRANCH   1   2
ATOM      2  O   UNL A   1      38.873  30.065  35.246  1.00  0.00    -0.377 OA
BRANCH   2   3
ATOM      3  C   UNL A   1      38.638  30.240  33.871  1.00  0.00     0.188 C 
BRANCH   3   4
ATOM      4  C   UNL A   1      37.252  30.768  33.491  1.00  0.00     0.188 C 
BRANCH   4   5
ATOM      5  O   UNL A   1      36.791  31.939  34.163  1.00  0.00    -0.376 OA
BRANCH   5   6
ATOM      6  C   UNL A   1      36.141  32.922  33.361  1.00  0.00     0.202 C 
BRANCH   6   7
ATOM      7  C   UNL A   1      36.827  33.330  32.056  1.00  0.00     0.261 C 
BRANCH   7   8
ATOM      8  O   UNL A   1      36.020  34.189  31.220  1.00  0.00    -0.463 OA
BRANCH   8   9
ATOM      9  C   UNL A   1      35.151  33.557  30.395  1.00  0.00     0.310 C 
ATOM     10  O   UNL A   1      34.062  33.107  30.742  1.00  0.00    -0.252 OA
BRANCH   9  11
ATOM     11  C   UNL A   1      35.674  33.328  29.002  1.00  0.00     0.158 C 
BRANCH  11  12
ATOM     12  C   UNL A   1      35.888  31.917  28.483  1.00  0.00    -0.033 A 
ATOM     13  C   UNL A   1      38.374  32.033  28.994  1.00  0.00     0.045 C 
ATOM     14  C   UNL A   1      37.134  31.260  28.617  1.00  0.00    -0.039 A 
ATOM     15  C   UNL A   1      37.198  29.855  28.443  1.00  0.00    -0.015 A 
ATOM     16  C   UNL A   1      34.780  31.176  28.019  1.00  0.00     0.013 A 
ATOM     17  C   UNL A   1      36.107  29.193  27.857  1.00  0.00     0.017 A 
ATOM     18  C   UNL A   1      34.897  29.840  27.598  1.00  0.00    -0.017 A 
BRANCH  15  19
ATOM     19  C   UNL A   1      38.249  29.017  29.052  1.00  0.00    -0.018 A 
ATOM     20  C   UNL A   1      38.309  28.759  30.428  1.00  0.00     0.009 A 
ATOM     21  C   UNL A   1      39.332  28.606  28.251  1.00  0.00     0.009 A 
ATOM     22  C   UNL A   1      39.423  28.122  30.983  1.00  0.00     0.001 A 
ATOM     23  C   UNL A   1      40.441  27.968  28.802  1.00  0.00     0.001 A 
ATOM     24  C   UNL A   1      40.489  27.732  30.172  1.00  0.00     0.000 A 
ENDBRANCH  15  19
BRANCH  18  25
ATOM     25  C   UNL A   1      33.808  29.095  26.937  1.00  0.00    -0.018 A 
ATOM     26  C   UNL A   1      34.104  28.102  25.980  1.00  0.00     0.009 A 
ATOM     27  C   UNL A   1      32.459  29.317  27.248  1.00  0.00     0.009 A 
ATOM     28  C   UNL A   1      33.096  27.342  25.380  1.00  0.00     0.001 A 
ATOM     29  C   UNL A   1      31.447  28.562  26.641  1.00  0.00     0.001 A 
ATOM     30  C   UNL A   1      31.765  27.574  25.712  1.00  0.00     0.000 A 
ENDBRANCH  18  25
ENDBRANCH  11  12
ENDBRANCH   9  11
ENDBRANCH   8   9
ENDBRANCH   7   8
ENDBRANCH   6   7
ENDBRANCH   5   6
ENDBRANCH   4   5
ENDBRANCH   3   4
ENDBRANCH   2   3
ENDBRANCH   1   2
BRANCH   1  31
ATOM     31  C   UNL A   1      40.622  31.667  34.777  1.00  0.00     0.188 C 
BRANCH  31  32
ATOM     32  O   UNL A   1      40.658  33.086  34.844  1.00  0.00    -0.376 OA
BRANCH  32  33
ATOM     33  C   UNL A   1      41.306  33.839  33.816  1.00  0.00     0.202 C 
BRANCH  33  34
ATOM     34  C   UNL A   1      40.555  34.195  32.517  1.00  0.00     0.261 C 
BRANCH  34  35
ATOM     35  O   UNL A   1      40.517  33.085  31.601  1.00  0.00    -0.460 OA
BRANCH  35  36
ATOM     36  C   UNL A   1      41.575  33.051  30.738  1.00  0.00     0.338 C 
ATOM     37  O   UNL A   1      42.100  34.025  30.230  1.00  0.00    -0.246 OA
BRANCH  36  38
ATOM     38  C   UNL A   1      42.014  31.642  30.549  1.00  0.00     0.060 A 
ATOM     39  C   UNL A   1      42.548  30.928  31.620  1.00  0.00     0.016 A 
ATOM     40  C   UNL A   1      42.126  31.129  29.260  1.00  0.00     0.016 A 
ATOM     41  C   UNL A   1      43.404  29.847  31.359  1.00  0.00     0.010 A 
ATOM     42  C   UNL A   1      43.066  30.129  29.003  1.00  0.00     0.010 A 
ATOM     43  C   UNL A   1      43.825  29.579  30.044  1.00  0.00    -0.014 A 
BRANCH  43  44
ATOM     44  C   UNL A   1      45.214  29.092  29.759  1.00  0.00     0.031 A 
ATOM     45  C   UNL A   1      46.400  29.992  29.522  1.00  0.00     0.074 A 
ATOM     46  C   UNL A   1      45.476  27.759  29.924  1.00  0.00     0.049 A 
ATOM     47  N   UNL A   1      47.552  29.549  29.127  1.00  0.00    -0.248 NA
ATOM     48  C   UNL A   1      46.437  31.447  29.683  1.00  0.00     0.031 C 
ATOM     49  C   UNL A   1      46.780  27.100  30.019  1.00  0.00     0.029 A 
ATOM     50  N   UNL A   1      44.599  26.676  30.026  1.00  0.00    -0.354 N 
ATOM     51  C   UNL A   1      48.504  30.526  29.275  1.00  0.00     0.074 A 
ATOM     52  C   UNL A   1      47.746  31.718  29.557  1.00  0.00     0.031 C 
ATOM     53  C   UNL A   1      46.639  25.771  30.095  1.00  0.00     0.029 A 
ATOM     54  C   UNL A   1      45.270  25.470  29.765  1.00  0.00     0.049 A 
ATOM     55  H   UNL A   1      43.643  26.749  30.249  1.00  0.00     0.167 HD
ATOM     56  C   UNL A   1      49.831  30.197  29.219  1.00  0.00     0.031 A 
ATOM     57  C   UNL A   1      44.957  24.752  28.643  1.00  0.00     0.031 A 
ATOM     58  C   UNL A   1      50.052  28.851  28.656  1.00  0.00     0.049 A 
ATOM     59  C   UNL A   1      45.950  24.905  27.498  1.00  0.00     0.074 A 
ATOM     60  C   UNL A   1      50.794  27.732  28.996  1.00  0.00     0.029 A 
ATOM     61  N   UNL A   1      49.313  28.471  27.531  1.00  0.00    -0.354 N 
ATOM     62  N   UNL A   1      47.053  25.612  27.581  1.00  0.00    -0.248 NA
ATOM     63  C   UNL A   1      45.809  24.310  26.171  1.00  0.00     0.031 C 
ATOM     64  C   UNL A   1      50.346  26.641  28.186  1.00  0.00     0.029 A 
ATOM     65  C   UNL A   1      49.410  27.118  27.284  1.00  0.00     0.049 A 
ATOM     66  H   UNL A   1      48.785  29.095  26.981  1.00  0.00     0.167 HD
ATOM     67  C   UNL A   1      47.662  25.707  26.363  1.00  0.00     0.074 A 
ATOM     68  C   UNL A   1      46.875  24.818  25.524  1.00  0.00     0.031 C 
ATOM     69  C   UNL A   1      48.720  26.542  26.128  1.00  0.00     0.031 A 
BRANCH  56  70
ATOM     70  C   UNL A   1      50.945  31.075  29.784  1.00  0.00    -0.014 A 
ATOM     71  C   UNL A   1      51.842  31.752  28.927  1.00  0.00     0.010 A 
ATOM     72  C   UNL A   1      51.224  31.192  31.165  1.00  0.00     0.010 A 
ATOM     73  C   UNL A   1      52.927  32.511  29.416  1.00  0.00     0.020 A 
ATOM     74  C   UNL A   1      52.275  31.979  31.669  1.00  0.00     0.020 A 
ATOM     75  C   UNL A   1      53.131  32.630  30.790  1.00  0.00     0.054 A 
BRANCH  75  76
ATOM     76  S   UNL A   1      54.511  33.633  31.418  1.00  0.00     0.124 S 
ATOM     77  O   UNL A   1      55.328  32.643  32.114  1.00  0.00    -0.237 OA
ATOM     78  O   UNL A   1      55.092  34.182  30.195  1.00  0.00    -0.237 OA
ATOM     79  O   UNL A   1      53.859  34.616  32.283  1.00  0.00    -0.744 OA
ENDBRANCH  75  76
ENDBRANCH  56  70
BRANCH  57  80
ATOM     80  C   UNL A   1      43.531  24.304  28.673  1.00  0.00    -0.014 A 
ATOM     81  C   UNL A   1      42.817  24.590  27.486  1.00  0.00     0.010 A 
ATOM     82  C   UNL A   1      43.136  23.185  29.432  1.00  0.00     0.010 A 
ATOM     83  C   UNL A   1      41.940  23.651  26.934  1.00  0.00     0.020 A 
ATOM     84  C   UNL A   1      42.243  22.245  28.886  1.00  0.00     0.020 A 
ATOM     85  C   UNL A   1      41.732  22.445  27.599  1.00  0.00     0.054 A 
BRANCH  85  86
ATOM     86  S   UNL A   1      40.983  21.071  26.667  1.00  0.00     0.124 S 
ATOM     87  O   UNL A   1      41.994  20.786  25.652  1.00  0.00    -0.237 OA
ATOM     88  O   UNL A   1      40.833  20.056  27.709  1.00  0.00    -0.237 OA
ATOM     89  O   UNL A   1      39.739  21.648  26.169  1.00  0.00    -0.744 OA
ENDBRANCH  85  86
ENDBRANCH  57  80
BRANCH  69  90
ATOM     90  C   UNL A   1      49.235  26.919  24.755  1.00  0.00    -0.014 A 
ATOM     91  C   UNL A   1      50.596  26.966  24.418  1.00  0.00     0.010 A 
ATOM     92  C   UNL A   1      48.306  27.076  23.696  1.00  0.00     0.010 A 
ATOM     93  C   UNL A   1      51.013  27.222  23.103  1.00  0.00     0.020 A 
ATOM     94  C   UNL A   1      48.711  27.287  22.374  1.00  0.00     0.020 A 
ATOM     95  C   UNL A   1      50.067  27.385  22.090  1.00  0.00     0.054 A 
BRANCH  95  96
ATOM     96  S   UNL A   1      50.618  27.654  20.386  1.00  0.00     0.124 S 
ATOM     97  O   UNL A   1      49.458  27.205  19.623  1.00  0.00    -0.237 OA
ATOM     98  O   UNL A   1      50.875  29.092  20.350  1.00  0.00    -0.237 OA
ATOM     99  O   UNL A   1      51.807  26.813  20.274  1.00  0.00    -0.744 OA
ENDBRANCH  95  96
ENDBRANCH  69  90
ENDBRANCH  43  44
ENDBRANCH  36  38
ENDBRANCH  35  36
ENDBRANCH  34  35
ENDBRANCH  33  34
ENDBRANCH  32  33
ENDBRANCH  31  32
ENDBRANCH   1  31
TORSDOF 26
ENDMDL
