MODEL 1
REMARK VINA RESULT:      -9.1      0.000      0.000
REMARK SMILES O=C(OCCOCCOCCOCCOC(=O)[C@@H]1C[NH2+]C[C@H](c2ccc(F)cc2)C1)c1ccc(-c2c3nc(c(-c4ccc(S(=O)(=O)[O-])cc4)c4ccc([nH]4)c(-c4ccc(S(=O)(=O)[O-])cc4)c4nc(c(-c5ccc(S(=O)(=O)[O-])cc5)c5ccc2[nH]5)C=C4)C=C3)cc1
REMARK SMILES IDX 8 1 7 2 6 3 5 4 4 5 3 6 2 7 1 8 31 9 32 10 90 11 33 12 89 13
REMARK SMILES IDX 34 14 35 15 36 16 83 17 37 18 88 19 82 20 84 21 38 22 87 23
REMARK SMILES IDX 81 24 80 25 39 27 69 28 50 29 68 30 51 31 54 32 67 33 85 34
REMARK SMILES IDX 52 35 53 36 66 38 86 39 55 40 40 41 41 42 49 43 42 44 48 45
REMARK SMILES IDX 43 46 44 47 45 48 46 49 47 50 70 51 71 52 79 53 72 54 78 55
REMARK SMILES IDX 73 56 74 57 75 58 76 59 77 60 56 61 57 62 65 63 58 64 64 65
REMARK SMILES IDX 59 66 60 67 61 68 62 69 63 70 9 71 10 72 11 73 12 74 13 75
REMARK SMILES IDX 14 76 15 77 16 78 17 79 18 80 19 81 30 82 20 83 22 84 21 85
REMARK SMILES IDX 23 88 24 89 29 90 25 91 28 92 26 93 27 94
REMARK H PARENT 84 26 54 37 20 86 20 87
REMARK Flexibility Score: inf
ROOT
ATOM      1  C   UNL A   1      30.662  29.319  22.454  1.00  0.00     0.188 C 
ENDROOT
BRANCH   1   2
ATOM      2  C   UNL A   1      30.267  29.496  23.911  1.00  0.00     0.188 C 
BRANCH   2   3
ATOM      3  O   UNL A   1      31.348  30.043  24.663  1.00  0.00    -0.376 OA
BRANCH   3   4
ATOM      4  C   UNL A   1      31.702  29.334  25.848  1.00  0.00     0.202 C 
BRANCH   4   5
ATOM      5  C   UNL A   1      32.358  30.196  26.924  1.00  0.00     0.261 C 
BRANCH   5   6
ATOM      6  O   UNL A   1      33.765  29.953  27.057  1.00  0.00    -0.460 OA
BRANCH   6   7
ATOM      7  C   UNL A   1      34.711  30.768  27.588  1.00  0.00     0.338 C 
ATOM      8  O   UNL A   1      34.553  31.983  27.457  1.00  0.00    -0.246 OA
BRANCH   7   9
ATOM      9  C   UNL A   1      35.954  30.303  28.287  1.00  0.00     0.060 A 
ATOM     10  C   UNL A   1      36.000  29.586  29.484  1.00  0.00     0.016 A 
ATOM     11  C   UNL A   1      37.175  30.544  27.633  1.00  0.00     0.016 A 
ATOM     12  C   UNL A   1      37.185  29.119  30.022  1.00  0.00     0.010 A 
ATOM     13  C   UNL A   1      38.386  30.105  28.179  1.00  0.00     0.010 A 
ATOM     14  C   UNL A   1      38.384  29.407  29.390  1.00  0.00    -0.014 A 
BRANCH  14  15
ATOM     15  C   UNL A   1      39.601  29.186  30.180  1.00  0.00     0.031 A 
ATOM     16  C   UNL A   1      40.551  28.144  29.673  1.00  0.00     0.074 A 
ATOM     17  C   UNL A   1      39.920  30.031  31.173  1.00  0.00     0.049 A 
ATOM     18  N   UNL A   1      41.673  27.728  30.189  1.00  0.00    -0.248 NA
ATOM     19  C   UNL A   1      40.198  27.497  28.395  1.00  0.00     0.031 C 
ATOM     20  C   UNL A   1      39.127  31.196  31.582  1.00  0.00     0.029 A 
ATOM     21  N   UNL A   1      41.012  30.067  31.994  1.00  0.00    -0.354 N 
ATOM     22  C   UNL A   1      42.134  26.744  29.323  1.00  0.00     0.074 A 
ATOM     23  C   UNL A   1      41.181  26.625  28.247  1.00  0.00     0.031 C 
ATOM     24  C   UNL A   1      39.768  31.834  32.575  1.00  0.00     0.029 A 
ATOM     25  C   UNL A   1      40.968  31.083  32.919  1.00  0.00     0.049 A 
ATOM     26  H   UNL A   1      41.758  29.427  31.929  1.00  0.00     0.167 HD
ATOM     27  C   UNL A   1      43.254  25.998  29.439  1.00  0.00     0.031 A 
ATOM     28  C   UNL A   1      41.793  31.332  33.953  1.00  0.00     0.031 A 
ATOM     29  C   UNL A   1      44.163  26.146  30.540  1.00  0.00     0.049 A 
ATOM     30  C   UNL A   1      42.960  30.398  34.143  1.00  0.00     0.074 A 
ATOM     31  C   UNL A   1      45.290  25.406  30.839  1.00  0.00     0.029 A 
ATOM     32  N   UNL A   1      44.036  27.115  31.529  1.00  0.00    -0.354 N 
ATOM     33  N   UNL A   1      43.344  29.397  33.383  1.00  0.00    -0.248 NA
ATOM     34  C   UNL A   1      43.794  30.612  35.330  1.00  0.00     0.031 C 
ATOM     35  C   UNL A   1      45.808  25.890  32.045  1.00  0.00     0.029 A 
ATOM     36  C   UNL A   1      45.050  26.978  32.456  1.00  0.00     0.049 A 
ATOM     37  H   UNL A   1      43.328  27.797  31.563  1.00  0.00     0.167 HD
ATOM     38  C   UNL A   1      44.478  28.873  33.986  1.00  0.00     0.074 A 
ATOM     39  C   UNL A   1      44.727  29.683  35.165  1.00  0.00     0.031 C 
ATOM     40  C   UNL A   1      45.248  27.820  33.611  1.00  0.00     0.031 A 
BRANCH  27  41
ATOM     41  C   UNL A   1      43.466  24.913  28.420  1.00  0.00    -0.014 A 
ATOM     42  C   UNL A   1      43.995  25.182  27.144  1.00  0.00     0.010 A 
ATOM     43  C   UNL A   1      43.083  23.597  28.737  1.00  0.00     0.010 A 
ATOM     44  C   UNL A   1      44.097  24.162  26.192  1.00  0.00     0.020 A 
ATOM     45  C   UNL A   1      43.211  22.570  27.799  1.00  0.00     0.020 A 
ATOM     46  C   UNL A   1      43.703  22.863  26.525  1.00  0.00     0.054 A 
BRANCH  46  47
ATOM     47  S   UNL A   1      43.856  21.557  25.276  1.00  0.00     0.124 S 
ATOM     48  O   UNL A   1      45.170  20.997  25.584  1.00  0.00    -0.237 OA
ATOM     49  O   UNL A   1      42.718  20.692  25.577  1.00  0.00    -0.237 OA
ATOM     50  O   UNL A   1      43.769  22.278  24.007  1.00  0.00    -0.744 OA
ENDBRANCH  46  47
ENDBRANCH  27  41
BRANCH  28  51
ATOM     51  C   UNL A   1      41.496  32.435  34.910  1.00  0.00    -0.014 A 
ATOM     52  C   UNL A   1      42.038  33.721  34.735  1.00  0.00     0.010 A 
ATOM     53  C   UNL A   1      40.661  32.199  36.020  1.00  0.00     0.010 A 
ATOM     54  C   UNL A   1      41.766  34.738  35.658  1.00  0.00     0.020 A 
ATOM     55  C   UNL A   1      40.361  33.220  36.926  1.00  0.00     0.020 A 
ATOM     56  C   UNL A   1      40.928  34.481  36.747  1.00  0.00     0.054 A 
BRANCH  56  57
ATOM     57  S   UNL A   1      40.566  35.823  37.915  1.00  0.00     0.124 S 
ATOM     58  O   UNL A   1      39.764  36.728  37.099  1.00  0.00    -0.237 OA
ATOM     59  O   UNL A   1      39.851  35.127  38.981  1.00  0.00    -0.237 OA
ATOM     60  O   UNL A   1      41.890  36.321  38.286  1.00  0.00    -0.744 OA
ENDBRANCH  56  57
ENDBRANCH  28  51
BRANCH  40  61
ATOM     61  C   UNL A   1      46.450  27.523  34.460  1.00  0.00    -0.014 A 
ATOM     62  C   UNL A   1      47.627  28.282  34.348  1.00  0.00     0.010 A 
ATOM     63  C   UNL A   1      46.362  26.517  35.439  1.00  0.00     0.010 A 
ATOM     64  C   UNL A   1      48.710  28.018  35.187  1.00  0.00     0.020 A 
ATOM     65  C   UNL A   1      47.429  26.274  36.302  1.00  0.00     0.020 A 
ATOM     66  C   UNL A   1      48.602  27.019  36.161  1.00  0.00     0.054 A 
BRANCH  66  67
ATOM     67  S   UNL A   1      50.001  26.737  37.276  1.00  0.00     0.124 S 
ATOM     68  O   UNL A   1      49.780  27.753  38.302  1.00  0.00    -0.237 OA
ATOM     69  O   UNL A   1      49.794  25.355  37.704  1.00  0.00    -0.237 OA
ATOM     70  O   UNL A   1      51.170  26.951  36.427  1.00  0.00    -0.744 OA
ENDBRANCH  66  67
ENDBRANCH  40  61
ENDBRANCH  14  15
ENDBRANCH   7   9
ENDBRANCH   6   7
ENDBRANCH   5   6
ENDBRANCH   4   5
ENDBRANCH   3   4
ENDBRANCH   2   3
ENDBRANCH   1   2
BRANCH   1  71
ATOM     71  O   UNL A   1      30.452  28.006  21.950  1.00  0.00    -0.377 OA
BRANCH  71  72
ATOM     72  C   UNL A   1      30.454  26.926  22.880  1.00  0.00     0.188 C 
BRANCH  72  73
ATOM     73  C   UNL A   1      31.586  25.893  22.894  1.00  0.00     0.188 C 
BRANCH  73  74
ATOM     74  O   UNL A   1      31.868  25.415  24.184  1.00  0.00    -0.376 OA
BRANCH  74  75
ATOM     75  C   UNL A   1      30.949  25.725  25.214  1.00  0.00     0.202 C 
BRANCH  75  76
ATOM     76  C   UNL A   1      30.598  24.754  26.371  1.00  0.00     0.261 C 
BRANCH  76  77
ATOM     77  O   UNL A   1      31.461  23.641  26.671  1.00  0.00    -0.463 OA
BRANCH  77  78
ATOM     78  C   UNL A   1      31.326  22.472  25.979  1.00  0.00     0.314 C 
ATOM     79  O   UNL A   1      30.275  21.838  25.902  1.00  0.00    -0.252 OA
BRANCH  78  80
ATOM     80  C   UNL A   1      32.631  22.006  25.302  1.00  0.00     0.155 C 
ATOM     81  C   UNL A   1      32.690  20.480  25.180  1.00  0.00     0.275 C 
ATOM     82  C   UNL A   1      33.962  22.554  25.906  1.00  0.00     0.035 C 
ATOM     83  N   UNL A   1      33.837  20.047  24.378  1.00  0.00    -0.345 N 
ATOM     84  C   UNL A   1      35.189  22.020  25.127  1.00  0.00     0.075 C 
ATOM     85  C   UNL A   1      35.084  20.478  25.011  1.00  0.00     0.268 C 
ATOM     86  H   UNL A   1      33.772  20.456  23.447  1.00  0.00     0.346 HD
ATOM     87  H   UNL A   1      33.832  19.029  24.311  1.00  0.00     0.346 HD
BRANCH  84  88
ATOM     88  C   UNL A   1      36.592  22.351  25.646  1.00  0.00    -0.039 A 
ATOM     89  C   UNL A   1      36.810  23.668  26.106  1.00  0.00     0.007 A 
ATOM     90  C   UNL A   1      37.692  21.479  25.606  1.00  0.00     0.007 A 
ATOM     91  C   UNL A   1      38.079  24.119  26.465  1.00  0.00     0.039 A 
ATOM     92  C   UNL A   1      38.967  21.930  25.984  1.00  0.00     0.039 A 
ATOM     93  C   UNL A   1      39.150  23.245  26.397  1.00  0.00     0.123 A 
ATOM     94  F   UNL A   1      40.375  23.679  26.723  1.00  0.00    -0.207 F 
ENDBRANCH  84  88
ENDBRANCH  78  80
ENDBRANCH  77  78
ENDBRANCH  76  77
ENDBRANCH  75  76
ENDBRANCH  74  75
ENDBRANCH  73  74
ENDBRANCH  72  73
ENDBRANCH  71  72
ENDBRANCH   1  71
TORSDOF 24
ENDMDL
MODEL 2
REMARK VINA RESULT:      -8.6      5.165      8.595
REMARK SMILES O=C(OCCOCCOCCOCCOC(=O)[C@@H]1C[NH2+]C[C@H](c2ccc(F)cc2)C1)c1ccc(-c2c3nc(c(-c4ccc(S(=O)(=O)[O-])cc4)c4ccc([nH]4)c(-c4ccc(S(=O)(=O)[O-])cc4)c4nc(c(-c5ccc(S(=O)(=O)[O-])cc5)c5ccc2[nH]5)C=C4)C=C3)cc1
REMARK SMILES IDX 8 1 7 2 6 3 5 4 4 5 3 6 2 7 1 8 31 9 32 10 90 11 33 12 89 13
REMARK SMILES IDX 34 14 35 15 36 16 83 17 37 18 88 19 82 20 84 21 38 22 87 23
REMARK SMILES IDX 81 24 80 25 39 27 69 28 50 29 68 30 51 31 54 32 67 33 85 34
REMARK SMILES IDX 52 35 53 36 66 38 86 39 55 40 40 41 41 42 49 43 42 44 48 45
REMARK SMILES IDX 43 46 44 47 45 48 46 49 47 50 70 51 71 52 79 53 72 54 78 55
REMARK SMILES IDX 73 56 74 57 75 58 76 59 77 60 56 61 57 62 65 63 58 64 64 65
REMARK SMILES IDX 59 66 60 67 61 68 62 69 63 70 9 71 10 72 11 73 12 74 13 75
REMARK SMILES IDX 14 76 15 77 16 78 17 79 18 80 19 81 30 82 20 83 22 84 21 85
REMARK SMILES IDX 23 88 24 89 29 90 25 91 28 92 26 93 27 94
REMARK H PARENT 84 26 54 37 20 86 20 87
REMARK Flexibility Score: inf
ROOT
ATOM      1  C   UNL A   1      37.414  21.132  24.627  1.00  0.00     0.188 C 
ENDROOT
BRANCH   1   2
ATOM      2  C   UNL A   1      38.167  21.768  25.784  1.00  0.00     0.188 C 
BRANCH   2   3
ATOM      3  O   UNL A   1      39.569  21.542  25.657  1.00  0.00    -0.376 OA
BRANCH   3   4
ATOM      4  C   UNL A   1      40.132  20.600  26.566  1.00  0.00     0.202 C 
BRANCH   4   5
ATOM      5  C   UNL A   1      40.640  19.318  25.911  1.00  0.00     0.261 C 
BRANCH   5   6
ATOM      6  O   UNL A   1      42.067  19.190  25.959  1.00  0.00    -0.460 OA
BRANCH   6   7
ATOM      7  C   UNL A   1      43.002  20.028  25.445  1.00  0.00     0.338 C 
ATOM      8  O   UNL A   1      43.785  19.565  24.613  1.00  0.00    -0.246 OA
BRANCH   7   9
ATOM      9  C   UNL A   1      43.181  21.463  25.841  1.00  0.00     0.060 A 
ATOM     10  C   UNL A   1      43.045  22.568  24.998  1.00  0.00     0.016 A 
ATOM     11  C   UNL A   1      43.431  21.718  27.201  1.00  0.00     0.016 A 
ATOM     12  C   UNL A   1      43.142  23.868  25.459  1.00  0.00     0.010 A 
ATOM     13  C   UNL A   1      43.564  23.026  27.679  1.00  0.00     0.010 A 
ATOM     14  C   UNL A   1      43.437  24.099  26.793  1.00  0.00    -0.014 A 
BRANCH  14  15
ATOM     15  C   UNL A   1      43.861  25.463  27.133  1.00  0.00     0.031 A 
ATOM     16  C   UNL A   1      45.245  25.860  26.719  1.00  0.00     0.074 A 
ATOM     17  C   UNL A   1      42.966  26.349  27.599  1.00  0.00     0.049 A 
ATOM     18  N   UNL A   1      45.879  26.980  26.920  1.00  0.00    -0.248 NA
ATOM     19  C   UNL A   1      46.013  24.862  25.949  1.00  0.00     0.031 C 
ATOM     20  C   UNL A   1      41.543  26.073  27.831  1.00  0.00     0.029 A 
ATOM     21  N   UNL A   1      43.107  27.670  27.922  1.00  0.00    -0.354 N 
ATOM     22  C   UNL A   1      47.131  26.804  26.342  1.00  0.00     0.074 A 
ATOM     23  C   UNL A   1      47.171  25.478  25.777  1.00  0.00     0.031 C 
ATOM     24  C   UNL A   1      40.945  27.198  28.255  1.00  0.00     0.029 A 
ATOM     25  C   UNL A   1      41.951  28.243  28.395  1.00  0.00     0.049 A 
ATOM     26  H   UNL A   1      43.954  28.161  27.825  1.00  0.00     0.167 HD
ATOM     27  C   UNL A   1      48.158  27.681  26.309  1.00  0.00     0.031 A 
ATOM     28  C   UNL A   1      41.760  29.466  28.924  1.00  0.00     0.031 A 
ATOM     29  C   UNL A   1      48.072  28.985  26.901  1.00  0.00     0.049 A 
ATOM     30  C   UNL A   1      42.956  30.377  29.003  1.00  0.00     0.074 A 
ATOM     31  C   UNL A   1      49.053  29.948  27.024  1.00  0.00     0.029 A 
ATOM     32  N   UNL A   1      46.916  29.504  27.476  1.00  0.00    -0.354 N 
ATOM     33  N   UNL A   1      44.174  30.175  28.550  1.00  0.00    -0.248 NA
ATOM     34  C   UNL A   1      42.766  31.666  29.674  1.00  0.00     0.031 C 
ATOM     35  C   UNL A   1      48.506  31.026  27.728  1.00  0.00     0.029 A 
ATOM     36  C   UNL A   1      47.164  30.766  27.977  1.00  0.00     0.049 A 
ATOM     37  H   UNL A   1      46.050  29.040  27.518  1.00  0.00     0.167 HD
ATOM     38  C   UNL A   1      44.891  31.322  28.861  1.00  0.00     0.074 A 
ATOM     39  C   UNL A   1      43.962  32.219  29.524  1.00  0.00     0.031 C 
ATOM     40  C   UNL A   1      46.195  31.615  28.627  1.00  0.00     0.031 A 
BRANCH  27  41
ATOM     41  C   UNL A   1      49.454  27.200  25.719  1.00  0.00    -0.014 A 
ATOM     42  C   UNL A   1      50.423  26.535  26.492  1.00  0.00     0.010 A 
ATOM     43  C   UNL A   1      49.724  27.461  24.363  1.00  0.00     0.010 A 
ATOM     44  C   UNL A   1      51.654  26.178  25.930  1.00  0.00     0.020 A 
ATOM     45  C   UNL A   1      50.940  27.081  23.790  1.00  0.00     0.020 A 
ATOM     46  C   UNL A   1      51.904  26.455  24.583  1.00  0.00     0.054 A 
BRANCH  46  47
ATOM     47  S   UNL A   1      53.504  25.973  23.876  1.00  0.00     0.124 S 
ATOM     48  O   UNL A   1      53.209  25.957  22.445  1.00  0.00    -0.237 OA
ATOM     49  O   UNL A   1      54.387  27.046  24.323  1.00  0.00    -0.237 OA
ATOM     50  O   UNL A   1      53.766  24.664  24.471  1.00  0.00    -0.744 OA
ENDBRANCH  46  47
ENDBRANCH  27  41
BRANCH  28  51
ATOM     51  C   UNL A   1      40.432  29.850  29.483  1.00  0.00    -0.014 A 
ATOM     52  C   UNL A   1      39.392  30.304  28.653  1.00  0.00     0.010 A 
ATOM     53  C   UNL A   1      40.201  29.766  30.870  1.00  0.00     0.010 A 
ATOM     54  C   UNL A   1      38.160  30.682  29.200  1.00  0.00     0.020 A 
ATOM     55  C   UNL A   1      38.963  30.111  31.417  1.00  0.00     0.020 A 
ATOM     56  C   UNL A   1      37.953  30.583  30.579  1.00  0.00     0.054 A 
BRANCH  56  57
ATOM     57  S   UNL A   1      36.338  31.051  31.262  1.00  0.00     0.124 S 
ATOM     58  O   UNL A   1      36.006  32.235  30.477  1.00  0.00    -0.237 OA
ATOM     59  O   UNL A   1      35.528  29.864  30.996  1.00  0.00    -0.237 OA
ATOM     60  O   UNL A   1      36.622  31.296  32.676  1.00  0.00    -0.744 OA
ENDBRANCH  56  57
ENDBRANCH  28  51
BRANCH  40  61
ATOM     61  C   UNL A   1      46.671  32.975  29.051  1.00  0.00    -0.014 A 
ATOM     62  C   UNL A   1      47.254  33.182  30.312  1.00  0.00     0.010 A 
ATOM     63  C   UNL A   1      46.600  34.039  28.135  1.00  0.00     0.010 A 
ATOM     64  C   UNL A   1      47.735  34.444  30.660  1.00  0.00     0.020 A 
ATOM     65  C   UNL A   1      47.112  35.292  28.465  1.00  0.00     0.020 A 
ATOM     66  C   UNL A   1      47.665  35.489  29.732  1.00  0.00     0.054 A 
BRANCH  66  67
ATOM     67  S   UNL A   1      48.351  37.103  30.187  1.00  0.00     0.124 S 
ATOM     68  O   UNL A   1      47.476  37.505  31.285  1.00  0.00    -0.237 OA
ATOM     69  O   UNL A   1      49.722  36.770  30.565  1.00  0.00    -0.237 OA
ATOM     70  O   UNL A   1      48.221  37.892  28.965  1.00  0.00    -0.744 OA
ENDBRANCH  66  67
ENDBRANCH  40  61
ENDBRANCH  14  15
ENDBRANCH   7   9
ENDBRANCH   6   7
ENDBRANCH   5   6
ENDBRANCH   4   5
ENDBRANCH   3   4
ENDBRANCH   2   3
ENDBRANCH   1   2
BRANCH   1  71
ATOM     71  O   UNL A   1      36.000  21.134  24.781  1.00  0.00    -0.377 OA
BRANCH  71  72
ATOM     72  C   UNL A   1      35.468  21.502  26.051  1.00  0.00     0.188 C 
BRANCH  72  73
ATOM     73  C   UNL A   1      33.955  21.573  26.288  1.00  0.00     0.188 C 
BRANCH  73  74
ATOM     74  O   UNL A   1      33.292  20.394  25.914  1.00  0.00    -0.376 OA
BRANCH  74  75
ATOM     75  C   UNL A   1      32.465  20.441  24.768  1.00  0.00     0.202 C 
BRANCH  75  76
ATOM     76  C   UNL A   1      32.633  21.481  23.631  1.00  0.00     0.261 C 
BRANCH  76  77
ATOM     77  O   UNL A   1      31.805  22.659  23.596  1.00  0.00    -0.463 OA
BRANCH  77  78
ATOM     78  C   UNL A   1      32.369  23.878  23.351  1.00  0.00     0.314 C 
ATOM     79  O   UNL A   1      33.353  24.045  22.632  1.00  0.00    -0.252 OA
BRANCH  78  80
ATOM     80  C   UNL A   1      31.660  25.039  24.076  1.00  0.00     0.155 C 
ATOM     81  C   UNL A   1      30.729  25.809  23.134  1.00  0.00     0.275 C 
ATOM     82  C   UNL A   1      32.574  26.030  24.863  1.00  0.00     0.035 C 
ATOM     83  N   UNL A   1      29.920  26.792  23.858  1.00  0.00    -0.345 N 
ATOM     84  C   UNL A   1      31.736  27.135  25.551  1.00  0.00     0.075 C 
ATOM     85  C   UNL A   1      30.788  27.776  24.507  1.00  0.00     0.268 C 
ATOM     86  H   UNL A   1      29.362  26.315  24.566  1.00  0.00     0.346 HD
ATOM     87  H   UNL A   1      29.307  27.270  23.199  1.00  0.00     0.346 HD
BRANCH  84  88
ATOM     88  C   UNL A   1      32.467  28.273  26.272  1.00  0.00    -0.039 A 
ATOM     89  C   UNL A   1      31.788  29.508  26.370  1.00  0.00     0.007 A 
ATOM     90  C   UNL A   1      33.785  28.208  26.749  1.00  0.00     0.007 A 
ATOM     91  C   UNL A   1      32.411  30.648  26.876  1.00  0.00     0.039 A 
ATOM     92  C   UNL A   1      34.406  29.354  27.274  1.00  0.00     0.039 A 
ATOM     93  C   UNL A   1      33.719  30.562  27.320  1.00  0.00     0.123 A 
ATOM     94  F   UNL A   1      34.327  31.659  27.790  1.00  0.00    -0.207 F 
ENDBRANCH  84  88
ENDBRANCH  78  80
ENDBRANCH  77  78
ENDBRANCH  76  77
ENDBRANCH  75  76
ENDBRANCH  74  75
ENDBRANCH  73  74
ENDBRANCH  72  73
ENDBRANCH  71  72
ENDBRANCH   1  71
TORSDOF 24
ENDMDL
MODEL 3
REMARK VINA RESULT:      -8.5      1.708      2.568
REMARK SMILES O=C(OCCOCCOCCOCCOC(=O)[C@@H]1C[NH2+]C[C@H](c2ccc(F)cc2)C1)c1ccc(-c2c3nc(c(-c4ccc(S(=O)(=O)[O-])cc4)c4ccc([nH]4)c(-c4ccc(S(=O)(=O)[O-])cc4)c4nc(c(-c5ccc(S(=O)(=O)[O-])cc5)c5ccc2[nH]5)C=C4)C=C3)cc1
REMARK SMILES IDX 8 1 7 2 6 3 5 4 4 5 3 6 2 7 1 8 31 9 32 10 90 11 33 12 89 13
REMARK SMILES IDX 34 14 35 15 36 16 83 17 37 18 88 19 82 20 84 21 38 22 87 23
REMARK SMILES IDX 81 24 80 25 39 27 69 28 50 29 68 30 51 31 54 32 67 33 85 34
REMARK SMILES IDX 52 35 53 36 66 38 86 39 55 40 40 41 41 42 49 43 42 44 48 45
REMARK SMILES IDX 43 46 44 47 45 48 46 49 47 50 70 51 71 52 79 53 72 54 78 55
REMARK SMILES IDX 73 56 74 57 75 58 76 59 77 60 56 61 57 62 65 63 58 64 64 65
REMARK SMILES IDX 59 66 60 67 61 68 62 69 63 70 9 71 10 72 11 73 12 74 13 75
REMARK SMILES IDX 14 76 15 77 16 78 17 79 18 80 19 81 30 82 20 83 22 84 21 85
REMARK SMILES IDX 23 88 24 89 29 90 25 91 28 92 26 93 27 94
REMARK H PARENT 84 26 54 37 20 86 20 87
REMARK Flexibility Score: inf
ROOT
ATOM      1  C   UNL A   1      29.519  30.539  22.914  1.00  0.00     0.188 C 
ENDROOT
BRANCH   1   2
ATOM      2  C   UNL A   1      29.685  30.685  24.418  1.00  0.00     0.188 C 
BRANCH   2   3
ATOM      3  O   UNL A   1      31.059  30.858  24.757  1.00  0.00    -0.376 OA
BRANCH   3   4
ATOM      4  C   UNL A   1      31.606  29.891  25.651  1.00  0.00     0.202 C 
BRANCH   4   5
ATOM      5  C   UNL A   1      32.148  30.474  26.953  1.00  0.00     0.261 C 
BRANCH   5   6
ATOM      6  O   UNL A   1      33.579  30.566  26.975  1.00  0.00    -0.460 OA
BRANCH   6   7
ATOM      7  C   UNL A   1      34.358  31.325  27.786  1.00  0.00     0.338 C 
ATOM      8  O   UNL A   1      34.009  32.490  27.983  1.00  0.00    -0.246 OA
BRANCH   7   9
ATOM      9  C   UNL A   1      35.635  30.867  28.427  1.00  0.00     0.060 A 
ATOM     10  C   UNL A   1      35.840  29.638  29.055  1.00  0.00     0.016 A 
ATOM     11  C   UNL A   1      36.743  31.725  28.312  1.00  0.00     0.016 A 
ATOM     12  C   UNL A   1      37.073  29.255  29.548  1.00  0.00     0.010 A 
ATOM     13  C   UNL A   1      37.991  31.366  28.833  1.00  0.00     0.010 A 
ATOM     14  C   UNL A   1      38.143  30.132  29.470  1.00  0.00    -0.014 A 
BRANCH  14  15
ATOM     15  C   UNL A   1      39.306  29.809  30.305  1.00  0.00     0.031 A 
ATOM     16  C   UNL A   1      40.278  28.813  29.749  1.00  0.00     0.074 A 
ATOM     17  C   UNL A   1      39.569  30.537  31.402  1.00  0.00     0.049 A 
ATOM     18  N   UNL A   1      41.362  28.327  30.284  1.00  0.00    -0.248 NA
ATOM     19  C   UNL A   1      40.001  28.312  28.388  1.00  0.00     0.031 C 
ATOM     20  C   UNL A   1      38.761  31.663  31.885  1.00  0.00     0.029 A 
ATOM     21  N   UNL A   1      40.608  30.468  32.288  1.00  0.00    -0.354 N 
ATOM     22  C   UNL A   1      41.868  27.435  29.346  1.00  0.00     0.074 A 
ATOM     23  C   UNL A   1      40.984  27.447  28.207  1.00  0.00     0.031 C 
ATOM     24  C   UNL A   1      39.344  32.180  32.979  1.00  0.00     0.029 A 
ATOM     25  C   UNL A   1      40.514  31.378  33.313  1.00  0.00     0.049 A 
ATOM     26  H   UNL A   1      41.350  29.827  32.200  1.00  0.00     0.167 HD
ATOM     27  C   UNL A   1      42.973  26.664  29.450  1.00  0.00     0.031 A 
ATOM     28  C   UNL A   1      41.275  31.502  34.417  1.00  0.00     0.031 A 
ATOM     29  C   UNL A   1      43.812  26.679  30.614  1.00  0.00     0.049 A 
ATOM     30  C   UNL A   1      42.419  30.536  34.577  1.00  0.00     0.074 A 
ATOM     31  C   UNL A   1      44.911  25.895  30.901  1.00  0.00     0.029 A 
ATOM     32  N   UNL A   1      43.631  27.537  31.693  1.00  0.00    -0.354 N 
ATOM     33  N   UNL A   1      42.842  29.617  33.737  1.00  0.00    -0.248 NA
ATOM     34  C   UNL A   1      43.179  30.609  35.828  1.00  0.00     0.031 C 
ATOM     35  C   UNL A   1      45.356  26.238  32.181  1.00  0.00     0.029 A 
ATOM     36  C   UNL A   1      44.583  27.287  32.660  1.00  0.00     0.049 A 
ATOM     37  H   UNL A   1      42.927  28.223  31.757  1.00  0.00     0.167 HD
ATOM     38  C   UNL A   1      43.931  29.014  34.348  1.00  0.00     0.074 A 
ATOM     39  C   UNL A   1      44.112  29.689  35.621  1.00  0.00     0.031 C 
ATOM     40  C   UNL A   1      44.715  27.997  33.910  1.00  0.00     0.031 A 
BRANCH  27  41
ATOM     41  C   UNL A   1      43.239  25.692  28.335  1.00  0.00    -0.014 A 
ATOM     42  C   UNL A   1      42.618  24.431  28.280  1.00  0.00     0.010 A 
ATOM     43  C   UNL A   1      44.172  26.037  27.339  1.00  0.00     0.010 A 
ATOM     44  C   UNL A   1      42.955  23.519  27.275  1.00  0.00     0.020 A 
ATOM     45  C   UNL A   1      44.491  25.140  26.317  1.00  0.00     0.020 A 
ATOM     46  C   UNL A   1      43.891  23.879  26.301  1.00  0.00     0.054 A 
BRANCH  46  47
ATOM     47  S   UNL A   1      44.303  22.682  25.002  1.00  0.00     0.124 S 
ATOM     48  O   UNL A   1      45.507  23.270  24.419  1.00  0.00    -0.237 OA
ATOM     49  O   UNL A   1      44.509  21.449  25.758  1.00  0.00    -0.237 OA
ATOM     50  O   UNL A   1      43.125  22.689  24.136  1.00  0.00    -0.744 OA
ENDBRANCH  46  47
ENDBRANCH  27  41
BRANCH  28  51
ATOM     51  C   UNL A   1      40.927  32.501  35.468  1.00  0.00    -0.014 A 
ATOM     52  C   UNL A   1      41.437  33.810  35.430  1.00  0.00     0.010 A 
ATOM     53  C   UNL A   1      40.075  32.138  36.529  1.00  0.00     0.010 A 
ATOM     54  C   UNL A   1      41.117  34.727  36.439  1.00  0.00     0.020 A 
ATOM     55  C   UNL A   1      39.727  33.059  37.522  1.00  0.00     0.020 A 
ATOM     56  C   UNL A   1      40.264  34.346  37.478  1.00  0.00     0.054 A 
BRANCH  56  57
ATOM     57  S   UNL A   1      39.840  35.559  38.760  1.00  0.00     0.124 S 
ATOM     58  O   UNL A   1      41.056  35.588  39.565  1.00  0.00    -0.237 OA
ATOM     59  O   UNL A   1      39.569  36.761  37.976  1.00  0.00    -0.237 OA
ATOM     60  O   UNL A   1      38.670  34.974  39.412  1.00  0.00    -0.744 OA
ENDBRANCH  56  57
ENDBRANCH  28  51
BRANCH  40  61
ATOM     61  C   UNL A   1      45.858  27.592  34.795  1.00  0.00    -0.014 A 
ATOM     62  C   UNL A   1      47.109  28.225  34.705  1.00  0.00     0.010 A 
ATOM     63  C   UNL A   1      45.644  26.614  35.783  1.00  0.00     0.010 A 
ATOM     64  C   UNL A   1      48.138  27.865  35.575  1.00  0.00     0.020 A 
ATOM     65  C   UNL A   1      46.659  26.278  36.677  1.00  0.00     0.020 A 
ATOM     66  C   UNL A   1      47.904  26.897  36.558  1.00  0.00     0.054 A 
BRANCH  66  67
ATOM     67  S   UNL A   1      49.239  26.491  37.713  1.00  0.00     0.124 S 
ATOM     68  O   UNL A   1      49.413  25.059  37.484  1.00  0.00    -0.237 OA
ATOM     69  O   UNL A   1      50.333  27.340  37.247  1.00  0.00    -0.237 OA
ATOM     70  O   UNL A   1      48.690  26.852  39.017  1.00  0.00    -0.744 OA
ENDBRANCH  66  67
ENDBRANCH  40  61
ENDBRANCH  14  15
ENDBRANCH   7   9
ENDBRANCH   6   7
ENDBRANCH   5   6
ENDBRANCH   4   5
ENDBRANCH   3   4
ENDBRANCH   2   3
ENDBRANCH   1   2
BRANCH   1  71
ATOM     71  O   UNL A   1      28.713  29.434  22.522  1.00  0.00    -0.377 OA
BRANCH  71  72
ATOM     72  C   UNL A   1      29.054  28.147  23.028  1.00  0.00     0.188 C 
BRANCH  72  73
ATOM     73  C   UNL A   1      30.341  27.438  22.592  1.00  0.00     0.188 C 
BRANCH  73  74
ATOM     74  O   UNL A   1      31.067  26.917  23.675  1.00  0.00    -0.376 OA
BRANCH  74  75
ATOM     75  C   UNL A   1      30.348  26.580  24.846  1.00  0.00     0.202 C 
BRANCH  75  76
ATOM     76  C   UNL A   1      30.847  25.550  25.892  1.00  0.00     0.261 C 
BRANCH  76  77
ATOM     77  O   UNL A   1      31.887  24.614  25.551  1.00  0.00    -0.463 OA
BRANCH  77  78
ATOM     78  C   UNL A   1      33.183  24.891  25.879  1.00  0.00     0.314 C 
ATOM     79  O   UNL A   1      33.635  26.030  25.979  1.00  0.00    -0.252 OA
BRANCH  78  80
ATOM     80  C   UNL A   1      34.042  23.631  26.103  1.00  0.00     0.155 C 
ATOM     81  C   UNL A   1      35.521  23.895  25.806  1.00  0.00     0.275 C 
ATOM     82  C   UNL A   1      33.569  22.328  25.383  1.00  0.00     0.035 C 
ATOM     83  N   UNL A   1      36.361  22.758  26.192  1.00  0.00    -0.345 N 
ATOM     84  C   UNL A   1      34.509  21.142  25.704  1.00  0.00     0.075 C 
ATOM     85  C   UNL A   1      35.974  21.568  25.434  1.00  0.00     0.268 C 
ATOM     86  H   UNL A   1      36.246  22.576  27.189  1.00  0.00     0.346 HD
ATOM     87  H   UNL A   1      37.336  22.980  25.991  1.00  0.00     0.346 HD
BRANCH  84  88
ATOM     88  C   UNL A   1      34.278  19.805  24.991  1.00  0.00    -0.039 A 
ATOM     89  C   UNL A   1      32.947  19.493  24.634  1.00  0.00     0.007 A 
ATOM     90  C   UNL A   1      35.265  18.835  24.759  1.00  0.00     0.007 A 
ATOM     91  C   UNL A   1      32.601  18.247  24.113  1.00  0.00     0.039 A 
ATOM     92  C   UNL A   1      34.918  17.586  24.218  1.00  0.00     0.039 A 
ATOM     93  C   UNL A   1      33.591  17.300  23.913  1.00  0.00     0.123 A 
ATOM     94  F   UNL A   1      33.261  16.095  23.429  1.00  0.00    -0.207 F 
ENDBRANCH  84  88
ENDBRANCH  78  80
ENDBRANCH  77  78
ENDBRANCH  76  77
ENDBRANCH  75  76
ENDBRANCH  74  75
ENDBRANCH  73  74
ENDBRANCH  72  73
ENDBRANCH  71  72
ENDBRANCH   1  71
TORSDOF 24
ENDMDL
