MODEL 1
REMARK VINA RESULT:      -9.1      0.000      0.000
REMARK SMILES CCC(=O)N1c2ccc(S(=O)(=O)N3CCC(C)CC3)cc2C[C@H]1C(=O)OCCOCCOCCOCCOC(=O)c1ccc(-c2c3nc(c(-c4ccc(S(=O)(=O)[O-])cc4)c4ccc([nH]4)c(-c4ccc(S(=O)(=O)[O-])cc4)c4nc(c(-c5ccc(S(=O)(=O)[O-])cc5)c5ccc2[nH]5)C=C4)C=C3)cc1
REMARK SMILES IDX 33 1 32 2 31 3 30 4 29 5 28 6 27 7 26 8 24 9 25 10 23 11
REMARK SMILES IDX 5 12 6 13 7 14 21 15 22 16 8 17 20 18 9 19 3 20 4 21 2 22
REMARK SMILES IDX 1 23 10 24 11 25 12 26 13 27 14 28 19 29 15 30 18 31 16 32
REMARK SMILES IDX 17 33 34 34 35 35 36 36 37 37 38 38 39 39 40 40 41 41 42 42
REMARK SMILES IDX 100 43 43 44 99 45 44 46 45 47 46 48 93 49 47 50 98 51 92 52
REMARK SMILES IDX 94 53 48 54 97 55 91 56 90 57 49 59 79 60 60 61 78 62 61 63
REMARK SMILES IDX 64 64 77 65 95 66 62 67 63 68 76 70 96 71 65 72 50 73 51 74
REMARK SMILES IDX 59 75 52 76 58 77 53 78 54 79 55 80 56 81 57 82 80 83 81 84
REMARK SMILES IDX 89 85 82 86 88 87 83 88 84 89 85 90 86 91 87 92 66 93 67 94
REMARK SMILES IDX 75 95 68 96 74 97 69 98 70 99 71 100 72 101 73 102
REMARK H PARENT 94 58 64 69
REMARK Flexibility Score: inf
ROOT
ATOM      1  C   UNL A   1      39.784  23.401  26.483  1.00  0.00     0.188 C 
ENDROOT
BRANCH   1   2
ATOM      2  O   UNL A   1      40.503  22.222  26.106  1.00  0.00    -0.377 OA
BRANCH   2   3
ATOM      3  C   UNL A   1      40.381  21.041  26.886  1.00  0.00     0.188 C 
BRANCH   3   4
ATOM      4  C   UNL A   1      40.552  19.779  26.038  1.00  0.00     0.188 C 
BRANCH   4   5
ATOM      5  O   UNL A   1      39.353  19.103  25.665  1.00  0.00    -0.376 OA
BRANCH   5   6
ATOM      6  C   UNL A   1      38.554  19.674  24.630  1.00  0.00     0.202 C 
BRANCH   6   7
ATOM      7  C   UNL A   1      37.086  19.974  24.964  1.00  0.00     0.261 C 
BRANCH   7   8
ATOM      8  O   UNL A   1      36.856  21.328  25.407  1.00  0.00    -0.462 OA
BRANCH   8   9
ATOM      9  C   UNL A   1      35.580  21.625  25.749  1.00  0.00     0.329 C 
ATOM     10  O   UNL A   1      35.149  21.599  26.902  1.00  0.00    -0.250 OA
BRANCH   9  11
ATOM     11  C   UNL A   1      34.704  22.138  24.608  1.00  0.00     0.204 C 
ATOM     12  N   UNL A   1      33.222  22.134  24.666  1.00  0.00    -0.298 N 
ATOM     13  C   UNL A   1      32.792  23.339  24.094  1.00  0.00     0.048 A 
ATOM     14  C   UNL A   1      31.533  23.603  23.616  1.00  0.00     0.028 A 
ATOM     15  C   UNL A   1      33.825  24.260  23.972  1.00  0.00    -0.020 A 
ATOM     16  C   UNL A   1      35.108  23.633  24.406  1.00  0.00     0.075 C 
ATOM     17  C   UNL A   1      31.327  24.825  23.013  1.00  0.00     0.024 A 
ATOM     18  C   UNL A   1      33.571  25.557  23.538  1.00  0.00     0.027 A 
ATOM     19  C   UNL A   1      32.280  25.837  23.077  1.00  0.00     0.083 A 
BRANCH  12  20
ATOM     20  C   UNL A   1      32.358  21.062  24.657  1.00  0.00     0.227 C 
ATOM     21  O   UNL A   1      31.394  21.009  25.422  1.00  0.00    -0.275 OA
BRANCH  20  22
ATOM     22  C   UNL A   1      32.474  20.115  23.465  1.00  0.00     0.097 C 
ATOM     23  C   UNL A   1      32.811  18.688  23.905  1.00  0.00     0.014 C 
ENDBRANCH  20  22
ENDBRANCH  12  20
BRANCH  19  24
ATOM     24  S   UNL A   1      31.750  27.507  22.737  1.00  0.00     0.243 S 
ATOM     25  O   UNL A   1      32.949  28.253  22.403  1.00  0.00    -0.207 OA
ATOM     26  O   UNL A   1      30.643  27.401  21.819  1.00  0.00    -0.207 OA
BRANCH  24  27
ATOM     27  N   UNL A   1      31.187  28.091  24.224  1.00  0.00    -0.198 NA
ATOM     28  C   UNL A   1      31.110  29.525  24.533  1.00  0.00     0.103 C 
ATOM     29  C   UNL A   1      30.813  27.206  25.330  1.00  0.00     0.103 C 
ATOM     30  C   UNL A   1      32.027  29.879  25.704  1.00  0.00     0.020 C 
ATOM     31  C   UNL A   1      31.736  27.408  26.525  1.00  0.00     0.020 C 
ATOM     32  C   UNL A   1      32.023  28.882  26.885  1.00  0.00    -0.012 C 
ATOM     33  C   UNL A   1      33.353  28.973  27.654  1.00  0.00     0.008 C 
ENDBRANCH  24  27
ENDBRANCH  19  24
ENDBRANCH   9  11
ENDBRANCH   8   9
ENDBRANCH   7   8
ENDBRANCH   6   7
ENDBRANCH   5   6
ENDBRANCH   4   5
ENDBRANCH   3   4
ENDBRANCH   2   3
ENDBRANCH   1   2
BRANCH   1  34
ATOM     34  C   UNL A   1      40.489  24.411  27.389  1.00  0.00     0.188 C 
BRANCH  34  35
ATOM     35  O   UNL A   1      41.102  25.512  26.714  1.00  0.00    -0.376 OA
BRANCH  35  36
ATOM     36  C   UNL A   1      41.773  25.232  25.485  1.00  0.00     0.202 C 
BRANCH  36  37
ATOM     37  C   UNL A   1      43.293  25.393  25.512  1.00  0.00     0.261 C 
BRANCH  37  38
ATOM     38  O   UNL A   1      43.871  24.838  26.704  1.00  0.00    -0.460 OA
BRANCH  38  39
ATOM     39  C   UNL A   1      44.717  25.661  27.368  1.00  0.00     0.338 C 
ATOM     40  O   UNL A   1      45.929  25.729  27.233  1.00  0.00    -0.246 OA
BRANCH  39  41
ATOM     41  C   UNL A   1      43.955  26.611  28.200  1.00  0.00     0.060 A 
ATOM     42  C   UNL A   1      44.130  27.979  27.953  1.00  0.00     0.016 A 
ATOM     43  C   UNL A   1      43.168  26.177  29.270  1.00  0.00     0.016 A 
ATOM     44  C   UNL A   1      43.580  28.917  28.822  1.00  0.00     0.010 A 
ATOM     45  C   UNL A   1      42.625  27.119  30.147  1.00  0.00     0.010 A 
ATOM     46  C   UNL A   1      42.875  28.489  29.953  1.00  0.00    -0.014 A 
BRANCH  46  47
ATOM     47  C   UNL A   1      42.587  29.464  31.028  1.00  0.00     0.031 A 
ATOM     48  C   UNL A   1      41.333  30.290  30.928  1.00  0.00     0.074 A 
ATOM     49  C   UNL A   1      43.395  29.573  32.095  1.00  0.00     0.049 A 
ATOM     50  N   UNL A   1      40.845  31.162  31.772  1.00  0.00    -0.248 NA
ATOM     51  C   UNL A   1      40.514  30.102  29.718  1.00  0.00     0.031 C 
ATOM     52  C   UNL A   1      44.621  28.804  32.311  1.00  0.00     0.029 A 
ATOM     53  N   UNL A   1      43.298  30.374  33.204  1.00  0.00    -0.354 N 
ATOM     54  C   UNL A   1      39.666  31.624  31.197  1.00  0.00     0.074 A 
ATOM     55  C   UNL A   1      39.526  30.959  29.921  1.00  0.00     0.031 C 
ATOM     56  C   UNL A   1      45.162  29.171  33.486  1.00  0.00     0.029 A 
ATOM     57  C   UNL A   1      44.331  30.209  34.094  1.00  0.00     0.049 A 
ATOM     58  H   UNL A   1      42.557  31.006  33.348  1.00  0.00     0.167 HD
ATOM     59  C   UNL A   1      38.774  32.513  31.692  1.00  0.00     0.031 A 
ATOM     60  C   UNL A   1      44.576  30.829  35.264  1.00  0.00     0.031 A 
ATOM     61  C   UNL A   1      38.928  33.190  32.952  1.00  0.00     0.049 A 
ATOM     62  C   UNL A   1      43.593  31.851  35.774  1.00  0.00     0.074 A 
ATOM     63  C   UNL A   1      38.087  34.115  33.544  1.00  0.00     0.029 A 
ATOM     64  N   UNL A   1      40.003  33.016  33.812  1.00  0.00    -0.354 N 
ATOM     65  N   UNL A   1      42.471  32.259  35.229  1.00  0.00    -0.248 NA
ATOM     66  C   UNL A   1      43.903  32.481  37.064  1.00  0.00     0.031 C 
ATOM     67  C   UNL A   1      38.673  34.529  34.745  1.00  0.00     0.029 A 
ATOM     68  C   UNL A   1      39.854  33.826  34.924  1.00  0.00     0.049 A 
ATOM     69  H   UNL A   1      40.758  32.405  33.655  1.00  0.00     0.167 HD
ATOM     70  C   UNL A   1      41.927  33.175  36.124  1.00  0.00     0.074 A 
ATOM     71  C   UNL A   1      42.838  33.250  37.248  1.00  0.00     0.031 C 
ATOM     72  C   UNL A   1      40.776  33.886  36.029  1.00  0.00     0.031 A 
BRANCH  59  73
ATOM     73  C   UNL A   1      37.570  32.823  30.846  1.00  0.00    -0.014 A 
ATOM     74  C   UNL A   1      37.625  33.800  29.835  1.00  0.00     0.010 A 
ATOM     75  C   UNL A   1      36.369  32.122  31.057  1.00  0.00     0.010 A 
ATOM     76  C   UNL A   1      36.489  34.099  29.077  1.00  0.00     0.020 A 
ATOM     77  C   UNL A   1      35.237  32.404  30.286  1.00  0.00     0.020 A 
ATOM     78  C   UNL A   1      35.300  33.403  29.313  1.00  0.00     0.054 A 
BRANCH  78  79
ATOM     79  S   UNL A   1      33.840  33.803  28.312  1.00  0.00     0.124 S 
ATOM     80  O   UNL A   1      33.447  32.487  27.816  1.00  0.00    -0.237 OA
ATOM     81  O   UNL A   1      32.934  34.403  29.288  1.00  0.00    -0.237 OA
ATOM     82  O   UNL A   1      34.356  34.723  27.301  1.00  0.00    -0.744 OA
ENDBRANCH  78  79
ENDBRANCH  59  73
BRANCH  60  83
ATOM     83  C   UNL A   1      45.802  30.497  36.037  1.00  0.00    -0.014 A 
ATOM     84  C   UNL A   1      45.788  29.472  37.000  1.00  0.00     0.010 A 
ATOM     85  C   UNL A   1      46.995  31.205  35.808  1.00  0.00     0.010 A 
ATOM     86  C   UNL A   1      46.942  29.172  37.729  1.00  0.00     0.020 A 
ATOM     87  C   UNL A   1      48.157  30.892  36.518  1.00  0.00     0.020 A 
ATOM     88  C   UNL A   1      48.119  29.884  37.483  1.00  0.00     0.054 A 
BRANCH  88  89
ATOM     89  S   UNL A   1      49.622  29.443  38.402  1.00  0.00     0.124 S 
ATOM     90  O   UNL A   1      50.545  30.497  37.997  1.00  0.00    -0.237 OA
ATOM     91  O   UNL A   1      49.171  29.492  39.790  1.00  0.00    -0.237 OA
ATOM     92  O   UNL A   1      49.941  28.105  37.907  1.00  0.00    -0.744 OA
ENDBRANCH  88  89
ENDBRANCH  60  83
BRANCH  72  93
ATOM     93  C   UNL A   1      40.423  34.779  37.187  1.00  0.00    -0.014 A 
ATOM     94  C   UNL A   1      39.623  34.317  38.246  1.00  0.00     0.010 A 
ATOM     95  C   UNL A   1      40.930  36.090  37.229  1.00  0.00     0.010 A 
ATOM     96  C   UNL A   1      39.298  35.167  39.307  1.00  0.00     0.020 A 
ATOM     97  C   UNL A   1      40.627  36.935  38.299  1.00  0.00     0.020 A 
ATOM     98  C   UNL A   1      39.796  36.474  39.322  1.00  0.00     0.054 A 
BRANCH  98  99
ATOM     99  S   UNL A   1      39.378  37.557  40.715  1.00  0.00     0.124 S 
ATOM    100  O   UNL A   1      40.649  38.233  40.963  1.00  0.00    -0.237 OA
ATOM    101  O   UNL A   1      38.316  38.397  40.167  1.00  0.00    -0.237 OA
ATOM    102  O   UNL A   1      38.952  36.627  41.758  1.00  0.00    -0.744 OA
ENDBRANCH  98  99
ENDBRANCH  72  93
ENDBRANCH  46  47
ENDBRANCH  39  41
ENDBRANCH  38  39
ENDBRANCH  37  38
ENDBRANCH  36  37
ENDBRANCH  35  36
ENDBRANCH  34  35
ENDBRANCH   1  34
TORSDOF 27
ENDMDL
MODEL 2
REMARK VINA RESULT:      -8.6      1.155      7.824
REMARK SMILES CCC(=O)N1c2ccc(S(=O)(=O)N3CCC(C)CC3)cc2C[C@H]1C(=O)OCCOCCOCCOCCOC(=O)c1ccc(-c2c3nc(c(-c4ccc(S(=O)(=O)[O-])cc4)c4ccc([nH]4)c(-c4ccc(S(=O)(=O)[O-])cc4)c4nc(c(-c5ccc(S(=O)(=O)[O-])cc5)c5ccc2[nH]5)C=C4)C=C3)cc1
REMARK SMILES IDX 33 1 32 2 31 3 30 4 29 5 28 6 27 7 26 8 24 9 25 10 23 11
REMARK SMILES IDX 5 12 6 13 7 14 21 15 22 16 8 17 20 18 9 19 3 20 4 21 2 22
REMARK SMILES IDX 1 23 10 24 11 25 12 26 13 27 14 28 19 29 15 30 18 31 16 32
REMARK SMILES IDX 17 33 34 34 35 35 36 36 37 37 38 38 39 39 40 40 41 41 42 42
REMARK SMILES IDX 100 43 43 44 99 45 44 46 45 47 46 48 93 49 47 50 98 51 92 52
REMARK SMILES IDX 94 53 48 54 97 55 91 56 90 57 49 59 79 60 60 61 78 62 61 63
REMARK SMILES IDX 64 64 77 65 95 66 62 67 63 68 76 70 96 71 65 72 50 73 51 74
REMARK SMILES IDX 59 75 52 76 58 77 53 78 54 79 55 80 56 81 57 82 80 83 81 84
REMARK SMILES IDX 89 85 82 86 88 87 83 88 84 89 85 90 86 91 87 92 66 93 67 94
REMARK SMILES IDX 75 95 68 96 74 97 69 98 70 99 71 100 72 101 73 102
REMARK H PARENT 94 58 64 69
REMARK Flexibility Score: inf
ROOT
ATOM      1  C   UNL A   1      39.059  23.055  26.872  1.00  0.00     0.188 C 
ENDROOT
BRANCH   1   2
ATOM      2  O   UNL A   1      39.579  22.331  25.752  1.00  0.00    -0.377 OA
BRANCH   2   3
ATOM      3  C   UNL A   1      39.698  20.917  25.819  1.00  0.00     0.188 C 
BRANCH   3   4
ATOM      4  C   UNL A   1      38.376  20.218  25.491  1.00  0.00     0.188 C 
BRANCH   4   5
ATOM      5  O   UNL A   1      37.458  20.953  24.684  1.00  0.00    -0.376 OA
BRANCH   5   6
ATOM      6  C   UNL A   1      36.064  20.809  24.952  1.00  0.00     0.202 C 
BRANCH   6   7
ATOM      7  C   UNL A   1      35.134  21.914  24.433  1.00  0.00     0.261 C 
BRANCH   7   8
ATOM      8  O   UNL A   1      33.989  21.416  23.707  1.00  0.00    -0.462 OA
BRANCH   8   9
ATOM      9  C   UNL A   1      32.951  20.991  24.466  1.00  0.00     0.329 C 
ATOM     10  O   UNL A   1      32.923  19.911  25.057  1.00  0.00    -0.250 OA
BRANCH   9  11
ATOM     11  C   UNL A   1      31.832  22.010  24.666  1.00  0.00     0.204 C 
ATOM     12  N   UNL A   1      31.860  23.038  25.735  1.00  0.00    -0.298 N 
ATOM     13  C   UNL A   1      31.366  24.222  25.170  1.00  0.00     0.048 A 
ATOM     14  C   UNL A   1      30.883  25.305  25.859  1.00  0.00     0.028 A 
ATOM     15  C   UNL A   1      31.331  24.167  23.782  1.00  0.00    -0.020 A 
ATOM     16  C   UNL A   1      31.745  22.808  23.325  1.00  0.00     0.075 C 
ATOM     17  C   UNL A   1      30.364  26.348  25.120  1.00  0.00     0.024 A 
ATOM     18  C   UNL A   1      30.985  25.289  23.036  1.00  0.00     0.027 A 
ATOM     19  C   UNL A   1      30.519  26.406  23.738  1.00  0.00     0.083 A 
BRANCH  12  20
ATOM     20  C   UNL A   1      31.757  22.872  27.097  1.00  0.00     0.227 C 
ATOM     21  O   UNL A   1      30.665  22.899  27.666  1.00  0.00    -0.275 OA
BRANCH  20  22
ATOM     22  C   UNL A   1      33.006  22.355  27.809  1.00  0.00     0.097 C 
ATOM     23  C   UNL A   1      34.273  23.053  27.309  1.00  0.00     0.014 C 
ENDBRANCH  20  22
ENDBRANCH  12  20
BRANCH  19  24
ATOM     24  S   UNL A   1      30.287  27.984  22.939  1.00  0.00     0.243 S 
ATOM     25  O   UNL A   1      30.683  27.799  21.554  1.00  0.00    -0.207 OA
ATOM     26  O   UNL A   1      28.963  28.430  23.296  1.00  0.00    -0.207 OA
BRANCH  24  27
ATOM     27  N   UNL A   1      31.432  29.004  23.660  1.00  0.00    -0.198 NA
ATOM     28  C   UNL A   1      32.865  28.936  23.343  1.00  0.00     0.103 C 
ATOM     29  C   UNL A   1      31.082  29.969  24.706  1.00  0.00     0.103 C 
ATOM     30  C   UNL A   1      33.678  28.553  24.579  1.00  0.00     0.020 C 
ATOM     31  C   UNL A   1      31.768  29.618  26.021  1.00  0.00     0.020 C 
ATOM     32  C   UNL A   1      33.261  29.242  25.898  1.00  0.00    -0.012 C 
ATOM     33  C   UNL A   1      33.671  28.371  27.099  1.00  0.00     0.008 C 
ENDBRANCH  24  27
ENDBRANCH  19  24
ENDBRANCH   9  11
ENDBRANCH   8   9
ENDBRANCH   7   8
ENDBRANCH   6   7
ENDBRANCH   5   6
ENDBRANCH   4   5
ENDBRANCH   3   4
ENDBRANCH   2   3
ENDBRANCH   1   2
BRANCH   1  34
ATOM     34  C   UNL A   1      40.004  23.999  27.615  1.00  0.00     0.188 C 
BRANCH  34  35
ATOM     35  O   UNL A   1      40.162  25.293  27.027  1.00  0.00    -0.376 OA
BRANCH  35  36
ATOM     36  C   UNL A   1      40.792  25.355  25.747  1.00  0.00     0.202 C 
BRANCH  36  37
ATOM     37  C   UNL A   1      42.078  26.179  25.684  1.00  0.00     0.261 C 
BRANCH  37  38
ATOM     38  O   UNL A   1      43.198  25.468  26.234  1.00  0.00    -0.460 OA
BRANCH  38  39
ATOM     39  C   UNL A   1      44.318  26.211  26.406  1.00  0.00     0.338 C 
ATOM     40  O   UNL A   1      45.220  26.373  25.600  1.00  0.00    -0.246 OA
BRANCH  39  41
ATOM     41  C   UNL A   1      44.248  26.951  27.681  1.00  0.00     0.060 A 
ATOM     42  C   UNL A   1      43.520  26.374  28.729  1.00  0.00     0.016 A 
ATOM     43  C   UNL A   1      44.792  28.231  27.813  1.00  0.00     0.016 A 
ATOM     44  C   UNL A   1      43.268  27.106  29.886  1.00  0.00     0.010 A 
ATOM     45  C   UNL A   1      44.530  28.970  28.970  1.00  0.00     0.010 A 
ATOM     46  C   UNL A   1      43.724  28.426  29.985  1.00  0.00    -0.014 A 
BRANCH  46  47
ATOM     47  C   UNL A   1      43.178  29.292  31.054  1.00  0.00     0.031 A 
ATOM     48  C   UNL A   1      43.961  29.433  32.331  1.00  0.00     0.074 A 
ATOM     49  C   UNL A   1      42.038  29.979  30.870  1.00  0.00     0.049 A 
ATOM     50  N   UNL A   1      43.711  30.176  33.378  1.00  0.00    -0.248 NA
ATOM     51  C   UNL A   1      45.194  28.636  32.440  1.00  0.00     0.031 C 
ATOM     52  C   UNL A   1      41.212  29.942  29.663  1.00  0.00     0.029 A 
ATOM     53  N   UNL A   1      41.384  30.851  31.701  1.00  0.00    -0.354 N 
ATOM     54  C   UNL A   1      44.755  29.937  34.266  1.00  0.00     0.074 A 
ATOM     55  C   UNL A   1      45.624  28.959  33.650  1.00  0.00     0.031 C 
ATOM     56  C   UNL A   1      40.158  30.759  29.833  1.00  0.00     0.029 A 
ATOM     57  C   UNL A   1      40.228  31.363  31.163  1.00  0.00     0.049 A 
ATOM     58  H   UNL A   1      41.713  31.089  32.598  1.00  0.00     0.167 HD
ATOM     59  C   UNL A   1      44.976  30.490  35.482  1.00  0.00     0.031 A 
ATOM     60  C   UNL A   1      39.330  32.217  31.688  1.00  0.00     0.031 A 
ATOM     61  C   UNL A   1      44.098  31.445  36.103  1.00  0.00     0.049 A 
ATOM     62  C   UNL A   1      39.572  32.784  33.063  1.00  0.00     0.074 A 
ATOM     63  C   UNL A   1      44.224  32.062  37.334  1.00  0.00     0.029 A 
ATOM     64  N   UNL A   1      42.922  31.917  35.536  1.00  0.00    -0.354 N 
ATOM     65  N   UNL A   1      40.576  32.566  33.879  1.00  0.00    -0.248 NA
ATOM     66  C   UNL A   1      38.569  33.726  33.577  1.00  0.00     0.031 C 
ATOM     67  C   UNL A   1      43.105  32.878  37.529  1.00  0.00     0.029 A 
ATOM     68  C   UNL A   1      42.306  32.807  36.398  1.00  0.00     0.049 A 
ATOM     69  H   UNL A   1      42.578  31.657  34.651  1.00  0.00     0.167 HD
ATOM     70  C   UNL A   1      40.337  33.365  34.994  1.00  0.00     0.074 A 
ATOM     71  C   UNL A   1      39.102  34.078  34.738  1.00  0.00     0.031 C 
ATOM     72  C   UNL A   1      41.075  33.502  36.124  1.00  0.00     0.031 A 
BRANCH  59  73
ATOM     73  C   UNL A   1      46.204  30.044  36.227  1.00  0.00    -0.014 A 
ATOM     74  C   UNL A   1      46.145  28.992  37.159  1.00  0.00     0.010 A 
ATOM     75  C   UNL A   1      47.436  30.678  35.987  1.00  0.00     0.010 A 
ATOM     76  C   UNL A   1      47.288  28.609  37.867  1.00  0.00     0.020 A 
ATOM     77  C   UNL A   1      48.586  30.283  36.677  1.00  0.00     0.020 A 
ATOM     78  C   UNL A   1      48.500  29.263  37.626  1.00  0.00     0.054 A 
BRANCH  78  79
ATOM     79  S   UNL A   1      49.972  28.743  38.552  1.00  0.00     0.124 S 
ATOM     80  O   UNL A   1      49.485  28.767  39.929  1.00  0.00    -0.237 OA
ATOM     81  O   UNL A   1      50.246  27.417  38.005  1.00  0.00    -0.237 OA
ATOM     82  O   UNL A   1      50.964  29.765  38.224  1.00  0.00    -0.744 OA
ENDBRANCH  78  79
ENDBRANCH  59  73
BRANCH  60  83
ATOM     83  C   UNL A   1      38.121  32.594  30.909  1.00  0.00    -0.014 A 
ATOM     84  C   UNL A   1      38.228  33.405  29.765  1.00  0.00     0.010 A 
ATOM     85  C   UNL A   1      36.852  32.136  31.308  1.00  0.00     0.010 A 
ATOM     86  C   UNL A   1      37.086  33.762  29.042  1.00  0.00     0.020 A 
ATOM     87  C   UNL A   1      35.711  32.472  30.576  1.00  0.00     0.020 A 
ATOM     88  C   UNL A   1      35.834  33.293  29.453  1.00  0.00     0.054 A 
BRANCH  88  89
ATOM     89  S   UNL A   1      34.369  33.723  28.471  1.00  0.00     0.124 S 
ATOM     90  O   UNL A   1      34.161  32.508  27.690  1.00  0.00    -0.237 OA
ATOM     91  O   UNL A   1      33.368  33.997  29.498  1.00  0.00    -0.237 OA
ATOM     92  O   UNL A   1      34.802  34.892  27.709  1.00  0.00    -0.744 OA
ENDBRANCH  88  89
ENDBRANCH  60  83
BRANCH  72  93
ATOM     93  C   UNL A   1      40.581  34.484  37.151  1.00  0.00    -0.014 A 
ATOM     94  C   UNL A   1      41.041  35.812  37.170  1.00  0.00     0.010 A 
ATOM     95  C   UNL A   1      39.618  34.075  38.091  1.00  0.00     0.010 A 
ATOM     96  C   UNL A   1      40.577  36.704  38.140  1.00  0.00     0.020 A 
ATOM     97  C   UNL A   1      39.134  34.971  39.047  1.00  0.00     0.020 A 
ATOM     98  C   UNL A   1      39.632  36.275  39.078  1.00  0.00     0.054 A 
BRANCH  98  99
ATOM     99  S   UNL A   1      39.029  37.452  40.319  1.00  0.00     0.124 S 
ATOM    100  O   UNL A   1      38.172  36.606  41.146  1.00  0.00    -0.237 OA
ATOM    101  O   UNL A   1      40.261  37.913  40.955  1.00  0.00    -0.237 OA
ATOM    102  O   UNL A   1      38.331  38.461  39.525  1.00  0.00    -0.744 OA
ENDBRANCH  98  99
ENDBRANCH  72  93
ENDBRANCH  46  47
ENDBRANCH  39  41
ENDBRANCH  38  39
ENDBRANCH  37  38
ENDBRANCH  36  37
ENDBRANCH  35  36
ENDBRANCH  34  35
ENDBRANCH   1  34
TORSDOF 27
ENDMDL
MODEL 3
REMARK VINA RESULT:      -8.2      4.815     10.285
REMARK SMILES CCC(=O)N1c2ccc(S(=O)(=O)N3CCC(C)CC3)cc2C[C@H]1C(=O)OCCOCCOCCOCCOC(=O)c1ccc(-c2c3nc(c(-c4ccc(S(=O)(=O)[O-])cc4)c4ccc([nH]4)c(-c4ccc(S(=O)(=O)[O-])cc4)c4nc(c(-c5ccc(S(=O)(=O)[O-])cc5)c5ccc2[nH]5)C=C4)C=C3)cc1
REMARK SMILES IDX 33 1 32 2 31 3 30 4 29 5 28 6 27 7 26 8 24 9 25 10 23 11
REMARK SMILES IDX 5 12 6 13 7 14 21 15 22 16 8 17 20 18 9 19 3 20 4 21 2 22
REMARK SMILES IDX 1 23 10 24 11 25 12 26 13 27 14 28 19 29 15 30 18 31 16 32
REMARK SMILES IDX 17 33 34 34 35 35 36 36 37 37 38 38 39 39 40 40 41 41 42 42
REMARK SMILES IDX 100 43 43 44 99 45 44 46 45 47 46 48 93 49 47 50 98 51 92 52
REMARK SMILES IDX 94 53 48 54 97 55 91 56 90 57 49 59 79 60 60 61 78 62 61 63
REMARK SMILES IDX 64 64 77 65 95 66 62 67 63 68 76 70 96 71 65 72 50 73 51 74
REMARK SMILES IDX 59 75 52 76 58 77 53 78 54 79 55 80 56 81 57 82 80 83 81 84
REMARK SMILES IDX 89 85 82 86 88 87 83 88 84 89 85 90 86 91 87 92 66 93 67 94
REMARK SMILES IDX 75 95 68 96 74 97 69 98 70 99 71 100 72 101 73 102
REMARK H PARENT 94 58 64 69
REMARK Flexibility Score: inf
ROOT
ATOM      1  C   UNL A   1      33.654  26.331  25.384  1.00  0.00     0.188 C 
ENDROOT
BRANCH   1   2
ATOM      2  O   UNL A   1      34.001  25.404  24.350  1.00  0.00    -0.377 OA
BRANCH   2   3
ATOM      3  C   UNL A   1      35.080  24.501  24.544  1.00  0.00     0.188 C 
BRANCH   3   4
ATOM      4  C   UNL A   1      34.735  23.415  25.566  1.00  0.00     0.188 C 
BRANCH   4   5
ATOM      5  O   UNL A   1      35.772  22.485  25.872  1.00  0.00    -0.376 OA
BRANCH   5   6
ATOM      6  C   UNL A   1      37.053  22.686  25.277  1.00  0.00     0.202 C 
BRANCH   6   7
ATOM      7  C   UNL A   1      38.057  21.530  25.370  1.00  0.00     0.261 C 
BRANCH   7   8
ATOM      8  O   UNL A   1      38.840  21.535  26.583  1.00  0.00    -0.462 OA
BRANCH   8   9
ATOM      9  C   UNL A   1      40.160  21.273  26.432  1.00  0.00     0.329 C 
ATOM     10  O   UNL A   1      40.606  20.244  25.922  1.00  0.00    -0.250 OA
BRANCH   9  11
ATOM     11  C   UNL A   1      41.098  22.413  26.821  1.00  0.00     0.204 C 
ATOM     12  N   UNL A   1      42.154  22.930  25.918  1.00  0.00    -0.298 N 
ATOM     13  C   UNL A   1      42.157  24.326  26.057  1.00  0.00     0.048 A 
ATOM     14  C   UNL A   1      43.177  25.171  25.701  1.00  0.00     0.028 A 
ATOM     15  C   UNL A   1      41.013  24.792  26.694  1.00  0.00    -0.020 A 
ATOM     16  C   UNL A   1      40.173  23.635  27.122  1.00  0.00     0.075 C 
ATOM     17  C   UNL A   1      43.024  26.510  25.994  1.00  0.00     0.024 A 
ATOM     18  C   UNL A   1      40.776  26.157  26.816  1.00  0.00     0.027 A 
ATOM     19  C   UNL A   1      41.804  27.023  26.427  1.00  0.00     0.083 A 
BRANCH  12  20
ATOM     20  C   UNL A   1      43.310  22.315  25.495  1.00  0.00     0.227 C 
ATOM     21  O   UNL A   1      43.647  21.213  25.931  1.00  0.00    -0.275 OA
BRANCH  20  22
ATOM     22  C   UNL A   1      43.976  22.911  24.257  1.00  0.00     0.097 C 
ATOM     23  C   UNL A   1      45.463  22.555  24.186  1.00  0.00     0.014 C 
ENDBRANCH  20  22
ENDBRANCH  12  20
BRANCH  19  24
ATOM     24  S   UNL A   1      41.544  28.783  26.290  1.00  0.00     0.243 S 
ATOM     25  O   UNL A   1      42.235  29.202  25.084  1.00  0.00    -0.207 OA
ATOM     26  O   UNL A   1      40.129  28.999  26.467  1.00  0.00    -0.207 OA
BRANCH  24  27
ATOM     27  N   UNL A   1      42.377  29.444  27.608  1.00  0.00    -0.198 NA
ATOM     28  C   UNL A   1      43.759  29.934  27.506  1.00  0.00     0.103 C 
ATOM     29  C   UNL A   1      41.806  29.502  28.956  1.00  0.00     0.103 C 
ATOM     30  C   UNL A   1      44.691  29.125  28.410  1.00  0.00     0.020 C 
ATOM     31  C   UNL A   1      42.608  28.642  29.925  1.00  0.00     0.020 C 
ATOM     32  C   UNL A   1      44.141  28.794  29.815  1.00  0.00    -0.012 C 
ATOM     33  C   UNL A   1      44.823  27.526  30.361  1.00  0.00     0.008 C 
ENDBRANCH  24  27
ENDBRANCH  19  24
ENDBRANCH   9  11
ENDBRANCH   8   9
ENDBRANCH   7   8
ENDBRANCH   6   7
ENDBRANCH   5   6
ENDBRANCH   4   5
ENDBRANCH   3   4
ENDBRANCH   2   3
ENDBRANCH   1   2
BRANCH   1  34
ATOM     34  C   UNL A   1      33.027  27.663  24.972  1.00  0.00     0.188 C 
BRANCH  34  35
ATOM     35  O   UNL A   1      33.652  28.827  25.519  1.00  0.00    -0.376 OA
BRANCH  35  36
ATOM     36  C   UNL A   1      33.054  29.404  26.680  1.00  0.00     0.202 C 
BRANCH  36  37
ATOM     37  C   UNL A   1      33.232  30.914  26.832  1.00  0.00     0.261 C 
BRANCH  37  38
ATOM     38  O   UNL A   1      33.995  31.250  28.003  1.00  0.00    -0.460 OA
BRANCH  38  39
ATOM     39  C   UNL A   1      34.701  32.402  27.915  1.00  0.00     0.338 C 
ATOM     40  O   UNL A   1      34.344  33.440  27.382  1.00  0.00    -0.246 OA
BRANCH  39  41
ATOM     41  C   UNL A   1      35.947  32.297  28.699  1.00  0.00     0.060 A 
ATOM     42  C   UNL A   1      36.172  33.258  29.693  1.00  0.00     0.016 A 
ATOM     43  C   UNL A   1      36.923  31.344  28.397  1.00  0.00     0.016 A 
ATOM     44  C   UNL A   1      37.406  33.315  30.336  1.00  0.00     0.010 A 
ATOM     45  C   UNL A   1      38.164  31.409  29.035  1.00  0.00     0.010 A 
ATOM     46  C   UNL A   1      38.424  32.427  29.968  1.00  0.00    -0.014 A 
BRANCH  46  47
ATOM     47  C   UNL A   1      39.808  32.706  30.409  1.00  0.00     0.031 A 
ATOM     48  C   UNL A   1      40.457  31.753  31.376  1.00  0.00     0.074 A 
ATOM     49  C   UNL A   1      40.492  33.753  29.918  1.00  0.00     0.049 A 
ATOM     50  N   UNL A   1      41.673  31.760  31.857  1.00  0.00    -0.248 NA
ATOM     51  C   UNL A   1      39.625  30.638  31.862  1.00  0.00     0.031 C 
ATOM     52  C   UNL A   1      39.974  34.725  28.954  1.00  0.00     0.029 A 
ATOM     53  N   UNL A   1      41.775  34.167  30.160  1.00  0.00    -0.354 N 
ATOM     54  C   UNL A   1      41.753  30.654  32.696  1.00  0.00     0.074 A 
ATOM     55  C   UNL A   1      40.455  30.016  32.685  1.00  0.00     0.031 C 
ATOM     56  C   UNL A   1      40.937  35.624  28.685  1.00  0.00     0.029 A 
ATOM     57  C   UNL A   1      42.128  35.301  29.468  1.00  0.00     0.049 A 
ATOM     58  H   UNL A   1      42.387  33.696  30.771  1.00  0.00     0.167 HD
ATOM     59  C   UNL A   1      42.814  30.203  33.406  1.00  0.00     0.031 A 
ATOM     60  C   UNL A   1      43.281  35.996  29.471  1.00  0.00     0.031 A 
ATOM     61  C   UNL A   1      44.096  30.853  33.434  1.00  0.00     0.049 A 
ATOM     62  C   UNL A   1      44.435  35.503  30.306  1.00  0.00     0.074 A 
ATOM     63  C   UNL A   1      45.237  30.485  34.125  1.00  0.00     0.029 A 
ATOM     64  N   UNL A   1      44.405  32.015  32.741  1.00  0.00    -0.354 N 
ATOM     65  N   UNL A   1      44.500  34.442  31.076  1.00  0.00    -0.248 NA
ATOM     66  C   UNL A   1      45.673  36.291  30.256  1.00  0.00     0.031 C 
ATOM     67  C   UNL A   1      46.224  31.446  33.880  1.00  0.00     0.029 A 
ATOM     68  C   UNL A   1      45.714  32.385  32.998  1.00  0.00     0.049 A 
ATOM     69  H   UNL A   1      43.785  32.503  32.153  1.00  0.00     0.167 HD
ATOM     70  C   UNL A   1      45.797  34.422  31.582  1.00  0.00     0.074 A 
ATOM     71  C   UNL A   1      46.481  35.568  31.019  1.00  0.00     0.031 C 
ATOM     72  C   UNL A   1      46.372  33.533  32.429  1.00  0.00     0.031 A 
BRANCH  59  73
ATOM     73  C   UNL A   1      42.612  28.964  34.233  1.00  0.00    -0.014 A 
ATOM     74  C   UNL A   1      42.811  27.684  33.683  1.00  0.00     0.010 A 
ATOM     75  C   UNL A   1      42.227  29.077  35.580  1.00  0.00     0.010 A 
ATOM     76  C   UNL A   1      42.589  26.539  34.454  1.00  0.00     0.020 A 
ATOM     77  C   UNL A   1      42.025  27.935  36.361  1.00  0.00     0.020 A 
ATOM     78  C   UNL A   1      42.190  26.673  35.787  1.00  0.00     0.054 A 
BRANCH  78  79
ATOM     79  S   UNL A   1      41.915  25.173  36.771  1.00  0.00     0.124 S 
ATOM     80  O   UNL A   1      42.124  24.121  35.780  1.00  0.00    -0.237 OA
ATOM     81  O   UNL A   1      42.940  25.274  37.806  1.00  0.00    -0.237 OA
ATOM     82  O   UNL A   1      40.540  25.319  37.246  1.00  0.00    -0.744 OA
ENDBRANCH  78  79
ENDBRANCH  59  73
BRANCH  60  83
ATOM     83  C   UNL A   1      43.405  37.231  28.653  1.00  0.00    -0.014 A 
ATOM     84  C   UNL A   1      44.209  37.251  27.500  1.00  0.00     0.010 A 
ATOM     85  C   UNL A   1      42.709  38.396  29.023  1.00  0.00     0.010 A 
ATOM     86  C   UNL A   1      44.327  38.419  26.740  1.00  0.00     0.020 A 
ATOM     87  C   UNL A   1      42.806  39.558  28.254  1.00  0.00     0.020 A 
ATOM     88  C   UNL A   1      43.625  39.565  27.122  1.00  0.00     0.054 A 
BRANCH  88  89
ATOM     89  S   UNL A   1      43.748  41.055  26.093  1.00  0.00     0.124 S 
ATOM     90  O   UNL A   1      44.111  42.072  27.074  1.00  0.00    -0.237 OA
ATOM     91  O   UNL A   1      44.791  40.695  25.136  1.00  0.00    -0.237 OA
ATOM     92  O   UNL A   1      42.409  41.185  25.522  1.00  0.00    -0.744 OA
ENDBRANCH  88  89
ENDBRANCH  60  83
BRANCH  72  93
ATOM     93  C   UNL A   1      47.821  33.749  32.770  1.00  0.00    -0.014 A 
ATOM     94  C   UNL A   1      48.846  33.261  31.942  1.00  0.00     0.010 A 
ATOM     95  C   UNL A   1      48.158  34.482  33.923  1.00  0.00     0.010 A 
ATOM     96  C   UNL A   1      50.186  33.463  32.284  1.00  0.00     0.020 A 
ATOM     97  C   UNL A   1      49.496  34.707  34.255  1.00  0.00     0.020 A 
ATOM     98  C   UNL A   1      50.502  34.178  33.444  1.00  0.00     0.054 A 
BRANCH  98  99
ATOM     99  S   UNL A   1      52.246  34.446  33.862  1.00  0.00     0.124 S 
ATOM    100  O   UNL A   1      52.269  34.121  35.285  1.00  0.00    -0.237 OA
ATOM    101  O   UNL A   1      52.938  33.500  32.990  1.00  0.00    -0.237 OA
ATOM    102  O   UNL A   1      52.464  35.855  33.539  1.00  0.00    -0.744 OA
ENDBRANCH  98  99
ENDBRANCH  72  93
ENDBRANCH  46  47
ENDBRANCH  39  41
ENDBRANCH  38  39
ENDBRANCH  37  38
ENDBRANCH  36  37
ENDBRANCH  35  36
ENDBRANCH  34  35
ENDBRANCH   1  34
TORSDOF 27
ENDMDL
