MODEL 1
REMARK VINA RESULT:      -9.9      0.000      0.000
REMARK SMILES Cc1ccc(S(=O)(=O)N2c3ccc(C(=O)OCCOCCOCCOCCOC(=O)c4ccc(-c5c6nc(c(-c7ccc(S(=O)(=O)[O-])cc7)c7ccc([nH]7)c(-c7ccc(S(=O)(=O)[O-])cc7)c7nc(c(-c8ccc(S(=O)(=O)[O-])cc8)c8ccc5[nH]8)C=C7)C=C6)cc4)cc3C[C@H]2C)cc1
REMARK SMILES IDX 23 1 22 2 21 3 20 4 19 5 18 6 17 7 16 8 14 9 15 10 13 11
REMARK SMILES IDX 9 12 10 13 94 14 11 15 92 16 93 17 95 18 12 19 91 20 6 21
REMARK SMILES IDX 7 22 8 23 5 24 1 25 2 26 3 27 97 28 4 29 96 30 24 31 25 32
REMARK SMILES IDX 26 33 27 34 28 35 29 36 30 37 31 38 32 39 90 40 33 41 89 42
REMARK SMILES IDX 34 43 35 44 36 45 83 46 37 47 88 48 82 49 84 50 38 51 87 52
REMARK SMILES IDX 81 53 80 54 39 56 69 57 50 58 68 59 51 60 54 61 67 62 85 63
REMARK SMILES IDX 52 64 53 65 66 67 86 68 55 69 40 70 41 71 49 72 42 73 48 74
REMARK SMILES IDX 43 75 44 76 45 77 46 78 47 79 70 80 71 81 79 82 72 83 78 84
REMARK SMILES IDX 73 85 74 86 75 87 76 88 77 89 56 90 57 91 65 92 58 93 64 94
REMARK SMILES IDX 59 95 60 96 61 97 62 98 63 99
REMARK H PARENT 84 55 54 66
REMARK Flexibility Score: inf
ROOT
ATOM      1  C   UNL A   1      32.620  29.616  24.941  1.00  0.00     0.188 C 
ENDROOT
BRANCH   1   2
ATOM      2  O   UNL A   1      32.051  29.092  23.754  1.00  0.00    -0.377 OA
BRANCH   2   3
ATOM      3  C   UNL A   1      30.759  29.529  23.388  1.00  0.00     0.188 C 
BRANCH   3   4
ATOM      4  C   UNL A   1      29.626  28.565  22.953  1.00  0.00     0.188 C 
BRANCH   4   5
ATOM      5  O   UNL A   1      29.717  27.155  22.974  1.00  0.00    -0.376 OA
BRANCH   5   6
ATOM      6  C   UNL A   1      29.546  26.518  24.216  1.00  0.00     0.202 C 
BRANCH   6   7
ATOM      7  C   UNL A   1      30.790  25.936  24.848  1.00  0.00     0.261 C 
BRANCH   7   8
ATOM      8  O   UNL A   1      30.533  24.549  25.039  1.00  0.00    -0.460 OA
BRANCH   8   9
ATOM      9  C   UNL A   1      30.594  23.859  23.912  1.00  0.00     0.338 C 
ATOM     10  O   UNL A   1      29.814  23.894  22.963  1.00  0.00    -0.246 OA
BRANCH   9  11
ATOM     11  C   UNL A   1      31.959  23.343  23.845  1.00  0.00     0.060 A 
ATOM     12  N   UNL A   1      35.808  21.905  24.393  1.00  0.00    -0.263 N 
ATOM     13  C   UNL A   1      34.480  22.278  23.945  1.00  0.00     0.055 A 
ATOM     14  C   UNL A   1      35.522  20.987  25.575  1.00  0.00     0.101 C 
ATOM     15  C   UNL A   1      34.134  22.986  22.808  1.00  0.00     0.028 A 
ATOM     16  C   UNL A   1      33.552  22.019  24.950  1.00  0.00    -0.021 A 
ATOM     17  C   UNL A   1      34.121  21.286  26.096  1.00  0.00     0.063 C 
ATOM     18  C   UNL A   1      35.621  19.549  25.050  1.00  0.00     0.032 C 
ATOM     19  C   UNL A   1      32.844  23.522  22.757  1.00  0.00     0.018 A 
ATOM     20  C   UNL A   1      32.295  22.548  24.927  1.00  0.00     0.021 A 
BRANCH  12  21
ATOM     21  S   UNL A   1      36.678  23.380  24.691  1.00  0.00     0.264 S 
ATOM     22  O   UNL A   1      35.763  24.315  25.320  1.00  0.00    -0.201 OA
ATOM     23  O   UNL A   1      37.376  23.732  23.469  1.00  0.00    -0.201 OA
BRANCH  21  24
ATOM     24  C   UNL A   1      37.950  23.127  25.902  1.00  0.00     0.088 A 
ATOM     25  C   UNL A   1      41.685  22.614  27.946  1.00  0.00     0.044 C 
ATOM     26  C   UNL A   1      40.358  22.771  27.270  1.00  0.00    -0.051 A 
ATOM     27  C   UNL A   1      39.822  21.722  26.517  1.00  0.00     0.005 A 
ATOM     28  C   UNL A   1      39.626  23.953  27.415  1.00  0.00     0.005 A 
ATOM     29  C   UNL A   1      38.635  21.908  25.813  1.00  0.00     0.022 A 
ATOM     30  C   UNL A   1      38.395  24.108  26.779  1.00  0.00     0.022 A 
ENDBRANCH  21  24
ENDBRANCH  12  21
ENDBRANCH   9  11
ENDBRANCH   8   9
ENDBRANCH   7   8
ENDBRANCH   6   7
ENDBRANCH   5   6
ENDBRANCH   4   5
ENDBRANCH   3   4
ENDBRANCH   2   3
ENDBRANCH   1   2
BRANCH   1  31
ATOM     31  C   UNL A   1      31.755  30.345  25.925  1.00  0.00     0.188 C 
BRANCH  31  32
ATOM     32  O   UNL A   1      32.351  30.271  27.217  1.00  0.00    -0.376 OA
BRANCH  32  33
ATOM     33  C   UNL A   1      33.310  31.302  27.428  1.00  0.00     0.202 C 
BRANCH  33  34
ATOM     34  C   UNL A   1      34.753  30.810  27.664  1.00  0.00     0.261 C 
BRANCH  34  35
ATOM     35  O   UNL A   1      35.146  31.133  29.011  1.00  0.00    -0.460 OA
BRANCH  35  36
ATOM     36  C   UNL A   1      36.333  31.792  29.153  1.00  0.00     0.338 C 
ATOM     37  O   UNL A   1      36.465  33.000  29.170  1.00  0.00    -0.246 OA
BRANCH  36  38
ATOM     38  C   UNL A   1      37.438  30.788  29.162  1.00  0.00     0.060 A 
ATOM     39  C   UNL A   1      37.224  29.451  29.538  1.00  0.00     0.016 A 
ATOM     40  C   UNL A   1      38.739  31.255  29.018  1.00  0.00     0.016 A 
ATOM     41  C   UNL A   1      38.310  28.634  29.914  1.00  0.00     0.010 A 
ATOM     42  C   UNL A   1      39.784  30.476  29.457  1.00  0.00     0.010 A 
ATOM     43  C   UNL A   1      39.594  29.174  29.953  1.00  0.00    -0.014 A 
BRANCH  43  44
ATOM     44  C   UNL A   1      40.785  28.579  30.607  1.00  0.00     0.031 A 
ATOM     45  C   UNL A   1      41.621  27.624  29.804  1.00  0.00     0.074 A 
ATOM     46  C   UNL A   1      41.306  29.245  31.674  1.00  0.00     0.049 A 
ATOM     47  N   UNL A   1      42.771  27.155  30.141  1.00  0.00    -0.248 NA
ATOM     48  C   UNL A   1      41.259  27.200  28.451  1.00  0.00     0.031 C 
ATOM     49  C   UNL A   1      42.672  29.258  32.198  1.00  0.00     0.029 A 
ATOM     50  N   UNL A   1      40.673  30.136  32.532  1.00  0.00    -0.354 N 
ATOM     51  C   UNL A   1      43.446  26.762  28.992  1.00  0.00     0.074 A 
ATOM     52  C   UNL A   1      42.427  26.756  27.973  1.00  0.00     0.031 C 
ATOM     53  C   UNL A   1      42.757  29.974  33.333  1.00  0.00     0.029 A 
ATOM     54  C   UNL A   1      41.399  30.238  33.729  1.00  0.00     0.049 A 
ATOM     55  H   UNL A   1      39.841  30.622  32.330  1.00  0.00     0.167 HD
ATOM     56  C   UNL A   1      44.816  26.649  29.025  1.00  0.00     0.031 A 
ATOM     57  C   UNL A   1      40.827  29.704  34.839  1.00  0.00     0.031 A 
ATOM     58  C   UNL A   1      45.320  26.787  30.424  1.00  0.00     0.049 A 
ATOM     59  C   UNL A   1      41.540  28.346  35.075  1.00  0.00     0.074 A 
ATOM     60  C   UNL A   1      46.277  27.557  31.065  1.00  0.00     0.029 A 
ATOM     61  N   UNL A   1      44.592  26.190  31.473  1.00  0.00    -0.354 N 
ATOM     62  N   UNL A   1      42.041  27.580  34.115  1.00  0.00    -0.248 NA
ATOM     63  C   UNL A   1      42.108  27.992  36.378  1.00  0.00     0.031 C 
ATOM     64  C   UNL A   1      45.924  27.626  32.457  1.00  0.00     0.029 A 
ATOM     65  C   UNL A   1      44.806  26.827  32.690  1.00  0.00     0.049 A 
ATOM     66  H   UNL A   1      44.000  25.412  31.358  1.00  0.00     0.167 HD
ATOM     67  C   UNL A   1      43.128  26.871  34.594  1.00  0.00     0.074 A 
ATOM     68  C   UNL A   1      43.056  27.097  36.039  1.00  0.00     0.031 C 
ATOM     69  C   UNL A   1      44.196  26.307  33.922  1.00  0.00     0.031 A 
BRANCH  56  70
ATOM     70  C   UNL A   1      45.720  26.646  27.764  1.00  0.00    -0.014 A 
ATOM     71  C   UNL A   1      46.453  25.491  27.397  1.00  0.00     0.010 A 
ATOM     72  C   UNL A   1      45.923  27.747  26.898  1.00  0.00     0.010 A 
ATOM     73  C   UNL A   1      47.296  25.432  26.261  1.00  0.00     0.020 A 
ATOM     74  C   UNL A   1      46.760  27.707  25.757  1.00  0.00     0.020 A 
ATOM     75  C   UNL A   1      47.434  26.540  25.433  1.00  0.00     0.054 A 
BRANCH  75  76
ATOM     76  S   UNL A   1      48.425  26.416  23.912  1.00  0.00     0.124 S 
ATOM     77  O   UNL A   1      47.923  25.190  23.296  1.00  0.00    -0.237 OA
ATOM     78  O   UNL A   1      48.089  27.653  23.213  1.00  0.00    -0.237 OA
ATOM     79  O   UNL A   1      49.803  26.341  24.397  1.00  0.00    -0.744 OA
ENDBRANCH  75  76
ENDBRANCH  56  70
BRANCH  57  80
ATOM     80  C   UNL A   1      39.444  30.335  34.978  1.00  0.00    -0.014 A 
ATOM     81  C   UNL A   1      39.473  31.683  35.459  1.00  0.00     0.010 A 
ATOM     82  C   UNL A   1      38.358  30.015  34.133  1.00  0.00     0.010 A 
ATOM     83  C   UNL A   1      38.617  32.689  34.961  1.00  0.00     0.020 A 
ATOM     84  C   UNL A   1      37.482  31.027  33.639  1.00  0.00     0.020 A 
ATOM     85  C   UNL A   1      37.662  32.365  34.005  1.00  0.00     0.054 A 
BRANCH  85  86
ATOM     86  S   UNL A   1      36.755  33.722  33.174  1.00  0.00     0.124 S 
ATOM     87  O   UNL A   1      36.598  34.708  34.240  1.00  0.00    -0.237 OA
ATOM     88  O   UNL A   1      37.678  34.108  32.108  1.00  0.00    -0.237 OA
ATOM     89  O   UNL A   1      35.521  33.082  32.733  1.00  0.00    -0.744 OA
ENDBRANCH  85  86
ENDBRANCH  57  80
BRANCH  69  90
ATOM     90  C   UNL A   1      44.820  25.021  34.424  1.00  0.00    -0.014 A 
ATOM     91  C   UNL A   1      45.897  25.025  35.318  1.00  0.00     0.010 A 
ATOM     92  C   UNL A   1      44.152  23.784  34.214  1.00  0.00     0.010 A 
ATOM     93  C   UNL A   1      46.312  23.850  35.943  1.00  0.00     0.020 A 
ATOM     94  C   UNL A   1      44.522  22.619  34.877  1.00  0.00     0.020 A 
ATOM     95  C   UNL A   1      45.619  22.659  35.723  1.00  0.00     0.054 A 
BRANCH  95  96
ATOM     96  S   UNL A   1      46.140  21.175  36.604  1.00  0.00     0.124 S 
ATOM     97  O   UNL A   1      47.573  21.159  36.328  1.00  0.00    -0.237 OA
ATOM     98  O   UNL A   1      45.769  21.478  37.986  1.00  0.00    -0.237 OA
ATOM     99  O   UNL A   1      45.366  20.107  35.978  1.00  0.00    -0.744 OA
ENDBRANCH  95  96
ENDBRANCH  69  90
ENDBRANCH  43  44
ENDBRANCH  36  38
ENDBRANCH  35  36
ENDBRANCH  34  35
ENDBRANCH  33  34
ENDBRANCH  32  33
ENDBRANCH  31  32
ENDBRANCH   1  31
TORSDOF 25
ENDMDL
MODEL 2
REMARK VINA RESULT:      -9.5      5.945      9.427
REMARK SMILES Cc1ccc(S(=O)(=O)N2c3ccc(C(=O)OCCOCCOCCOCCOC(=O)c4ccc(-c5c6nc(c(-c7ccc(S(=O)(=O)[O-])cc7)c7ccc([nH]7)c(-c7ccc(S(=O)(=O)[O-])cc7)c7nc(c(-c8ccc(S(=O)(=O)[O-])cc8)c8ccc5[nH]8)C=C7)C=C6)cc4)cc3C[C@H]2C)cc1
REMARK SMILES IDX 23 1 22 2 21 3 20 4 19 5 18 6 17 7 16 8 14 9 15 10 13 11
REMARK SMILES IDX 9 12 10 13 94 14 11 15 92 16 93 17 95 18 12 19 91 20 6 21
REMARK SMILES IDX 7 22 8 23 5 24 1 25 2 26 3 27 97 28 4 29 96 30 24 31 25 32
REMARK SMILES IDX 26 33 27 34 28 35 29 36 30 37 31 38 32 39 90 40 33 41 89 42
REMARK SMILES IDX 34 43 35 44 36 45 83 46 37 47 88 48 82 49 84 50 38 51 87 52
REMARK SMILES IDX 81 53 80 54 39 56 69 57 50 58 68 59 51 60 54 61 67 62 85 63
REMARK SMILES IDX 52 64 53 65 66 67 86 68 55 69 40 70 41 71 49 72 42 73 48 74
REMARK SMILES IDX 43 75 44 76 45 77 46 78 47 79 70 80 71 81 79 82 72 83 78 84
REMARK SMILES IDX 73 85 74 86 75 87 76 88 77 89 56 90 57 91 65 92 58 93 64 94
REMARK SMILES IDX 59 95 60 96 61 97 62 98 63 99
REMARK H PARENT 84 55 54 66
REMARK Flexibility Score: inf
ROOT
ATOM      1  C   UNL A   1      34.610  33.348  32.025  1.00  0.00     0.188 C 
ENDROOT
BRANCH   1   2
ATOM      2  O   UNL A   1      34.784  34.208  30.913  1.00  0.00    -0.377 OA
BRANCH   2   3
ATOM      3  C   UNL A   1      34.504  33.696  29.627  1.00  0.00     0.188 C 
BRANCH   3   4
ATOM      4  C   UNL A   1      34.546  32.184  29.286  1.00  0.00     0.188 C 
BRANCH   4   5
ATOM      5  O   UNL A   1      34.122  31.624  28.060  1.00  0.00    -0.376 OA
BRANCH   5   6
ATOM      6  C   UNL A   1      34.668  30.379  27.699  1.00  0.00     0.202 C 
BRANCH   6   7
ATOM      7  C   UNL A   1      34.031  29.684  26.518  1.00  0.00     0.261 C 
BRANCH   7   8
ATOM      8  O   UNL A   1      33.507  28.455  27.008  1.00  0.00    -0.460 OA
BRANCH   8   9
ATOM      9  C   UNL A   1      32.524  27.985  26.258  1.00  0.00     0.338 C 
ATOM     10  O   UNL A   1      31.789  28.612  25.498  1.00  0.00    -0.246 OA
BRANCH   9  11
ATOM     11  C   UNL A   1      32.729  26.540  26.208  1.00  0.00     0.060 A 
ATOM     12  N   UNL A   1      33.664  22.576  25.434  1.00  0.00    -0.263 N 
ATOM     13  C   UNL A   1      33.315  23.874  25.978  1.00  0.00     0.055 A 
ATOM     14  C   UNL A   1      35.085  22.792  24.928  1.00  0.00     0.101 C 
ATOM     15  C   UNL A   1      32.187  24.217  26.703  1.00  0.00     0.028 A 
ATOM     16  C   UNL A   1      34.180  24.844  25.479  1.00  0.00    -0.021 A 
ATOM     17  C   UNL A   1      35.301  24.284  24.702  1.00  0.00     0.063 C 
ATOM     18  C   UNL A   1      36.026  22.256  26.016  1.00  0.00     0.032 C 
ATOM     19  C   UNL A   1      31.896  25.578  26.824  1.00  0.00     0.018 A 
ATOM     20  C   UNL A   1      33.903  26.177  25.572  1.00  0.00     0.021 A 
BRANCH  12  21
ATOM     21  S   UNL A   1      32.435  22.161  24.276  1.00  0.00     0.264 S 
ATOM     22  O   UNL A   1      31.268  21.708  25.010  1.00  0.00    -0.201 OA
ATOM     23  O   UNL A   1      33.051  21.320  23.268  1.00  0.00    -0.201 OA
BRANCH  21  24
ATOM     24  C   UNL A   1      31.876  23.604  23.407  1.00  0.00     0.088 A 
ATOM     25  C   UNL A   1      30.746  27.582  22.274  1.00  0.00     0.044 C 
ATOM     26  C   UNL A   1      31.113  26.175  22.633  1.00  0.00    -0.051 A 
ATOM     27  C   UNL A   1      30.261  25.406  23.431  1.00  0.00     0.005 A 
ATOM     28  C   UNL A   1      32.292  25.606  22.143  1.00  0.00     0.005 A 
ATOM     29  C   UNL A   1      30.653  24.134  23.840  1.00  0.00     0.022 A 
ATOM     30  C   UNL A   1      32.643  24.301  22.483  1.00  0.00     0.022 A 
ENDBRANCH  21  24
ENDBRANCH  12  21
ENDBRANCH   9  11
ENDBRANCH   8   9
ENDBRANCH   7   8
ENDBRANCH   6   7
ENDBRANCH   5   6
ENDBRANCH   4   5
ENDBRANCH   3   4
ENDBRANCH   2   3
ENDBRANCH   1   2
BRANCH   1  31
ATOM     31  C   UNL A   1      35.782  33.007  32.897  1.00  0.00     0.188 C 
BRANCH  31  32
ATOM     32  O   UNL A   1      36.014  34.077  33.808  1.00  0.00    -0.376 OA
BRANCH  32  33
ATOM     33  C   UNL A   1      36.329  33.612  35.117  1.00  0.00     0.202 C 
BRANCH  33  34
ATOM     34  C   UNL A   1      37.665  34.132  35.688  1.00  0.00     0.261 C 
BRANCH  34  35
ATOM     35  O   UNL A   1      38.753  33.521  34.969  1.00  0.00    -0.460 OA
BRANCH  35  36
ATOM     36  C   UNL A   1      39.992  34.052  35.181  1.00  0.00     0.338 C 
ATOM     37  O   UNL A   1      40.529  34.165  36.267  1.00  0.00    -0.246 OA
BRANCH  36  38
ATOM     38  C   UNL A   1      40.517  34.573  33.885  1.00  0.00     0.060 A 
ATOM     39  C   UNL A   1      39.848  34.348  32.669  1.00  0.00     0.016 A 
ATOM     40  C   UNL A   1      41.808  35.086  33.867  1.00  0.00     0.016 A 
ATOM     41  C   UNL A   1      40.530  34.495  31.443  1.00  0.00     0.010 A 
ATOM     42  C   UNL A   1      42.487  35.154  32.673  1.00  0.00     0.010 A 
ATOM     43  C   UNL A   1      41.885  34.821  31.446  1.00  0.00    -0.014 A 
BRANCH  43  44
ATOM     44  C   UNL A   1      42.823  34.714  30.302  1.00  0.00     0.031 A 
ATOM     45  C   UNL A   1      43.389  33.359  29.985  1.00  0.00     0.074 A 
ATOM     46  C   UNL A   1      42.764  35.690  29.356  1.00  0.00     0.049 A 
ATOM     47  N   UNL A   1      44.069  33.047  28.939  1.00  0.00    -0.248 NA
ATOM     48  C   UNL A   1      43.120  32.177  30.807  1.00  0.00     0.031 C 
ATOM     49  C   UNL A   1      43.120  35.647  27.937  1.00  0.00     0.029 A 
ATOM     50  N   UNL A   1      42.298  36.993  29.483  1.00  0.00    -0.354 N 
ATOM     51  C   UNL A   1      43.965  31.677  28.733  1.00  0.00     0.074 A 
ATOM     52  C   UNL A   1      43.412  31.179  29.967  1.00  0.00     0.031 C 
ATOM     53  C   UNL A   1      43.004  36.858  27.363  1.00  0.00     0.029 A 
ATOM     54  C   UNL A   1      42.818  37.785  28.447  1.00  0.00     0.049 A 
ATOM     55  H   UNL A   1      41.696  37.312  30.194  1.00  0.00     0.167 HD
ATOM     56  C   UNL A   1      44.212  31.167  27.479  1.00  0.00     0.031 A 
ATOM     57  C   UNL A   1      43.737  38.723  28.795  1.00  0.00     0.031 A 
ATOM     58  C   UNL A   1      44.769  32.224  26.584  1.00  0.00     0.049 A 
ATOM     59  C   UNL A   1      45.117  38.135  28.399  1.00  0.00     0.074 A 
ATOM     60  C   UNL A   1      44.468  32.723  25.327  1.00  0.00     0.029 A 
ATOM     61  N   UNL A   1      45.702  33.142  27.109  1.00  0.00    -0.354 N 
ATOM     62  N   UNL A   1      45.412  36.841  28.392  1.00  0.00    -0.248 NA
ATOM     63  C   UNL A   1      46.073  38.895  27.591  1.00  0.00     0.031 C 
ATOM     64  C   UNL A   1      44.999  34.056  25.245  1.00  0.00     0.029 A 
ATOM     65  C   UNL A   1      45.706  34.344  26.412  1.00  0.00     0.049 A 
ATOM     66  H   UNL A   1      46.283  32.953  27.881  1.00  0.00     0.167 HD
ATOM     67  C   UNL A   1      46.362  36.579  27.422  1.00  0.00     0.074 A 
ATOM     68  C   UNL A   1      46.807  37.917  27.026  1.00  0.00     0.031 C 
ATOM     69  C   UNL A   1      46.664  35.404  26.758  1.00  0.00     0.031 A 
BRANCH  56  70
ATOM     70  C   UNL A   1      43.734  29.772  26.996  1.00  0.00    -0.014 A 
ATOM     71  C   UNL A   1      44.572  28.637  27.108  1.00  0.00     0.010 A 
ATOM     72  C   UNL A   1      42.481  29.497  26.399  1.00  0.00     0.010 A 
ATOM     73  C   UNL A   1      44.191  27.341  26.681  1.00  0.00     0.020 A 
ATOM     74  C   UNL A   1      42.081  28.210  25.967  1.00  0.00     0.020 A 
ATOM     75  C   UNL A   1      42.935  27.129  26.125  1.00  0.00     0.054 A 
BRANCH  75  76
ATOM     76  S   UNL A   1      42.412  25.442  25.689  1.00  0.00     0.124 S 
ATOM     77  O   UNL A   1      42.326  24.783  26.989  1.00  0.00    -0.237 OA
ATOM     78  O   UNL A   1      41.136  25.670  25.015  1.00  0.00    -0.237 OA
ATOM     79  O   UNL A   1      43.484  24.956  24.822  1.00  0.00    -0.744 OA
ENDBRANCH  75  76
ENDBRANCH  56  70
BRANCH  57  80
ATOM     80  C   UNL A   1      43.106  39.585  29.885  1.00  0.00    -0.014 A 
ATOM     81  C   UNL A   1      43.937  39.756  31.037  1.00  0.00     0.010 A 
ATOM     82  C   UNL A   1      42.219  40.651  29.613  1.00  0.00     0.010 A 
ATOM     83  C   UNL A   1      44.037  40.982  31.731  1.00  0.00     0.020 A 
ATOM     84  C   UNL A   1      42.306  41.886  30.321  1.00  0.00     0.020 A 
ATOM     85  C   UNL A   1      43.261  42.062  31.329  1.00  0.00     0.054 A 
BRANCH  85  86
ATOM     86  S   UNL A   1      43.603  43.709  32.055  1.00  0.00     0.124 S 
ATOM     87  O   UNL A   1      44.264  44.415  30.960  1.00  0.00    -0.237 OA
ATOM     88  O   UNL A   1      42.262  44.192  32.380  1.00  0.00    -0.237 OA
ATOM     89  O   UNL A   1      44.453  43.403  33.199  1.00  0.00    -0.744 OA
ENDBRANCH  85  86
ENDBRANCH  57  80
BRANCH  69  90
ATOM     90  C   UNL A   1      48.092  35.102  26.352  1.00  0.00    -0.014 A 
ATOM     91  C   UNL A   1      48.741  33.931  26.761  1.00  0.00     0.010 A 
ATOM     92  C   UNL A   1      48.709  35.866  25.325  1.00  0.00     0.010 A 
ATOM     93  C   UNL A   1      49.962  33.559  26.202  1.00  0.00     0.020 A 
ATOM     94  C   UNL A   1      49.899  35.472  24.721  1.00  0.00     0.020 A 
ATOM     95  C   UNL A   1      50.528  34.328  25.183  1.00  0.00     0.054 A 
BRANCH  95  96
ATOM     96  S   UNL A   1      52.072  33.776  24.434  1.00  0.00     0.124 S 
ATOM     97  O   UNL A   1      52.492  34.974  23.713  1.00  0.00    -0.237 OA
ATOM     98  O   UNL A   1      52.885  33.426  25.598  1.00  0.00    -0.237 OA
ATOM     99  O   UNL A   1      51.672  32.646  23.599  1.00  0.00    -0.744 OA
ENDBRANCH  95  96
ENDBRANCH  69  90
ENDBRANCH  43  44
ENDBRANCH  36  38
ENDBRANCH  35  36
ENDBRANCH  34  35
ENDBRANCH  33  34
ENDBRANCH  32  33
ENDBRANCH  31  32
ENDBRANCH   1  31
TORSDOF 25
ENDMDL
MODEL 3
REMARK VINA RESULT:      -9.0      4.401      7.354
REMARK SMILES Cc1ccc(S(=O)(=O)N2c3ccc(C(=O)OCCOCCOCCOCCOC(=O)c4ccc(-c5c6nc(c(-c7ccc(S(=O)(=O)[O-])cc7)c7ccc([nH]7)c(-c7ccc(S(=O)(=O)[O-])cc7)c7nc(c(-c8ccc(S(=O)(=O)[O-])cc8)c8ccc5[nH]8)C=C7)C=C6)cc4)cc3C[C@H]2C)cc1
REMARK SMILES IDX 23 1 22 2 21 3 20 4 19 5 18 6 17 7 16 8 14 9 15 10 13 11
REMARK SMILES IDX 9 12 10 13 94 14 11 15 92 16 93 17 95 18 12 19 91 20 6 21
REMARK SMILES IDX 7 22 8 23 5 24 1 25 2 26 3 27 97 28 4 29 96 30 24 31 25 32
REMARK SMILES IDX 26 33 27 34 28 35 29 36 30 37 31 38 32 39 90 40 33 41 89 42
REMARK SMILES IDX 34 43 35 44 36 45 83 46 37 47 88 48 82 49 84 50 38 51 87 52
REMARK SMILES IDX 81 53 80 54 39 56 69 57 50 58 68 59 51 60 54 61 67 62 85 63
REMARK SMILES IDX 52 64 53 65 66 67 86 68 55 69 40 70 41 71 49 72 42 73 48 74
REMARK SMILES IDX 43 75 44 76 45 77 46 78 47 79 70 80 71 81 79 82 72 83 78 84
REMARK SMILES IDX 73 85 74 86 75 87 76 88 77 89 56 90 57 91 65 92 58 93 64 94
REMARK SMILES IDX 59 95 60 96 61 97 62 98 63 99
REMARK H PARENT 84 55 54 66
REMARK Flexibility Score: inf
ROOT
ATOM      1  C   UNL A   1      33.030  35.585  31.054  1.00  0.00     0.188 C 
ENDROOT
BRANCH   1   2
ATOM      2  O   UNL A   1      32.762  34.805  29.902  1.00  0.00    -0.377 OA
BRANCH   2   3
ATOM      3  C   UNL A   1      33.351  35.199  28.681  1.00  0.00     0.188 C 
BRANCH   3   4
ATOM      4  C   UNL A   1      34.564  34.471  28.047  1.00  0.00     0.188 C 
BRANCH   4   5
ATOM      5  O   UNL A   1      34.547  33.136  27.581  1.00  0.00    -0.376 OA
BRANCH   5   6
ATOM      6  C   UNL A   1      35.189  32.170  28.377  1.00  0.00     0.202 C 
BRANCH   6   7
ATOM      7  C   UNL A   1      35.611  30.898  27.679  1.00  0.00     0.261 C 
BRANCH   7   8
ATOM      8  O   UNL A   1      34.518  30.510  26.854  1.00  0.00    -0.460 OA
BRANCH   8   9
ATOM      9  C   UNL A   1      34.141  29.259  27.063  1.00  0.00     0.338 C 
ATOM     10  O   UNL A   1      34.110  28.650  28.130  1.00  0.00    -0.246 OA
BRANCH   9  11
ATOM     11  C   UNL A   1      33.408  28.867  25.862  1.00  0.00     0.060 A 
ATOM     12  N   UNL A   1      31.280  27.091  22.779  1.00  0.00    -0.263 N 
ATOM     13  C   UNL A   1      31.922  27.958  23.749  1.00  0.00     0.055 A 
ATOM     14  C   UNL A   1      30.303  26.293  23.633  1.00  0.00     0.101 C 
ATOM     15  C   UNL A   1      32.798  29.002  23.508  1.00  0.00     0.028 A 
ATOM     16  C   UNL A   1      31.719  27.462  25.033  1.00  0.00    -0.021 A 
ATOM     17  C   UNL A   1      30.780  26.326  25.081  1.00  0.00     0.063 C 
ATOM     18  C   UNL A   1      28.935  26.970  23.486  1.00  0.00     0.032 C 
ATOM     19  C   UNL A   1      33.549  29.468  24.590  1.00  0.00     0.018 A 
ATOM     20  C   UNL A   1      32.456  27.891  26.099  1.00  0.00     0.021 A 
BRANCH  12  21
ATOM     21  S   UNL A   1      32.544  26.228  21.953  1.00  0.00     0.264 S 
ATOM     22  O   UNL A   1      33.654  27.143  21.761  1.00  0.00    -0.201 OA
ATOM     23  O   UNL A   1      31.941  25.545  20.825  1.00  0.00    -0.201 OA
BRANCH  21  24
ATOM     24  C   UNL A   1      33.205  24.943  22.983  1.00  0.00     0.088 A 
ATOM     25  C   UNL A   1      35.447  21.658  24.588  1.00  0.00     0.044 C 
ATOM     26  C   UNL A   1      34.628  22.796  24.060  1.00  0.00    -0.051 A 
ATOM     27  C   UNL A   1      33.610  22.562  23.131  1.00  0.00     0.005 A 
ATOM     28  C   UNL A   1      34.849  24.098  24.520  1.00  0.00     0.005 A 
ATOM     29  C   UNL A   1      32.919  23.634  22.572  1.00  0.00     0.022 A 
ATOM     30  C   UNL A   1      34.097  25.162  24.024  1.00  0.00     0.022 A 
ENDBRANCH  21  24
ENDBRANCH  12  21
ENDBRANCH   9  11
ENDBRANCH   8   9
ENDBRANCH   7   8
ENDBRANCH   6   7
ENDBRANCH   5   6
ENDBRANCH   4   5
ENDBRANCH   3   4
ENDBRANCH   2   3
ENDBRANCH   1   2
BRANCH   1  31
ATOM     31  C   UNL A   1      33.970  35.071  32.103  1.00  0.00     0.188 C 
BRANCH  31  32
ATOM     32  O   UNL A   1      34.036  33.651  32.017  1.00  0.00    -0.376 OA
BRANCH  32  33
ATOM     33  C   UNL A   1      34.754  33.078  33.105  1.00  0.00     0.202 C 
BRANCH  33  34
ATOM     34  C   UNL A   1      35.928  32.162  32.698  1.00  0.00     0.261 C 
BRANCH  34  35
ATOM     35  O   UNL A   1      36.511  32.658  31.479  1.00  0.00    -0.460 OA
BRANCH  35  36
ATOM     36  C   UNL A   1      37.682  33.348  31.605  1.00  0.00     0.338 C 
ATOM     37  O   UNL A   1      37.777  34.557  31.690  1.00  0.00    -0.246 OA
BRANCH  36  38
ATOM     38  C   UNL A   1      38.818  32.385  31.500  1.00  0.00     0.060 A 
ATOM     39  C   UNL A   1      39.907  32.422  32.388  1.00  0.00     0.016 A 
ATOM     40  C   UNL A   1      38.897  31.596  30.359  1.00  0.00     0.016 A 
ATOM     41  C   UNL A   1      41.122  31.790  32.052  1.00  0.00     0.010 A 
ATOM     42  C   UNL A   1      40.107  31.047  30.005  1.00  0.00     0.010 A 
ATOM     43  C   UNL A   1      41.251  31.166  30.813  1.00  0.00    -0.014 A 
BRANCH  43  44
ATOM     44  C   UNL A   1      42.515  30.734  30.168  1.00  0.00     0.031 A 
ATOM     45  C   UNL A   1      42.862  29.273  30.214  1.00  0.00     0.074 A 
ATOM     46  C   UNL A   1      43.035  31.550  29.210  1.00  0.00     0.049 A 
ATOM     47  N   UNL A   1      43.813  28.699  29.566  1.00  0.00    -0.248 NA
ATOM     48  C   UNL A   1      42.053  28.291  30.938  1.00  0.00     0.031 C 
ATOM     49  C   UNL A   1      43.896  31.233  28.071  1.00  0.00     0.029 A 
ATOM     50  N   UNL A   1      42.841  32.915  29.036  1.00  0.00    -0.354 N 
ATOM     51  C   UNL A   1      43.512  27.348  29.439  1.00  0.00     0.074 A 
ATOM     52  C   UNL A   1      42.432  27.141  30.370  1.00  0.00     0.031 C 
ATOM     53  C   UNL A   1      44.270  32.343  27.411  1.00  0.00     0.029 A 
ATOM     54  C   UNL A   1      43.876  33.444  28.249  1.00  0.00     0.049 A 
ATOM     55  H   UNL A   1      42.092  33.432  29.410  1.00  0.00     0.167 HD
ATOM     56  C   UNL A   1      44.114  26.618  28.440  1.00  0.00     0.031 A 
ATOM     57  C   UNL A   1      44.762  34.263  28.873  1.00  0.00     0.031 A 
ATOM     58  C   UNL A   1      45.184  27.421  27.777  1.00  0.00     0.049 A 
ATOM     59  C   UNL A   1      46.031  33.406  29.125  1.00  0.00     0.074 A 
ATOM     60  C   UNL A   1      45.507  27.764  26.473  1.00  0.00     0.029 A 
ATOM     61  N   UNL A   1      46.009  28.246  28.568  1.00  0.00    -0.354 N 
ATOM     62  N   UNL A   1      46.027  32.096  29.337  1.00  0.00    -0.248 NA
ATOM     63  C   UNL A   1      47.362  33.869  28.727  1.00  0.00     0.031 C 
ATOM     64  C   UNL A   1      46.295  28.965  26.517  1.00  0.00     0.029 A 
ATOM     65  C   UNL A   1      46.536  29.310  27.846  1.00  0.00     0.049 A 
ATOM     66  H   UNL A   1      46.191  28.087  29.523  1.00  0.00     0.167 HD
ATOM     67  C   UNL A   1      47.201  31.538  28.866  1.00  0.00     0.074 A 
ATOM     68  C   UNL A   1      48.035  32.710  28.588  1.00  0.00     0.031 C 
ATOM     69  C   UNL A   1      47.483  30.242  28.475  1.00  0.00     0.031 A 
BRANCH  56  70
ATOM     70  C   UNL A   1      43.580  25.261  27.909  1.00  0.00    -0.014 A 
ATOM     71  C   UNL A   1      44.454  24.315  27.321  1.00  0.00     0.010 A 
ATOM     72  C   UNL A   1      42.227  24.849  27.931  1.00  0.00     0.010 A 
ATOM     73  C   UNL A   1      44.022  23.065  26.817  1.00  0.00     0.020 A 
ATOM     74  C   UNL A   1      41.776  23.603  27.434  1.00  0.00     0.020 A 
ATOM     75  C   UNL A   1      42.682  22.705  26.890  1.00  0.00     0.054 A 
BRANCH  75  76
ATOM     76  S   UNL A   1      42.158  21.049  26.349  1.00  0.00     0.124 S 
ATOM     77  O   UNL A   1      42.246  20.262  27.576  1.00  0.00    -0.237 OA
ATOM     78  O   UNL A   1      40.806  21.291  25.853  1.00  0.00    -0.237 OA
ATOM     79  O   UNL A   1      43.134  20.693  25.319  1.00  0.00    -0.744 OA
ENDBRANCH  75  76
ENDBRANCH  56  70
BRANCH  57  80
ATOM     80  C   UNL A   1      43.953  35.373  29.539  1.00  0.00    -0.014 A 
ATOM     81  C   UNL A   1      44.417  35.717  30.848  1.00  0.00     0.010 A 
ATOM     82  C   UNL A   1      43.336  36.421  28.819  1.00  0.00     0.010 A 
ATOM     83  C   UNL A   1      44.465  37.048  31.315  1.00  0.00     0.020 A 
ATOM     84  C   UNL A   1      43.370  37.765  29.294  1.00  0.00     0.020 A 
ATOM     85  C   UNL A   1      43.994  38.076  30.507  1.00  0.00     0.054 A 
BRANCH  85  86
ATOM     86  S   UNL A   1      44.317  39.808  31.009  1.00  0.00     0.124 S 
ATOM     87  O   UNL A   1      44.291  39.733  32.468  1.00  0.00    -0.237 OA
ATOM     88  O   UNL A   1      45.635  40.061  30.429  1.00  0.00    -0.237 OA
ATOM     89  O   UNL A   1      43.214  40.545  30.405  1.00  0.00    -0.744 OA
ENDBRANCH  85  86
ENDBRANCH  57  80
BRANCH  69  90
ATOM     90  C   UNL A   1      48.859  29.655  28.715  1.00  0.00    -0.014 A 
ATOM     91  C   UNL A   1      49.848  29.667  27.725  1.00  0.00     0.010 A 
ATOM     92  C   UNL A   1      49.263  29.325  30.037  1.00  0.00     0.010 A 
ATOM     93  C   UNL A   1      51.167  29.332  28.028  1.00  0.00     0.020 A 
ATOM     94  C   UNL A   1      50.587  29.046  30.360  1.00  0.00     0.020 A 
ATOM     95  C   UNL A   1      51.527  29.031  29.343  1.00  0.00     0.054 A 
BRANCH  95  96
ATOM     96  S   UNL A   1      53.255  28.674  29.710  1.00  0.00     0.124 S 
ATOM     97  O   UNL A   1      53.413  27.351  29.112  1.00  0.00    -0.237 OA
ATOM     98  O   UNL A   1      53.958  29.760  29.029  1.00  0.00    -0.237 OA
ATOM     99  O   UNL A   1      53.319  28.717  31.168  1.00  0.00    -0.744 OA
ENDBRANCH  95  96
ENDBRANCH  69  90
ENDBRANCH  43  44
ENDBRANCH  36  38
ENDBRANCH  35  36
ENDBRANCH  34  35
ENDBRANCH  33  34
ENDBRANCH  32  33
ENDBRANCH  31  32
ENDBRANCH   1  31
TORSDOF 25
ENDMDL
