MODEL 1
REMARK VINA RESULT:      -9.1      0.000      0.000
REMARK SMILES O=C(OCCOCCOCCOCCOC(=O)c1ccc(-c2cccc(O)c2)cc1Cl)c1ccc(-c2c3nc(c(-c4ccc(S(=O)(=O)[O-])cc4)c4ccc([nH]4)c(-c4ccc(S(=O)(=O)[O-])cc4)c4nc(c(-c5ccc(S(=O)(=O)[O-])cc5)c5ccc2[nH]5)C=C4)C=C3)cc1
REMARK SMILES IDX 8 1 7 2 6 3 5 4 4 5 3 6 2 7 1 8 32 9 33 10 91 11 34 12 90 13
REMARK SMILES IDX 35 14 36 15 37 16 84 17 38 18 89 19 83 20 85 21 39 22 88 23
REMARK SMILES IDX 82 24 81 25 40 27 70 28 51 29 69 30 52 31 55 32 68 33 86 34
REMARK SMILES IDX 53 35 54 36 67 38 87 39 56 40 41 41 42 42 50 43 43 44 49 45
REMARK SMILES IDX 44 46 45 47 46 48 47 49 48 50 71 51 72 52 80 53 73 54 79 55
REMARK SMILES IDX 74 56 75 57 76 58 77 59 78 60 57 61 58 62 66 63 59 64 65 65
REMARK SMILES IDX 60 66 61 67 62 68 63 69 64 70 9 71 10 72 11 73 12 74 13 75
REMARK SMILES IDX 14 76 15 77 16 78 17 79 18 80 19 81 30 82 20 83 29 84 31 85
REMARK SMILES IDX 21 86 22 87 23 88 28 89 24 90 26 91 25 92 27 93
REMARK H PARENT 85 26 55 37 27 94
REMARK Flexibility Score: inf
ROOT
ATOM      1  C   UNL A   1      34.407  32.558  28.816  1.00  0.00     0.188 C 
ENDROOT
BRANCH   1   2
ATOM      2  C   UNL A   1      35.111  33.671  28.044  1.00  0.00     0.188 C 
BRANCH   2   3
ATOM      3  O   UNL A   1      34.644  34.961  28.420  1.00  0.00    -0.376 OA
BRANCH   3   4
ATOM      4  C   UNL A   1      33.301  35.097  28.869  1.00  0.00     0.202 C 
BRANCH   4   5
ATOM      5  C   UNL A   1      32.928  36.347  29.675  1.00  0.00     0.261 C 
BRANCH   5   6
ATOM      6  O   UNL A   1      33.150  36.276  31.095  1.00  0.00    -0.460 OA
BRANCH   6   7
ATOM      7  C   UNL A   1      33.248  35.206  31.918  1.00  0.00     0.338 C 
ATOM      8  O   UNL A   1      32.241  34.823  32.511  1.00  0.00    -0.246 OA
BRANCH   7   9
ATOM      9  C   UNL A   1      34.520  34.471  32.157  1.00  0.00     0.060 A 
ATOM     10  C   UNL A   1      34.600  33.144  32.564  1.00  0.00     0.016 A 
ATOM     11  C   UNL A   1      35.718  35.132  31.856  1.00  0.00     0.016 A 
ATOM     12  C   UNL A   1      35.809  32.542  32.868  1.00  0.00     0.010 A 
ATOM     13  C   UNL A   1      36.951  34.508  32.076  1.00  0.00     0.010 A 
ATOM     14  C   UNL A   1      36.993  33.237  32.663  1.00  0.00    -0.014 A 
BRANCH  14  15
ATOM     15  C   UNL A   1      38.217  32.711  33.296  1.00  0.00     0.031 A 
ATOM     16  C   UNL A   1      39.174  31.956  32.414  1.00  0.00     0.074 A 
ATOM     17  C   UNL A   1      38.537  33.042  34.561  1.00  0.00     0.049 A 
ATOM     18  N   UNL A   1      40.274  31.330  32.728  1.00  0.00    -0.248 NA
ATOM     19  C   UNL A   1      38.845  31.902  30.976  1.00  0.00     0.031 C 
ATOM     20  C   UNL A   1      37.743  33.907  35.439  1.00  0.00     0.029 A 
ATOM     21  N   UNL A   1      39.638  32.731  35.312  1.00  0.00    -0.354 N 
ATOM     22  C   UNL A   1      40.723  30.753  31.546  1.00  0.00     0.074 A 
ATOM     23  C   UNL A   1      39.786  31.101  30.507  1.00  0.00     0.031 C 
ATOM     24  C   UNL A   1      38.408  34.094  36.590  1.00  0.00     0.029 A 
ATOM     25  C   UNL A   1      39.628  33.295  36.566  1.00  0.00     0.049 A 
ATOM     26  H   UNL A   1      40.368  32.156  34.985  1.00  0.00     0.167 HD
ATOM     27  C   UNL A   1      41.821  29.987  31.353  1.00  0.00     0.031 A 
ATOM     28  C   UNL A   1      40.498  33.151  37.583  1.00  0.00     0.031 A 
ATOM     29  C   UNL A   1      42.747  29.682  32.406  1.00  0.00     0.049 A 
ATOM     30  C   UNL A   1      41.677  32.239  37.367  1.00  0.00     0.074 A 
ATOM     31  C   UNL A   1      43.862  28.868  32.372  1.00  0.00     0.029 A 
ATOM     32  N   UNL A   1      42.664  30.207  33.690  1.00  0.00    -0.354 N 
ATOM     33  N   UNL A   1      42.034  31.599  36.276  1.00  0.00    -0.248 NA
ATOM     34  C   UNL A   1      42.558  32.013  38.518  1.00  0.00     0.031 C 
ATOM     35  C   UNL A   1      44.430  28.868  33.651  1.00  0.00     0.029 A 
ATOM     36  C   UNL A   1      43.703  29.729  34.462  1.00  0.00     0.049 A 
ATOM     37  H   UNL A   1      41.967  30.828  34.002  1.00  0.00     0.167 HD
ATOM     38  C   UNL A   1      43.195  30.910  36.602  1.00  0.00     0.074 A 
ATOM     39  C   UNL A   1      43.487  31.228  37.988  1.00  0.00     0.031 C 
ATOM     40  C   UNL A   1      43.953  30.086  35.836  1.00  0.00     0.031 A 
BRANCH  27  41
ATOM     41  C   UNL A   1      41.996  29.371  29.992  1.00  0.00    -0.014 A 
ATOM     42  C   UNL A   1      42.811  29.959  29.007  1.00  0.00     0.010 A 
ATOM     43  C   UNL A   1      41.279  28.202  29.678  1.00  0.00     0.010 A 
ATOM     44  C   UNL A   1      42.862  29.417  27.718  1.00  0.00     0.020 A 
ATOM     45  C   UNL A   1      41.350  27.642  28.400  1.00  0.00     0.020 A 
ATOM     46  C   UNL A   1      42.124  28.267  27.420  1.00  0.00     0.054 A 
BRANCH  46  47
ATOM     47  S   UNL A   1      42.194  27.591  25.738  1.00  0.00     0.124 S 
ATOM     48  O   UNL A   1      42.101  28.800  24.924  1.00  0.00    -0.237 OA
ATOM     49  O   UNL A   1      43.491  26.919  25.717  1.00  0.00    -0.237 OA
ATOM     50  O   UNL A   1      41.035  26.704  25.671  1.00  0.00    -0.744 OA
ENDBRANCH  46  47
ENDBRANCH  27  41
BRANCH  28  51
ATOM     51  C   UNL A   1      40.260  33.827  38.890  1.00  0.00    -0.014 A 
ATOM     52  C   UNL A   1      39.385  33.277  39.845  1.00  0.00     0.010 A 
ATOM     53  C   UNL A   1      40.913  35.038  39.191  1.00  0.00     0.010 A 
ATOM     54  C   UNL A   1      39.157  33.931  41.061  1.00  0.00     0.020 A 
ATOM     55  C   UNL A   1      40.712  35.679  40.417  1.00  0.00     0.020 A 
ATOM     56  C   UNL A   1      39.823  35.129  41.341  1.00  0.00     0.054 A 
BRANCH  56  57
ATOM     57  S   UNL A   1      39.541  35.943  42.938  1.00  0.00     0.124 S 
ATOM     58  O   UNL A   1      38.240  35.407  43.326  1.00  0.00    -0.237 OA
ATOM     59  O   UNL A   1      40.677  35.485  43.732  1.00  0.00    -0.237 OA
ATOM     60  O   UNL A   1      39.557  37.366  42.603  1.00  0.00    -0.744 OA
ENDBRANCH  56  57
ENDBRANCH  28  51
BRANCH  40  61
ATOM     61  C   UNL A   1      45.191  29.523  36.469  1.00  0.00    -0.014 A 
ATOM     62  C   UNL A   1      46.419  30.204  36.406  1.00  0.00     0.010 A 
ATOM     63  C   UNL A   1      45.102  28.316  37.187  1.00  0.00     0.010 A 
ATOM     64  C   UNL A   1      47.549  29.666  37.023  1.00  0.00     0.020 A 
ATOM     65  C   UNL A   1      46.223  27.792  37.828  1.00  0.00     0.020 A 
ATOM     66  C   UNL A   1      47.444  28.463  37.728  1.00  0.00     0.054 A 
BRANCH  66  67
ATOM     67  S   UNL A   1      48.916  27.802  38.553  1.00  0.00     0.124 S 
ATOM     68  O   UNL A   1      49.968  28.118  37.592  1.00  0.00    -0.237 OA
ATOM     69  O   UNL A   1      48.954  28.561  39.801  1.00  0.00    -0.237 OA
ATOM     70  O   UNL A   1      48.617  26.380  38.706  1.00  0.00    -0.744 OA
ENDBRANCH  66  67
ENDBRANCH  40  61
ENDBRANCH  14  15
ENDBRANCH   7   9
ENDBRANCH   6   7
ENDBRANCH   5   6
ENDBRANCH   4   5
ENDBRANCH   3   4
ENDBRANCH   2   3
ENDBRANCH   1   2
BRANCH   1  71
ATOM     71  O   UNL A   1      33.517  31.755  28.048  1.00  0.00    -0.377 OA
BRANCH  71  72
ATOM     72  C   UNL A   1      34.099  30.652  27.362  1.00  0.00     0.188 C 
BRANCH  72  73
ATOM     73  C   UNL A   1      33.295  29.944  26.242  1.00  0.00     0.188 C 
BRANCH  73  74
ATOM     74  O   UNL A   1      32.931  28.602  26.533  1.00  0.00    -0.376 OA
BRANCH  74  75
ATOM     75  C   UNL A   1      33.981  27.646  26.414  1.00  0.00     0.202 C 
BRANCH  75  76
ATOM     76  C   UNL A   1      33.587  26.326  25.737  1.00  0.00     0.261 C 
BRANCH  76  77
ATOM     77  O   UNL A   1      34.056  26.180  24.386  1.00  0.00    -0.460 OA
BRANCH  77  78
ATOM     78  C   UNL A   1      33.180  25.805  23.429  1.00  0.00     0.339 C 
ATOM     79  O   UNL A   1      33.069  24.701  22.923  1.00  0.00    -0.246 OA
BRANCH  78  80
ATOM     80  C   UNL A   1      32.195  26.900  23.279  1.00  0.00     0.078 A 
ATOM     81  C   UNL A   1      32.693  28.175  22.957  1.00  0.00     0.018 A 
ATOM     82  C   UNL A   1      30.815  26.685  23.311  1.00  0.00     0.056 A 
ATOM     83  C   UNL A   1      31.813  29.212  22.630  1.00  0.00     0.010 A 
ATOM     84  C   UNL A   1      29.940  27.738  23.007  1.00  0.00     0.030 A 
ATOM     85  Cl  UNL A   1      30.118  25.170  23.764  1.00  0.00    -0.083 Cl
ATOM     86  C   UNL A   1      30.426  29.012  22.665  1.00  0.00    -0.017 A 
BRANCH  86  87
ATOM     87  C   UNL A   1      29.506  30.138  22.476  1.00  0.00    -0.015 A 
ATOM     88  C   UNL A   1      29.217  30.967  23.573  1.00  0.00     0.009 A 
ATOM     89  C   UNL A   1      28.916  30.437  21.240  1.00  0.00     0.054 A 
ATOM     90  C   UNL A   1      28.369  32.068  23.444  1.00  0.00     0.004 A 
ATOM     91  C   UNL A   1      28.069  31.539  21.119  1.00  0.00     0.116 A 
ATOM     92  C   UNL A   1      27.792  32.358  22.211  1.00  0.00     0.046 A 
BRANCH  91  93
ATOM     93  O   UNL A   1      27.520  31.797  19.896  1.00  0.00    -0.508 OA
ATOM     94  H   UNL A   1      28.060  31.799  19.131  1.00  0.00     0.293 HD
ENDBRANCH  91  93
ENDBRANCH  86  87
ENDBRANCH  78  80
ENDBRANCH  77  78
ENDBRANCH  76  77
ENDBRANCH  75  76
ENDBRANCH  74  75
ENDBRANCH  73  74
ENDBRANCH  72  73
ENDBRANCH  71  72
ENDBRANCH   1  71
TORSDOF 25
ENDMDL
MODEL 2
REMARK VINA RESULT:      -9.0      2.295      4.178
REMARK SMILES O=C(OCCOCCOCCOCCOC(=O)c1ccc(-c2cccc(O)c2)cc1Cl)c1ccc(-c2c3nc(c(-c4ccc(S(=O)(=O)[O-])cc4)c4ccc([nH]4)c(-c4ccc(S(=O)(=O)[O-])cc4)c4nc(c(-c5ccc(S(=O)(=O)[O-])cc5)c5ccc2[nH]5)C=C4)C=C3)cc1
REMARK SMILES IDX 8 1 7 2 6 3 5 4 4 5 3 6 2 7 1 8 32 9 33 10 91 11 34 12 90 13
REMARK SMILES IDX 35 14 36 15 37 16 84 17 38 18 89 19 83 20 85 21 39 22 88 23
REMARK SMILES IDX 82 24 81 25 40 27 70 28 51 29 69 30 52 31 55 32 68 33 86 34
REMARK SMILES IDX 53 35 54 36 67 38 87 39 56 40 41 41 42 42 50 43 43 44 49 45
REMARK SMILES IDX 44 46 45 47 46 48 47 49 48 50 71 51 72 52 80 53 73 54 79 55
REMARK SMILES IDX 74 56 75 57 76 58 77 59 78 60 57 61 58 62 66 63 59 64 65 65
REMARK SMILES IDX 60 66 61 67 62 68 63 69 64 70 9 71 10 72 11 73 12 74 13 75
REMARK SMILES IDX 14 76 15 77 16 78 17 79 18 80 19 81 30 82 20 83 29 84 31 85
REMARK SMILES IDX 21 86 22 87 23 88 28 89 24 90 26 91 25 92 27 93
REMARK H PARENT 85 26 55 37 27 94
REMARK Flexibility Score: inf
ROOT
ATOM      1  C   UNL A   1      34.446  33.279  29.093  1.00  0.00     0.188 C 
ENDROOT
BRANCH   1   2
ATOM      2  C   UNL A   1      34.829  34.312  28.036  1.00  0.00     0.188 C 
BRANCH   2   3
ATOM      3  O   UNL A   1      34.275  35.592  28.313  1.00  0.00    -0.376 OA
BRANCH   3   4
ATOM      4  C   UNL A   1      33.072  35.666  29.070  1.00  0.00     0.202 C 
BRANCH   4   5
ATOM      5  C   UNL A   1      32.904  36.829  30.055  1.00  0.00     0.261 C 
BRANCH   5   6
ATOM      6  O   UNL A   1      33.214  36.545  31.431  1.00  0.00    -0.460 OA
BRANCH   6   7
ATOM      7  C   UNL A   1      33.217  35.373  32.108  1.00  0.00     0.338 C 
ATOM      8  O   UNL A   1      32.151  34.939  32.542  1.00  0.00    -0.246 OA
BRANCH   7   9
ATOM      9  C   UNL A   1      34.450  34.581  32.369  1.00  0.00     0.060 A 
ATOM     10  C   UNL A   1      34.465  33.278  32.852  1.00  0.00     0.016 A 
ATOM     11  C   UNL A   1      35.678  35.156  32.013  1.00  0.00     0.016 A 
ATOM     12  C   UNL A   1      35.643  32.626  33.171  1.00  0.00     0.010 A 
ATOM     13  C   UNL A   1      36.878  34.477  32.249  1.00  0.00     0.010 A 
ATOM     14  C   UNL A   1      36.860  33.241  32.908  1.00  0.00    -0.014 A 
BRANCH  14  15
ATOM     15  C   UNL A   1      38.065  32.683  33.552  1.00  0.00     0.031 A 
ATOM     16  C   UNL A   1      38.924  31.769  32.721  1.00  0.00     0.074 A 
ATOM     17  C   UNL A   1      38.461  33.113  34.764  1.00  0.00     0.049 A 
ATOM     18  N   UNL A   1      39.983  31.090  33.062  1.00  0.00    -0.248 NA
ATOM     19  C   UNL A   1      38.532  31.598  31.308  1.00  0.00     0.031 C 
ATOM     20  C   UNL A   1      37.773  34.123  35.574  1.00  0.00     0.029 A 
ATOM     21  N   UNL A   1      39.564  32.791  35.506  1.00  0.00    -0.354 N 
ATOM     22  C   UNL A   1      40.338  30.362  31.932  1.00  0.00     0.074 A 
ATOM     23  C   UNL A   1      39.389  30.680  30.894  1.00  0.00     0.031 C 
ATOM     24  C   UNL A   1      38.497  34.371  36.677  1.00  0.00     0.029 A 
ATOM     25  C   UNL A   1      39.649  33.477  36.695  1.00  0.00     0.049 A 
ATOM     26  H   UNL A   1      40.234  32.129  35.217  1.00  0.00     0.167 HD
ATOM     27  C   UNL A   1      41.364  29.495  31.783  1.00  0.00     0.031 A 
ATOM     28  C   UNL A   1      40.547  33.366  37.693  1.00  0.00     0.031 A 
ATOM     29  C   UNL A   1      42.307  29.223  32.831  1.00  0.00     0.049 A 
ATOM     30  C   UNL A   1      41.642  32.344  37.534  1.00  0.00     0.074 A 
ATOM     31  C   UNL A   1      43.353  28.322  32.845  1.00  0.00     0.029 A 
ATOM     32  N   UNL A   1      42.317  29.879  34.055  1.00  0.00    -0.354 N 
ATOM     33  N   UNL A   1      41.904  31.571  36.503  1.00  0.00    -0.248 NA
ATOM     34  C   UNL A   1      42.549  32.164  38.672  1.00  0.00     0.031 C 
ATOM     35  C   UNL A   1      43.971  28.404  34.097  1.00  0.00     0.029 A 
ATOM     36  C   UNL A   1      43.347  29.398  34.839  1.00  0.00     0.049 A 
ATOM     37  H   UNL A   1      41.684  30.583  34.324  1.00  0.00     0.167 HD
ATOM     38  C   UNL A   1      43.019  30.826  36.861  1.00  0.00     0.074 A 
ATOM     39  C   UNL A   1      43.392  31.257  38.196  1.00  0.00     0.031 C 
ATOM     40  C   UNL A   1      43.680  29.871  36.159  1.00  0.00     0.031 A 
BRANCH  27  41
ATOM     41  C   UNL A   1      41.435  28.733  30.488  1.00  0.00    -0.014 A 
ATOM     42  C   UNL A   1      42.241  29.158  29.416  1.00  0.00     0.010 A 
ATOM     43  C   UNL A   1      40.629  27.592  30.326  1.00  0.00     0.010 A 
ATOM     44  C   UNL A   1      42.197  28.486  28.189  1.00  0.00     0.020 A 
ATOM     45  C   UNL A   1      40.603  26.902  29.111  1.00  0.00     0.020 A 
ATOM     46  C   UNL A   1      41.371  27.367  28.043  1.00  0.00     0.054 A 
BRANCH  46  47
ATOM     47  S   UNL A   1      41.319  26.520  26.439  1.00  0.00     0.124 S 
ATOM     48  O   UNL A   1      41.439  27.638  25.505  1.00  0.00    -0.237 OA
ATOM     49  O   UNL A   1      42.477  25.633  26.508  1.00  0.00    -0.237 OA
ATOM     50  O   UNL A   1      40.022  25.849  26.443  1.00  0.00    -0.744 OA
ENDBRANCH  46  47
ENDBRANCH  27  41
BRANCH  28  51
ATOM     51  C   UNL A   1      40.415  34.187  38.930  1.00  0.00    -0.014 A 
ATOM     52  C   UNL A   1      41.063  35.430  39.049  1.00  0.00     0.010 A 
ATOM     53  C   UNL A   1      39.632  33.728  40.006  1.00  0.00     0.010 A 
ATOM     54  C   UNL A   1      40.946  36.184  40.223  1.00  0.00     0.020 A 
ATOM     55  C   UNL A   1      39.487  34.491  41.168  1.00  0.00     0.020 A 
ATOM     56  C   UNL A   1      40.157  35.710  41.276  1.00  0.00     0.054 A 
BRANCH  56  57
ATOM     57  S   UNL A   1      39.989  36.718  42.776  1.00  0.00     0.124 S 
ATOM     58  O   UNL A   1      41.308  36.577  43.385  1.00  0.00    -0.237 OA
ATOM     59  O   UNL A   1      39.678  38.039  42.235  1.00  0.00    -0.237 OA
ATOM     60  O   UNL A   1      38.894  36.075  43.498  1.00  0.00    -0.744 OA
ENDBRANCH  56  57
ENDBRANCH  28  51
BRANCH  40  61
ATOM     61  C   UNL A   1      44.896  29.275  36.806  1.00  0.00    -0.014 A 
ATOM     62  C   UNL A   1      46.148  29.908  36.731  1.00  0.00     0.010 A 
ATOM     63  C   UNL A   1      44.761  28.089  37.550  1.00  0.00     0.010 A 
ATOM     64  C   UNL A   1      47.257  29.342  37.361  1.00  0.00     0.020 A 
ATOM     65  C   UNL A   1      45.861  27.536  38.204  1.00  0.00     0.020 A 
ATOM     66  C   UNL A   1      47.106  28.159  38.091  1.00  0.00     0.054 A 
BRANCH  66  67
ATOM     67  S   UNL A   1      48.552  27.462  38.932  1.00  0.00     0.124 S 
ATOM     68  O   UNL A   1      49.492  28.577  38.890  1.00  0.00    -0.237 OA
ATOM     69  O   UNL A   1      48.026  27.130  40.254  1.00  0.00    -0.237 OA
ATOM     70  O   UNL A   1      48.911  26.311  38.106  1.00  0.00    -0.744 OA
ENDBRANCH  66  67
ENDBRANCH  40  61
ENDBRANCH  14  15
ENDBRANCH   7   9
ENDBRANCH   6   7
ENDBRANCH   5   6
ENDBRANCH   4   5
ENDBRANCH   3   4
ENDBRANCH   2   3
ENDBRANCH   1   2
BRANCH   1  71
ATOM     71  O   UNL A   1      33.901  32.065  28.587  1.00  0.00    -0.377 OA
BRANCH  71  72
ATOM     72  C   UNL A   1      34.841  31.077  28.176  1.00  0.00     0.188 C 
BRANCH  72  73
ATOM     73  C   UNL A   1      34.565  30.256  26.892  1.00  0.00     0.188 C 
BRANCH  73  74
ATOM     74  O   UNL A   1      33.233  29.776  26.770  1.00  0.00    -0.376 OA
BRANCH  74  75
ATOM     75  C   UNL A   1      32.913  28.651  27.582  1.00  0.00     0.202 C 
BRANCH  75  76
ATOM     76  C   UNL A   1      31.426  28.270  27.612  1.00  0.00     0.261 C 
BRANCH  76  77
ATOM     77  O   UNL A   1      31.148  26.907  27.249  1.00  0.00    -0.460 OA
BRANCH  77  78
ATOM     78  C   UNL A   1      31.201  26.556  25.946  1.00  0.00     0.339 C 
ATOM     79  O   UNL A   1      30.590  27.064  25.021  1.00  0.00    -0.246 OA
BRANCH  78  80
ATOM     80  C   UNL A   1      32.328  25.610  25.788  1.00  0.00     0.078 A 
ATOM     81  C   UNL A   1      32.185  24.335  26.363  1.00  0.00     0.018 A 
ATOM     82  C   UNL A   1      33.443  25.888  24.993  1.00  0.00     0.056 A 
ATOM     83  C   UNL A   1      33.131  23.337  26.106  1.00  0.00     0.010 A 
ATOM     84  C   UNL A   1      34.400  24.890  24.763  1.00  0.00     0.030 A 
ATOM     85  Cl  UNL A   1      33.732  27.448  24.308  1.00  0.00    -0.083 Cl
ATOM     86  C   UNL A   1      34.258  23.605  25.316  1.00  0.00    -0.017 A 
BRANCH  86  87
ATOM     87  C   UNL A   1      35.325  22.608  25.177  1.00  0.00    -0.015 A 
ATOM     88  C   UNL A   1      36.657  23.050  25.101  1.00  0.00     0.009 A 
ATOM     89  C   UNL A   1      35.076  21.230  25.138  1.00  0.00     0.054 A 
ATOM     90  C   UNL A   1      37.713  22.145  24.994  1.00  0.00     0.004 A 
ATOM     91  C   UNL A   1      36.138  20.331  25.030  1.00  0.00     0.116 A 
ATOM     92  C   UNL A   1      37.455  20.778  24.960  1.00  0.00     0.046 A 
BRANCH  91  93
ATOM     93  O   UNL A   1      35.851  18.997  25.001  1.00  0.00    -0.508 OA
ATOM     94  H   UNL A   1      34.990  18.708  24.770  1.00  0.00     0.293 HD
ENDBRANCH  91  93
ENDBRANCH  86  87
ENDBRANCH  78  80
ENDBRANCH  77  78
ENDBRANCH  76  77
ENDBRANCH  75  76
ENDBRANCH  74  75
ENDBRANCH  73  74
ENDBRANCH  72  73
ENDBRANCH  71  72
ENDBRANCH   1  71
TORSDOF 25
ENDMDL
MODEL 3
REMARK VINA RESULT:      -8.8      2.402      9.047
REMARK SMILES O=C(OCCOCCOCCOCCOC(=O)c1ccc(-c2cccc(O)c2)cc1Cl)c1ccc(-c2c3nc(c(-c4ccc(S(=O)(=O)[O-])cc4)c4ccc([nH]4)c(-c4ccc(S(=O)(=O)[O-])cc4)c4nc(c(-c5ccc(S(=O)(=O)[O-])cc5)c5ccc2[nH]5)C=C4)C=C3)cc1
REMARK SMILES IDX 8 1 7 2 6 3 5 4 4 5 3 6 2 7 1 8 32 9 33 10 91 11 34 12 90 13
REMARK SMILES IDX 35 14 36 15 37 16 84 17 38 18 89 19 83 20 85 21 39 22 88 23
REMARK SMILES IDX 82 24 81 25 40 27 70 28 51 29 69 30 52 31 55 32 68 33 86 34
REMARK SMILES IDX 53 35 54 36 67 38 87 39 56 40 41 41 42 42 50 43 43 44 49 45
REMARK SMILES IDX 44 46 45 47 46 48 47 49 48 50 71 51 72 52 80 53 73 54 79 55
REMARK SMILES IDX 74 56 75 57 76 58 77 59 78 60 57 61 58 62 66 63 59 64 65 65
REMARK SMILES IDX 60 66 61 67 62 68 63 69 64 70 9 71 10 72 11 73 12 74 13 75
REMARK SMILES IDX 14 76 15 77 16 78 17 79 18 80 19 81 30 82 20 83 29 84 31 85
REMARK SMILES IDX 21 86 22 87 23 88 28 89 24 90 26 91 25 92 27 93
REMARK H PARENT 85 26 55 37 27 94
REMARK Flexibility Score: inf
ROOT
ATOM      1  C   UNL A   1      34.206  33.394  29.160  1.00  0.00     0.188 C 
ENDROOT
BRANCH   1   2
ATOM      2  C   UNL A   1      34.644  34.452  28.151  1.00  0.00     0.188 C 
BRANCH   2   3
ATOM      3  O   UNL A   1      34.184  35.751  28.503  1.00  0.00    -0.376 OA
BRANCH   3   4
ATOM      4  C   UNL A   1      32.985  35.869  29.260  1.00  0.00     0.202 C 
BRANCH   4   5
ATOM      5  C   UNL A   1      32.918  36.941  30.354  1.00  0.00     0.261 C 
BRANCH   5   6
ATOM      6  O   UNL A   1      33.396  36.553  31.654  1.00  0.00    -0.460 OA
BRANCH   6   7
ATOM      7  C   UNL A   1      33.436  35.338  32.249  1.00  0.00     0.338 C 
ATOM      8  O   UNL A   1      32.421  34.918  32.802  1.00  0.00    -0.246 OA
BRANCH   7   9
ATOM      9  C   UNL A   1      34.654  34.482  32.284  1.00  0.00     0.060 A 
ATOM     10  C   UNL A   1      34.674  33.153  32.690  1.00  0.00     0.016 A 
ATOM     11  C   UNL A   1      35.844  35.026  31.782  1.00  0.00     0.016 A 
ATOM     12  C   UNL A   1      35.853  32.436  32.798  1.00  0.00     0.010 A 
ATOM     13  C   UNL A   1      37.031  34.286  31.802  1.00  0.00     0.010 A 
ATOM     14  C   UNL A   1      37.047  33.014  32.391  1.00  0.00    -0.014 A 
BRANCH  14  15
ATOM     15  C   UNL A   1      38.304  32.370  32.820  1.00  0.00     0.031 A 
ATOM     16  C   UNL A   1      38.721  32.570  34.251  1.00  0.00     0.074 A 
ATOM     17  C   UNL A   1      38.948  31.508  32.012  1.00  0.00     0.049 A 
ATOM     18  N   UNL A   1      39.807  32.184  34.860  1.00  0.00    -0.248 NA
ATOM     19  C   UNL A   1      37.780  33.308  35.116  1.00  0.00     0.031 C 
ATOM     20  C   UNL A   1      38.522  31.129  30.661  1.00  0.00     0.029 A 
ATOM     21  N   UNL A   1      40.071  30.757  32.226  1.00  0.00    -0.354 N 
ATOM     22  C   UNL A   1      39.710  32.691  36.151  1.00  0.00     0.074 A 
ATOM     23  C   UNL A   1      38.463  33.409  36.244  1.00  0.00     0.031 C 
ATOM     24  C   UNL A   1      39.348  30.181  30.189  1.00  0.00     0.029 A 
ATOM     25  C   UNL A   1      40.407  29.951  31.164  1.00  0.00     0.049 A 
ATOM     26  H   UNL A   1      40.591  30.790  33.063  1.00  0.00     0.167 HD
ATOM     27  C   UNL A   1      40.596  32.574  37.165  1.00  0.00     0.031 A 
ATOM     28  C   UNL A   1      41.472  29.143  30.997  1.00  0.00     0.031 A 
ATOM     29  C   UNL A   1      41.816  31.828  37.045  1.00  0.00     0.049 A 
ATOM     30  C   UNL A   1      42.481  29.082  32.114  1.00  0.00     0.074 A 
ATOM     31  C   UNL A   1      42.836  31.679  37.963  1.00  0.00     0.029 A 
ATOM     32  N   UNL A   1      42.166  31.086  35.923  1.00  0.00    -0.354 N 
ATOM     33  N   UNL A   1      42.440  29.660  33.294  1.00  0.00    -0.248 NA
ATOM     34  C   UNL A   1      43.684  28.278  31.875  1.00  0.00     0.031 C 
ATOM     35  C   UNL A   1      43.824  30.879  37.379  1.00  0.00     0.029 A 
ATOM     36  C   UNL A   1      43.391  30.482  36.121  1.00  0.00     0.049 A 
ATOM     37  H   UNL A   1      41.620  31.004  35.108  1.00  0.00     0.167 HD
ATOM     38  C   UNL A   1      43.604  29.274  33.946  1.00  0.00     0.074 A 
ATOM     39  C   UNL A   1      44.316  28.397  33.035  1.00  0.00     0.031 C 
ATOM     40  C   UNL A   1      44.051  29.610  35.182  1.00  0.00     0.031 A 
BRANCH  27  41
ATOM     41  C   UNL A   1      40.304  33.345  38.423  1.00  0.00    -0.014 A 
ATOM     42  C   UNL A   1      39.546  32.798  39.474  1.00  0.00     0.010 A 
ATOM     43  C   UNL A   1      40.757  34.673  38.526  1.00  0.00     0.010 A 
ATOM     44  C   UNL A   1      39.202  33.583  40.580  1.00  0.00     0.020 A 
ATOM     45  C   UNL A   1      40.438  35.452  39.642  1.00  0.00     0.020 A 
ATOM     46  C   UNL A   1      39.643  34.908  40.652  1.00  0.00     0.054 A 
BRANCH  46  47
ATOM     47  S   UNL A   1      39.173  35.912  42.088  1.00  0.00     0.124 S 
ATOM     48  O   UNL A   1      37.819  35.433  42.359  1.00  0.00    -0.237 OA
ATOM     49  O   UNL A   1      40.179  35.543  43.081  1.00  0.00    -0.237 OA
ATOM     50  O   UNL A   1      39.260  37.285  41.596  1.00  0.00    -0.744 OA
ENDBRANCH  46  47
ENDBRANCH  27  41
BRANCH  28  51
ATOM     51  C   UNL A   1      41.664  28.390  29.726  1.00  0.00    -0.014 A 
ATOM     52  C   UNL A   1      41.090  27.119  29.540  1.00  0.00     0.010 A 
ATOM     53  C   UNL A   1      42.428  28.944  28.681  1.00  0.00     0.010 A 
ATOM     54  C   UNL A   1      41.292  26.414  28.348  1.00  0.00     0.020 A 
ATOM     55  C   UNL A   1      42.607  28.257  27.477  1.00  0.00     0.020 A 
ATOM     56  C   UNL A   1      42.049  26.988  27.322  1.00  0.00     0.054 A 
BRANCH  56  57
ATOM     57  S   UNL A   1      42.270  26.074  25.770  1.00  0.00     0.124 S 
ATOM     58  O   UNL A   1      43.172  25.000  26.177  1.00  0.00    -0.237 OA
ATOM     59  O   UNL A   1      40.906  25.667  25.446  1.00  0.00    -0.237 OA
ATOM     60  O   UNL A   1      42.847  27.067  24.867  1.00  0.00    -0.744 OA
ENDBRANCH  56  57
ENDBRANCH  28  51
BRANCH  40  61
ATOM     61  C   UNL A   1      45.339  28.982  35.629  1.00  0.00    -0.014 A 
ATOM     62  C   UNL A   1      46.574  29.618  35.416  1.00  0.00     0.010 A 
ATOM     63  C   UNL A   1      45.298  27.761  36.325  1.00  0.00     0.010 A 
ATOM     64  C   UNL A   1      47.754  29.022  35.861  1.00  0.00     0.020 A 
ATOM     65  C   UNL A   1      46.472  27.177  36.796  1.00  0.00     0.020 A 
ATOM     66  C   UNL A   1      47.695  27.804  36.546  1.00  0.00     0.054 A 
BRANCH  66  67
ATOM     67  S   UNL A   1      49.236  27.066  37.149  1.00  0.00     0.124 S 
ATOM     68  O   UNL A   1      49.980  28.241  37.593  1.00  0.00    -0.237 OA
ATOM     69  O   UNL A   1      48.774  26.175  38.211  1.00  0.00    -0.237 OA
ATOM     70  O   UNL A   1      49.780  26.391  35.972  1.00  0.00    -0.744 OA
ENDBRANCH  66  67
ENDBRANCH  40  61
ENDBRANCH  14  15
ENDBRANCH   7   9
ENDBRANCH   6   7
ENDBRANCH   5   6
ENDBRANCH   4   5
ENDBRANCH   3   4
ENDBRANCH   2   3
ENDBRANCH   1   2
BRANCH   1  71
ATOM     71  O   UNL A   1      33.492  32.291  28.612  1.00  0.00    -0.377 OA
BRANCH  71  72
ATOM     72  C   UNL A   1      34.270  31.317  27.925  1.00  0.00     0.188 C 
BRANCH  72  73
ATOM     73  C   UNL A   1      33.785  30.790  26.551  1.00  0.00     0.188 C 
BRANCH  73  74
ATOM     74  O   UNL A   1      32.573  30.050  26.595  1.00  0.00    -0.376 OA
BRANCH  74  75
ATOM     75  C   UNL A   1      32.644  28.803  27.280  1.00  0.00     0.202 C 
BRANCH  75  76
ATOM     76  C   UNL A   1      31.292  28.121  27.534  1.00  0.00     0.261 C 
BRANCH  76  77
ATOM     77  O   UNL A   1      31.283  26.702  27.307  1.00  0.00    -0.460 OA
BRANCH  77  78
ATOM     78  C   UNL A   1      31.388  26.245  26.040  1.00  0.00     0.339 C 
ATOM     79  O   UNL A   1      30.708  26.567  25.082  1.00  0.00    -0.246 OA
BRANCH  78  80
ATOM     80  C   UNL A   1      32.647  25.470  25.954  1.00  0.00     0.078 A 
ATOM     81  C   UNL A   1      32.685  24.227  26.610  1.00  0.00     0.018 A 
ATOM     82  C   UNL A   1      33.722  25.860  25.151  1.00  0.00     0.056 A 
ATOM     83  C   UNL A   1      33.773  23.367  26.427  1.00  0.00     0.010 A 
ATOM     84  C   UNL A   1      34.820  25.003  24.995  1.00  0.00     0.030 A 
ATOM     85  Cl  UNL A   1      33.787  27.398  24.367  1.00  0.00    -0.083 Cl
ATOM     86  C   UNL A   1      34.861  23.749  25.630  1.00  0.00    -0.017 A 
BRANCH  86  87
ATOM     87  C   UNL A   1      36.066  22.917  25.565  1.00  0.00    -0.015 A 
ATOM     88  C   UNL A   1      35.951  21.596  25.099  1.00  0.00     0.009 A 
ATOM     89  C   UNL A   1      37.335  23.388  25.927  1.00  0.00     0.054 A 
ATOM     90  C   UNL A   1      37.069  20.768  24.991  1.00  0.00     0.004 A 
ATOM     91  C   UNL A   1      38.448  22.553  25.818  1.00  0.00     0.116 A 
ATOM     92  C   UNL A   1      38.325  21.247  25.350  1.00  0.00     0.046 A 
BRANCH  91  93
ATOM     93  O   UNL A   1      39.666  23.055  26.177  1.00  0.00    -0.508 OA
ATOM     94  H   UNL A   1      39.718  23.804  26.737  1.00  0.00     0.293 HD
ENDBRANCH  91  93
ENDBRANCH  86  87
ENDBRANCH  78  80
ENDBRANCH  77  78
ENDBRANCH  76  77
ENDBRANCH  75  76
ENDBRANCH  74  75
ENDBRANCH  73  74
ENDBRANCH  72  73
ENDBRANCH  71  72
ENDBRANCH   1  71
TORSDOF 25
ENDMDL
