MODEL 1
REMARK VINA RESULT:      -8.0      0.000      0.000
REMARK SMILES CC[NH2+]C[C@@H](C)C(=O)N1CCO[C@@H](CC(=O)OCCOCCOCCOCCOC(=O)c2ccc(-c3c4nc(c(-c5ccc(S(=O)(=O)[O-])cc5)c5ccc([nH]5)c(-c5ccc(S(=O)(=O)[O-])cc5)c5nc(c(-c6ccc(S(=O)(=O)[O-])cc6)c6ccc3[nH]6)C=C5)C=C4)cc2)C1
REMARK SMILES IDX 21 1 20 2 19 3 18 4 17 5 15 6 16 7 14 8 13 9 9 10 10 11
REMARK SMILES IDX 92 12 11 13 12 14 7 15 8 16 5 17 6 18 4 19 3 20 2 23 1 24
REMARK SMILES IDX 22 25 23 26 24 27 25 28 26 29 27 30 28 31 29 32 30 33 31 34
REMARK SMILES IDX 32 35 33 36 91 37 34 38 90 39 35 40 36 41 37 42 84 43 38 44
REMARK SMILES IDX 89 45 83 46 85 47 39 48 88 49 82 50 81 51 40 53 70 54 51 55
REMARK SMILES IDX 69 56 52 57 55 58 68 59 86 60 53 61 54 62 67 64 87 65 56 66
REMARK SMILES IDX 41 67 42 68 50 69 43 70 49 71 44 72 45 73 46 74 47 75 48 76
REMARK SMILES IDX 71 77 72 78 80 79 73 80 79 81 74 82 75 83 76 84 77 85 78 86
REMARK SMILES IDX 57 87 58 88 66 89 59 90 65 91 60 92 61 93 62 94 63 95 64 96
REMARK H PARENT 3 21 3 22 85 52 55 63
REMARK Flexibility Score: inf
ROOT
ATOM      1  C   UNL A   1      41.839  22.755  28.117  1.00  0.00     0.188 C 
ENDROOT
BRANCH   1   2
ATOM      2  O   UNL A   1      41.374  23.415  26.956  1.00  0.00    -0.376 OA
BRANCH   2   3
ATOM      3  C   UNL A   1      40.090  24.024  26.917  1.00  0.00     0.202 C 
BRANCH   3   4
ATOM      4  C   UNL A   1      38.788  23.265  26.611  1.00  0.00     0.261 C 
BRANCH   4   5
ATOM      5  O   UNL A   1      38.918  21.889  26.211  1.00  0.00    -0.463 OA
BRANCH   5   6
ATOM      6  C   UNL A   1      37.960  21.429  25.382  1.00  0.00     0.308 C 
ATOM      7  O   UNL A   1      37.927  20.286  24.932  1.00  0.00    -0.252 OA
BRANCH   6   8
ATOM      8  C   UNL A   1      36.885  22.418  25.020  1.00  0.00     0.156 C 
BRANCH   8   9
ATOM      9  C   UNL A   1      35.429  22.250  25.433  1.00  0.00     0.148 C 
ATOM     10  N   UNL A   1      33.111  23.050  25.593  1.00  0.00    -0.337 N 
ATOM     11  C   UNL A   1      32.669  21.906  24.805  1.00  0.00     0.148 C 
ATOM     12  C   UNL A   1      34.493  23.470  25.261  1.00  0.00     0.152 C 
ATOM     13  C   UNL A   1      33.633  20.737  24.970  1.00  0.00     0.182 C 
ATOM     14  O   UNL A   1      34.959  21.136  24.614  1.00  0.00    -0.374 OA
BRANCH  10  15
ATOM     15  C   UNL A   1      32.392  23.750  26.544  1.00  0.00     0.231 C 
ATOM     16  O   UNL A   1      32.066  23.207  27.606  1.00  0.00    -0.274 OA
BRANCH  15  17
ATOM     17  C   UNL A   1      31.798  25.143  26.238  1.00  0.00     0.130 C 
ATOM     18  C   UNL A   1      30.288  25.016  26.036  1.00  0.00     0.024 C 
BRANCH  17  19
ATOM     19  C   UNL A   1      32.483  26.010  25.170  1.00  0.00     0.273 C 
BRANCH  19  20
ATOM     20  N   UNL A   1      31.646  27.051  24.550  1.00  0.00    -0.346 N 
ATOM     21  H   UNL A   1      31.607  26.877  23.546  1.00  0.00     0.346 HD
ATOM     22  H   UNL A   1      30.727  26.997  24.990  1.00  0.00     0.346 HD
BRANCH  20  23
ATOM     23  C   UNL A   1      32.143  28.406  24.765  1.00  0.00     0.257 C 
ATOM     24  C   UNL A   1      31.020  29.403  24.520  1.00  0.00     0.071 C 
ENDBRANCH  20  23
ENDBRANCH  19  20
ENDBRANCH  17  19
ENDBRANCH  15  17
ENDBRANCH  10  15
ENDBRANCH   8   9
ENDBRANCH   6   8
ENDBRANCH   5   6
ENDBRANCH   4   5
ENDBRANCH   3   4
ENDBRANCH   2   3
ENDBRANCH   1   2
BRANCH   1  25
ATOM     25  C   UNL A   1      42.505  21.379  28.010  1.00  0.00     0.188 C 
BRANCH  25  26
ATOM     26  O   UNL A   1      41.982  20.527  27.014  1.00  0.00    -0.377 OA
BRANCH  26  27
ATOM     27  C   UNL A   1      42.521  20.591  25.693  1.00  0.00     0.188 C 
BRANCH  27  28
ATOM     28  C   UNL A   1      44.050  20.607  25.471  1.00  0.00     0.188 C 
BRANCH  28  29
ATOM     29  O   UNL A   1      44.561  21.829  24.959  1.00  0.00    -0.376 OA
BRANCH  29  30
ATOM     30  C   UNL A   1      43.705  22.958  24.908  1.00  0.00     0.202 C 
BRANCH  30  31
ATOM     31  C   UNL A   1      44.352  24.351  24.947  1.00  0.00     0.261 C 
BRANCH  31  32
ATOM     32  O   UNL A   1      43.587  25.395  25.574  1.00  0.00    -0.460 OA
BRANCH  32  33
ATOM     33  C   UNL A   1      44.212  26.563  25.827  1.00  0.00     0.338 C 
ATOM     34  O   UNL A   1      45.101  27.072  25.163  1.00  0.00    -0.246 OA
BRANCH  33  35
ATOM     35  C   UNL A   1      43.513  27.234  26.944  1.00  0.00     0.060 A 
ATOM     36  C   UNL A   1      43.557  28.629  27.036  1.00  0.00     0.016 A 
ATOM     37  C   UNL A   1      42.838  26.488  27.912  1.00  0.00     0.016 A 
ATOM     38  C   UNL A   1      42.967  29.278  28.122  1.00  0.00     0.010 A 
ATOM     39  C   UNL A   1      42.254  27.137  29.005  1.00  0.00     0.010 A 
ATOM     40  C   UNL A   1      42.354  28.533  29.139  1.00  0.00    -0.014 A 
BRANCH  40  41
ATOM     41  C   UNL A   1      42.008  29.191  30.426  1.00  0.00     0.031 A 
ATOM     42  C   UNL A   1      40.745  30.013  30.493  1.00  0.00     0.074 A 
ATOM     43  C   UNL A   1      42.772  29.041  31.525  1.00  0.00     0.049 A 
ATOM     44  N   UNL A   1      40.249  30.692  31.495  1.00  0.00    -0.248 NA
ATOM     45  C   UNL A   1      39.935  30.081  29.264  1.00  0.00     0.031 C 
ATOM     46  C   UNL A   1      43.997  28.247  31.604  1.00  0.00     0.029 A 
ATOM     47  N   UNL A   1      42.627  29.563  32.788  1.00  0.00    -0.354 N 
ATOM     48  C   UNL A   1      39.087  31.285  31.012  1.00  0.00     0.074 A 
ATOM     49  C   UNL A   1      38.959  30.901  29.625  1.00  0.00     0.031 C 
ATOM     50  C   UNL A   1      44.496  28.339  32.850  1.00  0.00     0.029 A 
ATOM     51  C   UNL A   1      43.651  29.229  33.645  1.00  0.00     0.049 A 
ATOM     52  H   UNL A   1      41.863  30.123  33.056  1.00  0.00     0.167 HD
ATOM     53  C   UNL A   1      38.206  32.078  31.665  1.00  0.00     0.031 A 
ATOM     54  C   UNL A   1      43.893  29.620  34.914  1.00  0.00     0.031 A 
ATOM     55  C   UNL A   1      38.330  32.454  33.047  1.00  0.00     0.049 A 
ATOM     56  C   UNL A   1      42.921  30.551  35.601  1.00  0.00     0.074 A 
ATOM     57  C   UNL A   1      37.460  33.215  33.808  1.00  0.00     0.029 A 
ATOM     58  N   UNL A   1      39.390  32.113  33.872  1.00  0.00    -0.354 N 
ATOM     59  N   UNL A   1      41.798  31.055  35.148  1.00  0.00    -0.248 NA
ATOM     60  C   UNL A   1      43.248  30.961  36.975  1.00  0.00     0.031 C 
ATOM     61  C   UNL A   1      38.031  33.400  35.069  1.00  0.00     0.029 A 
ATOM     62  C   UNL A   1      39.216  32.686  35.121  1.00  0.00     0.049 A 
ATOM     63  H   UNL A   1      40.152  31.550  33.609  1.00  0.00     0.167 HD
ATOM     64  C   UNL A   1      41.271  31.811  36.192  1.00  0.00     0.074 A 
ATOM     65  C   UNL A   1      42.186  31.684  37.305  1.00  0.00     0.031 C 
ATOM     66  C   UNL A   1      40.129  32.544  36.227  1.00  0.00     0.031 A 
BRANCH  53  67
ATOM     67  C   UNL A   1      37.045  32.639  30.886  1.00  0.00    -0.014 A 
ATOM     68  C   UNL A   1      35.752  32.102  31.002  1.00  0.00     0.010 A 
ATOM     69  C   UNL A   1      37.245  33.782  30.089  1.00  0.00     0.010 A 
ATOM     70  C   UNL A   1      34.682  32.689  30.319  1.00  0.00     0.020 A 
ATOM     71  C   UNL A   1      36.174  34.387  29.429  1.00  0.00     0.020 A 
ATOM     72  C   UNL A   1      34.898  33.832  29.542  1.00  0.00     0.054 A 
BRANCH  72  73
ATOM     73  S   UNL A   1      33.480  34.608  28.720  1.00  0.00     0.124 S 
ATOM     74  O   UNL A   1      32.994  33.523  27.869  1.00  0.00    -0.237 OA
ATOM     75  O   UNL A   1      32.615  34.961  29.842  1.00  0.00    -0.237 OA
ATOM     76  O   UNL A   1      34.067  35.740  28.008  1.00  0.00    -0.744 OA
ENDBRANCH  72  73
ENDBRANCH  53  67
BRANCH  54  77
ATOM     77  C   UNL A   1      45.133  29.176  35.618  1.00  0.00    -0.014 A 
ATOM     78  C   UNL A   1      45.131  28.041  36.449  1.00  0.00     0.010 A 
ATOM     79  C   UNL A   1      46.317  29.926  35.496  1.00  0.00     0.010 A 
ATOM     80  C   UNL A   1      46.275  27.688  37.173  1.00  0.00     0.020 A 
ATOM     81  C   UNL A   1      47.473  29.555  36.188  1.00  0.00     0.020 A 
ATOM     82  C   UNL A   1      47.439  28.449  37.037  1.00  0.00     0.054 A 
BRANCH  82  83
ATOM     83  S   UNL A   1      48.918  27.965  37.973  1.00  0.00     0.124 S 
ATOM     84  O   UNL A   1      49.986  28.239  37.017  1.00  0.00    -0.237 OA
ATOM     85  O   UNL A   1      48.861  28.852  39.131  1.00  0.00    -0.237 OA
ATOM     86  O   UNL A   1      48.689  26.552  38.268  1.00  0.00    -0.744 OA
ENDBRANCH  82  83
ENDBRANCH  54  77
BRANCH  66  87
ATOM     87  C   UNL A   1      39.770  33.228  37.522  1.00  0.00    -0.014 A 
ATOM     88  C   UNL A   1      40.459  34.369  37.969  1.00  0.00     0.010 A 
ATOM     89  C   UNL A   1      38.675  32.756  38.271  1.00  0.00     0.010 A 
ATOM     90  C   UNL A   1      40.083  35.003  39.157  1.00  0.00     0.020 A 
ATOM     91  C   UNL A   1      38.274  33.406  39.440  1.00  0.00     0.020 A 
ATOM     92  C   UNL A   1      38.990  34.518  39.885  1.00  0.00     0.054 A 
BRANCH  92  93
ATOM     93  S   UNL A   1      38.494  35.385  41.398  1.00  0.00     0.124 S 
ATOM     94  O   UNL A   1      37.198  34.777  41.687  1.00  0.00    -0.237 OA
ATOM     95  O   UNL A   1      39.568  35.045  42.328  1.00  0.00    -0.237 OA
ATOM     96  O   UNL A   1      38.446  36.789  40.995  1.00  0.00    -0.744 OA
ENDBRANCH  92  93
ENDBRANCH  66  87
ENDBRANCH  40  41
ENDBRANCH  33  35
ENDBRANCH  32  33
ENDBRANCH  31  32
ENDBRANCH  30  31
ENDBRANCH  29  30
ENDBRANCH  28  29
ENDBRANCH  27  28
ENDBRANCH  26  27
ENDBRANCH  25  26
ENDBRANCH   1  25
TORSDOF 29
ENDMDL
MODEL 2
REMARK VINA RESULT:      -7.8      4.060     11.812
REMARK SMILES CC[NH2+]C[C@@H](C)C(=O)N1CCO[C@@H](CC(=O)OCCOCCOCCOCCOC(=O)c2ccc(-c3c4nc(c(-c5ccc(S(=O)(=O)[O-])cc5)c5ccc([nH]5)c(-c5ccc(S(=O)(=O)[O-])cc5)c5nc(c(-c6ccc(S(=O)(=O)[O-])cc6)c6ccc3[nH]6)C=C5)C=C4)cc2)C1
REMARK SMILES IDX 21 1 20 2 19 3 18 4 17 5 15 6 16 7 14 8 13 9 9 10 10 11
REMARK SMILES IDX 92 12 11 13 12 14 7 15 8 16 5 17 6 18 4 19 3 20 2 23 1 24
REMARK SMILES IDX 22 25 23 26 24 27 25 28 26 29 27 30 28 31 29 32 30 33 31 34
REMARK SMILES IDX 32 35 33 36 91 37 34 38 90 39 35 40 36 41 37 42 84 43 38 44
REMARK SMILES IDX 89 45 83 46 85 47 39 48 88 49 82 50 81 51 40 53 70 54 51 55
REMARK SMILES IDX 69 56 52 57 55 58 68 59 86 60 53 61 54 62 67 64 87 65 56 66
REMARK SMILES IDX 41 67 42 68 50 69 43 70 49 71 44 72 45 73 46 74 47 75 48 76
REMARK SMILES IDX 71 77 72 78 80 79 73 80 79 81 74 82 75 83 76 84 77 85 78 86
REMARK SMILES IDX 57 87 58 88 66 89 59 90 65 91 60 92 61 93 62 94 63 95 64 96
REMARK H PARENT 3 21 3 22 85 52 55 63
REMARK Flexibility Score: inf
ROOT
ATOM      1  C   UNL A   1      36.741  34.083  32.881  1.00  0.00     0.188 C 
ENDROOT
BRANCH   1   2
ATOM      2  O   UNL A   1      38.054  34.413  32.474  1.00  0.00    -0.376 OA
BRANCH   2   3
ATOM      3  C   UNL A   1      38.356  34.697  31.113  1.00  0.00     0.202 C 
BRANCH   3   4
ATOM      4  C   UNL A   1      39.732  34.457  30.471  1.00  0.00     0.261 C 
BRANCH   4   5
ATOM      5  O   UNL A   1      40.008  35.163  29.248  1.00  0.00    -0.463 OA
BRANCH   5   6
ATOM      6  C   UNL A   1      41.311  35.287  28.926  1.00  0.00     0.308 C 
ATOM      7  O   UNL A   1      41.722  35.850  27.915  1.00  0.00    -0.252 OA
BRANCH   6   8
ATOM      8  C   UNL A   1      42.281  34.683  29.906  1.00  0.00     0.156 C 
BRANCH   8   9
ATOM      9  C   UNL A   1      43.662  34.180  29.505  1.00  0.00     0.148 C 
ATOM     10  N   UNL A   1      45.166  32.891  28.052  1.00  0.00    -0.337 N 
ATOM     11  C   UNL A   1      45.887  34.115  27.724  1.00  0.00     0.148 C 
ATOM     12  C   UNL A   1      43.738  33.138  28.365  1.00  0.00     0.152 C 
ATOM     13  C   UNL A   1      45.759  35.130  28.852  1.00  0.00     0.182 C 
ATOM     14  O   UNL A   1      44.381  35.394  29.128  1.00  0.00    -0.374 OA
BRANCH  10  15
ATOM     15  C   UNL A   1      45.658  31.598  28.069  1.00  0.00     0.231 C 
ATOM     16  O   UNL A   1      46.853  31.382  27.836  1.00  0.00    -0.274 OA
BRANCH  15  17
ATOM     17  C   UNL A   1      44.714  30.380  28.171  1.00  0.00     0.130 C 
ATOM     18  C   UNL A   1      45.393  29.280  28.984  1.00  0.00     0.024 C 
BRANCH  17  19
ATOM     19  C   UNL A   1      44.047  29.864  26.886  1.00  0.00     0.273 C 
BRANCH  19  20
ATOM     20  N   UNL A   1      42.635  29.463  27.009  1.00  0.00    -0.346 N 
ATOM     21  H   UNL A   1      42.569  28.733  27.718  1.00  0.00     0.346 HD
ATOM     22  H   UNL A   1      42.108  30.299  27.261  1.00  0.00     0.346 HD
BRANCH  20  23
ATOM     23  C   UNL A   1      42.062  28.954  25.768  1.00  0.00     0.257 C 
ATOM     24  C   UNL A   1      42.759  27.658  25.381  1.00  0.00     0.071 C 
ENDBRANCH  20  23
ENDBRANCH  19  20
ENDBRANCH  17  19
ENDBRANCH  15  17
ENDBRANCH  10  15
ENDBRANCH   8   9
ENDBRANCH   6   8
ENDBRANCH   5   6
ENDBRANCH   4   5
ENDBRANCH   3   4
ENDBRANCH   2   3
ENDBRANCH   1   2
BRANCH   1  25
ATOM     25  C   UNL A   1      35.954  32.992  32.145  1.00  0.00     0.188 C 
BRANCH  25  26
ATOM     26  O   UNL A   1      35.075  33.450  31.140  1.00  0.00    -0.377 OA
BRANCH  26  27
ATOM     27  C   UNL A   1      34.173  34.516  31.440  1.00  0.00     0.188 C 
BRANCH  27  28
ATOM     28  C   UNL A   1      33.558  35.364  30.304  1.00  0.00     0.188 C 
BRANCH  28  29
ATOM     29  O   UNL A   1      32.783  34.628  29.369  1.00  0.00    -0.376 OA
BRANCH  29  30
ATOM     30  C   UNL A   1      33.427  34.075  28.233  1.00  0.00     0.202 C 
BRANCH  30  31
ATOM     31  C   UNL A   1      33.465  32.545  28.103  1.00  0.00     0.261 C 
BRANCH  31  32
ATOM     32  O   UNL A   1      34.699  31.972  27.640  1.00  0.00    -0.460 OA
BRANCH  32  33
ATOM     33  C   UNL A   1      34.743  30.635  27.465  1.00  0.00     0.338 C 
ATOM     34  O   UNL A   1      33.982  29.964  26.785  1.00  0.00    -0.246 OA
BRANCH  33  35
ATOM     35  C   UNL A   1      35.984  30.124  28.082  1.00  0.00     0.060 A 
ATOM     36  C   UNL A   1      35.928  29.565  29.364  1.00  0.00     0.016 A 
ATOM     37  C   UNL A   1      37.205  30.218  27.410  1.00  0.00     0.016 A 
ATOM     38  C   UNL A   1      37.100  29.143  29.995  1.00  0.00     0.010 A 
ATOM     39  C   UNL A   1      38.380  29.804  28.047  1.00  0.00     0.010 A 
ATOM     40  C   UNL A   1      38.339  29.304  29.360  1.00  0.00    -0.014 A 
BRANCH  40  41
ATOM     41  C   UNL A   1      39.593  29.148  30.144  1.00  0.00     0.031 A 
ATOM     42  C   UNL A   1      40.581  28.095  29.709  1.00  0.00     0.074 A 
ATOM     43  C   UNL A   1      39.871  29.939  31.197  1.00  0.00     0.049 A 
ATOM     44  N   UNL A   1      41.728  27.763  30.244  1.00  0.00    -0.248 NA
ATOM     45  C   UNL A   1      40.228  27.310  28.514  1.00  0.00     0.031 C 
ATOM     46  C   UNL A   1      39.018  31.014  31.700  1.00  0.00     0.029 A 
ATOM     47  N   UNL A   1      40.957  29.949  32.041  1.00  0.00    -0.354 N 
ATOM     48  C   UNL A   1      42.219  26.718  29.468  1.00  0.00     0.074 A 
ATOM     49  C   UNL A   1      41.241  26.460  28.435  1.00  0.00     0.031 C 
ATOM     50  C   UNL A   1      39.611  31.578  32.768  1.00  0.00     0.029 A 
ATOM     51  C   UNL A   1      40.864  30.878  33.052  1.00  0.00     0.049 A 
ATOM     52  H   UNL A   1      41.729  29.349  31.932  1.00  0.00     0.167 HD
ATOM     53  C   UNL A   1      43.379  26.035  29.602  1.00  0.00     0.031 A 
ATOM     54  C   UNL A   1      41.679  31.116  34.100  1.00  0.00     0.031 A 
ATOM     55  C   UNL A   1      44.356  26.298  30.624  1.00  0.00     0.049 A 
ATOM     56  C   UNL A   1      42.941  30.301  34.257  1.00  0.00     0.074 A 
ATOM     57  C   UNL A   1      45.585  25.689  30.810  1.00  0.00     0.029 A 
ATOM     58  N   UNL A   1      44.214  27.230  31.639  1.00  0.00    -0.354 N 
ATOM     59  N   UNL A   1      43.418  29.357  33.480  1.00  0.00    -0.248 NA
ATOM     60  C   UNL A   1      43.780  30.589  35.430  1.00  0.00     0.031 C 
ATOM     61  C   UNL A   1      46.151  26.198  31.981  1.00  0.00     0.029 A 
ATOM     62  C   UNL A   1      45.314  27.182  32.479  1.00  0.00     0.049 A 
ATOM     63  H   UNL A   1      43.445  27.835  31.747  1.00  0.00     0.167 HD
ATOM     64  C   UNL A   1      44.626  28.965  34.054  1.00  0.00     0.074 A 
ATOM     65  C   UNL A   1      44.816  29.786  35.230  1.00  0.00     0.031 C 
ATOM     66  C   UNL A   1      45.499  28.012  33.642  1.00  0.00     0.031 A 
BRANCH  53  67
ATOM     67  C   UNL A   1      43.649  24.900  28.649  1.00  0.00    -0.014 A 
ATOM     68  C   UNL A   1      42.938  23.690  28.724  1.00  0.00     0.010 A 
ATOM     69  C   UNL A   1      44.575  25.087  27.607  1.00  0.00     0.010 A 
ATOM     70  C   UNL A   1      43.162  22.681  27.782  1.00  0.00     0.020 A 
ATOM     71  C   UNL A   1      44.781  24.093  26.648  1.00  0.00     0.020 A 
ATOM     72  C   UNL A   1      44.078  22.892  26.746  1.00  0.00     0.054 A 
BRANCH  72  73
ATOM     73  S   UNL A   1      44.301  21.590  25.503  1.00  0.00     0.124 S 
ATOM     74  O   UNL A   1      43.423  20.537  26.008  1.00  0.00    -0.237 OA
ATOM     75  O   UNL A   1      43.856  22.243  24.275  1.00  0.00    -0.237 OA
ATOM     76  O   UNL A   1      45.730  21.291  25.565  1.00  0.00    -0.744 OA
ENDBRANCH  72  73
ENDBRANCH  53  67
BRANCH  54  77
ATOM     77  C   UNL A   1      41.316  32.142  35.123  1.00  0.00    -0.014 A 
ATOM     78  C   UNL A   1      40.615  31.788  36.290  1.00  0.00     0.010 A 
ATOM     79  C   UNL A   1      41.632  33.496  34.904  1.00  0.00     0.010 A 
ATOM     80  C   UNL A   1      40.203  32.771  37.197  1.00  0.00     0.020 A 
ATOM     81  C   UNL A   1      41.254  34.476  35.825  1.00  0.00     0.020 A 
ATOM     82  C   UNL A   1      40.525  34.110  36.957  1.00  0.00     0.054 A 
BRANCH  82  83
ATOM     83  S   UNL A   1      39.995  35.368  38.154  1.00  0.00     0.124 S 
ATOM     84  O   UNL A   1      39.872  36.554  37.314  1.00  0.00    -0.237 OA
ATOM     85  O   UNL A   1      38.741  34.813  38.657  1.00  0.00    -0.237 OA
ATOM     86  O   UNL A   1      41.087  35.398  39.124  1.00  0.00    -0.744 OA
ENDBRANCH  82  83
ENDBRANCH  54  77
BRANCH  66  87
ATOM     87  C   UNL A   1      46.770  27.831  34.434  1.00  0.00    -0.014 A 
ATOM     88  C   UNL A   1      46.866  26.885  35.469  1.00  0.00     0.010 A 
ATOM     89  C   UNL A   1      47.911  28.581  34.087  1.00  0.00     0.010 A 
ATOM     90  C   UNL A   1      48.068  26.717  36.164  1.00  0.00     0.020 A 
ATOM     91  C   UNL A   1      49.123  28.391  34.755  1.00  0.00     0.020 A 
ATOM     92  C   UNL A   1      49.190  27.469  35.801  1.00  0.00     0.054 A 
BRANCH  92  93
ATOM     93  S   UNL A   1      50.748  27.199  36.688  1.00  0.00     0.124 S 
ATOM     94  O   UNL A   1      51.699  27.039  35.591  1.00  0.00    -0.237 OA
ATOM     95  O   UNL A   1      50.890  28.426  37.468  1.00  0.00    -0.237 OA
ATOM     96  O   UNL A   1      50.496  25.993  37.473  1.00  0.00    -0.744 OA
ENDBRANCH  92  93
ENDBRANCH  66  87
ENDBRANCH  40  41
ENDBRANCH  33  35
ENDBRANCH  32  33
ENDBRANCH  31  32
ENDBRANCH  30  31
ENDBRANCH  29  30
ENDBRANCH  28  29
ENDBRANCH  27  28
ENDBRANCH  26  27
ENDBRANCH  25  26
ENDBRANCH   1  25
TORSDOF 29
ENDMDL
MODEL 3
REMARK VINA RESULT:      -7.8      5.872      8.985
REMARK SMILES CC[NH2+]C[C@@H](C)C(=O)N1CCO[C@@H](CC(=O)OCCOCCOCCOCCOC(=O)c2ccc(-c3c4nc(c(-c5ccc(S(=O)(=O)[O-])cc5)c5ccc([nH]5)c(-c5ccc(S(=O)(=O)[O-])cc5)c5nc(c(-c6ccc(S(=O)(=O)[O-])cc6)c6ccc3[nH]6)C=C5)C=C4)cc2)C1
REMARK SMILES IDX 21 1 20 2 19 3 18 4 17 5 15 6 16 7 14 8 13 9 9 10 10 11
REMARK SMILES IDX 92 12 11 13 12 14 7 15 8 16 5 17 6 18 4 19 3 20 2 23 1 24
REMARK SMILES IDX 22 25 23 26 24 27 25 28 26 29 27 30 28 31 29 32 30 33 31 34
REMARK SMILES IDX 32 35 33 36 91 37 34 38 90 39 35 40 36 41 37 42 84 43 38 44
REMARK SMILES IDX 89 45 83 46 85 47 39 48 88 49 82 50 81 51 40 53 70 54 51 55
REMARK SMILES IDX 69 56 52 57 55 58 68 59 86 60 53 61 54 62 67 64 87 65 56 66
REMARK SMILES IDX 41 67 42 68 50 69 43 70 49 71 44 72 45 73 46 74 47 75 48 76
REMARK SMILES IDX 71 77 72 78 80 79 73 80 79 81 74 82 75 83 76 84 77 85 78 86
REMARK SMILES IDX 57 87 58 88 66 89 59 90 65 91 60 92 61 93 62 94 63 95 64 96
REMARK H PARENT 3 21 3 22 85 52 55 63
REMARK Flexibility Score: inf
ROOT
ATOM      1  C   UNL A   1      33.035  20.692  24.733  1.00  0.00     0.188 C 
ENDROOT
BRANCH   1   2
ATOM      2  O   UNL A   1      31.741  20.714  25.302  1.00  0.00    -0.376 OA
BRANCH   2   3
ATOM      3  C   UNL A   1      31.060  21.940  25.539  1.00  0.00     0.202 C 
BRANCH   3   4
ATOM      4  C   UNL A   1      31.151  22.734  26.853  1.00  0.00     0.261 C 
BRANCH   4   5
ATOM      5  O   UNL A   1      32.080  23.831  26.884  1.00  0.00    -0.463 OA
BRANCH   5   6
ATOM      6  C   UNL A   1      31.552  25.050  26.657  1.00  0.00     0.308 C 
ATOM      7  O   UNL A   1      30.353  25.310  26.742  1.00  0.00    -0.252 OA
BRANCH   6   8
ATOM      8  C   UNL A   1      32.536  26.125  26.283  1.00  0.00     0.156 C 
BRANCH   8   9
ATOM      9  C   UNL A   1      32.439  26.929  24.993  1.00  0.00     0.148 C 
ATOM     10  N   UNL A   1      31.368  28.611  23.557  1.00  0.00    -0.337 N 
ATOM     11  C   UNL A   1      32.605  29.381  23.548  1.00  0.00     0.148 C 
ATOM     12  C   UNL A   1      31.194  27.826  24.803  1.00  0.00     0.152 C 
ATOM     13  C   UNL A   1      33.805  28.470  23.773  1.00  0.00     0.182 C 
ATOM     14  O   UNL A   1      33.652  27.742  24.995  1.00  0.00    -0.374 OA
BRANCH  10  15
ATOM     15  C   UNL A   1      30.390  28.569  22.580  1.00  0.00     0.231 C 
ATOM     16  O   UNL A   1      30.612  28.011  21.498  1.00  0.00    -0.274 OA
BRANCH  15  17
ATOM     17  C   UNL A   1      29.084  29.382  22.714  1.00  0.00     0.130 C 
ATOM     18  C   UNL A   1      27.959  28.460  23.182  1.00  0.00     0.024 C 
BRANCH  17  19
ATOM     19  C   UNL A   1      28.674  30.301  21.552  1.00  0.00     0.273 C 
BRANCH  19  20
ATOM     20  N   UNL A   1      29.360  31.602  21.487  1.00  0.00    -0.346 N 
ATOM     21  H   UNL A   1      30.238  31.530  21.999  1.00  0.00     0.346 HD
ATOM     22  H   UNL A   1      29.503  31.815  20.499  1.00  0.00     0.346 HD
BRANCH  20  23
ATOM     23  C   UNL A   1      28.585  32.701  22.052  1.00  0.00     0.257 C 
ATOM     24  C   UNL A   1      29.065  32.985  23.468  1.00  0.00     0.071 C 
ENDBRANCH  20  23
ENDBRANCH  19  20
ENDBRANCH  17  19
ENDBRANCH  15  17
ENDBRANCH  10  15
ENDBRANCH   8   9
ENDBRANCH   6   8
ENDBRANCH   5   6
ENDBRANCH   4   5
ENDBRANCH   3   4
ENDBRANCH   2   3
ENDBRANCH   1   2
BRANCH   1  25
ATOM     25  C   UNL A   1      34.213  21.346  25.465  1.00  0.00     0.188 C 
BRANCH  25  26
ATOM     26  O   UNL A   1      34.616  22.602  24.965  1.00  0.00    -0.377 OA
BRANCH  26  27
ATOM     27  C   UNL A   1      35.451  22.654  23.808  1.00  0.00     0.188 C 
BRANCH  27  28
ATOM     28  C   UNL A   1      36.960  22.340  23.917  1.00  0.00     0.188 C 
BRANCH  28  29
ATOM     29  O   UNL A   1      37.346  21.700  25.123  1.00  0.00    -0.376 OA
BRANCH  29  30
ATOM     30  C   UNL A   1      38.055  22.448  26.096  1.00  0.00     0.202 C 
BRANCH  30  31
ATOM     31  C   UNL A   1      39.531  22.094  26.339  1.00  0.00     0.261 C 
BRANCH  31  32
ATOM     32  O   UNL A   1      39.962  20.800  25.884  1.00  0.00    -0.460 OA
BRANCH  32  33
ATOM     33  C   UNL A   1      41.108  20.306  26.394  1.00  0.00     0.338 C 
ATOM     34  O   UNL A   1      41.402  19.128  26.518  1.00  0.00    -0.246 OA
BRANCH  33  35
ATOM     35  C   UNL A   1      42.045  21.429  26.610  1.00  0.00     0.060 A 
ATOM     36  C   UNL A   1      42.368  21.805  27.918  1.00  0.00     0.016 A 
ATOM     37  C   UNL A   1      42.582  22.127  25.526  1.00  0.00     0.016 A 
ATOM     38  C   UNL A   1      43.192  22.909  28.146  1.00  0.00     0.010 A 
ATOM     39  C   UNL A   1      43.400  23.239  25.755  1.00  0.00     0.010 A 
ATOM     40  C   UNL A   1      43.674  23.662  27.067  1.00  0.00    -0.014 A 
BRANCH  40  41
ATOM     41  C   UNL A   1      44.282  24.996  27.315  1.00  0.00     0.031 A 
ATOM     42  C   UNL A   1      43.376  26.130  27.724  1.00  0.00     0.074 A 
ATOM     43  C   UNL A   1      45.609  25.198  27.215  1.00  0.00     0.049 A 
ATOM     44  N   UNL A   1      43.672  27.379  27.975  1.00  0.00    -0.248 NA
ATOM     45  C   UNL A   1      41.944  25.813  27.867  1.00  0.00     0.031 C 
ATOM     46  C   UNL A   1      46.598  24.180  26.861  1.00  0.00     0.029 A 
ATOM     47  N   UNL A   1      46.353  26.340  27.397  1.00  0.00    -0.354 N 
ATOM     48  C   UNL A   1      42.465  28.000  28.280  1.00  0.00     0.074 A 
ATOM     49  C   UNL A   1      41.431  26.997  28.168  1.00  0.00     0.031 C 
ATOM     50  C   UNL A   1      47.819  24.746  26.846  1.00  0.00     0.029 A 
ATOM     51  C   UNL A   1      47.696  26.172  27.148  1.00  0.00     0.049 A 
ATOM     52  H   UNL A   1      45.962  27.198  27.678  1.00  0.00     0.167 HD
ATOM     53  C   UNL A   1      42.238  29.289  28.622  1.00  0.00     0.031 A 
ATOM     54  C   UNL A   1      48.704  27.069  27.138  1.00  0.00     0.031 A 
ATOM     55  C   UNL A   1      43.268  30.286  28.742  1.00  0.00     0.049 A 
ATOM     56  C   UNL A   1      48.412  28.514  27.470  1.00  0.00     0.074 A 
ATOM     57  C   UNL A   1      43.139  31.608  29.131  1.00  0.00     0.029 A 
ATOM     58  N   UNL A   1      44.609  30.080  28.462  1.00  0.00    -0.354 N 
ATOM     59  N   UNL A   1      47.275  29.071  27.812  1.00  0.00    -0.248 NA
ATOM     60  C   UNL A   1      49.545  29.451  27.421  1.00  0.00     0.031 C 
ATOM     61  C   UNL A   1      44.388  32.221  29.011  1.00  0.00     0.029 A 
ATOM     62  C   UNL A   1      45.311  31.262  28.628  1.00  0.00     0.049 A 
ATOM     63  H   UNL A   1      45.004  29.222  28.185  1.00  0.00     0.167 HD
ATOM     64  C   UNL A   1      47.564  30.412  28.051  1.00  0.00     0.074 A 
ATOM     65  C   UNL A   1      48.984  30.580  27.833  1.00  0.00     0.031 C 
ATOM     66  C   UNL A   1      46.728  31.416  28.419  1.00  0.00     0.031 A 
BRANCH  53  67
ATOM     67  C   UNL A   1      40.813  29.722  28.851  1.00  0.00    -0.014 A 
ATOM     68  C   UNL A   1      40.491  30.746  29.759  1.00  0.00     0.010 A 
ATOM     69  C   UNL A   1      39.790  29.146  28.076  1.00  0.00     0.010 A 
ATOM     70  C   UNL A   1      39.166  31.172  29.899  1.00  0.00     0.020 A 
ATOM     71  C   UNL A   1      38.471  29.589  28.192  1.00  0.00     0.020 A 
ATOM     72  C   UNL A   1      38.166  30.596  29.110  1.00  0.00     0.054 A 
BRANCH  72  73
ATOM     73  S   UNL A   1      36.468  31.214  29.267  1.00  0.00     0.124 S 
ATOM     74  O   UNL A   1      36.031  30.580  30.509  1.00  0.00    -0.237 OA
ATOM     75  O   UNL A   1      36.660  32.660  29.334  1.00  0.00    -0.237 OA
ATOM     76  O   UNL A   1      35.808  30.730  28.057  1.00  0.00    -0.744 OA
ENDBRANCH  72  73
ENDBRANCH  53  67
BRANCH  54  77
ATOM     77  C   UNL A   1      50.085  26.650  26.755  1.00  0.00    -0.014 A 
ATOM     78  C   UNL A   1      51.035  26.299  27.731  1.00  0.00     0.010 A 
ATOM     79  C   UNL A   1      50.470  26.650  25.402  1.00  0.00     0.010 A 
ATOM     80  C   UNL A   1      52.351  25.994  27.365  1.00  0.00     0.020 A 
ATOM     81  C   UNL A   1      51.773  26.311  25.029  1.00  0.00     0.020 A 
ATOM     82  C   UNL A   1      52.711  26.004  26.015  1.00  0.00     0.054 A 
BRANCH  82  83
ATOM     83  S   UNL A   1      54.419  25.590  25.560  1.00  0.00     0.124 S 
ATOM     84  O   UNL A   1      54.263  24.268  24.963  1.00  0.00    -0.237 OA
ATOM     85  O   UNL A   1      54.767  26.666  24.635  1.00  0.00    -0.237 OA
ATOM     86  O   UNL A   1      55.130  25.622  26.836  1.00  0.00    -0.744 OA
ENDBRANCH  82  83
ENDBRANCH  54  77
BRANCH  66  87
ATOM     87  C   UNL A   1      47.327  32.779  28.662  1.00  0.00    -0.014 A 
ATOM     88  C   UNL A   1      48.149  33.036  29.773  1.00  0.00     0.010 A 
ATOM     89  C   UNL A   1      47.113  33.804  27.720  1.00  0.00     0.010 A 
ATOM     90  C   UNL A   1      48.717  34.300  29.956  1.00  0.00     0.020 A 
ATOM     91  C   UNL A   1      47.707  35.058  27.880  1.00  0.00     0.020 A 
ATOM     92  C   UNL A   1      48.494  35.303  29.006  1.00  0.00     0.054 A 
BRANCH  92  93
ATOM     93  S   UNL A   1      49.279  36.921  29.243  1.00  0.00     0.124 S 
ATOM     94  O   UNL A   1      48.448  37.512  30.289  1.00  0.00    -0.237 OA
ATOM     95  O   UNL A   1      50.636  36.562  29.647  1.00  0.00    -0.237 OA
ATOM     96  O   UNL A   1      49.172  37.555  27.931  1.00  0.00    -0.744 OA
ENDBRANCH  92  93
ENDBRANCH  66  87
ENDBRANCH  40  41
ENDBRANCH  33  35
ENDBRANCH  32  33
ENDBRANCH  31  32
ENDBRANCH  30  31
ENDBRANCH  29  30
ENDBRANCH  28  29
ENDBRANCH  27  28
ENDBRANCH  26  27
ENDBRANCH  25  26
ENDBRANCH   1  25
TORSDOF 29
ENDMDL
