MODEL 1
REMARK VINA RESULT:      -9.0      0.000      0.000
REMARK SMILES [NH3+][C@H](C(=O)OCCOCCOCCOCCOC(=O)c1ccc(-c2c3nc(c(-c4ccc(S(=O)(=O)[O-])cc4)c4ccc([nH]4)c(-c4ccc(S(=O)(=O)[O-])cc4)c4nc(c(-c5ccc(S(=O)(=O)[O-])cc5)c5ccc2[nH]5)C=C4)C=C3)cc1)c1ccc(Cl)c(OC(F)(F)F)c1
REMARK SMILES IDX 11 1 10 2 9 3 8 4 7 5 6 6 5 7 3 8 4 9 2 10 1 11 80 15 81 16
REMARK SMILES IDX 91 17 82 18 85 19 83 20 84 21 86 22 87 23 88 24 89 25 90 26
REMARK SMILES IDX 12 27 13 28 14 29 15 30 16 31 17 32 18 33 19 34 20 35 21 36
REMARK SMILES IDX 79 37 22 38 78 39 23 40 24 41 25 42 72 43 26 44 77 45 71 46
REMARK SMILES IDX 73 47 27 48 76 49 70 50 69 51 28 53 58 54 39 55 57 56 40 57
REMARK SMILES IDX 43 58 56 59 74 60 41 61 42 62 55 64 75 65 44 66 29 67 30 68
REMARK SMILES IDX 38 69 31 70 37 71 32 72 33 73 34 74 35 75 36 76 59 77 60 78
REMARK SMILES IDX 68 79 61 80 67 81 62 82 63 83 64 84 65 85 66 86 45 87 46 88
REMARK SMILES IDX 54 89 47 90 53 91 48 92 49 93 50 94 51 95 52 96
REMARK H PARENT 1 12 1 13 1 14 73 52 43 63
REMARK Flexibility Score: inf
ROOT
ATOM      1  O   UNL A   1      43.441  19.537  24.818  1.00  0.00    -0.377 OA
ENDROOT
BRANCH   1   2
ATOM      2  C   UNL A   1      42.547  18.868  25.701  1.00  0.00     0.188 C 
BRANCH   2   3
ATOM      3  C   UNL A   1      41.869  19.677  26.813  1.00  0.00     0.188 C 
BRANCH   3   4
ATOM      4  O   UNL A   1      40.623  20.193  26.413  1.00  0.00    -0.376 OA
BRANCH   4   5
ATOM      5  C   UNL A   1      40.445  21.591  26.261  1.00  0.00     0.202 C 
BRANCH   5   6
ATOM      6  C   UNL A   1      39.065  22.263  26.131  1.00  0.00     0.261 C 
BRANCH   6   7
ATOM      7  O   UNL A   1      37.960  21.428  25.768  1.00  0.00    -0.459 OA
BRANCH   7   8
ATOM      8  C   UNL A   1      36.821  22.084  25.399  1.00  0.00     0.369 C 
ATOM      9  O   UNL A   1      36.786  22.985  24.563  1.00  0.00    -0.245 OA
BRANCH   8  10
ATOM     10  C   UNL A   1      35.555  21.611  26.162  1.00  0.00     0.323 C 
BRANCH  10  11
ATOM     11  N   UNL A   1      34.771  22.703  26.768  1.00  0.00    -0.342 N 
ATOM     12  H   UNL A   1      33.777  22.494  26.684  1.00  0.00     0.345 HD
ATOM     13  H   UNL A   1      34.976  23.578  26.284  1.00  0.00     0.345 HD
ATOM     14  H   UNL A   1      35.018  22.794  27.753  1.00  0.00     0.345 HD
ENDBRANCH  10  11
BRANCH  10  15
ATOM     15  C   UNL A   1      34.707  20.776  25.223  1.00  0.00     0.025 A 
ATOM     16  C   UNL A   1      33.471  21.231  24.753  1.00  0.00     0.012 A 
ATOM     17  C   UNL A   1      35.122  19.468  24.915  1.00  0.00     0.059 A 
ATOM     18  C   UNL A   1      32.644  20.369  24.036  1.00  0.00     0.025 A 
ATOM     19  C   UNL A   1      34.275  18.573  24.263  1.00  0.00     0.148 A 
ATOM     20  C   UNL A   1      33.037  19.045  23.806  1.00  0.00     0.083 A 
ATOM     21  Cl  UNL A   1      31.931  18.003  22.979  1.00  0.00    -0.080 Cl
BRANCH  19  22
ATOM     22  O   UNL A   1      34.574  17.253  24.062  1.00  0.00    -0.404 OA
BRANCH  22  23
ATOM     23  C   UNL A   1      34.201  16.342  25.089  1.00  0.00     0.573 C 
ATOM     24  F   UNL A   1      35.279  15.672  25.546  1.00  0.00    -0.132 F 
ATOM     25  F   UNL A   1      33.608  16.984  26.122  1.00  0.00    -0.132 F 
ATOM     26  F   UNL A   1      33.319  15.453  24.591  1.00  0.00    -0.132 F 
ENDBRANCH  22  23
ENDBRANCH  19  22
ENDBRANCH  10  15
ENDBRANCH   8  10
ENDBRANCH   7   8
ENDBRANCH   6   7
ENDBRANCH   5   6
ENDBRANCH   4   5
ENDBRANCH   3   4
ENDBRANCH   2   3
ENDBRANCH   1   2
BRANCH   1  27
ATOM     27  C   UNL A   1      44.467  20.378  25.357  1.00  0.00     0.188 C 
BRANCH  27  28
ATOM     28  C   UNL A   1      45.478  21.074  24.429  1.00  0.00     0.188 C 
BRANCH  28  29
ATOM     29  O   UNL A   1      45.302  22.450  24.104  1.00  0.00    -0.376 OA
BRANCH  29  30
ATOM     30  C   UNL A   1      44.053  23.065  24.378  1.00  0.00     0.202 C 
BRANCH  30  31
ATOM     31  C   UNL A   1      44.077  24.290  25.283  1.00  0.00     0.261 C 
BRANCH  31  32
ATOM     32  O   UNL A   1      42.781  24.608  25.800  1.00  0.00    -0.460 OA
BRANCH  32  33
ATOM     33  C   UNL A   1      42.446  25.913  25.694  1.00  0.00     0.338 C 
ATOM     34  O   UNL A   1      42.035  26.497  24.698  1.00  0.00    -0.246 OA
BRANCH  33  35
ATOM     35  C   UNL A   1      42.505  26.543  27.020  1.00  0.00     0.060 A 
ATOM     36  C   UNL A   1      41.724  25.995  28.045  1.00  0.00     0.016 A 
ATOM     37  C   UNL A   1      43.247  27.709  27.227  1.00  0.00     0.016 A 
ATOM     38  C   UNL A   1      41.626  26.651  29.264  1.00  0.00     0.010 A 
ATOM     39  C   UNL A   1      43.138  28.374  28.447  1.00  0.00     0.010 A 
ATOM     40  C   UNL A   1      42.286  27.871  29.447  1.00  0.00    -0.014 A 
BRANCH  40  41
ATOM     41  C   UNL A   1      41.913  28.725  30.593  1.00  0.00     0.031 A 
ATOM     42  C   UNL A   1      42.741  28.634  31.846  1.00  0.00     0.074 A 
ATOM     43  C   UNL A   1      40.886  29.585  30.503  1.00  0.00     0.049 A 
ATOM     44  N   UNL A   1      42.581  29.244  32.989  1.00  0.00    -0.248 NA
ATOM     45  C   UNL A   1      43.905  27.731  31.802  1.00  0.00     0.031 C 
ATOM     46  C   UNL A   1      40.061  29.792  29.314  1.00  0.00     0.029 A 
ATOM     47  N   UNL A   1      40.364  30.442  31.435  1.00  0.00    -0.354 N 
ATOM     48  C   UNL A   1      43.613  28.793  33.804  1.00  0.00     0.074 A 
ATOM     49  C   UNL A   1      44.376  27.834  33.036  1.00  0.00     0.031 C 
ATOM     50  C   UNL A   1      39.123  30.714  29.594  1.00  0.00     0.029 A 
ATOM     51  C   UNL A   1      39.260  31.126  30.989  1.00  0.00     0.049 A 
ATOM     52  H   UNL A   1      40.743  30.556  32.336  1.00  0.00     0.167 HD
ATOM     53  C   UNL A   1      43.901  29.150  35.077  1.00  0.00     0.031 A 
ATOM     54  C   UNL A   1      38.437  31.966  31.647  1.00  0.00     0.031 A 
ATOM     55  C   UNL A   1      43.121  30.094  35.833  1.00  0.00     0.049 A 
ATOM     56  C   UNL A   1      38.726  32.285  33.092  1.00  0.00     0.074 A 
ATOM     57  C   UNL A   1      43.322  30.532  37.129  1.00  0.00     0.029 A 
ATOM     58  N   UNL A   1      41.986  30.738  35.362  1.00  0.00    -0.354 N 
ATOM     59  N   UNL A   1      39.711  31.861  33.848  1.00  0.00    -0.248 NA
ATOM     60  C   UNL A   1      37.799  33.201  33.766  1.00  0.00     0.031 C 
ATOM     61  C   UNL A   1      42.270  31.392  37.464  1.00  0.00     0.029 A 
ATOM     62  C   UNL A   1      41.458  31.548  36.351  1.00  0.00     0.049 A 
ATOM     63  H   UNL A   1      41.612  30.633  34.458  1.00  0.00     0.167 HD
ATOM     64  C   UNL A   1      39.539  32.484  35.080  1.00  0.00     0.074 A 
ATOM     65  C   UNL A   1      38.364  33.324  34.959  1.00  0.00     0.031 C 
ATOM     66  C   UNL A   1      40.285  32.375  36.208  1.00  0.00     0.031 A 
BRANCH  53  67
ATOM     67  C   UNL A   1      45.081  28.488  35.739  1.00  0.00    -0.014 A 
ATOM     68  C   UNL A   1      46.358  29.076  35.723  1.00  0.00     0.010 A 
ATOM     69  C   UNL A   1      44.899  27.268  36.417  1.00  0.00     0.010 A 
ATOM     70  C   UNL A   1      47.440  28.438  36.338  1.00  0.00     0.020 A 
ATOM     71  C   UNL A   1      45.971  26.643  37.061  1.00  0.00     0.020 A 
ATOM     72  C   UNL A   1      47.238  27.225  37.004  1.00  0.00     0.054 A 
BRANCH  72  73
ATOM     73  S   UNL A   1      48.654  26.435  37.818  1.00  0.00     0.124 S 
ATOM     74  O   UNL A   1      48.514  25.047  37.384  1.00  0.00    -0.237 OA
ATOM     75  O   UNL A   1      49.790  27.158  37.254  1.00  0.00    -0.237 OA
ATOM     76  O   UNL A   1      48.412  26.669  39.240  1.00  0.00    -0.744 OA
ENDBRANCH  72  73
ENDBRANCH  53  67
BRANCH  54  77
ATOM     77  C   UNL A   1      37.252  32.539  30.953  1.00  0.00    -0.014 A 
ATOM     78  C   UNL A   1      37.370  33.688  30.154  1.00  0.00     0.010 A 
ATOM     79  C   UNL A   1      35.991  31.925  31.086  1.00  0.00     0.010 A 
ATOM     80  C   UNL A   1      36.247  34.223  29.514  1.00  0.00     0.020 A 
ATOM     81  C   UNL A   1      34.874  32.438  30.423  1.00  0.00     0.020 A 
ATOM     82  C   UNL A   1      35.007  33.592  29.649  1.00  0.00     0.054 A 
BRANCH  82  83
ATOM     83  S   UNL A   1      33.577  34.275  28.767  1.00  0.00     0.124 S 
ATOM     84  O   UNL A   1      32.745  34.756  29.865  1.00  0.00    -0.237 OA
ATOM     85  O   UNL A   1      34.189  35.308  27.935  1.00  0.00    -0.237 OA
ATOM     86  O   UNL A   1      33.047  33.128  28.035  1.00  0.00    -0.744 OA
ENDBRANCH  82  83
ENDBRANCH  54  77
BRANCH  66  87
ATOM     87  C   UNL A   1      39.880  33.215  37.392  1.00  0.00    -0.014 A 
ATOM     88  C   UNL A   1      39.097  32.688  38.434  1.00  0.00     0.010 A 
ATOM     89  C   UNL A   1      40.343  34.541  37.486  1.00  0.00     0.010 A 
ATOM     90  C   UNL A   1      38.758  33.481  39.533  1.00  0.00     0.020 A 
ATOM     91  C   UNL A   1      40.034  35.326  38.599  1.00  0.00     0.020 A 
ATOM     92  C   UNL A   1      39.231  34.796  39.609  1.00  0.00     0.054 A 
BRANCH  92  93
ATOM     93  S   UNL A   1      38.812  35.789  41.067  1.00  0.00     0.124 S 
ATOM     94  O   UNL A   1      39.903  35.461  41.981  1.00  0.00    -0.237 OA
ATOM     95  O   UNL A   1      38.822  37.151  40.539  1.00  0.00    -0.237 OA
ATOM     96  O   UNL A   1      37.498  35.289  41.463  1.00  0.00    -0.744 OA
ENDBRANCH  92  93
ENDBRANCH  66  87
ENDBRANCH  40  41
ENDBRANCH  33  35
ENDBRANCH  32  33
ENDBRANCH  31  32
ENDBRANCH  30  31
ENDBRANCH  29  30
ENDBRANCH  28  29
ENDBRANCH  27  28
ENDBRANCH   1  27
TORSDOF 27
ENDMDL
MODEL 2
REMARK VINA RESULT:      -8.9      6.820     12.223
REMARK SMILES [NH3+][C@H](C(=O)OCCOCCOCCOCCOC(=O)c1ccc(-c2c3nc(c(-c4ccc(S(=O)(=O)[O-])cc4)c4ccc([nH]4)c(-c4ccc(S(=O)(=O)[O-])cc4)c4nc(c(-c5ccc(S(=O)(=O)[O-])cc5)c5ccc2[nH]5)C=C4)C=C3)cc1)c1ccc(Cl)c(OC(F)(F)F)c1
REMARK SMILES IDX 11 1 10 2 9 3 8 4 7 5 6 6 5 7 3 8 4 9 2 10 1 11 80 15 81 16
REMARK SMILES IDX 91 17 82 18 85 19 83 20 84 21 86 22 87 23 88 24 89 25 90 26
REMARK SMILES IDX 12 27 13 28 14 29 15 30 16 31 17 32 18 33 19 34 20 35 21 36
REMARK SMILES IDX 79 37 22 38 78 39 23 40 24 41 25 42 72 43 26 44 77 45 71 46
REMARK SMILES IDX 73 47 27 48 76 49 70 50 69 51 28 53 58 54 39 55 57 56 40 57
REMARK SMILES IDX 43 58 56 59 74 60 41 61 42 62 55 64 75 65 44 66 29 67 30 68
REMARK SMILES IDX 38 69 31 70 37 71 32 72 33 73 34 74 35 75 36 76 59 77 60 78
REMARK SMILES IDX 68 79 61 80 67 81 62 82 63 83 64 84 65 85 66 86 45 87 46 88
REMARK SMILES IDX 54 89 47 90 53 91 48 92 49 93 50 94 51 95 52 96
REMARK H PARENT 1 12 1 13 1 14 73 52 43 63
REMARK Flexibility Score: inf
ROOT
ATOM      1  O   UNL A   1      33.289  28.497  25.900  1.00  0.00    -0.377 OA
ENDROOT
BRANCH   1   2
ATOM      2  C   UNL A   1      32.066  27.967  26.400  1.00  0.00     0.188 C 
BRANCH   2   3
ATOM      3  C   UNL A   1      31.377  26.844  25.616  1.00  0.00     0.188 C 
BRANCH   3   4
ATOM      4  O   UNL A   1      31.088  27.218  24.291  1.00  0.00    -0.376 OA
BRANCH   4   5
ATOM      5  C   UNL A   1      31.276  26.295  23.232  1.00  0.00     0.202 C 
BRANCH   5   6
ATOM      6  C   UNL A   1      32.461  26.358  22.250  1.00  0.00     0.261 C 
BRANCH   6   7
ATOM      7  O   UNL A   1      33.754  26.014  22.760  1.00  0.00    -0.459 OA
BRANCH   7   8
ATOM      8  C   UNL A   1      33.960  24.685  22.998  1.00  0.00     0.369 C 
ATOM      9  O   UNL A   1      33.990  23.826  22.120  1.00  0.00    -0.245 OA
BRANCH   8  10
ATOM     10  C   UNL A   1      34.124  24.340  24.503  1.00  0.00     0.323 C 
BRANCH  10  11
ATOM     11  N   UNL A   1      33.036  23.511  25.054  1.00  0.00    -0.342 N 
ATOM     12  H   UNL A   1      32.770  23.866  25.972  1.00  0.00     0.345 HD
ATOM     13  H   UNL A   1      33.356  22.546  25.143  1.00  0.00     0.345 HD
ATOM     14  H   UNL A   1      32.230  23.546  24.429  1.00  0.00     0.345 HD
ENDBRANCH  10  11
BRANCH  10  15
ATOM     15  C   UNL A   1      35.476  23.686  24.705  1.00  0.00     0.025 A 
ATOM     16  C   UNL A   1      35.879  22.588  23.938  1.00  0.00     0.012 A 
ATOM     17  C   UNL A   1      36.289  24.120  25.767  1.00  0.00     0.059 A 
ATOM     18  C   UNL A   1      37.049  21.906  24.269  1.00  0.00     0.025 A 
ATOM     19  C   UNL A   1      37.421  23.405  26.153  1.00  0.00     0.148 A 
ATOM     20  C   UNL A   1      37.806  22.302  25.378  1.00  0.00     0.083 A 
ATOM     21  Cl  UNL A   1      39.203  21.367  25.783  1.00  0.00    -0.080 Cl
BRANCH  19  22
ATOM     22  O   UNL A   1      38.167  23.704  27.261  1.00  0.00    -0.404 OA
BRANCH  22  23
ATOM     23  C   UNL A   1      39.297  24.546  27.072  1.00  0.00     0.573 C 
ATOM     24  F   UNL A   1      40.434  23.902  27.410  1.00  0.00    -0.132 F 
ATOM     25  F   UNL A   1      39.390  24.961  25.788  1.00  0.00    -0.132 F 
ATOM     26  F   UNL A   1      39.170  25.637  27.854  1.00  0.00    -0.132 F 
ENDBRANCH  22  23
ENDBRANCH  19  22
ENDBRANCH  10  15
ENDBRANCH   8  10
ENDBRANCH   7   8
ENDBRANCH   6   7
ENDBRANCH   5   6
ENDBRANCH   4   5
ENDBRANCH   3   4
ENDBRANCH   2   3
ENDBRANCH   1   2
BRANCH   1  27
ATOM     27  C   UNL A   1      34.155  29.223  26.781  1.00  0.00     0.188 C 
BRANCH  27  28
ATOM     28  C   UNL A   1      33.662  30.497  27.488  1.00  0.00     0.188 C 
BRANCH  28  29
ATOM     29  O   UNL A   1      34.524  31.628  27.580  1.00  0.00    -0.376 OA
BRANCH  29  30
ATOM     30  C   UNL A   1      35.011  32.019  28.854  1.00  0.00     0.202 C 
BRANCH  30  31
ATOM     31  C   UNL A   1      36.509  31.879  29.088  1.00  0.00     0.261 C 
BRANCH  31  32
ATOM     32  O   UNL A   1      37.080  30.809  28.328  1.00  0.00    -0.460 OA
BRANCH  32  33
ATOM     33  C   UNL A   1      37.421  29.727  29.060  1.00  0.00     0.338 C 
ATOM     34  O   UNL A   1      36.727  29.133  29.879  1.00  0.00    -0.246 OA
BRANCH  33  35
ATOM     35  C   UNL A   1      38.740  29.241  28.633  1.00  0.00     0.060 A 
ATOM     36  C   UNL A   1      39.649  28.847  29.623  1.00  0.00     0.016 A 
ATOM     37  C   UNL A   1      39.109  29.260  27.286  1.00  0.00     0.016 A 
ATOM     38  C   UNL A   1      40.956  28.536  29.276  1.00  0.00     0.010 A 
ATOM     39  C   UNL A   1      40.425  28.960  26.939  1.00  0.00     0.010 A 
ATOM     40  C   UNL A   1      41.361  28.648  27.941  1.00  0.00    -0.014 A 
BRANCH  40  41
ATOM     41  C   UNL A   1      42.805  28.653  27.627  1.00  0.00     0.031 A 
ATOM     42  C   UNL A   1      43.416  27.394  27.076  1.00  0.00     0.074 A 
ATOM     43  C   UNL A   1      43.539  29.764  27.794  1.00  0.00     0.049 A 
ATOM     44  N   UNL A   1      44.661  27.144  26.772  1.00  0.00    -0.248 NA
ATOM     45  C   UNL A   1      42.499  26.265  26.838  1.00  0.00     0.031 C 
ATOM     46  C   UNL A   1      43.028  31.052  28.265  1.00  0.00     0.029 A 
ATOM     47  N   UNL A   1      44.876  29.982  27.589  1.00  0.00    -0.354 N 
ATOM     48  C   UNL A   1      44.681  25.831  26.318  1.00  0.00     0.074 A 
ATOM     49  C   UNL A   1      43.330  25.324  26.416  1.00  0.00     0.031 C 
ATOM     50  C   UNL A   1      44.047  31.926  28.323  1.00  0.00     0.029 A 
ATOM     51  C   UNL A   1      45.282  31.248  27.935  1.00  0.00     0.049 A 
ATOM     52  H   UNL A   1      45.485  29.299  27.228  1.00  0.00     0.167 HD
ATOM     53  C   UNL A   1      45.732  25.113  25.858  1.00  0.00     0.031 A 
ATOM     54  C   UNL A   1      46.518  31.783  27.962  1.00  0.00     0.031 A 
ATOM     55  C   UNL A   1      47.073  25.626  25.782  1.00  0.00     0.049 A 
ATOM     56  C   UNL A   1      47.687  30.938  27.526  1.00  0.00     0.074 A 
ATOM     57  C   UNL A   1      48.214  24.989  25.330  1.00  0.00     0.029 A 
ATOM     58  N   UNL A   1      47.455  26.900  26.178  1.00  0.00    -0.354 N 
ATOM     59  N   UNL A   1      47.693  29.701  27.088  1.00  0.00    -0.248 NA
ATOM     60  C   UNL A   1      49.013  31.565  27.578  1.00  0.00     0.031 C 
ATOM     61  C   UNL A   1      49.297  25.856  25.514  1.00  0.00     0.029 A 
ATOM     62  C   UNL A   1      48.819  27.059  26.009  1.00  0.00     0.049 A 
ATOM     63  H   UNL A   1      46.845  27.589  26.529  1.00  0.00     0.167 HD
ATOM     64  C   UNL A   1      49.019  29.411  26.784  1.00  0.00     0.074 A 
ATOM     65  C   UNL A   1      49.781  30.609  27.074  1.00  0.00     0.031 C 
ATOM     66  C   UNL A   1      49.557  28.261  26.305  1.00  0.00     0.031 A 
BRANCH  53  67
ATOM     67  C   UNL A   1      45.475  23.688  25.441  1.00  0.00    -0.014 A 
ATOM     68  C   UNL A   1      45.539  22.629  26.365  1.00  0.00     0.010 A 
ATOM     69  C   UNL A   1      45.135  23.408  24.104  1.00  0.00     0.010 A 
ATOM     70  C   UNL A   1      45.304  21.314  25.953  1.00  0.00     0.020 A 
ATOM     71  C   UNL A   1      44.867  22.098  23.696  1.00  0.00     0.020 A 
ATOM     72  C   UNL A   1      44.969  21.058  24.621  1.00  0.00     0.054 A 
BRANCH  72  73
ATOM     73  S   UNL A   1      44.642  19.344  24.121  1.00  0.00     0.124 S 
ATOM     74  O   UNL A   1      45.820  18.650  24.634  1.00  0.00    -0.237 OA
ATOM     75  O   UNL A   1      43.388  19.047  24.808  1.00  0.00    -0.237 OA
ATOM     76  O   UNL A   1      44.549  19.419  22.665  1.00  0.00    -0.744 OA
ENDBRANCH  72  73
ENDBRANCH  53  67
BRANCH  54  77
ATOM     77  C   UNL A   1      46.711  33.178  28.444  1.00  0.00    -0.014 A 
ATOM     78  C   UNL A   1      46.940  33.446  29.803  1.00  0.00     0.010 A 
ATOM     79  C   UNL A   1      46.674  34.251  27.532  1.00  0.00     0.010 A 
ATOM     80  C   UNL A   1      47.110  34.762  30.246  1.00  0.00     0.020 A 
ATOM     81  C   UNL A   1      46.875  35.563  27.966  1.00  0.00     0.020 A 
ATOM     82  C   UNL A   1      47.081  35.812  29.323  1.00  0.00     0.054 A 
BRANCH  82  83
ATOM     83  S   UNL A   1      47.357  37.504  29.916  1.00  0.00     0.124 S 
ATOM     84  O   UNL A   1      46.764  37.460  31.248  1.00  0.00    -0.237 OA
ATOM     85  O   UNL A   1      48.812  37.616  29.871  1.00  0.00    -0.237 OA
ATOM     86  O   UNL A   1      46.646  38.327  28.940  1.00  0.00    -0.744 OA
ENDBRANCH  82  83
ENDBRANCH  54  77
BRANCH  66  87
ATOM     87  C   UNL A   1      51.038  28.254  26.024  1.00  0.00    -0.014 A 
ATOM     88  C   UNL A   1      51.968  27.846  26.996  1.00  0.00     0.010 A 
ATOM     89  C   UNL A   1      51.497  28.606  24.741  1.00  0.00     0.010 A 
ATOM     90  C   UNL A   1      53.334  27.824  26.700  1.00  0.00     0.020 A 
ATOM     91  C   UNL A   1      52.857  28.552  24.431  1.00  0.00     0.020 A 
ATOM     92  C   UNL A   1      53.770  28.175  25.418  1.00  0.00     0.054 A 
BRANCH  92  93
ATOM     93  S   UNL A   1      55.542  28.094  25.047  1.00  0.00     0.124 S 
ATOM     94  O   UNL A   1      56.027  27.181  26.079  1.00  0.00    -0.237 OA
ATOM     95  O   UNL A   1      55.561  27.569  23.684  1.00  0.00    -0.237 OA
ATOM     96  O   UNL A   1      55.990  29.478  25.183  1.00  0.00    -0.744 OA
ENDBRANCH  92  93
ENDBRANCH  66  87
ENDBRANCH  40  41
ENDBRANCH  33  35
ENDBRANCH  32  33
ENDBRANCH  31  32
ENDBRANCH  30  31
ENDBRANCH  29  30
ENDBRANCH  28  29
ENDBRANCH  27  28
ENDBRANCH   1  27
TORSDOF 27
ENDMDL
MODEL 3
REMARK VINA RESULT:      -8.4      2.959      3.849
REMARK SMILES [NH3+][C@H](C(=O)OCCOCCOCCOCCOC(=O)c1ccc(-c2c3nc(c(-c4ccc(S(=O)(=O)[O-])cc4)c4ccc([nH]4)c(-c4ccc(S(=O)(=O)[O-])cc4)c4nc(c(-c5ccc(S(=O)(=O)[O-])cc5)c5ccc2[nH]5)C=C4)C=C3)cc1)c1ccc(Cl)c(OC(F)(F)F)c1
REMARK SMILES IDX 11 1 10 2 9 3 8 4 7 5 6 6 5 7 3 8 4 9 2 10 1 11 80 15 81 16
REMARK SMILES IDX 91 17 82 18 85 19 83 20 84 21 86 22 87 23 88 24 89 25 90 26
REMARK SMILES IDX 12 27 13 28 14 29 15 30 16 31 17 32 18 33 19 34 20 35 21 36
REMARK SMILES IDX 79 37 22 38 78 39 23 40 24 41 25 42 72 43 26 44 77 45 71 46
REMARK SMILES IDX 73 47 27 48 76 49 70 50 69 51 28 53 58 54 39 55 57 56 40 57
REMARK SMILES IDX 43 58 56 59 74 60 41 61 42 62 55 64 75 65 44 66 29 67 30 68
REMARK SMILES IDX 38 69 31 70 37 71 32 72 33 73 34 74 35 75 36 76 59 77 60 78
REMARK SMILES IDX 68 79 61 80 67 81 62 82 63 83 64 84 65 85 66 86 45 87 46 88
REMARK SMILES IDX 54 89 47 90 53 91 48 92 49 93 50 94 51 95 52 96
REMARK H PARENT 1 12 1 13 1 14 73 52 43 63
REMARK Flexibility Score: inf
ROOT
ATOM      1  O   UNL A   1      40.105  21.138  27.015  1.00  0.00    -0.377 OA
ENDROOT
BRANCH   1   2
ATOM      2  C   UNL A   1      39.896  22.384  26.357  1.00  0.00     0.188 C 
BRANCH   2   3
ATOM      3  C   UNL A   1      38.458  22.861  26.127  1.00  0.00     0.188 C 
BRANCH   3   4
ATOM      4  O   UNL A   1      37.589  21.801  25.807  1.00  0.00    -0.376 OA
BRANCH   4   5
ATOM      5  C   UNL A   1      36.392  22.052  25.091  1.00  0.00     0.202 C 
BRANCH   5   6
ATOM      6  C   UNL A   1      35.947  23.457  24.644  1.00  0.00     0.261 C 
BRANCH   6   7
ATOM      7  O   UNL A   1      34.546  23.669  24.442  1.00  0.00    -0.459 OA
BRANCH   7   8
ATOM      8  C   UNL A   1      33.859  22.609  23.922  1.00  0.00     0.369 C 
ATOM      9  O   UNL A   1      33.874  21.477  24.402  1.00  0.00    -0.245 OA
BRANCH   8  10
ATOM     10  C   UNL A   1      33.068  22.953  22.631  1.00  0.00     0.323 C 
BRANCH  10  11
ATOM     11  N   UNL A   1      31.905  22.080  22.385  1.00  0.00    -0.342 N 
ATOM     12  H   UNL A   1      31.199  22.244  23.103  1.00  0.00     0.345 HD
ATOM     13  H   UNL A   1      32.199  21.104  22.417  1.00  0.00     0.345 HD
ATOM     14  H   UNL A   1      31.511  22.287  21.467  1.00  0.00     0.345 HD
ENDBRANCH  10  11
BRANCH  10  15
ATOM     15  C   UNL A   1      32.662  24.412  22.687  1.00  0.00     0.025 A 
ATOM     16  C   UNL A   1      33.187  25.352  21.795  1.00  0.00     0.012 A 
ATOM     17  C   UNL A   1      31.831  24.847  23.735  1.00  0.00     0.059 A 
ATOM     18  C   UNL A   1      32.926  26.708  21.986  1.00  0.00     0.025 A 
ATOM     19  C   UNL A   1      31.623  26.203  23.982  1.00  0.00     0.148 A 
ATOM     20  C   UNL A   1      32.164  27.131  23.081  1.00  0.00     0.083 A 
ATOM     21  Cl  UNL A   1      31.944  28.832  23.308  1.00  0.00    -0.080 Cl
BRANCH  19  22
ATOM     22  O   UNL A   1      30.940  26.682  25.067  1.00  0.00    -0.404 OA
BRANCH  22  23
ATOM     23  C   UNL A   1      31.620  26.670  26.316  1.00  0.00     0.573 C 
ATOM     24  F   UNL A   1      31.579  25.440  26.868  1.00  0.00    -0.132 F 
ATOM     25  F   UNL A   1      32.911  27.049  26.175  1.00  0.00    -0.132 F 
ATOM     26  F   UNL A   1      31.020  27.540  27.153  1.00  0.00    -0.132 F 
ENDBRANCH  22  23
ENDBRANCH  19  22
ENDBRANCH  10  15
ENDBRANCH   8  10
ENDBRANCH   7   8
ENDBRANCH   6   7
ENDBRANCH   5   6
ENDBRANCH   4   5
ENDBRANCH   3   4
ENDBRANCH   2   3
ENDBRANCH   1   2
BRANCH   1  27
ATOM     27  C   UNL A   1      40.552  20.007  26.259  1.00  0.00     0.188 C 
BRANCH  27  28
ATOM     28  C   UNL A   1      42.052  19.687  26.140  1.00  0.00     0.188 C 
BRANCH  28  29
ATOM     29  O   UNL A   1      42.917  20.611  25.487  1.00  0.00    -0.376 OA
BRANCH  29  30
ATOM     30  C   UNL A   1      43.513  21.649  26.248  1.00  0.00     0.202 C 
BRANCH  30  31
ATOM     31  C   UNL A   1      43.531  23.037  25.620  1.00  0.00     0.261 C 
BRANCH  31  32
ATOM     32  O   UNL A   1      42.887  24.014  26.443  1.00  0.00    -0.460 OA
BRANCH  32  33
ATOM     33  C   UNL A   1      42.602  25.173  25.810  1.00  0.00     0.338 C 
ATOM     34  O   UNL A   1      42.726  25.419  24.615  1.00  0.00    -0.246 OA
BRANCH  33  35
ATOM     35  C   UNL A   1      41.963  26.102  26.752  1.00  0.00     0.060 A 
ATOM     36  C   UNL A   1      42.375  27.440  26.739  1.00  0.00     0.016 A 
ATOM     37  C   UNL A   1      41.040  25.644  27.695  1.00  0.00     0.016 A 
ATOM     38  C   UNL A   1      41.917  28.314  27.715  1.00  0.00     0.010 A 
ATOM     39  C   UNL A   1      40.591  26.518  28.684  1.00  0.00     0.010 A 
ATOM     40  C   UNL A   1      41.070  27.839  28.723  1.00  0.00    -0.014 A 
BRANCH  40  41
ATOM     41  C   UNL A   1      40.863  28.662  29.933  1.00  0.00     0.031 A 
ATOM     42  C   UNL A   1      41.750  28.413  31.121  1.00  0.00     0.074 A 
ATOM     43  C   UNL A   1      39.932  29.630  29.953  1.00  0.00     0.049 A 
ATOM     44  N   UNL A   1      41.727  28.972  32.301  1.00  0.00    -0.248 NA
ATOM     45  C   UNL A   1      42.804  27.396  30.956  1.00  0.00     0.031 C 
ATOM     46  C   UNL A   1      39.064  29.989  28.832  1.00  0.00     0.029 A 
ATOM     47  N   UNL A   1      39.564  30.483  30.958  1.00  0.00    -0.354 N 
ATOM     48  C   UNL A   1      42.751  28.370  33.023  1.00  0.00     0.074 A 
ATOM     49  C   UNL A   1      43.357  27.380  32.159  1.00  0.00     0.031 C 
ATOM     50  C   UNL A   1      38.251  30.988  29.219  1.00  0.00     0.029 A 
ATOM     51  C   UNL A   1      38.516  31.304  30.621  1.00  0.00     0.049 A 
ATOM     52  H   UNL A   1      40.007  30.506  31.836  1.00  0.00     0.167 HD
ATOM     53  C   UNL A   1      43.153  28.623  34.290  1.00  0.00     0.031 A 
ATOM     54  C   UNL A   1      37.832  32.189  31.373  1.00  0.00     0.031 A 
ATOM     55  C   UNL A   1      42.528  29.600  35.141  1.00  0.00     0.049 A 
ATOM     56  C   UNL A   1      38.241  32.393  32.808  1.00  0.00     0.074 A 
ATOM     57  C   UNL A   1      42.854  29.941  36.441  1.00  0.00     0.029 A 
ATOM     58  N   UNL A   1      41.444  30.385  34.779  1.00  0.00    -0.354 N 
ATOM     59  N   UNL A   1      39.218  31.827  33.476  1.00  0.00    -0.248 NA
ATOM     60  C   UNL A   1      37.461  33.364  33.587  1.00  0.00     0.031 C 
ATOM     61  C   UNL A   1      41.924  30.887  36.887  1.00  0.00     0.029 A 
ATOM     62  C   UNL A   1      41.068  31.190  35.840  1.00  0.00     0.049 A 
ATOM     63  H   UNL A   1      41.006  30.372  33.897  1.00  0.00     0.167 HD
ATOM     64  C   UNL A   1      39.190  32.394  34.746  1.00  0.00     0.074 A 
ATOM     65  C   UNL A   1      38.108  33.359  34.744  1.00  0.00     0.031 C 
ATOM     66  C   UNL A   1      39.986  32.144  35.815  1.00  0.00     0.031 A 
BRANCH  53  67
ATOM     67  C   UNL A   1      44.291  27.803  34.839  1.00  0.00    -0.014 A 
ATOM     68  C   UNL A   1      45.632  28.174  34.629  1.00  0.00     0.010 A 
ATOM     69  C   UNL A   1      44.012  26.656  35.606  1.00  0.00     0.010 A 
ATOM     70  C   UNL A   1      46.672  27.392  35.143  1.00  0.00     0.020 A 
ATOM     71  C   UNL A   1      45.048  25.891  36.148  1.00  0.00     0.020 A 
ATOM     72  C   UNL A   1      46.372  26.256  35.900  1.00  0.00     0.054 A 
BRANCH  72  73
ATOM     73  S   UNL A   1      47.741  25.277  36.578  1.00  0.00     0.124 S 
ATOM     74  O   UNL A   1      48.903  25.923  35.970  1.00  0.00    -0.237 OA
ATOM     75  O   UNL A   1      47.593  25.478  38.017  1.00  0.00    -0.237 OA
ATOM     76  O   UNL A   1      47.467  23.922  36.107  1.00  0.00    -0.744 OA
ENDBRANCH  72  73
ENDBRANCH  53  67
BRANCH  54  77
ATOM     77  C   UNL A   1      36.676  32.922  30.787  1.00  0.00    -0.014 A 
ATOM     78  C   UNL A   1      36.872  33.928  29.828  1.00  0.00     0.010 A 
ATOM     79  C   UNL A   1      35.364  32.606  31.188  1.00  0.00     0.010 A 
ATOM     80  C   UNL A   1      35.779  34.617  29.292  1.00  0.00     0.020 A 
ATOM     81  C   UNL A   1      34.268  33.269  30.632  1.00  0.00     0.020 A 
ATOM     82  C   UNL A   1      34.484  34.280  29.694  1.00  0.00     0.054 A 
BRANCH  82  83
ATOM     83  S   UNL A   1      33.081  35.153  28.946  1.00  0.00     0.124 S 
ATOM     84  O   UNL A   1      32.243  35.433  30.107  1.00  0.00    -0.237 OA
ATOM     85  O   UNL A   1      33.725  36.311  28.333  1.00  0.00    -0.237 OA
ATOM     86  O   UNL A   1      32.537  34.179  28.002  1.00  0.00    -0.744 OA
ENDBRANCH  82  83
ENDBRANCH  54  77
BRANCH  66  87
ATOM     87  C   UNL A   1      39.748  32.954  37.063  1.00  0.00    -0.014 A 
ATOM     88  C   UNL A   1      38.774  32.582  38.006  1.00  0.00     0.010 A 
ATOM     89  C   UNL A   1      40.557  34.077  37.320  1.00  0.00     0.010 A 
ATOM     90  C   UNL A   1      38.591  33.337  39.168  1.00  0.00     0.020 A 
ATOM     91  C   UNL A   1      40.401  34.814  38.496  1.00  0.00     0.020 A 
ATOM     92  C   UNL A   1      39.408  34.448  39.406  1.00  0.00     0.054 A 
BRANCH  92  93
ATOM     93  S   UNL A   1      39.180  35.384  40.942  1.00  0.00     0.124 S 
ATOM     94  O   UNL A   1      38.174  34.585  41.637  1.00  0.00    -0.237 OA
ATOM     95  O   UNL A   1      40.517  35.363  41.531  1.00  0.00    -0.237 OA
ATOM     96  O   UNL A   1      38.726  36.695  40.486  1.00  0.00    -0.744 OA
ENDBRANCH  92  93
ENDBRANCH  66  87
ENDBRANCH  40  41
ENDBRANCH  33  35
ENDBRANCH  32  33
ENDBRANCH  31  32
ENDBRANCH  30  31
ENDBRANCH  29  30
ENDBRANCH  28  29
ENDBRANCH  27  28
ENDBRANCH   1  27
TORSDOF 27
ENDMDL
