MODEL 1
REMARK VINA RESULT:      -8.5      0.000      0.000
REMARK SMILES CCSc1ccc(-c2cc(Cl)cc3c2O[C@@H](C(F)(F)F)C(C(=O)OCCOCCOCCOCCOC(=O)c2ccc(-c4c5nc(c(-c6ccc(S(=O)(=O)[O-])cc6)c6ccc([nH]6)c(-c6ccc(S(=O)(=O)[O-])cc6)c6nc(c(-c7ccc(S(=O)(=O)[O-])cc7)c7ccc4[nH]7)C=C6)C=C5)cc2)=C3)cc1
REMARK SMILES IDX 30 1 29 2 28 3 27 4 26 5 25 6 24 7 22 8 23 9 21 10 8 11 9 12
REMARK SMILES IDX 14 13 10 14 13 15 15 16 11 17 12 18 99 19 16 20 7 21 4 22
REMARK SMILES IDX 5 23 101 24 6 25 100 26 3 27 2 28 1 29 17 30 18 31 19 32
REMARK SMILES IDX 20 33 31 34 32 35 33 36 34 37 35 38 36 39 37 40 38 41 39 42
REMARK SMILES IDX 40 43 98 44 41 45 97 46 42 47 43 48 44 49 91 50 45 51 96 52
REMARK SMILES IDX 90 53 92 54 46 55 95 56 89 57 88 58 47 60 77 61 58 62 76 63
REMARK SMILES IDX 59 64 62 65 75 66 93 67 60 68 61 69 74 71 94 72 63 73 48 74
REMARK SMILES IDX 49 75 57 76 50 77 56 78 51 79 52 80 53 81 54 82 55 83 78 84
REMARK SMILES IDX 79 85 87 86 80 87 86 88 81 89 82 90 83 91 84 92 85 93 64 94
REMARK SMILES IDX 65 95 73 96 66 97 72 98 67 99 68 100 69 101 70 102 71 103
REMARK H PARENT 92 59 62 70
REMARK Flexibility Score: inf
ROOT
ATOM      1  O   UNL A   1      33.142  29.410  26.623  1.00  0.00    -0.377 OA
ENDROOT
BRANCH   1   2
ATOM      2  C   UNL A   1      31.938  28.677  26.731  1.00  0.00     0.188 C 
BRANCH   2   3
ATOM      3  C   UNL A   1      32.089  27.221  26.273  1.00  0.00     0.188 C 
BRANCH   3   4
ATOM      4  O   UNL A   1      33.284  26.958  25.544  1.00  0.00    -0.376 OA
BRANCH   4   5
ATOM      5  C   UNL A   1      33.171  26.248  24.311  1.00  0.00     0.202 C 
BRANCH   5   6
ATOM      6  C   UNL A   1      33.787  24.843  24.229  1.00  0.00     0.261 C 
BRANCH   6   7
ATOM      7  O   UNL A   1      35.124  24.843  24.780  1.00  0.00    -0.460 OA
BRANCH   7   8
ATOM      8  C   UNL A   1      35.476  23.734  25.448  1.00  0.00     0.338 C 
ATOM      9  O   UNL A   1      34.928  23.324  26.463  1.00  0.00    -0.246 OA
BRANCH   8  10
ATOM     10  C   UNL A   1      36.488  22.926  24.721  1.00  0.00     0.087 C 
ATOM     11  C   UNL A   1      39.918  22.070  26.890  1.00  0.00     0.026 A 
ATOM     12  C   UNL A   1      40.070  23.100  27.844  1.00  0.00     0.033 A 
ATOM     13  C   UNL A   1      38.855  22.229  25.979  1.00  0.00     0.135 A 
ATOM     14  C   UNL A   1      39.461  24.340  27.659  1.00  0.00     0.042 A 
ATOM     15  C   UNL A   1      38.438  23.529  25.658  1.00  0.00     0.019 A 
ATOM     16  O   UNL A   1      38.062  21.147  25.606  1.00  0.00    -0.475 OA
ATOM     17  Cl  UNL A   1      39.705  25.588  28.813  1.00  0.00    -0.084 Cl
ATOM     18  C   UNL A   1      38.731  24.591  26.505  1.00  0.00     0.032 A 
ATOM     19  C   UNL A   1      37.562  23.700  24.479  1.00  0.00     0.027 C 
ATOM     20  C   UNL A   1      36.802  21.445  24.852  1.00  0.00     0.316 C 
BRANCH  11  21
ATOM     21  C   UNL A   1      41.202  21.369  26.544  1.00  0.00    -0.015 A 
ATOM     22  C   UNL A   1      43.232  19.927  25.110  1.00  0.00     0.007 A 
ATOM     23  C   UNL A   1      43.257  21.324  25.204  1.00  0.00     0.015 A 
ATOM     24  C   UNL A   1      42.224  19.252  25.792  1.00  0.00     0.015 A 
ATOM     25  C   UNL A   1      42.267  22.033  25.912  1.00  0.00     0.010 A 
ATOM     26  C   UNL A   1      41.233  19.960  26.501  1.00  0.00     0.010 A 
BRANCH  22  27
ATOM     27  S   UNL A   1      44.542  19.133  24.187  1.00  0.00    -0.126 SA
BRANCH  27  28
ATOM     28  C   UNL A   1      46.092  19.613  25.040  1.00  0.00     0.071 C 
ATOM     29  C   UNL A   1      46.699  18.456  25.819  1.00  0.00     0.016 C 
ENDBRANCH  27  28
ENDBRANCH  22  27
ENDBRANCH  11  21
BRANCH  20  30
ATOM     30  C   UNL A   1      35.629  20.459  25.094  1.00  0.00     0.430 C 
ATOM     31  F   UNL A   1      35.141  20.641  26.351  1.00  0.00    -0.167 F 
ATOM     32  F   UNL A   1      34.600  20.708  24.246  1.00  0.00    -0.167 F 
ATOM     33  F   UNL A   1      35.919  19.157  24.986  1.00  0.00    -0.167 F 
ENDBRANCH  20  30
ENDBRANCH   8  10
ENDBRANCH   7   8
ENDBRANCH   6   7
ENDBRANCH   5   6
ENDBRANCH   4   5
ENDBRANCH   3   4
ENDBRANCH   2   3
ENDBRANCH   1   2
BRANCH   1  34
ATOM     34  C   UNL A   1      33.104  30.790  26.972  1.00  0.00     0.188 C 
BRANCH  34  35
ATOM     35  C   UNL A   1      34.022  31.363  28.075  1.00  0.00     0.188 C 
BRANCH  35  36
ATOM     36  O   UNL A   1      33.939  32.780  28.240  1.00  0.00    -0.376 OA
BRANCH  36  37
ATOM     37  C   UNL A   1      34.563  33.331  29.392  1.00  0.00     0.202 C 
BRANCH  37  38
ATOM     38  C   UNL A   1      34.923  32.292  30.464  1.00  0.00     0.261 C 
BRANCH  38  39
ATOM     39  O   UNL A   1      35.773  32.776  31.513  1.00  0.00    -0.460 OA
BRANCH  39  40
ATOM     40  C   UNL A   1      36.503  31.858  32.185  1.00  0.00     0.338 C 
ATOM     41  O   UNL A   1      36.100  31.065  33.018  1.00  0.00    -0.246 OA
BRANCH  40  42
ATOM     42  C   UNL A   1      37.854  31.834  31.592  1.00  0.00     0.060 A 
ATOM     43  C   UNL A   1      38.958  31.672  32.438  1.00  0.00     0.016 A 
ATOM     44  C   UNL A   1      38.027  31.948  30.210  1.00  0.00     0.016 A 
ATOM     45  C   UNL A   1      40.246  31.666  31.905  1.00  0.00     0.010 A 
ATOM     46  C   UNL A   1      39.316  31.961  29.679  1.00  0.00     0.010 A 
ATOM     47  C   UNL A   1      40.432  31.858  30.529  1.00  0.00    -0.014 A 
BRANCH  47  48
ATOM     48  C   UNL A   1      41.778  32.178  30.005  1.00  0.00     0.031 A 
ATOM     49  C   UNL A   1      42.278  33.589  30.164  1.00  0.00     0.074 A 
ATOM     50  C   UNL A   1      42.540  31.249  29.403  1.00  0.00     0.049 A 
ATOM     51  N   UNL A   1      43.398  34.123  29.757  1.00  0.00    -0.248 NA
ATOM     52  C   UNL A   1      41.387  34.522  30.877  1.00  0.00     0.031 C 
ATOM     53  C   UNL A   1      42.180  29.844  29.219  1.00  0.00     0.029 A 
ATOM     54  N   UNL A   1      43.780  31.359  28.825  1.00  0.00    -0.354 N 
ATOM     55  C   UNL A   1      43.350  35.451  30.164  1.00  0.00     0.074 A 
ATOM     56  C   UNL A   1      42.077  35.650  30.821  1.00  0.00     0.031 C 
ATOM     57  C   UNL A   1      43.175  29.225  28.558  1.00  0.00     0.029 A 
ATOM     58  C   UNL A   1      44.225  30.194  28.248  1.00  0.00     0.049 A 
ATOM     59  H   UNL A   1      44.302  32.195  28.824  1.00  0.00     0.167 HD
ATOM     60  C   UNL A   1      44.283  36.418  30.011  1.00  0.00     0.031 A 
ATOM     61  C   UNL A   1      45.343  29.948  27.536  1.00  0.00     0.031 A 
ATOM     62  C   UNL A   1      45.533  36.228  29.329  1.00  0.00     0.049 A 
ATOM     63  C   UNL A   1      46.335  31.061  27.309  1.00  0.00     0.074 A 
ATOM     64  C   UNL A   1      46.547  37.145  29.117  1.00  0.00     0.029 A 
ATOM     65  N   UNL A   1      45.935  35.040  28.737  1.00  0.00    -0.354 N 
ATOM     66  N   UNL A   1      46.289  32.304  27.725  1.00  0.00    -0.248 NA
ATOM     67  C   UNL A   1      47.534  30.733  26.524  1.00  0.00     0.031 C 
ATOM     68  C   UNL A   1      47.540  36.526  28.352  1.00  0.00     0.029 A 
ATOM     69  C   UNL A   1      47.172  35.206  28.139  1.00  0.00     0.049 A 
ATOM     70  H   UNL A   1      45.417  34.204  28.741  1.00  0.00     0.167 HD
ATOM     71  C   UNL A   1      47.465  32.899  27.274  1.00  0.00     0.074 A 
ATOM     72  C   UNL A   1      48.205  31.877  26.565  1.00  0.00     0.031 C 
ATOM     73  C   UNL A   1      47.895  34.176  27.436  1.00  0.00     0.031 A 
BRANCH  60  74
ATOM     74  C   UNL A   1      43.959  37.778  30.567  1.00  0.00    -0.014 A 
ATOM     75  C   UNL A   1      43.463  38.802  29.738  1.00  0.00     0.010 A 
ATOM     76  C   UNL A   1      44.142  38.033  31.938  1.00  0.00     0.010 A 
ATOM     77  C   UNL A   1      43.199  40.069  30.263  1.00  0.00     0.020 A 
ATOM     78  C   UNL A   1      43.853  39.291  32.471  1.00  0.00     0.020 A 
ATOM     79  C   UNL A   1      43.400  40.307  31.626  1.00  0.00     0.054 A 
BRANCH  79  80
ATOM     80  S   UNL A   1      43.039  41.958  32.283  1.00  0.00     0.124 S 
ATOM     81  O   UNL A   1      44.375  42.538  32.392  1.00  0.00    -0.237 OA
ATOM     82  O   UNL A   1      42.185  42.536  31.248  1.00  0.00    -0.237 OA
ATOM     83  O   UNL A   1      42.373  41.687  33.555  1.00  0.00    -0.744 OA
ENDBRANCH  79  80
ENDBRANCH  60  74
BRANCH  61  84
ATOM     84  C   UNL A   1      45.576  28.593  26.965  1.00  0.00    -0.014 A 
ATOM     85  C   UNL A   1      45.072  28.248  25.699  1.00  0.00     0.010 A 
ATOM     86  C   UNL A   1      46.307  27.634  27.692  1.00  0.00     0.010 A 
ATOM     87  C   UNL A   1      45.282  26.968  25.177  1.00  0.00     0.020 A 
ATOM     88  C   UNL A   1      46.541  26.362  27.163  1.00  0.00     0.020 A 
ATOM     89  C   UNL A   1      46.018  26.033  25.911  1.00  0.00     0.054 A 
BRANCH  89  90
ATOM     90  S   UNL A   1      46.323  24.396  25.192  1.00  0.00     0.124 S 
ATOM     91  O   UNL A   1      47.480  24.648  24.340  1.00  0.00    -0.237 OA
ATOM     92  O   UNL A   1      46.574  23.574  26.374  1.00  0.00    -0.237 OA
ATOM     93  O   UNL A   1      45.079  24.095  24.486  1.00  0.00    -0.744 OA
ENDBRANCH  89  90
ENDBRANCH  61  84
BRANCH  73  94
ATOM     94  C   UNL A   1      49.242  34.536  26.867  1.00  0.00    -0.014 A 
ATOM     95  C   UNL A   1      50.422  34.343  27.605  1.00  0.00     0.010 A 
ATOM     96  C   UNL A   1      49.329  35.011  25.545  1.00  0.00     0.010 A 
ATOM     97  C   UNL A   1      51.665  34.645  27.040  1.00  0.00     0.020 A 
ATOM     98  C   UNL A   1      50.571  35.290  24.969  1.00  0.00     0.020 A 
ATOM     99  C   UNL A   1      51.731  35.117  25.726  1.00  0.00     0.054 A 
BRANCH  99 100
ATOM    100  S   UNL A   1      53.358  35.458  24.999  1.00  0.00     0.124 S 
ATOM    101  O   UNL A   1      53.916  36.423  25.942  1.00  0.00    -0.237 OA
ATOM    102  O   UNL A   1      53.992  34.141  24.998  1.00  0.00    -0.237 OA
ATOM    103  O   UNL A   1      53.042  35.990  23.675  1.00  0.00    -0.744 OA
ENDBRANCH  99 100
ENDBRANCH  73  94
ENDBRANCH  47  48
ENDBRANCH  40  42
ENDBRANCH  39  40
ENDBRANCH  38  39
ENDBRANCH  37  38
ENDBRANCH  36  37
ENDBRANCH  35  36
ENDBRANCH  34  35
ENDBRANCH   1  34
TORSDOF 27
ENDMDL
MODEL 2
REMARK VINA RESULT:      -8.5      2.301      8.244
REMARK SMILES CCSc1ccc(-c2cc(Cl)cc3c2O[C@@H](C(F)(F)F)C(C(=O)OCCOCCOCCOCCOC(=O)c2ccc(-c4c5nc(c(-c6ccc(S(=O)(=O)[O-])cc6)c6ccc([nH]6)c(-c6ccc(S(=O)(=O)[O-])cc6)c6nc(c(-c7ccc(S(=O)(=O)[O-])cc7)c7ccc4[nH]7)C=C6)C=C5)cc2)=C3)cc1
REMARK SMILES IDX 30 1 29 2 28 3 27 4 26 5 25 6 24 7 22 8 23 9 21 10 8 11 9 12
REMARK SMILES IDX 14 13 10 14 13 15 15 16 11 17 12 18 99 19 16 20 7 21 4 22
REMARK SMILES IDX 5 23 101 24 6 25 100 26 3 27 2 28 1 29 17 30 18 31 19 32
REMARK SMILES IDX 20 33 31 34 32 35 33 36 34 37 35 38 36 39 37 40 38 41 39 42
REMARK SMILES IDX 40 43 98 44 41 45 97 46 42 47 43 48 44 49 91 50 45 51 96 52
REMARK SMILES IDX 90 53 92 54 46 55 95 56 89 57 88 58 47 60 77 61 58 62 76 63
REMARK SMILES IDX 59 64 62 65 75 66 93 67 60 68 61 69 74 71 94 72 63 73 48 74
REMARK SMILES IDX 49 75 57 76 50 77 56 78 51 79 52 80 53 81 54 82 55 83 78 84
REMARK SMILES IDX 79 85 87 86 80 87 86 88 81 89 82 90 83 91 84 92 85 93 64 94
REMARK SMILES IDX 65 95 73 96 66 97 72 98 67 99 68 100 69 101 70 102 71 103
REMARK H PARENT 92 59 62 70
REMARK Flexibility Score: inf
ROOT
ATOM      1  O   UNL A   1      32.865  29.393  26.827  1.00  0.00    -0.377 OA
ENDROOT
BRANCH   1   2
ATOM      2  C   UNL A   1      31.727  28.686  27.273  1.00  0.00     0.188 C 
BRANCH   2   3
ATOM      3  C   UNL A   1      31.343  27.533  26.338  1.00  0.00     0.188 C 
BRANCH   3   4
ATOM      4  O   UNL A   1      30.901  27.947  25.049  1.00  0.00    -0.376 OA
BRANCH   4   5
ATOM      5  C   UNL A   1      29.864  27.192  24.423  1.00  0.00     0.202 C 
BRANCH   5   6
ATOM      6  C   UNL A   1      29.769  25.693  24.743  1.00  0.00     0.261 C 
BRANCH   6   7
ATOM      7  O   UNL A   1      30.064  24.904  23.568  1.00  0.00    -0.460 OA
BRANCH   7   8
ATOM      8  C   UNL A   1      31.167  24.144  23.640  1.00  0.00     0.338 C 
ATOM      9  O   UNL A   1      31.373  23.144  22.966  1.00  0.00    -0.246 OA
BRANCH   8  10
ATOM     10  C   UNL A   1      32.222  24.748  24.493  1.00  0.00     0.087 C 
ATOM     11  C   UNL A   1      35.639  22.439  24.933  1.00  0.00     0.026 A 
ATOM     12  C   UNL A   1      35.251  21.092  24.758  1.00  0.00     0.033 A 
ATOM     13  C   UNL A   1      34.595  23.385  24.919  1.00  0.00     0.135 A 
ATOM     14  C   UNL A   1      33.925  20.702  24.935  1.00  0.00     0.042 A 
ATOM     15  C   UNL A   1      33.318  22.978  25.334  1.00  0.00     0.019 A 
ATOM     16  O   UNL A   1      34.743  24.607  24.271  1.00  0.00    -0.475 OA
ATOM     17  Cl  UNL A   1      33.494  19.048  24.762  1.00  0.00    -0.084 Cl
ATOM     18  C   UNL A   1      32.974  21.631  25.334  1.00  0.00     0.032 A 
ATOM     19  C   UNL A   1      32.321  24.029  25.626  1.00  0.00     0.027 C 
ATOM     20  C   UNL A   1      33.511  25.437  24.074  1.00  0.00     0.316 C 
BRANCH  11  21
ATOM     21  C   UNL A   1      36.894  22.608  25.742  1.00  0.00    -0.015 A 
ATOM     22  C   UNL A   1      39.604  23.192  26.499  1.00  0.00     0.007 A 
ATOM     23  C   UNL A   1      38.575  24.123  26.691  1.00  0.00     0.015 A 
ATOM     24  C   UNL A   1      39.259  21.944  25.989  1.00  0.00     0.015 A 
ATOM     25  C   UNL A   1      37.245  23.837  26.326  1.00  0.00     0.010 A 
ATOM     26  C   UNL A   1      37.928  21.656  25.625  1.00  0.00     0.010 A 
BRANCH  22  27
ATOM     27  S   UNL A   1      41.254  23.664  27.000  1.00  0.00    -0.126 SA
BRANCH  27  28
ATOM     28  C   UNL A   1      41.233  25.495  27.066  1.00  0.00     0.071 C 
ATOM     29  C   UNL A   1      41.756  26.121  25.782  1.00  0.00     0.016 C 
ENDBRANCH  27  28
ENDBRANCH  22  27
ENDBRANCH  11  21
BRANCH  20  30
ATOM     30  C   UNL A   1      33.496  26.322  22.801  1.00  0.00     0.430 C 
ATOM     31  F   UNL A   1      32.304  26.973  22.719  1.00  0.00    -0.167 F 
ATOM     32  F   UNL A   1      34.451  27.283  22.864  1.00  0.00    -0.167 F 
ATOM     33  F   UNL A   1      33.659  25.684  21.635  1.00  0.00    -0.167 F 
ENDBRANCH  20  30
ENDBRANCH   8  10
ENDBRANCH   7   8
ENDBRANCH   6   7
ENDBRANCH   5   6
ENDBRANCH   4   5
ENDBRANCH   3   4
ENDBRANCH   2   3
ENDBRANCH   1   2
BRANCH   1  34
ATOM     34  C   UNL A   1      32.958  30.772  27.169  1.00  0.00     0.188 C 
BRANCH  34  35
ATOM     35  C   UNL A   1      34.161  31.320  27.971  1.00  0.00     0.188 C 
BRANCH  35  36
ATOM     36  O   UNL A   1      34.053  32.696  28.337  1.00  0.00    -0.376 OA
BRANCH  36  37
ATOM     37  C   UNL A   1      34.683  33.091  29.548  1.00  0.00     0.202 C 
BRANCH  37  38
ATOM     38  C   UNL A   1      34.833  31.957  30.572  1.00  0.00     0.261 C 
BRANCH  38  39
ATOM     39  O   UNL A   1      35.899  32.131  31.516  1.00  0.00    -0.460 OA
BRANCH  39  40
ATOM     40  C   UNL A   1      36.585  31.025  31.880  1.00  0.00     0.338 C 
ATOM     41  O   UNL A   1      36.140  30.032  32.429  1.00  0.00    -0.246 OA
BRANCH  40  42
ATOM     42  C   UNL A   1      37.944  31.132  31.315  1.00  0.00     0.060 A 
ATOM     43  C   UNL A   1      39.039  30.834  32.135  1.00  0.00     0.016 A 
ATOM     44  C   UNL A   1      38.133  31.500  29.980  1.00  0.00     0.016 A 
ATOM     45  C   UNL A   1      40.334  30.947  31.632  1.00  0.00     0.010 A 
ATOM     46  C   UNL A   1      39.430  31.631  29.483  1.00  0.00     0.010 A 
ATOM     47  C   UNL A   1      40.535  31.391  30.318  1.00  0.00    -0.014 A 
BRANCH  47  48
ATOM     48  C   UNL A   1      41.882  31.823  29.885  1.00  0.00     0.031 A 
ATOM     49  C   UNL A   1      42.747  30.820  29.171  1.00  0.00     0.074 A 
ATOM     50  C   UNL A   1      42.332  33.069  30.115  1.00  0.00     0.049 A 
ATOM     51  N   UNL A   1      43.970  30.943  28.730  1.00  0.00    -0.248 NA
ATOM     52  C   UNL A   1      42.147  29.495  28.926  1.00  0.00     0.031 C 
ATOM     53  C   UNL A   1      41.576  34.138  30.766  1.00  0.00     0.029 A 
ATOM     54  N   UNL A   1      43.547  33.638  29.830  1.00  0.00    -0.354 N 
ATOM     55  C   UNL A   1      44.287  29.718  28.156  1.00  0.00     0.074 A 
ATOM     56  C   UNL A   1      43.141  28.855  28.332  1.00  0.00     0.031 C 
ATOM     57  C   UNL A   1      42.354  35.233  30.844  1.00  0.00     0.029 A 
ATOM     58  C   UNL A   1      43.667  34.933  30.274  1.00  0.00     0.049 A 
ATOM     59  H   UNL A   1      44.266  33.163  29.352  1.00  0.00     0.167 HD
ATOM     60  C   UNL A   1      45.428  29.345  27.532  1.00  0.00     0.031 A 
ATOM     61  C   UNL A   1      44.724  35.770  30.241  1.00  0.00     0.031 A 
ATOM     62  C   UNL A   1      46.578  30.193  27.386  1.00  0.00     0.049 A 
ATOM     63  C   UNL A   1      46.013  35.307  29.610  1.00  0.00     0.074 A 
ATOM     64  C   UNL A   1      47.785  29.909  26.772  1.00  0.00     0.029 A 
ATOM     65  N   UNL A   1      46.669  31.488  27.872  1.00  0.00    -0.354 N 
ATOM     66  N   UNL A   1      46.289  34.155  29.045  1.00  0.00    -0.248 NA
ATOM     67  C   UNL A   1      47.131  36.262  29.605  1.00  0.00     0.031 C 
ATOM     68  C   UNL A   1      48.625  31.015  26.932  1.00  0.00     0.029 A 
ATOM     69  C   UNL A   1      47.920  32.010  27.593  1.00  0.00     0.049 A 
ATOM     70  H   UNL A   1      45.951  31.965  28.346  1.00  0.00     0.167 HD
ATOM     71  C   UNL A   1      47.602  34.258  28.594  1.00  0.00     0.074 A 
ATOM     72  C   UNL A   1      48.060  35.587  28.942  1.00  0.00     0.031 C 
ATOM     73  C   UNL A   1      48.360  33.336  27.947  1.00  0.00     0.031 A 
BRANCH  60  74
ATOM     74  C   UNL A   1      45.487  27.941  26.992  1.00  0.00    -0.014 A 
ATOM     75  C   UNL A   1      45.725  26.846  27.843  1.00  0.00     0.010 A 
ATOM     76  C   UNL A   1      45.292  27.713  25.618  1.00  0.00     0.010 A 
ATOM     77  C   UNL A   1      45.811  25.553  27.322  1.00  0.00     0.020 A 
ATOM     78  C   UNL A   1      45.351  26.419  25.098  1.00  0.00     0.020 A 
ATOM     79  C   UNL A   1      45.628  25.348  25.952  1.00  0.00     0.054 A 
BRANCH  79  80
ATOM     80  S   UNL A   1      45.733  23.658  25.303  1.00  0.00     0.124 S 
ATOM     81  O   UNL A   1      46.263  23.883  23.960  1.00  0.00    -0.237 OA
ATOM     82  O   UNL A   1      46.649  23.011  26.239  1.00  0.00    -0.237 OA
ATOM     83  O   UNL A   1      44.354  23.179  25.355  1.00  0.00    -0.744 OA
ENDBRANCH  79  80
ENDBRANCH  60  74
BRANCH  61  84
ATOM     84  C   UNL A   1      44.616  37.127  30.844  1.00  0.00    -0.014 A 
ATOM     85  C   UNL A   1      44.065  38.196  30.117  1.00  0.00     0.010 A 
ATOM     86  C   UNL A   1      45.071  37.357  32.156  1.00  0.00     0.010 A 
ATOM     87  C   UNL A   1      43.983  39.471  30.684  1.00  0.00     0.020 A 
ATOM     88  C   UNL A   1      44.968  38.624  32.736  1.00  0.00     0.020 A 
ATOM     89  C   UNL A   1      44.433  39.677  31.993  1.00  0.00     0.054 A 
BRANCH  89  90
ATOM     90  S   UNL A   1      44.268  41.328  32.728  1.00  0.00     0.124 S 
ATOM     91  O   UNL A   1      45.579  41.522  33.338  1.00  0.00    -0.237 OA
ATOM     92  O   UNL A   1      43.980  42.164  31.564  1.00  0.00    -0.237 OA
ATOM     93  O   UNL A   1      43.157  41.175  33.665  1.00  0.00    -0.744 OA
ENDBRANCH  89  90
ENDBRANCH  61  84
BRANCH  73  94
ATOM     94  C   UNL A   1      49.752  33.740  27.539  1.00  0.00    -0.014 A 
ATOM     95  C   UNL A   1      50.033  34.185  26.236  1.00  0.00     0.010 A 
ATOM     96  C   UNL A   1      50.781  33.737  28.500  1.00  0.00     0.010 A 
ATOM     97  C   UNL A   1      51.325  34.594  25.893  1.00  0.00     0.020 A 
ATOM     98  C   UNL A   1      52.067  34.170  28.168  1.00  0.00     0.020 A 
ATOM     99  C   UNL A   1      52.334  34.583  26.861  1.00  0.00     0.054 A 
BRANCH  99 100
ATOM    100  S   UNL A   1      53.991  35.163  26.403  1.00  0.00     0.124 S 
ATOM    101  O   UNL A   1      53.810  36.612  26.380  1.00  0.00    -0.237 OA
ATOM    102  O   UNL A   1      54.823  34.650  27.490  1.00  0.00    -0.237 OA
ATOM    103  O   UNL A   1      54.228  34.543  25.101  1.00  0.00    -0.744 OA
ENDBRANCH  99 100
ENDBRANCH  73  94
ENDBRANCH  47  48
ENDBRANCH  40  42
ENDBRANCH  39  40
ENDBRANCH  38  39
ENDBRANCH  37  38
ENDBRANCH  36  37
ENDBRANCH  35  36
ENDBRANCH  34  35
ENDBRANCH   1  34
TORSDOF 27
ENDMDL
MODEL 3
REMARK VINA RESULT:      -8.2      7.827      9.295
REMARK SMILES CCSc1ccc(-c2cc(Cl)cc3c2O[C@@H](C(F)(F)F)C(C(=O)OCCOCCOCCOCCOC(=O)c2ccc(-c4c5nc(c(-c6ccc(S(=O)(=O)[O-])cc6)c6ccc([nH]6)c(-c6ccc(S(=O)(=O)[O-])cc6)c6nc(c(-c7ccc(S(=O)(=O)[O-])cc7)c7ccc4[nH]7)C=C6)C=C5)cc2)=C3)cc1
REMARK SMILES IDX 30 1 29 2 28 3 27 4 26 5 25 6 24 7 22 8 23 9 21 10 8 11 9 12
REMARK SMILES IDX 14 13 10 14 13 15 15 16 11 17 12 18 99 19 16 20 7 21 4 22
REMARK SMILES IDX 5 23 101 24 6 25 100 26 3 27 2 28 1 29 17 30 18 31 19 32
REMARK SMILES IDX 20 33 31 34 32 35 33 36 34 37 35 38 36 39 37 40 38 41 39 42
REMARK SMILES IDX 40 43 98 44 41 45 97 46 42 47 43 48 44 49 91 50 45 51 96 52
REMARK SMILES IDX 90 53 92 54 46 55 95 56 89 57 88 58 47 60 77 61 58 62 76 63
REMARK SMILES IDX 59 64 62 65 75 66 93 67 60 68 61 69 74 71 94 72 63 73 48 74
REMARK SMILES IDX 49 75 57 76 50 77 56 78 51 79 52 80 53 81 54 82 55 83 78 84
REMARK SMILES IDX 79 85 87 86 80 87 86 88 81 89 82 90 83 91 84 92 85 93 64 94
REMARK SMILES IDX 65 95 73 96 66 97 72 98 67 99 68 100 69 101 70 102 71 103
REMARK H PARENT 92 59 62 70
REMARK Flexibility Score: inf
ROOT
ATOM      1  O   UNL A   1      33.521  29.833  26.951  1.00  0.00    -0.377 OA
ENDROOT
BRANCH   1   2
ATOM      2  C   UNL A   1      32.316  30.381  26.457  1.00  0.00     0.188 C 
BRANCH   2   3
ATOM      3  C   UNL A   1      31.582  29.431  25.503  1.00  0.00     0.188 C 
BRANCH   3   4
ATOM      4  O   UNL A   1      31.586  29.851  24.142  1.00  0.00    -0.376 OA
BRANCH   4   5
ATOM      5  C   UNL A   1      30.583  29.319  23.276  1.00  0.00     0.202 C 
BRANCH   5   6
ATOM      6  C   UNL A   1      30.259  27.822  23.380  1.00  0.00     0.261 C 
BRANCH   6   7
ATOM      7  O   UNL A   1      31.250  27.039  22.675  1.00  0.00    -0.460 OA
BRANCH   7   8
ATOM      8  C   UNL A   1      31.995  26.223  23.437  1.00  0.00     0.338 C 
ATOM      9  O   UNL A   1      32.970  26.572  24.089  1.00  0.00    -0.246 OA
BRANCH   8  10
ATOM     10  C   UNL A   1      31.401  24.870  23.574  1.00  0.00     0.087 C 
ATOM     11  C   UNL A   1      34.047  21.926  24.815  1.00  0.00     0.026 A 
ATOM     12  C   UNL A   1      35.336  22.332  24.406  1.00  0.00     0.033 A 
ATOM     13  C   UNL A   1      32.982  22.750  24.398  1.00  0.00     0.135 A 
ATOM     14  C   UNL A   1      35.501  23.250  23.371  1.00  0.00     0.042 A 
ATOM     15  C   UNL A   1      33.128  23.481  23.210  1.00  0.00     0.019 A 
ATOM     16  O   UNL A   1      31.927  23.047  25.256  1.00  0.00    -0.475 OA
ATOM     17  Cl  UNL A   1      37.082  23.688  22.865  1.00  0.00    -0.084 Cl
ATOM     18  C   UNL A   1      34.393  23.744  22.696  1.00  0.00     0.032 A 
ATOM     19  C   UNL A   1      31.913  24.077  22.615  1.00  0.00     0.027 C 
ATOM     20  C   UNL A   1      30.984  24.133  24.837  1.00  0.00     0.316 C 
BRANCH  11  21
ATOM     21  C   UNL A   1      33.912  20.442  25.009  1.00  0.00    -0.015 A 
ATOM     22  C   UNL A   1      33.535  17.639  24.503  1.00  0.00     0.007 A 
ATOM     23  C   UNL A   1      34.816  18.195  24.610  1.00  0.00     0.015 A 
ATOM     24  C   UNL A   1      32.446  18.478  24.716  1.00  0.00     0.015 A 
ATOM     25  C   UNL A   1      35.003  19.568  24.865  1.00  0.00     0.010 A 
ATOM     26  C   UNL A   1      32.632  19.851  24.972  1.00  0.00     0.010 A 
BRANCH  22  27
ATOM     27  S   UNL A   1      33.418  15.884  24.179  1.00  0.00    -0.126 SA
BRANCH  27  28
ATOM     28  C   UNL A   1      33.073  15.114  25.806  1.00  0.00     0.071 C 
ATOM     29  C   UNL A   1      31.598  14.785  25.983  1.00  0.00     0.016 C 
ENDBRANCH  27  28
ENDBRANCH  22  27
ENDBRANCH  11  21
BRANCH  20  30
ATOM     30  C   UNL A   1      30.346  24.948  25.992  1.00  0.00     0.430 C 
ATOM     31  F   UNL A   1      29.743  24.095  26.864  1.00  0.00    -0.167 F 
ATOM     32  F   UNL A   1      31.292  25.612  26.701  1.00  0.00    -0.167 F 
ATOM     33  F   UNL A   1      29.418  25.846  25.640  1.00  0.00    -0.167 F 
ENDBRANCH  20  30
ENDBRANCH   8  10
ENDBRANCH   7   8
ENDBRANCH   6   7
ENDBRANCH   5   6
ENDBRANCH   4   5
ENDBRANCH   3   4
ENDBRANCH   2   3
ENDBRANCH   1   2
BRANCH   1  34
ATOM     34  C   UNL A   1      34.474  30.734  27.506  1.00  0.00     0.188 C 
BRANCH  34  35
ATOM     35  C   UNL A   1      34.031  32.042  28.200  1.00  0.00     0.188 C 
BRANCH  35  36
ATOM     36  O   UNL A   1      34.884  33.161  27.957  1.00  0.00    -0.376 OA
BRANCH  36  37
ATOM     37  C   UNL A   1      35.358  33.868  29.096  1.00  0.00     0.202 C 
BRANCH  37  38
ATOM     38  C   UNL A   1      34.860  33.302  30.433  1.00  0.00     0.261 C 
BRANCH  38  39
ATOM     39  O   UNL A   1      35.840  33.274  31.480  1.00  0.00    -0.460 OA
BRANCH  39  40
ATOM     40  C   UNL A   1      35.406  33.525  32.735  1.00  0.00     0.338 C 
ATOM     41  O   UNL A   1      34.251  33.543  33.124  1.00  0.00    -0.246 OA
BRANCH  40  42
ATOM     42  C   UNL A   1      36.587  33.579  33.618  1.00  0.00     0.060 A 
ATOM     43  C   UNL A   1      37.842  33.830  33.050  1.00  0.00     0.016 A 
ATOM     44  C   UNL A   1      36.452  33.406  34.998  1.00  0.00     0.016 A 
ATOM     45  C   UNL A   1      38.976  33.866  33.859  1.00  0.00     0.010 A 
ATOM     46  C   UNL A   1      37.589  33.423  35.805  1.00  0.00     0.010 A 
ATOM     47  C   UNL A   1      38.859  33.616  35.234  1.00  0.00    -0.014 A 
BRANCH  47  48
ATOM     48  C   UNL A   1      40.070  33.329  36.036  1.00  0.00     0.031 A 
ATOM     49  C   UNL A   1      40.612  34.429  36.907  1.00  0.00     0.074 A 
ATOM     50  C   UNL A   1      40.675  32.130  35.995  1.00  0.00     0.049 A 
ATOM     51  N   UNL A   1      41.674  34.437  37.668  1.00  0.00    -0.248 NA
ATOM     52  C   UNL A   1      39.851  35.692  36.917  1.00  0.00     0.031 C 
ATOM     53  C   UNL A   1      40.227  30.978  35.215  1.00  0.00     0.029 A 
ATOM     54  N   UNL A   1      41.813  31.691  36.625  1.00  0.00    -0.354 N 
ATOM     55  C   UNL A   1      41.709  35.700  38.248  1.00  0.00     0.074 A 
ATOM     56  C   UNL A   1      40.582  36.441  37.727  1.00  0.00     0.031 C 
ATOM     57  C   UNL A   1      41.091  29.964  35.403  1.00  0.00     0.029 A 
ATOM     58  C   UNL A   1      42.166  30.405  36.292  1.00  0.00     0.049 A 
ATOM     59  H   UNL A   1      42.327  32.245  37.256  1.00  0.00     0.167 HD
ATOM     60  C   UNL A   1      42.597  36.198  39.139  1.00  0.00     0.031 A 
ATOM     61  C   UNL A   1      43.244  29.679  36.649  1.00  0.00     0.031 A 
ATOM     62  C   UNL A   1      43.735  35.473  39.631  1.00  0.00     0.049 A 
ATOM     63  C   UNL A   1      44.264  30.281  37.583  1.00  0.00     0.074 A 
ATOM     64  C   UNL A   1      44.697  35.888  40.534  1.00  0.00     0.029 A 
ATOM     65  N   UNL A   1      44.072  34.183  39.249  1.00  0.00    -0.354 N 
ATOM     66  N   UNL A   1      44.269  31.466  38.146  1.00  0.00    -0.248 NA
ATOM     67  C   UNL A   1      45.419  29.443  37.936  1.00  0.00     0.031 C 
ATOM     68  C   UNL A   1      45.645  34.868  40.660  1.00  0.00     0.029 A 
ATOM     69  C   UNL A   1      45.240  33.794  39.881  1.00  0.00     0.049 A 
ATOM     70  H   UNL A   1      43.557  33.626  38.622  1.00  0.00     0.167 HD
ATOM     71  C   UNL A   1      45.413  31.505  38.940  1.00  0.00     0.074 A 
ATOM     72  C   UNL A   1      46.066  30.221  38.792  1.00  0.00     0.031 C 
ATOM     73  C   UNL A   1      45.878  32.511  39.723  1.00  0.00     0.031 A 
BRANCH  60  74
ATOM     74  C   UNL A   1      42.380  37.612  39.607  1.00  0.00    -0.014 A 
ATOM     75  C   UNL A   1      41.461  37.905  40.631  1.00  0.00     0.010 A 
ATOM     76  C   UNL A   1      43.113  38.660  39.022  1.00  0.00     0.010 A 
ATOM     77  C   UNL A   1      41.247  39.226  41.031  1.00  0.00     0.020 A 
ATOM     78  C   UNL A   1      42.921  39.979  39.438  1.00  0.00     0.020 A 
ATOM     79  C   UNL A   1      41.975  40.256  40.428  1.00  0.00     0.054 A 
BRANCH  79  80
ATOM     80  S   UNL A   1      41.686  41.960  40.974  1.00  0.00     0.124 S 
ATOM     81  O   UNL A   1      43.047  42.441  41.196  1.00  0.00    -0.237 OA
ATOM     82  O   UNL A   1      40.991  42.549  39.832  1.00  0.00    -0.237 OA
ATOM     83  O   UNL A   1      40.875  41.807  42.180  1.00  0.00    -0.744 OA
ENDBRANCH  79  80
ENDBRANCH  60  74
BRANCH  61  84
ATOM     84  C   UNL A   1      43.428  28.306  36.105  1.00  0.00    -0.014 A 
ATOM     85  C   UNL A   1      44.141  28.092  34.913  1.00  0.00     0.010 A 
ATOM     86  C   UNL A   1      42.885  27.197  36.782  1.00  0.00     0.010 A 
ATOM     87  C   UNL A   1      44.295  26.801  34.400  1.00  0.00     0.020 A 
ATOM     88  C   UNL A   1      43.059  25.902  36.287  1.00  0.00     0.020 A 
ATOM     89  C   UNL A   1      43.755  25.712  35.092  1.00  0.00     0.054 A 
BRANCH  89  90
ATOM     90  S   UNL A   1      44.013  24.040  34.437  1.00  0.00     0.124 S 
ATOM     91  O   UNL A   1      44.108  24.286  33.002  1.00  0.00    -0.237 OA
ATOM     92  O   UNL A   1      45.253  23.632  35.094  1.00  0.00    -0.237 OA
ATOM     93  O   UNL A   1      42.820  23.316  34.871  1.00  0.00    -0.744 OA
ENDBRANCH  89  90
ENDBRANCH  61  84
BRANCH  73  94
ATOM     94  C   UNL A   1      47.136  32.257  40.511  1.00  0.00    -0.014 A 
ATOM     95  C   UNL A   1      47.088  31.854  41.855  1.00  0.00     0.010 A 
ATOM     96  C   UNL A   1      48.385  32.359  39.869  1.00  0.00     0.010 A 
ATOM     97  C   UNL A   1      48.268  31.583  42.555  1.00  0.00     0.020 A 
ATOM     98  C   UNL A   1      49.565  32.065  40.556  1.00  0.00     0.020 A 
ATOM     99  C   UNL A   1      49.499  31.691  41.900  1.00  0.00     0.054 A 
BRANCH  99 100
ATOM    100  S   UNL A   1      51.014  31.289  42.815  1.00  0.00     0.124 S 
ATOM    101  O   UNL A   1      50.693  31.765  44.158  1.00  0.00    -0.237 OA
ATOM    102  O   UNL A   1      51.104  29.839  42.666  1.00  0.00    -0.237 OA
ATOM    103  O   UNL A   1      52.051  32.046  42.117  1.00  0.00    -0.744 OA
ENDBRANCH  99 100
ENDBRANCH  73  94
ENDBRANCH  47  48
ENDBRANCH  40  42
ENDBRANCH  39  40
ENDBRANCH  38  39
ENDBRANCH  37  38
ENDBRANCH  36  37
ENDBRANCH  35  36
ENDBRANCH  34  35
ENDBRANCH   1  34
TORSDOF 27
ENDMDL
