MODEL 1
REMARK VINA RESULT:     -10.1      0.000      0.000
REMARK SMILES Cc1ccc(Nc2c(F)cccc2I)c(CC(=O)OCCOCCOCCOCCOC(=O)c2ccc(-c3c4nc(c(-c5ccc(S(=O)(=O)[O-])cc5)c5ccc([nH]5)c(-c5ccc(S(=O)(=O)[O-])cc5)c5nc(c(-c6ccc(S(=O)(=O)[O-])cc6)c6ccc3[nH]6)C=C5)C=C4)cc2)c1
REMARK SMILES IDX 25 1 24 2 23 3 22 4 21 5 20 6 19 7 17 8 18 9 16 10 15 11
REMARK SMILES IDX 1 12 2 13 3 14 94 15 4 16 5 17 6 18 7 20 8 21 13 22 9 23
REMARK SMILES IDX 10 24 12 25 14 26 11 27 26 28 27 29 28 30 29 31 30 32 31 33
REMARK SMILES IDX 32 34 33 35 34 36 35 37 93 38 36 39 92 40 37 41 38 42 39 43
REMARK SMILES IDX 86 44 40 45 91 46 85 47 87 48 41 49 90 50 84 51 83 52 42 54
REMARK SMILES IDX 72 55 53 56 71 57 54 58 57 59 70 60 88 61 55 62 56 63 69 65
REMARK SMILES IDX 89 66 58 67 43 68 44 69 52 70 45 71 51 72 46 73 47 74 48 75
REMARK SMILES IDX 49 76 50 77 73 78 74 79 82 80 75 81 81 82 76 83 77 84 78 85
REMARK SMILES IDX 79 86 80 87 59 88 60 89 68 90 61 91 67 92 62 93 63 94 64 95
REMARK SMILES IDX 65 96 66 97
REMARK H PARENT 6 19 87 53 57 64
REMARK Flexibility Score: inf
ROOT
ATOM      1  O   UNL A   1      31.402  25.411  22.062  1.00  0.00    -0.377 OA
ENDROOT
BRANCH   1   2
ATOM      2  C   UNL A   1      30.660  24.905  23.145  1.00  0.00     0.188 C 
BRANCH   2   3
ATOM      3  C   UNL A   1      29.884  25.796  24.139  1.00  0.00     0.188 C 
BRANCH   3   4
ATOM      4  O   UNL A   1      30.402  26.251  25.372  1.00  0.00    -0.376 OA
BRANCH   4   5
ATOM      5  C   UNL A   1      30.736  25.221  26.274  1.00  0.00     0.202 C 
BRANCH   5   6
ATOM      6  C   UNL A   1      32.126  24.606  26.281  1.00  0.00     0.261 C 
BRANCH   6   7
ATOM      7  O   UNL A   1      32.095  23.223  26.648  1.00  0.00    -0.463 OA
BRANCH   7   8
ATOM      8  C   UNL A   1      31.720  22.368  25.673  1.00  0.00     0.310 C 
ATOM      9  O   UNL A   1      30.658  21.752  25.621  1.00  0.00    -0.252 OA
BRANCH   8  10
ATOM     10  C   UNL A   1      32.776  22.207  24.624  1.00  0.00     0.160 C 
BRANCH  10  11
ATOM     11  C   UNL A   1      33.326  20.809  24.429  1.00  0.00    -0.013 A 
ATOM     12  C   UNL A   1      31.964  17.705  22.602  1.00  0.00     0.044 C 
ATOM     13  C   UNL A   1      32.860  18.625  23.376  1.00  0.00    -0.051 A 
ATOM     14  C   UNL A   1      34.057  18.156  23.893  1.00  0.00     0.005 A 
ATOM     15  C   UNL A   1      32.512  19.949  23.635  1.00  0.00     0.009 A 
ATOM     16  C   UNL A   1      34.858  18.982  24.696  1.00  0.00     0.026 A 
ATOM     17  C   UNL A   1      34.538  20.322  24.997  1.00  0.00     0.042 A 
BRANCH  17  18
ATOM     18  N   UNL A   1      35.327  21.092  25.918  1.00  0.00    -0.352 N 
ATOM     19  H   UNL A   1      34.912  21.238  26.799  1.00  0.00     0.167 HD
BRANCH  18  20
ATOM     20  C   UNL A   1      36.629  21.682  25.756  1.00  0.00     0.088 A 
ATOM     21  C   UNL A   1      37.806  20.918  25.722  1.00  0.00     0.147 A 
ATOM     22  C   UNL A   1      36.827  23.084  25.790  1.00  0.00     0.040 A 
ATOM     23  F   UNL A   1      37.755  19.600  25.469  1.00  0.00    -0.205 F 
ATOM     24  C   UNL A   1      39.080  21.473  25.894  1.00  0.00     0.041 A 
ATOM     25  C   UNL A   1      38.102  23.650  25.993  1.00  0.00     0.017 A 
ATOM     26  I   UNL A   1      35.307  24.477  25.413  1.00  0.00    -0.042 I 
ATOM     27  C   UNL A   1      39.227  22.840  26.073  1.00  0.00     0.004 A 
ENDBRANCH  18  20
ENDBRANCH  17  18
ENDBRANCH  10  11
ENDBRANCH   8  10
ENDBRANCH   7   8
ENDBRANCH   6   7
ENDBRANCH   5   6
ENDBRANCH   4   5
ENDBRANCH   3   4
ENDBRANCH   2   3
ENDBRANCH   1   2
BRANCH   1  28
ATOM     28  C   UNL A   1      31.962  26.708  22.120  1.00  0.00     0.188 C 
BRANCH  28  29
ATOM     29  C   UNL A   1      33.445  26.930  21.944  1.00  0.00     0.188 C 
BRANCH  29  30
ATOM     30  O   UNL A   1      33.823  27.926  22.884  1.00  0.00    -0.376 OA
BRANCH  30  31
ATOM     31  C   UNL A   1      33.448  27.688  24.227  1.00  0.00     0.202 C 
BRANCH  31  32
ATOM     32  C   UNL A   1      33.415  28.968  25.065  1.00  0.00     0.261 C 
BRANCH  32  33
ATOM     33  O   UNL A   1      34.234  28.754  26.230  1.00  0.00    -0.460 OA
BRANCH  33  34
ATOM     34  C   UNL A   1      34.082  29.674  27.224  1.00  0.00     0.338 C 
ATOM     35  O   UNL A   1      33.052  30.284  27.447  1.00  0.00    -0.246 OA
BRANCH  34  36
ATOM     36  C   UNL A   1      35.398  29.890  27.903  1.00  0.00     0.060 A 
ATOM     37  C   UNL A   1      36.578  30.045  27.154  1.00  0.00     0.016 A 
ATOM     38  C   UNL A   1      35.495  29.735  29.282  1.00  0.00     0.016 A 
ATOM     39  C   UNL A   1      37.847  29.916  27.768  1.00  0.00     0.010 A 
ATOM     40  C   UNL A   1      36.746  29.605  29.874  1.00  0.00     0.010 A 
ATOM     41  C   UNL A   1      37.945  29.636  29.133  1.00  0.00    -0.014 A 
BRANCH  41  42
ATOM     42  C   UNL A   1      39.160  29.146  29.850  1.00  0.00     0.031 A 
ATOM     43  C   UNL A   1      39.797  27.843  29.446  1.00  0.00     0.074 A 
ATOM     44  C   UNL A   1      39.940  30.052  30.505  1.00  0.00     0.049 A 
ATOM     45  N   UNL A   1      40.964  27.450  29.836  1.00  0.00    -0.248 NA
ATOM     46  C   UNL A   1      39.203  26.891  28.505  1.00  0.00     0.031 C 
ATOM     47  C   UNL A   1      41.410  30.058  30.590  1.00  0.00     0.029 A 
ATOM     48  N   UNL A   1      39.616  31.270  31.098  1.00  0.00    -0.354 N 
ATOM     49  C   UNL A   1      41.427  26.506  28.945  1.00  0.00     0.074 A 
ATOM     50  C   UNL A   1      40.249  26.101  28.214  1.00  0.00     0.031 C 
ATOM     51  C   UNL A   1      41.849  31.186  31.166  1.00  0.00     0.029 A 
ATOM     52  C   UNL A   1      40.715  31.727  31.859  1.00  0.00     0.049 A 
ATOM     53  H   UNL A   1      38.755  31.739  31.002  1.00  0.00     0.167 HD
ATOM     54  C   UNL A   1      42.775  26.285  28.835  1.00  0.00     0.031 A 
ATOM     55  C   UNL A   1      40.622  31.759  33.223  1.00  0.00     0.031 A 
ATOM     56  C   UNL A   1      43.571  26.987  29.875  1.00  0.00     0.049 A 
ATOM     57  C   UNL A   1      41.469  30.659  33.878  1.00  0.00     0.074 A 
ATOM     58  C   UNL A   1      44.753  27.713  29.904  1.00  0.00     0.029 A 
ATOM     59  N   UNL A   1      43.061  27.093  31.169  1.00  0.00    -0.354 N 
ATOM     60  N   UNL A   1      42.291  29.888  33.205  1.00  0.00    -0.248 NA
ATOM     61  C   UNL A   1      41.479  30.292  35.290  1.00  0.00     0.031 C 
ATOM     62  C   UNL A   1      44.906  28.286  31.209  1.00  0.00     0.029 A 
ATOM     63  C   UNL A   1      43.855  27.858  32.000  1.00  0.00     0.049 A 
ATOM     64  H   UNL A   1      42.222  26.667  31.459  1.00  0.00     0.167 HD
ATOM     65  C   UNL A   1      42.800  28.885  33.968  1.00  0.00     0.074 A 
ATOM     66  C   UNL A   1      42.282  29.205  35.291  1.00  0.00     0.031 C 
ATOM     67  C   UNL A   1      43.557  27.873  33.435  1.00  0.00     0.031 A 
BRANCH  54  68
ATOM     68  C   UNL A   1      43.434  25.518  27.686  1.00  0.00    -0.014 A 
ATOM     69  C   UNL A   1      43.343  24.109  27.647  1.00  0.00     0.010 A 
ATOM     70  C   UNL A   1      44.224  26.101  26.668  1.00  0.00     0.010 A 
ATOM     71  C   UNL A   1      43.999  23.330  26.675  1.00  0.00     0.020 A 
ATOM     72  C   UNL A   1      44.852  25.334  25.660  1.00  0.00     0.020 A 
ATOM     73  C   UNL A   1      44.748  23.948  25.678  1.00  0.00     0.054 A 
BRANCH  73  74
ATOM     74  S   UNL A   1      45.563  22.923  24.417  1.00  0.00     0.124 S 
ATOM     75  O   UNL A   1      44.463  22.596  23.514  1.00  0.00    -0.237 OA
ATOM     76  O   UNL A   1      46.572  23.828  23.871  1.00  0.00    -0.237 OA
ATOM     77  O   UNL A   1      46.098  21.795  25.176  1.00  0.00    -0.744 OA
ENDBRANCH  73  74
ENDBRANCH  54  68
BRANCH  55  78
ATOM     78  C   UNL A   1      39.343  32.459  33.610  1.00  0.00    -0.014 A 
ATOM     79  C   UNL A   1      39.168  33.731  32.996  1.00  0.00     0.010 A 
ATOM     80  C   UNL A   1      38.178  31.708  33.879  1.00  0.00     0.010 A 
ATOM     81  C   UNL A   1      37.934  34.111  32.443  1.00  0.00     0.020 A 
ATOM     82  C   UNL A   1      36.935  32.094  33.327  1.00  0.00     0.020 A 
ATOM     83  C   UNL A   1      36.840  33.255  32.553  1.00  0.00     0.054 A 
BRANCH  83  84
ATOM     84  S   UNL A   1      35.383  33.569  31.494  1.00  0.00     0.124 S 
ATOM     85  O   UNL A   1      34.611  32.342  31.649  1.00  0.00    -0.237 OA
ATOM     86  O   UNL A   1      34.792  34.758  32.105  1.00  0.00    -0.237 OA
ATOM     87  O   UNL A   1      35.964  33.784  30.172  1.00  0.00    -0.744 OA
ENDBRANCH  83  84
ENDBRANCH  55  78
BRANCH  67  88
ATOM     88  C   UNL A   1      44.043  26.681  34.219  1.00  0.00    -0.014 A 
ATOM     89  C   UNL A   1      43.193  25.711  34.753  1.00  0.00     0.010 A 
ATOM     90  C   UNL A   1      45.429  26.549  34.491  1.00  0.00     0.010 A 
ATOM     91  C   UNL A   1      43.714  24.584  35.399  1.00  0.00     0.020 A 
ATOM     92  C   UNL A   1      45.959  25.449  35.160  1.00  0.00     0.020 A 
ATOM     93  C   UNL A   1      45.095  24.447  35.569  1.00  0.00     0.054 A 
BRANCH  93  94
ATOM     94  S   UNL A   1      45.748  22.949  36.335  1.00  0.00     0.124 S 
ATOM     95  O   UNL A   1      47.148  22.966  35.921  1.00  0.00    -0.237 OA
ATOM     96  O   UNL A   1      45.508  23.210  37.752  1.00  0.00    -0.237 OA
ATOM     97  O   UNL A   1      44.942  21.878  35.753  1.00  0.00    -0.744 OA
ENDBRANCH  93  94
ENDBRANCH  67  88
ENDBRANCH  41  42
ENDBRANCH  34  36
ENDBRANCH  33  34
ENDBRANCH  32  33
ENDBRANCH  31  32
ENDBRANCH  30  31
ENDBRANCH  29  30
ENDBRANCH  28  29
ENDBRANCH   1  28
TORSDOF 26
ENDMDL
MODEL 2
REMARK VINA RESULT:      -9.9      1.795      2.090
REMARK SMILES Cc1ccc(Nc2c(F)cccc2I)c(CC(=O)OCCOCCOCCOCCOC(=O)c2ccc(-c3c4nc(c(-c5ccc(S(=O)(=O)[O-])cc5)c5ccc([nH]5)c(-c5ccc(S(=O)(=O)[O-])cc5)c5nc(c(-c6ccc(S(=O)(=O)[O-])cc6)c6ccc3[nH]6)C=C5)C=C4)cc2)c1
REMARK SMILES IDX 25 1 24 2 23 3 22 4 21 5 20 6 19 7 17 8 18 9 16 10 15 11
REMARK SMILES IDX 1 12 2 13 3 14 94 15 4 16 5 17 6 18 7 20 8 21 13 22 9 23
REMARK SMILES IDX 10 24 12 25 14 26 11 27 26 28 27 29 28 30 29 31 30 32 31 33
REMARK SMILES IDX 32 34 33 35 34 36 35 37 93 38 36 39 92 40 37 41 38 42 39 43
REMARK SMILES IDX 86 44 40 45 91 46 85 47 87 48 41 49 90 50 84 51 83 52 42 54
REMARK SMILES IDX 72 55 53 56 71 57 54 58 57 59 70 60 88 61 55 62 56 63 69 65
REMARK SMILES IDX 89 66 58 67 43 68 44 69 52 70 45 71 51 72 46 73 47 74 48 75
REMARK SMILES IDX 49 76 50 77 73 78 74 79 82 80 75 81 81 82 76 83 77 84 78 85
REMARK SMILES IDX 79 86 80 87 59 88 60 89 68 90 61 91 67 92 62 93 63 94 64 95
REMARK SMILES IDX 65 96 66 97
REMARK H PARENT 6 19 87 53 57 64
REMARK Flexibility Score: inf
ROOT
ATOM      1  O   UNL A   1      32.422  25.906  22.132  1.00  0.00    -0.377 OA
ENDROOT
BRANCH   1   2
ATOM      2  C   UNL A   1      31.609  25.192  23.031  1.00  0.00     0.188 C 
BRANCH   2   3
ATOM      3  C   UNL A   1      30.333  25.774  23.675  1.00  0.00     0.188 C 
BRANCH   3   4
ATOM      4  O   UNL A   1      29.820  25.373  24.930  1.00  0.00    -0.376 OA
BRANCH   4   5
ATOM      5  C   UNL A   1      30.804  24.960  25.851  1.00  0.00     0.202 C 
BRANCH   5   6
ATOM      6  C   UNL A   1      30.573  23.762  26.758  1.00  0.00     0.261 C 
BRANCH   6   7
ATOM      7  O   UNL A   1      31.777  23.019  26.974  1.00  0.00    -0.463 OA
BRANCH   7   8
ATOM      8  C   UNL A   1      31.910  21.896  26.235  1.00  0.00     0.310 C 
ATOM      9  O   UNL A   1      31.156  21.528  25.337  1.00  0.00    -0.252 OA
BRANCH   8  10
ATOM     10  C   UNL A   1      33.100  21.086  26.645  1.00  0.00     0.160 C 
BRANCH  10  11
ATOM     11  C   UNL A   1      33.463  19.919  25.749  1.00  0.00    -0.013 A 
ATOM     12  C   UNL A   1      32.627  16.163  25.899  1.00  0.00     0.044 C 
ATOM     13  C   UNL A   1      33.157  17.488  25.440  1.00  0.00    -0.051 A 
ATOM     14  C   UNL A   1      33.955  17.564  24.310  1.00  0.00     0.005 A 
ATOM     15  C   UNL A   1      32.905  18.666  26.141  1.00  0.00     0.009 A 
ATOM     16  C   UNL A   1      34.530  18.785  23.925  1.00  0.00     0.026 A 
ATOM     17  C   UNL A   1      34.316  19.997  24.612  1.00  0.00     0.042 A 
BRANCH  17  18
ATOM     18  N   UNL A   1      35.020  21.197  24.251  1.00  0.00    -0.352 N 
ATOM     19  H   UNL A   1      34.614  21.710  23.515  1.00  0.00     0.167 HD
BRANCH  18  20
ATOM     20  C   UNL A   1      36.223  21.766  24.796  1.00  0.00     0.088 A 
ATOM     21  C   UNL A   1      37.410  21.031  24.937  1.00  0.00     0.147 A 
ATOM     22  C   UNL A   1      36.243  23.054  25.384  1.00  0.00     0.040 A 
ATOM     23  F   UNL A   1      37.594  19.896  24.243  1.00  0.00    -0.205 F 
ATOM     24  C   UNL A   1      38.473  21.448  25.748  1.00  0.00     0.041 A 
ATOM     25  C   UNL A   1      37.294  23.470  26.227  1.00  0.00     0.017 A 
ATOM     26  I   UNL A   1      34.816  24.535  24.981  1.00  0.00    -0.042 I 
ATOM     27  C   UNL A   1      38.399  22.653  26.431  1.00  0.00     0.004 A 
ENDBRANCH  18  20
ENDBRANCH  17  18
ENDBRANCH  10  11
ENDBRANCH   8  10
ENDBRANCH   7   8
ENDBRANCH   6   7
ENDBRANCH   5   6
ENDBRANCH   4   5
ENDBRANCH   3   4
ENDBRANCH   2   3
ENDBRANCH   1   2
BRANCH   1  28
ATOM     28  C   UNL A   1      32.574  27.306  22.258  1.00  0.00     0.188 C 
BRANCH  28  29
ATOM     29  C   UNL A   1      33.919  27.968  22.079  1.00  0.00     0.188 C 
BRANCH  29  30
ATOM     30  O   UNL A   1      34.220  28.618  23.306  1.00  0.00    -0.376 OA
BRANCH  30  31
ATOM     31  C   UNL A   1      33.650  28.049  24.469  1.00  0.00     0.202 C 
BRANCH  31  32
ATOM     32  C   UNL A   1      33.400  29.083  25.569  1.00  0.00     0.261 C 
BRANCH  32  33
ATOM     33  O   UNL A   1      34.458  28.961  26.538  1.00  0.00    -0.460 OA
BRANCH  33  34
ATOM     34  C   UNL A   1      34.463  29.911  27.516  1.00  0.00     0.338 C 
ATOM     35  O   UNL A   1      33.533  30.660  27.753  1.00  0.00    -0.246 OA
BRANCH  34  36
ATOM     36  C   UNL A   1      35.815  29.956  28.153  1.00  0.00     0.060 A 
ATOM     37  C   UNL A   1      36.979  30.048  27.369  1.00  0.00     0.016 A 
ATOM     38  C   UNL A   1      35.944  29.703  29.515  1.00  0.00     0.016 A 
ATOM     39  C   UNL A   1      38.250  29.760  27.922  1.00  0.00     0.010 A 
ATOM     40  C   UNL A   1      37.196  29.416  30.047  1.00  0.00     0.010 A 
ATOM     41  C   UNL A   1      38.367  29.383  29.262  1.00  0.00    -0.014 A 
BRANCH  41  42
ATOM     42  C   UNL A   1      39.551  28.734  29.898  1.00  0.00     0.031 A 
ATOM     43  C   UNL A   1      40.020  27.388  29.416  1.00  0.00     0.074 A 
ATOM     44  C   UNL A   1      40.457  29.522  30.545  1.00  0.00     0.049 A 
ATOM     45  N   UNL A   1      41.154  26.853  29.731  1.00  0.00    -0.248 NA
ATOM     46  C   UNL A   1      39.281  26.545  28.473  1.00  0.00     0.031 C 
ATOM     47  C   UNL A   1      41.921  29.364  30.554  1.00  0.00     0.029 A 
ATOM     48  N   UNL A   1      40.298  30.742  31.196  1.00  0.00    -0.354 N 
ATOM     49  C   UNL A   1      41.467  25.902  28.784  1.00  0.00     0.074 A 
ATOM     50  C   UNL A   1      40.218  25.658  28.101  1.00  0.00     0.031 C 
ATOM     51  C   UNL A   1      42.509  30.413  31.147  1.00  0.00     0.029 A 
ATOM     52  C   UNL A   1      41.476  31.046  31.916  1.00  0.00     0.049 A 
ATOM     53  H   UNL A   1      39.491  31.306  31.161  1.00  0.00     0.167 HD
ATOM     54  C   UNL A   1      42.775  25.541  28.598  1.00  0.00     0.031 A 
ATOM     55  C   UNL A   1      41.451  31.031  33.283  1.00  0.00     0.031 A 
ATOM     56  C   UNL A   1      43.692  26.108  29.621  1.00  0.00     0.049 A 
ATOM     57  C   UNL A   1      42.201  29.819  33.854  1.00  0.00     0.074 A 
ATOM     58  C   UNL A   1      44.948  26.699  29.615  1.00  0.00     0.029 A 
ATOM     59  N   UNL A   1      43.258  26.216  30.942  1.00  0.00    -0.354 N 
ATOM     60  N   UNL A   1      42.900  28.991  33.112  1.00  0.00    -0.248 NA
ATOM     61  C   UNL A   1      42.236  29.396  35.250  1.00  0.00     0.031 C 
ATOM     62  C   UNL A   1      45.224  27.198  30.930  1.00  0.00     0.029 A 
ATOM     63  C   UNL A   1      44.170  26.855  31.758  1.00  0.00     0.049 A 
ATOM     64  H   UNL A   1      42.392  25.872  31.259  1.00  0.00     0.167 HD
ATOM     65  C   UNL A   1      43.329  27.909  33.812  1.00  0.00     0.074 A 
ATOM     66  C   UNL A   1      42.913  28.229  35.171  1.00  0.00     0.031 C 
ATOM     67  C   UNL A   1      43.943  26.843  33.206  1.00  0.00     0.031 A 
BRANCH  54  68
ATOM     68  C   UNL A   1      43.291  24.754  27.390  1.00  0.00    -0.014 A 
ATOM     69  C   UNL A   1      43.844  23.469  27.581  1.00  0.00     0.010 A 
ATOM     70  C   UNL A   1      43.344  25.244  26.065  1.00  0.00     0.010 A 
ATOM     71  C   UNL A   1      44.420  22.724  26.535  1.00  0.00     0.020 A 
ATOM     72  C   UNL A   1      43.880  24.490  24.996  1.00  0.00     0.020 A 
ATOM     73  C   UNL A   1      44.431  23.236  25.241  1.00  0.00     0.054 A 
BRANCH  73  74
ATOM     74  S   UNL A   1      45.156  22.245  23.899  1.00  0.00     0.124 S 
ATOM     75  O   UNL A   1      44.298  22.573  22.764  1.00  0.00    -0.237 OA
ATOM     76  O   UNL A   1      46.521  22.759  23.822  1.00  0.00    -0.237 OA
ATOM     77  O   UNL A   1      45.045  20.870  24.383  1.00  0.00    -0.744 OA
ENDBRANCH  73  74
ENDBRANCH  54  68
BRANCH  55  78
ATOM     78  C   UNL A   1      40.276  31.850  33.759  1.00  0.00    -0.014 A 
ATOM     79  C   UNL A   1      39.076  31.104  33.920  1.00  0.00     0.010 A 
ATOM     80  C   UNL A   1      40.481  32.939  34.634  1.00  0.00     0.010 A 
ATOM     81  C   UNL A   1      38.261  31.268  35.052  1.00  0.00     0.020 A 
ATOM     82  C   UNL A   1      39.657  33.108  35.770  1.00  0.00     0.020 A 
ATOM     83  C   UNL A   1      38.597  32.225  36.007  1.00  0.00     0.054 A 
BRANCH  83  84
ATOM     84  S   UNL A   1      37.779  32.147  37.640  1.00  0.00     0.124 S 
ATOM     85  O   UNL A   1      36.664  33.072  37.479  1.00  0.00    -0.237 OA
ATOM     86  O   UNL A   1      37.408  30.736  37.746  1.00  0.00    -0.237 OA
ATOM     87  O   UNL A   1      38.825  32.576  38.564  1.00  0.00    -0.744 OA
ENDBRANCH  83  84
ENDBRANCH  55  78
BRANCH  67  88
ATOM     88  C   UNL A   1      44.331  25.574  33.920  1.00  0.00    -0.014 A 
ATOM     89  C   UNL A   1      43.413  24.741  34.564  1.00  0.00     0.010 A 
ATOM     90  C   UNL A   1      45.701  25.218  34.008  1.00  0.00     0.010 A 
ATOM     91  C   UNL A   1      43.827  23.533  35.138  1.00  0.00     0.020 A 
ATOM     92  C   UNL A   1      46.131  24.036  34.603  1.00  0.00     0.020 A 
ATOM     93  C   UNL A   1      45.179  23.176  35.124  1.00  0.00     0.054 A 
BRANCH  93  94
ATOM     94  S   UNL A   1      45.677  21.578  35.799  1.00  0.00     0.124 S 
ATOM     95  O   UNL A   1      44.884  20.639  35.010  1.00  0.00    -0.237 OA
ATOM     96  O   UNL A   1      47.112  21.573  35.525  1.00  0.00    -0.237 OA
ATOM     97  O   UNL A   1      45.313  21.664  37.211  1.00  0.00    -0.744 OA
ENDBRANCH  93  94
ENDBRANCH  67  88
ENDBRANCH  41  42
ENDBRANCH  34  36
ENDBRANCH  33  34
ENDBRANCH  32  33
ENDBRANCH  31  32
ENDBRANCH  30  31
ENDBRANCH  29  30
ENDBRANCH  28  29
ENDBRANCH   1  28
TORSDOF 26
ENDMDL
MODEL 3
REMARK VINA RESULT:      -8.9      5.452     10.486
REMARK SMILES Cc1ccc(Nc2c(F)cccc2I)c(CC(=O)OCCOCCOCCOCCOC(=O)c2ccc(-c3c4nc(c(-c5ccc(S(=O)(=O)[O-])cc5)c5ccc([nH]5)c(-c5ccc(S(=O)(=O)[O-])cc5)c5nc(c(-c6ccc(S(=O)(=O)[O-])cc6)c6ccc3[nH]6)C=C5)C=C4)cc2)c1
REMARK SMILES IDX 25 1 24 2 23 3 22 4 21 5 20 6 19 7 17 8 18 9 16 10 15 11
REMARK SMILES IDX 1 12 2 13 3 14 94 15 4 16 5 17 6 18 7 20 8 21 13 22 9 23
REMARK SMILES IDX 10 24 12 25 14 26 11 27 26 28 27 29 28 30 29 31 30 32 31 33
REMARK SMILES IDX 32 34 33 35 34 36 35 37 93 38 36 39 92 40 37 41 38 42 39 43
REMARK SMILES IDX 86 44 40 45 91 46 85 47 87 48 41 49 90 50 84 51 83 52 42 54
REMARK SMILES IDX 72 55 53 56 71 57 54 58 57 59 70 60 88 61 55 62 56 63 69 65
REMARK SMILES IDX 89 66 58 67 43 68 44 69 52 70 45 71 51 72 46 73 47 74 48 75
REMARK SMILES IDX 49 76 50 77 73 78 74 79 82 80 75 81 81 82 76 83 77 84 78 85
REMARK SMILES IDX 79 86 80 87 59 88 60 89 68 90 61 91 67 92 62 93 63 94 64 95
REMARK SMILES IDX 65 96 66 97
REMARK H PARENT 6 19 87 53 57 64
REMARK Flexibility Score: inf
ROOT
ATOM      1  O   UNL A   1      37.271  32.968  31.149  1.00  0.00    -0.377 OA
ENDROOT
BRANCH   1   2
ATOM      2  C   UNL A   1      38.068  33.361  30.058  1.00  0.00     0.188 C 
BRANCH   2   3
ATOM      3  C   UNL A   1      38.984  34.604  30.074  1.00  0.00     0.188 C 
BRANCH   3   4
ATOM      4  O   UNL A   1      40.341  34.599  29.678  1.00  0.00    -0.376 OA
BRANCH   4   5
ATOM      5  C   UNL A   1      40.629  35.449  28.592  1.00  0.00     0.202 C 
BRANCH   5   6
ATOM      6  C   UNL A   1      41.989  35.419  27.913  1.00  0.00     0.261 C 
BRANCH   6   7
ATOM      7  O   UNL A   1      42.863  34.459  28.514  1.00  0.00    -0.463 OA
BRANCH   7   8
ATOM      8  C   UNL A   1      44.160  34.537  28.145  1.00  0.00     0.310 C 
ATOM      9  O   UNL A   1      44.720  33.818  27.321  1.00  0.00    -0.252 OA
BRANCH   8  10
ATOM     10  C   UNL A   1      44.895  35.612  28.882  1.00  0.00     0.160 C 
BRANCH  10  11
ATOM     11  C   UNL A   1      45.336  36.809  28.065  1.00  0.00    -0.013 A 
ATOM     12  C   UNL A   1      48.489  37.514  25.970  1.00  0.00     0.044 C 
ATOM     13  C   UNL A   1      47.144  37.662  26.615  1.00  0.00    -0.051 A 
ATOM     14  C   UNL A   1      46.437  38.846  26.483  1.00  0.00     0.005 A 
ATOM     15  C   UNL A   1      46.582  36.650  27.391  1.00  0.00     0.009 A 
ATOM     16  C   UNL A   1      45.220  39.027  27.159  1.00  0.00     0.026 A 
ATOM     17  C   UNL A   1      44.622  38.038  27.966  1.00  0.00     0.042 A 
BRANCH  17  18
ATOM     18  N   UNL A   1      43.438  38.310  28.732  1.00  0.00    -0.352 N 
ATOM     19  H   UNL A   1      42.789  37.570  28.772  1.00  0.00     0.167 HD
BRANCH  18  20
ATOM     20  C   UNL A   1      43.050  39.495  29.449  1.00  0.00     0.088 A 
ATOM     21  C   UNL A   1      43.552  39.807  30.722  1.00  0.00     0.147 A 
ATOM     22  C   UNL A   1      42.008  40.340  28.993  1.00  0.00     0.040 A 
ATOM     23  F   UNL A   1      44.676  39.225  31.171  1.00  0.00    -0.205 F 
ATOM     24  C   UNL A   1      42.958  40.755  31.564  1.00  0.00     0.041 A 
ATOM     25  C   UNL A   1      41.384  41.276  29.843  1.00  0.00     0.017 A 
ATOM     26  I   UNL A   1      41.360  40.409  27.001  1.00  0.00    -0.042 I 
ATOM     27  C   UNL A   1      41.843  41.464  31.141  1.00  0.00     0.004 A 
ENDBRANCH  18  20
ENDBRANCH  17  18
ENDBRANCH  10  11
ENDBRANCH   8  10
ENDBRANCH   7   8
ENDBRANCH   6   7
ENDBRANCH   5   6
ENDBRANCH   4   5
ENDBRANCH   3   4
ENDBRANCH   2   3
ENDBRANCH   1   2
BRANCH   1  28
ATOM     28  C   UNL A   1      36.045  33.620  31.413  1.00  0.00     0.188 C 
BRANCH  28  29
ATOM     29  C   UNL A   1      34.732  32.877  31.353  1.00  0.00     0.188 C 
BRANCH  29  30
ATOM     30  O   UNL A   1      33.945  33.519  30.360  1.00  0.00    -0.376 OA
BRANCH  30  31
ATOM     31  C   UNL A   1      34.636  34.384  29.480  1.00  0.00     0.202 C 
BRANCH  31  32
ATOM     32  C   UNL A   1      34.587  33.909  28.027  1.00  0.00     0.261 C 
BRANCH  32  33
ATOM     33  O   UNL A   1      35.546  32.846  27.876  1.00  0.00    -0.460 OA
BRANCH  33  34
ATOM     34  C   UNL A   1      35.016  31.610  27.658  1.00  0.00     0.338 C 
ATOM     35  O   UNL A   1      33.892  31.407  27.233  1.00  0.00    -0.246 OA
BRANCH  34  36
ATOM     36  C   UNL A   1      35.979  30.569  28.131  1.00  0.00     0.060 A 
ATOM     37  C   UNL A   1      35.798  29.928  29.370  1.00  0.00     0.016 A 
ATOM     38  C   UNL A   1      37.173  30.372  27.444  1.00  0.00     0.016 A 
ATOM     39  C   UNL A   1      36.854  29.202  29.971  1.00  0.00     0.010 A 
ATOM     40  C   UNL A   1      38.206  29.661  28.046  1.00  0.00     0.010 A 
ATOM     41  C   UNL A   1      38.096  29.108  29.338  1.00  0.00    -0.014 A 
BRANCH  41  42
ATOM     42  C   UNL A   1      39.381  28.685  29.970  1.00  0.00     0.031 A 
ATOM     43  C   UNL A   1      40.027  27.387  29.565  1.00  0.00     0.074 A 
ATOM     44  C   UNL A   1      40.181  29.641  30.522  1.00  0.00     0.049 A 
ATOM     45  N   UNL A   1      41.235  27.046  29.871  1.00  0.00    -0.248 NA
ATOM     46  C   UNL A   1      39.391  26.379  28.714  1.00  0.00     0.031 C 
ATOM     47  C   UNL A   1      41.652  29.696  30.483  1.00  0.00     0.029 A 
ATOM     48  N   UNL A   1      39.865  30.872  31.092  1.00  0.00    -0.354 N 
ATOM     49  C   UNL A   1      41.655  26.081  28.981  1.00  0.00     0.074 A 
ATOM     50  C   UNL A   1      40.435  25.610  28.368  1.00  0.00     0.031 C 
ATOM     51  C   UNL A   1      42.098  30.859  30.977  1.00  0.00     0.029 A 
ATOM     52  C   UNL A   1      41.007  31.394  31.741  1.00  0.00     0.049 A 
ATOM     53  H   UNL A   1      38.984  31.310  31.051  1.00  0.00     0.167 HD
ATOM     54  C   UNL A   1      42.995  25.898  28.768  1.00  0.00     0.031 A 
ATOM     55  C   UNL A   1      41.026  31.480  33.105  1.00  0.00     0.031 A 
ATOM     56  C   UNL A   1      43.850  26.666  29.710  1.00  0.00     0.049 A 
ATOM     57  C   UNL A   1      41.961  30.434  33.729  1.00  0.00     0.074 A 
ATOM     58  C   UNL A   1      45.006  27.428  29.612  1.00  0.00     0.029 A 
ATOM     59  N   UNL A   1      43.445  26.810  31.037  1.00  0.00    -0.354 N 
ATOM     60  N   UNL A   1      42.751  29.661  33.020  1.00  0.00    -0.248 NA
ATOM     61  C   UNL A   1      42.099  30.126  35.149  1.00  0.00     0.031 C 
ATOM     62  C   UNL A   1      45.245  28.060  30.877  1.00  0.00     0.029 A 
ATOM     63  C   UNL A   1      44.278  27.632  31.768  1.00  0.00     0.049 A 
ATOM     64  H   UNL A   1      42.648  26.371  31.412  1.00  0.00     0.167 HD
ATOM     65  C   UNL A   1      43.354  28.707  33.776  1.00  0.00     0.074 A 
ATOM     66  C   UNL A   1      42.936  29.065  35.125  1.00  0.00     0.031 C 
ATOM     67  C   UNL A   1      44.099  27.697  33.222  1.00  0.00     0.031 A 
BRANCH  54  68
ATOM     68  C   UNL A   1      43.584  25.105  27.598  1.00  0.00    -0.014 A 
ATOM     69  C   UNL A   1      44.505  24.064  27.856  1.00  0.00     0.010 A 
ATOM     70  C   UNL A   1      43.349  25.379  26.231  1.00  0.00     0.010 A 
ATOM     71  C   UNL A   1      45.156  23.352  26.831  1.00  0.00     0.020 A 
ATOM     72  C   UNL A   1      43.963  24.643  25.192  1.00  0.00     0.020 A 
ATOM     73  C   UNL A   1      44.877  23.641  25.499  1.00  0.00     0.054 A 
BRANCH  73  74
ATOM     74  S   UNL A   1      45.709  22.690  24.191  1.00  0.00     0.124 S 
ATOM     75  O   UNL A   1      46.802  23.577  23.801  1.00  0.00    -0.237 OA
ATOM     76  O   UNL A   1      46.111  21.470  24.887  1.00  0.00    -0.237 OA
ATOM     77  O   UNL A   1      44.670  22.505  23.180  1.00  0.00    -0.744 OA
ENDBRANCH  73  74
ENDBRANCH  54  68
BRANCH  55  78
ATOM     78  C   UNL A   1      39.759  32.155  33.570  1.00  0.00    -0.014 A 
ATOM     79  C   UNL A   1      38.745  31.255  33.999  1.00  0.00     0.010 A 
ATOM     80  C   UNL A   1      39.821  33.410  34.213  1.00  0.00     0.010 A 
ATOM     81  C   UNL A   1      38.012  31.487  35.175  1.00  0.00     0.020 A 
ATOM     82  C   UNL A   1      39.080  33.646  35.394  1.00  0.00     0.020 A 
ATOM     83  C   UNL A   1      38.236  32.653  35.904  1.00  0.00     0.054 A 
BRANCH  83  84
ATOM     84  S   UNL A   1      37.591  32.747  37.611  1.00  0.00     0.124 S 
ATOM     85  O   UNL A   1      36.303  33.405  37.427  1.00  0.00    -0.237 OA
ATOM     86  O   UNL A   1      37.520  31.340  38.006  1.00  0.00    -0.237 OA
ATOM     87  O   UNL A   1      38.604  33.529  38.314  1.00  0.00    -0.744 OA
ENDBRANCH  83  84
ENDBRANCH  55  78
BRANCH  67  88
ATOM     88  C   UNL A   1      44.688  26.555  34.007  1.00  0.00    -0.014 A 
ATOM     89  C   UNL A   1      46.018  26.145  33.892  1.00  0.00     0.010 A 
ATOM     90  C   UNL A   1      43.851  25.802  34.872  1.00  0.00     0.010 A 
ATOM     91  C   UNL A   1      46.525  25.130  34.712  1.00  0.00     0.020 A 
ATOM     92  C   UNL A   1      44.335  24.770  35.670  1.00  0.00     0.020 A 
ATOM     93  C   UNL A   1      45.686  24.473  35.617  1.00  0.00     0.054 A 
BRANCH  93  94
ATOM     94  S   UNL A   1      46.381  23.222  36.718  1.00  0.00     0.124 S 
ATOM     95  O   UNL A   1      45.970  23.699  38.036  1.00  0.00    -0.237 OA
ATOM     96  O   UNL A   1      45.711  22.011  36.252  1.00  0.00    -0.237 OA
ATOM     97  O   UNL A   1      47.816  23.282  36.456  1.00  0.00    -0.744 OA
ENDBRANCH  93  94
ENDBRANCH  67  88
ENDBRANCH  41  42
ENDBRANCH  34  36
ENDBRANCH  33  34
ENDBRANCH  32  33
ENDBRANCH  31  32
ENDBRANCH  30  31
ENDBRANCH  29  30
ENDBRANCH  28  29
ENDBRANCH   1  28
TORSDOF 26
ENDMDL
