MODEL 1
REMARK VINA RESULT:      -6.9      0.000      0.000
REMARK SMILES C=CC[N@@H+](CC(=O)OCCOCCOCCOCCOC(=O)c1ccc(-c2c3nc(c(-c4ccc(S(=O)(=O)[O-])cc4)c4ccc([nH]4)c(-c4ccc(S(=O)(=O)[O-])cc4)c4nc(c(-c5ccc(S(=O)(=O)[O-])cc5)c5ccc2[nH]5)C=C4)C=C3)cc1)Cc1nnc(-c2ccc(C)cc2)o1
REMARK SMILES IDX 13 1 12 2 11 3 10 4 9 5 8 6 6 7 7 8 5 9 4 10 3 12 2 13 1 14
REMARK SMILES IDX 83 15 84 16 85 17 95 18 86 19 87 20 88 21 89 22 94 23 90 24
REMARK SMILES IDX 93 25 91 26 92 27 14 28 15 29 16 30 17 31 18 32 19 33 20 34
REMARK SMILES IDX 21 35 22 36 23 37 24 38 82 39 25 40 81 41 26 42 27 43 28 44
REMARK SMILES IDX 75 45 29 46 80 47 74 48 76 49 30 50 79 51 73 52 72 53 31 55
REMARK SMILES IDX 61 56 42 57 60 58 43 59 46 60 59 61 77 62 44 63 45 64 58 66
REMARK SMILES IDX 78 67 47 68 32 69 33 70 41 71 34 72 40 73 35 74 36 75 37 76
REMARK SMILES IDX 38 77 39 78 62 79 63 80 71 81 64 82 70 83 65 84 66 85 67 86
REMARK SMILES IDX 68 87 69 88 48 89 49 90 57 91 50 92 56 93 51 94 52 95 53 96
REMARK SMILES IDX 54 97 55 98
REMARK H PARENT 4 11 76 54 46 65
REMARK Flexibility Score: inf
ROOT
ATOM      1  C   UNL A   1      35.113  34.332  34.043  1.00  0.00     0.188 C 
ENDROOT
BRANCH   1   2
ATOM      2  C   UNL A   1      36.823  33.044  34.762  1.00  0.00     0.188 C 
BRANCH   2   3
ATOM      3  O   UNL A   1      38.335  33.302  34.654  1.00  0.00    -0.376 OA
BRANCH   3   4
ATOM      4  C   UNL A   1      38.805  34.656  34.718  1.00  0.00     0.202 C 
BRANCH   4   5
ATOM      5  C   UNL A   1      39.631  35.057  35.953  1.00  0.00     0.261 C 
BRANCH   5   6
ATOM      6  O   UNL A   1      40.938  34.445  36.045  1.00  0.00    -0.459 OA
BRANCH   6   7
ATOM      7  C   UNL A   1      41.927  35.177  36.618  1.00  0.00     0.361 C 
ATOM      8  O   UNL A   1      42.378  34.978  37.744  1.00  0.00    -0.245 OA
BRANCH   7   9
ATOM      9  C   UNL A   1      42.438  36.333  35.758  1.00  0.00     0.387 C 
BRANCH   9  10
ATOM     10  N   UNL A   1      43.812  36.281  35.204  1.00  0.00    -0.315 N 
ATOM     11  H   UNL A   1      43.778  36.758  34.303  1.00  0.00     0.349 HD
BRANCH  10  12
ATOM     12  C   UNL A   1      44.220  34.913  34.859  1.00  0.00     0.291 C 
BRANCH  12  13
ATOM     13  C   UNL A   1      45.418  34.418  35.621  1.00  0.00     0.025 C 
ATOM     14  C   UNL A   1      45.509  33.179  36.127  1.00  0.00     0.010 C 
ENDBRANCH  12  13
ENDBRANCH  10  12
BRANCH  10  15
ATOM     15  C   UNL A   1      44.808  37.138  35.897  1.00  0.00     0.363 C 
BRANCH  15  16
ATOM     16  C   UNL A   1      44.591  38.600  35.768  1.00  0.00     0.271 A 
ATOM     17  N   UNL A   1      44.648  39.761  36.936  1.00  0.00    -0.106 NA
ATOM     18  O   UNL A   1      44.426  39.533  34.166  1.00  0.00    -0.415 OA
ATOM     19  N   UNL A   1      44.644  41.507  36.119  1.00  0.00    -0.107 NA
ATOM     20  C   UNL A   1      44.453  41.362  34.487  1.00  0.00     0.248 A 
BRANCH  20  21
ATOM     21  C   UNL A   1      44.633  42.418  33.503  1.00  0.00     0.039 A 
ATOM     22  C   UNL A   1      43.516  43.256  33.306  1.00  0.00     0.014 A 
ATOM     23  C   UNL A   1      45.692  42.519  32.612  1.00  0.00     0.014 A 
ATOM     24  C   UNL A   1      43.400  44.109  32.220  1.00  0.00     0.004 A 
ATOM     25  C   UNL A   1      45.573  43.373  31.494  1.00  0.00     0.004 A 
ATOM     26  C   UNL A   1      44.414  44.139  31.274  1.00  0.00    -0.051 A 
ATOM     27  C   UNL A   1      44.184  44.937  30.026  1.00  0.00     0.044 C 
ENDBRANCH  20  21
ENDBRANCH  15  16
ENDBRANCH  10  15
ENDBRANCH   9  10
ENDBRANCH   7   9
ENDBRANCH   6   7
ENDBRANCH   5   6
ENDBRANCH   4   5
ENDBRANCH   3   4
ENDBRANCH   2   3
ENDBRANCH   1   2
BRANCH   1  28
ATOM     28  O   UNL A   1      35.152  35.793  33.552  1.00  0.00    -0.377 OA
BRANCH  28  29
ATOM     29  C   UNL A   1      33.877  36.409  33.382  1.00  0.00     0.188 C 
BRANCH  29  30
ATOM     30  C   UNL A   1      33.759  37.456  32.279  1.00  0.00     0.188 C 
BRANCH  30  31
ATOM     31  O   UNL A   1      32.949  37.285  31.118  1.00  0.00    -0.376 OA
BRANCH  31  32
ATOM     32  C   UNL A   1      32.395  36.032  30.745  1.00  0.00     0.202 C 
BRANCH  32  33
ATOM     33  C   UNL A   1      33.189  35.127  29.803  1.00  0.00     0.261 C 
BRANCH  33  34
ATOM     34  O   UNL A   1      34.029  34.192  30.464  1.00  0.00    -0.460 OA
BRANCH  34  35
ATOM     35  C   UNL A   1      34.583  33.254  29.661  1.00  0.00     0.338 C 
ATOM     36  O   UNL A   1      34.038  32.582  28.805  1.00  0.00    -0.246 OA
BRANCH  35  37
ATOM     37  C   UNL A   1      36.035  33.365  29.877  1.00  0.00     0.060 A 
ATOM     38  C   UNL A   1      36.892  32.734  28.966  1.00  0.00     0.016 A 
ATOM     39  C   UNL A   1      36.536  34.184  30.896  1.00  0.00     0.016 A 
ATOM     40  C   UNL A   1      38.260  32.933  29.066  1.00  0.00     0.010 A 
ATOM     41  C   UNL A   1      37.909  34.333  31.037  1.00  0.00     0.010 A 
ATOM     42  C   UNL A   1      38.764  33.672  30.143  1.00  0.00    -0.014 A 
BRANCH  42  43
ATOM     43  C   UNL A   1      40.159  33.419  30.534  1.00  0.00     0.031 A 
ATOM     44  C   UNL A   1      41.182  34.368  29.977  1.00  0.00     0.074 A 
ATOM     45  C   UNL A   1      40.482  32.436  31.387  1.00  0.00     0.049 A 
ATOM     46  N   UNL A   1      42.466  34.426  30.198  1.00  0.00    -0.248 NA
ATOM     47  C   UNL A   1      40.683  35.402  29.049  1.00  0.00     0.031 C 
ATOM     48  C   UNL A   1      39.542  31.503  32.007  1.00  0.00     0.029 A 
ATOM     49  N   UNL A   1      41.702  32.071  31.883  1.00  0.00    -0.354 N 
ATOM     50  C   UNL A   1      42.921  35.501  29.444  1.00  0.00     0.074 A 
ATOM     51  C   UNL A   1      41.791  36.050  28.737  1.00  0.00     0.031 C 
ATOM     52  C   UNL A   1      40.228  30.664  32.803  1.00  0.00     0.029 A 
ATOM     53  C   UNL A   1      41.650  30.989  32.726  1.00  0.00     0.049 A 
ATOM     54  H   UNL A   1      42.539  32.539  31.657  1.00  0.00     0.167 HD
ATOM     55  C   UNL A   1      44.177  35.989  29.353  1.00  0.00     0.031 A 
ATOM     56  C   UNL A   1      42.651  30.339  33.348  1.00  0.00     0.031 A 
ATOM     57  C   UNL A   1      45.295  35.396  30.030  1.00  0.00     0.049 A 
ATOM     58  C   UNL A   1      44.056  30.858  33.176  1.00  0.00     0.074 A 
ATOM     59  C   UNL A   1      46.620  35.784  30.009  1.00  0.00     0.029 A 
ATOM     60  N   UNL A   1      45.213  34.272  30.840  1.00  0.00    -0.354 N 
ATOM     61  N   UNL A   1      44.478  31.888  32.478  1.00  0.00    -0.248 NA
ATOM     62  C   UNL A   1      45.117  30.137  33.891  1.00  0.00     0.031 C 
ATOM     63  C   UNL A   1      47.350  34.854  30.756  1.00  0.00     0.029 A 
ATOM     64  C   UNL A   1      46.470  33.934  31.305  1.00  0.00     0.049 A 
ATOM     65  H   UNL A   1      44.382  33.787  31.053  1.00  0.00     0.167 HD
ATOM     66  C   UNL A   1      45.850  31.958  32.693  1.00  0.00     0.074 A 
ATOM     67  C   UNL A   1      46.179  30.875  33.601  1.00  0.00     0.031 C 
ATOM     68  C   UNL A   1      46.760  32.835  32.194  1.00  0.00     0.031 A 
BRANCH  55  69
ATOM     69  C   UNL A   1      44.395  37.163  28.439  1.00  0.00    -0.014 A 
ATOM     70  C   UNL A   1      45.127  37.040  27.242  1.00  0.00     0.010 A 
ATOM     71  C   UNL A   1      43.868  38.417  28.792  1.00  0.00     0.010 A 
ATOM     72  C   UNL A   1      45.356  38.158  26.436  1.00  0.00     0.020 A 
ATOM     73  C   UNL A   1      44.069  39.531  27.974  1.00  0.00     0.020 A 
ATOM     74  C   UNL A   1      44.825  39.396  26.807  1.00  0.00     0.054 A 
BRANCH  74  75
ATOM     75  S   UNL A   1      45.113  40.827  25.729  1.00  0.00     0.124 S 
ATOM     76  O   UNL A   1      45.684  41.797  26.660  1.00  0.00    -0.237 OA
ATOM     77  O   UNL A   1      46.038  40.292  24.733  1.00  0.00    -0.237 OA
ATOM     78  O   UNL A   1      43.782  41.156  25.226  1.00  0.00    -0.744 OA
ENDBRANCH  74  75
ENDBRANCH  55  69
BRANCH  56  79
ATOM     79  C   UNL A   1      42.357  29.135  34.171  1.00  0.00    -0.014 A 
ATOM     80  C   UNL A   1      42.515  27.839  33.649  1.00  0.00     0.010 A 
ATOM     81  C   UNL A   1      41.930  29.284  35.504  1.00  0.00     0.010 A 
ATOM     82  C   UNL A   1      42.241  26.717  34.440  1.00  0.00     0.020 A 
ATOM     83  C   UNL A   1      41.683  28.166  36.307  1.00  0.00     0.020 A 
ATOM     84  C   UNL A   1      41.833  26.889  35.766  1.00  0.00     0.054 A 
BRANCH  84  85
ATOM     85  S   UNL A   1      41.545  25.420  36.791  1.00  0.00     0.124 S 
ATOM     86  O   UNL A   1      42.832  25.259  37.461  1.00  0.00    -0.237 OA
ATOM     87  O   UNL A   1      40.436  25.843  37.642  1.00  0.00    -0.237 OA
ATOM     88  O   UNL A   1      41.211  24.383  35.817  1.00  0.00    -0.744 OA
ENDBRANCH  84  85
ENDBRANCH  56  79
BRANCH  68  89
ATOM     89  C   UNL A   1      48.184  32.676  32.654  1.00  0.00    -0.014 A 
ATOM     90  C   UNL A   1      49.105  31.893  31.937  1.00  0.00     0.010 A 
ATOM     91  C   UNL A   1      48.610  33.349  33.814  1.00  0.00     0.010 A 
ATOM     92  C   UNL A   1      50.409  31.732  32.409  1.00  0.00     0.020 A 
ATOM     93  C   UNL A   1      49.923  33.222  34.268  1.00  0.00     0.020 A 
ATOM     94  C   UNL A   1      50.807  32.392  33.576  1.00  0.00     0.054 A 
BRANCH  94  95
ATOM     95  S   UNL A   1      52.504  32.165  34.173  1.00  0.00     0.124 S 
ATOM     96  O   UNL A   1      53.062  31.272  33.160  1.00  0.00    -0.237 OA
ATOM     97  O   UNL A   1      53.030  33.527  34.169  1.00  0.00    -0.237 OA
ATOM     98  O   UNL A   1      52.330  31.573  35.497  1.00  0.00    -0.744 OA
ENDBRANCH  94  95
ENDBRANCH  68  89
ENDBRANCH  42  43
ENDBRANCH  35  37
ENDBRANCH  34  35
ENDBRANCH  33  34
ENDBRANCH  32  33
ENDBRANCH  31  32
ENDBRANCH  30  31
ENDBRANCH  29  30
ENDBRANCH  28  29
ENDBRANCH   1  28
TORSDOF 29
ENDMDL
MODEL 2
REMARK VINA RESULT:      -6.6      3.256      7.204
REMARK SMILES C=CC[N@@H+](CC(=O)OCCOCCOCCOCCOC(=O)c1ccc(-c2c3nc(c(-c4ccc(S(=O)(=O)[O-])cc4)c4ccc([nH]4)c(-c4ccc(S(=O)(=O)[O-])cc4)c4nc(c(-c5ccc(S(=O)(=O)[O-])cc5)c5ccc2[nH]5)C=C4)C=C3)cc1)Cc1nnc(-c2ccc(C)cc2)o1
REMARK SMILES IDX 13 1 12 2 11 3 10 4 9 5 8 6 6 7 7 8 5 9 4 10 3 12 2 13 1 14
REMARK SMILES IDX 83 15 84 16 85 17 95 18 86 19 87 20 88 21 89 22 94 23 90 24
REMARK SMILES IDX 93 25 91 26 92 27 14 28 15 29 16 30 17 31 18 32 19 33 20 34
REMARK SMILES IDX 21 35 22 36 23 37 24 38 82 39 25 40 81 41 26 42 27 43 28 44
REMARK SMILES IDX 75 45 29 46 80 47 74 48 76 49 30 50 79 51 73 52 72 53 31 55
REMARK SMILES IDX 61 56 42 57 60 58 43 59 46 60 59 61 77 62 44 63 45 64 58 66
REMARK SMILES IDX 78 67 47 68 32 69 33 70 41 71 34 72 40 73 35 74 36 75 37 76
REMARK SMILES IDX 38 77 39 78 62 79 63 80 71 81 64 82 70 83 65 84 66 85 67 86
REMARK SMILES IDX 68 87 69 88 48 89 49 90 57 91 50 92 56 93 51 94 52 95 53 96
REMARK SMILES IDX 54 97 55 98
REMARK H PARENT 4 11 76 54 46 65
REMARK Flexibility Score: inf
ROOT
ATOM      1  C   UNL A   1      38.041  32.005  35.833  1.00  0.00     0.188 C 
ENDROOT
BRANCH   1   2
ATOM      2  C   UNL A   1      36.638  33.113  34.453  1.00  0.00     0.188 C 
BRANCH   2   3
ATOM      3  O   UNL A   1      36.474  34.629  34.260  1.00  0.00    -0.376 OA
BRANCH   3   4
ATOM      4  C   UNL A   1      36.361  35.141  32.925  1.00  0.00     0.202 C 
BRANCH   4   5
ATOM      5  C   UNL A   1      35.542  34.312  31.920  1.00  0.00     0.261 C 
BRANCH   5   6
ATOM      6  O   UNL A   1      36.321  33.585  30.942  1.00  0.00    -0.459 OA
BRANCH   6   7
ATOM      7  C   UNL A   1      35.826  32.395  30.514  1.00  0.00     0.361 C 
ATOM      8  O   UNL A   1      34.832  31.845  30.983  1.00  0.00    -0.245 OA
BRANCH   7   9
ATOM      9  C   UNL A   1      36.638  31.738  29.397  1.00  0.00     0.387 C 
BRANCH   9  10
ATOM     10  N   UNL A   1      37.639  30.697  29.735  1.00  0.00    -0.315 N 
ATOM     11  H   UNL A   1      38.477  30.918  29.198  1.00  0.00     0.349 HD
BRANCH  10  12
ATOM     12  C   UNL A   1      37.247  29.370  29.242  1.00  0.00     0.291 C 
BRANCH  12  13
ATOM     13  C   UNL A   1      38.125  28.839  28.143  1.00  0.00     0.025 C 
ATOM     14  C   UNL A   1      39.398  29.223  27.966  1.00  0.00     0.010 C 
ENDBRANCH  12  13
ENDBRANCH  10  12
BRANCH  10  15
ATOM     15  C   UNL A   1      38.200  30.779  31.108  1.00  0.00     0.363 C 
BRANCH  15  16
ATOM     16  C   UNL A   1      39.463  31.547  31.236  1.00  0.00     0.271 A 
ATOM     17  N   UNL A   1      40.779  31.225  32.175  1.00  0.00    -0.106 NA
ATOM     18  O   UNL A   1      39.976  32.976  30.159  1.00  0.00    -0.415 OA
ATOM     19  N   UNL A   1      42.245  32.363  31.653  1.00  0.00    -0.107 NA
ATOM     20  C   UNL A   1      41.742  33.432  30.503  1.00  0.00     0.248 A 
BRANCH  20  21
ATOM     21  C   UNL A   1      42.596  34.289  29.694  1.00  0.00     0.039 A 
ATOM     22  C   UNL A   1      42.442  35.673  29.911  1.00  0.00     0.014 A 
ATOM     23  C   UNL A   1      43.351  33.878  28.605  1.00  0.00     0.014 A 
ATOM     24  C   UNL A   1      42.941  36.629  29.042  1.00  0.00     0.004 A 
ATOM     25  C   UNL A   1      43.847  34.845  27.705  1.00  0.00     0.004 A 
ATOM     26  C   UNL A   1      43.612  36.219  27.899  1.00  0.00    -0.051 A 
ATOM     27  C   UNL A   1      43.985  37.264  26.892  1.00  0.00     0.044 C 
ENDBRANCH  20  21
ENDBRANCH  15  16
ENDBRANCH  10  15
ENDBRANCH   9  10
ENDBRANCH   7   9
ENDBRANCH   6   7
ENDBRANCH   5   6
ENDBRANCH   4   5
ENDBRANCH   3   4
ENDBRANCH   2   3
ENDBRANCH   1   2
BRANCH   1  28
ATOM     28  O   UNL A   1      37.814  31.589  37.301  1.00  0.00    -0.377 OA
BRANCH  28  29
ATOM     29  C   UNL A   1      37.460  32.653  38.183  1.00  0.00     0.188 C 
BRANCH  29  30
ATOM     30  C   UNL A   1      37.884  32.507  39.641  1.00  0.00     0.188 C 
BRANCH  30  31
ATOM     31  O   UNL A   1      39.058  33.109  40.181  1.00  0.00    -0.376 OA
BRANCH  31  32
ATOM     32  C   UNL A   1      39.039  33.919  41.348  1.00  0.00     0.202 C 
BRANCH  32  33
ATOM     33  C   UNL A   1      38.594  35.377  41.224  1.00  0.00     0.261 C 
BRANCH  33  34
ATOM     34  O   UNL A   1      39.587  36.247  40.702  1.00  0.00    -0.460 OA
BRANCH  34  35
ATOM     35  C   UNL A   1      39.256  36.860  39.541  1.00  0.00     0.338 C 
ATOM     36  O   UNL A   1      38.570  37.852  39.385  1.00  0.00    -0.246 OA
BRANCH  35  37
ATOM     37  C   UNL A   1      40.082  36.210  38.509  1.00  0.00     0.060 A 
ATOM     38  C   UNL A   1      41.455  36.069  38.751  1.00  0.00     0.016 A 
ATOM     39  C   UNL A   1      39.482  35.643  37.379  1.00  0.00     0.016 A 
ATOM     40  C   UNL A   1      42.233  35.344  37.862  1.00  0.00     0.010 A 
ATOM     41  C   UNL A   1      40.271  34.971  36.455  1.00  0.00     0.010 A 
ATOM     42  C   UNL A   1      41.650  34.861  36.684  1.00  0.00    -0.014 A 
BRANCH  42  43
ATOM     43  C   UNL A   1      42.550  34.599  35.550  1.00  0.00     0.031 A 
ATOM     44  C   UNL A   1      42.951  35.796  34.737  1.00  0.00     0.074 A 
ATOM     45  C   UNL A   1      43.027  33.371  35.302  1.00  0.00     0.049 A 
ATOM     46  N   UNL A   1      43.774  35.876  33.729  1.00  0.00    -0.248 NA
ATOM     47  C   UNL A   1      42.345  37.086  35.124  1.00  0.00     0.031 C 
ATOM     48  C   UNL A   1      42.722  32.166  36.073  1.00  0.00     0.029 A 
ATOM     49  N   UNL A   1      43.884  32.943  34.327  1.00  0.00    -0.354 N 
ATOM     50  C   UNL A   1      43.788  37.218  33.369  1.00  0.00     0.074 A 
ATOM     51  C   UNL A   1      42.874  37.915  34.241  1.00  0.00     0.031 C 
ATOM     52  C   UNL A   1      43.384  31.128  35.532  1.00  0.00     0.029 A 
ATOM     53  C   UNL A   1      44.135  31.595  34.369  1.00  0.00     0.049 A 
ATOM     54  H   UNL A   1      44.283  33.545  33.657  1.00  0.00     0.167 HD
ATOM     55  C   UNL A   1      44.505  37.817  32.394  1.00  0.00     0.031 A 
ATOM     56  C   UNL A   1      44.881  30.836  33.545  1.00  0.00     0.031 A 
ATOM     57  C   UNL A   1      45.373  37.096  31.508  1.00  0.00     0.049 A 
ATOM     58  C   UNL A   1      45.619  31.515  32.419  1.00  0.00     0.074 A 
ATOM     59  C   UNL A   1      46.144  37.582  30.471  1.00  0.00     0.029 A 
ATOM     60  N   UNL A   1      45.568  35.722  31.551  1.00  0.00    -0.354 N 
ATOM     61  N   UNL A   1      45.645  32.789  32.097  1.00  0.00    -0.248 NA
ATOM     62  C   UNL A   1      46.442  30.658  31.559  1.00  0.00     0.031 C 
ATOM     63  C   UNL A   1      46.756  36.491  29.845  1.00  0.00     0.029 A 
ATOM     64  C   UNL A   1      46.428  35.336  30.540  1.00  0.00     0.049 A 
ATOM     65  H   UNL A   1      45.155  35.112  32.205  1.00  0.00     0.167 HD
ATOM     66  C   UNL A   1      46.510  32.891  31.014  1.00  0.00     0.074 A 
ATOM     67  C   UNL A   1      46.998  31.550  30.751  1.00  0.00     0.031 C 
ATOM     68  C   UNL A   1      46.876  33.987  30.300  1.00  0.00     0.031 A 
BRANCH  55  69
ATOM     69  C   UNL A   1      44.312  39.298  32.209  1.00  0.00    -0.014 A 
ATOM     70  C   UNL A   1      43.639  39.818  31.087  1.00  0.00     0.010 A 
ATOM     71  C   UNL A   1      44.827  40.185  33.169  1.00  0.00     0.010 A 
ATOM     72  C   UNL A   1      43.516  41.199  30.914  1.00  0.00     0.020 A 
ATOM     73  C   UNL A   1      44.681  41.565  33.016  1.00  0.00     0.020 A 
ATOM     74  C   UNL A   1      44.038  42.064  31.881  1.00  0.00     0.054 A 
BRANCH  74  75
ATOM     75  S   UNL A   1      43.842  43.852  31.647  1.00  0.00     0.124 S 
ATOM     76  O   UNL A   1      42.487  44.075  32.144  1.00  0.00    -0.237 OA
ATOM     77  O   UNL A   1      44.913  44.400  32.476  1.00  0.00    -0.237 OA
ATOM     78  O   UNL A   1      44.015  44.035  30.209  1.00  0.00    -0.744 OA
ENDBRANCH  74  75
ENDBRANCH  55  69
BRANCH  56  79
ATOM     79  C   UNL A   1      44.954  29.364  33.753  1.00  0.00    -0.014 A 
ATOM     80  C   UNL A   1      44.170  28.482  32.990  1.00  0.00     0.010 A 
ATOM     81  C   UNL A   1      45.835  28.834  34.714  1.00  0.00     0.010 A 
ATOM     82  C   UNL A   1      44.256  27.099  33.193  1.00  0.00     0.020 A 
ATOM     83  C   UNL A   1      45.946  27.453  34.899  1.00  0.00     0.020 A 
ATOM     84  C   UNL A   1      45.149  26.594  34.143  1.00  0.00     0.054 A 
BRANCH  84  85
ATOM     85  S   UNL A   1      45.291  24.797  34.343  1.00  0.00     0.124 S 
ATOM     86  O   UNL A   1      44.310  24.304  33.381  1.00  0.00    -0.237 OA
ATOM     87  O   UNL A   1      46.691  24.553  34.003  1.00  0.00    -0.237 OA
ATOM     88  O   UNL A   1      44.953  24.581  35.748  1.00  0.00    -0.744 OA
ENDBRANCH  84  85
ENDBRANCH  56  79
BRANCH  68  89
ATOM     89  C   UNL A   1      47.879  33.778  29.196  1.00  0.00    -0.014 A 
ATOM     90  C   UNL A   1      49.260  33.729  29.457  1.00  0.00     0.010 A 
ATOM     91  C   UNL A   1      47.421  33.603  27.877  1.00  0.00     0.010 A 
ATOM     92  C   UNL A   1      50.168  33.573  28.408  1.00  0.00     0.020 A 
ATOM     93  C   UNL A   1      48.324  33.409  26.831  1.00  0.00     0.020 A 
ATOM     94  C   UNL A   1      49.694  33.422  27.101  1.00  0.00     0.054 A 
BRANCH  94  95
ATOM     95  S   UNL A   1      50.892  33.227  25.755  1.00  0.00     0.124 S 
ATOM     96  O   UNL A   1      50.372  34.153  24.752  1.00  0.00    -0.237 OA
ATOM     97  O   UNL A   1      52.149  33.623  26.384  1.00  0.00    -0.237 OA
ATOM     98  O   UNL A   1      50.795  31.812  25.406  1.00  0.00    -0.744 OA
ENDBRANCH  94  95
ENDBRANCH  68  89
ENDBRANCH  42  43
ENDBRANCH  35  37
ENDBRANCH  34  35
ENDBRANCH  33  34
ENDBRANCH  32  33
ENDBRANCH  31  32
ENDBRANCH  30  31
ENDBRANCH  29  30
ENDBRANCH  28  29
ENDBRANCH   1  28
TORSDOF 29
ENDMDL
MODEL 3
REMARK VINA RESULT:      -6.5      6.857     12.232
REMARK SMILES C=CC[N@@H+](CC(=O)OCCOCCOCCOCCOC(=O)c1ccc(-c2c3nc(c(-c4ccc(S(=O)(=O)[O-])cc4)c4ccc([nH]4)c(-c4ccc(S(=O)(=O)[O-])cc4)c4nc(c(-c5ccc(S(=O)(=O)[O-])cc5)c5ccc2[nH]5)C=C4)C=C3)cc1)Cc1nnc(-c2ccc(C)cc2)o1
REMARK SMILES IDX 13 1 12 2 11 3 10 4 9 5 8 6 6 7 7 8 5 9 4 10 3 12 2 13 1 14
REMARK SMILES IDX 83 15 84 16 85 17 95 18 86 19 87 20 88 21 89 22 94 23 90 24
REMARK SMILES IDX 93 25 91 26 92 27 14 28 15 29 16 30 17 31 18 32 19 33 20 34
REMARK SMILES IDX 21 35 22 36 23 37 24 38 82 39 25 40 81 41 26 42 27 43 28 44
REMARK SMILES IDX 75 45 29 46 80 47 74 48 76 49 30 50 79 51 73 52 72 53 31 55
REMARK SMILES IDX 61 56 42 57 60 58 43 59 46 60 59 61 77 62 44 63 45 64 58 66
REMARK SMILES IDX 78 67 47 68 32 69 33 70 41 71 34 72 40 73 35 74 36 75 37 76
REMARK SMILES IDX 38 77 39 78 62 79 63 80 71 81 64 82 70 83 65 84 66 85 67 86
REMARK SMILES IDX 68 87 69 88 48 89 49 90 57 91 50 92 56 93 51 94 52 95 53 96
REMARK SMILES IDX 54 97 55 98
REMARK H PARENT 4 11 76 54 46 65
REMARK Flexibility Score: inf
ROOT
ATOM      1  C   UNL A   1      38.306  22.134  25.862  1.00  0.00     0.188 C 
ENDROOT
BRANCH   1   2
ATOM      2  C   UNL A   1      36.511  22.853  24.696  1.00  0.00     0.188 C 
BRANCH   2   3
ATOM      3  O   UNL A   1      35.362  22.029  24.092  1.00  0.00    -0.376 OA
BRANCH   3   4
ATOM      4  C   UNL A   1      34.228  21.729  24.917  1.00  0.00     0.202 C 
BRANCH   4   5
ATOM      5  C   UNL A   1      32.998  22.644  24.786  1.00  0.00     0.261 C 
BRANCH   5   6
ATOM      6  O   UNL A   1      31.914  22.354  25.700  1.00  0.00    -0.459 OA
BRANCH   6   7
ATOM      7  C   UNL A   1      31.836  23.104  26.828  1.00  0.00     0.361 C 
ATOM      8  O   UNL A   1      32.602  23.005  27.785  1.00  0.00    -0.245 OA
BRANCH   7   9
ATOM      9  C   UNL A   1      30.668  24.090  26.852  1.00  0.00     0.387 C 
BRANCH   9  10
ATOM     10  N   UNL A   1      30.858  25.463  26.324  1.00  0.00    -0.315 N 
ATOM     11  H   UNL A   1      30.621  26.100  27.084  1.00  0.00     0.349 HD
BRANCH  10  12
ATOM     12  C   UNL A   1      29.885  25.794  25.275  1.00  0.00     0.291 C 
BRANCH  12  13
ATOM     13  C   UNL A   1      30.457  25.798  23.885  1.00  0.00     0.025 C 
ATOM     14  C   UNL A   1      30.483  24.714  23.095  1.00  0.00     0.010 C 
ENDBRANCH  12  13
ENDBRANCH  10  12
BRANCH  10  15
ATOM     15  C   UNL A   1      32.270  25.866  26.099  1.00  0.00     0.363 C 
BRANCH  15  16
ATOM     16  C   UNL A   1      32.579  27.289  26.383  1.00  0.00     0.271 A 
ATOM     17  N   UNL A   1      31.540  28.547  26.613  1.00  0.00    -0.106 NA
ATOM     18  O   UNL A   1      34.263  27.971  26.789  1.00  0.00    -0.415 OA
ATOM     19  N   UNL A   1      32.503  30.070  27.299  1.00  0.00    -0.107 NA
ATOM     20  C   UNL A   1      34.118  29.738  27.343  1.00  0.00     0.248 A 
BRANCH  20  21
ATOM     21  C   UNL A   1      35.141  30.530  28.010  1.00  0.00     0.039 A 
ATOM     22  C   UNL A   1      34.660  31.590  28.805  1.00  0.00     0.014 A 
ATOM     23  C   UNL A   1      36.502  30.472  27.750  1.00  0.00     0.014 A 
ATOM     24  C   UNL A   1      35.474  32.612  29.265  1.00  0.00     0.004 A 
ATOM     25  C   UNL A   1      37.335  31.520  28.200  1.00  0.00     0.004 A 
ATOM     26  C   UNL A   1      36.819  32.610  28.924  1.00  0.00    -0.051 A 
ATOM     27  C   UNL A   1      37.635  33.814  29.285  1.00  0.00     0.044 C 
ENDBRANCH  20  21
ENDBRANCH  15  16
ENDBRANCH  10  15
ENDBRANCH   9  10
ENDBRANCH   7   9
ENDBRANCH   6   7
ENDBRANCH   5   6
ENDBRANCH   4   5
ENDBRANCH   3   4
ENDBRANCH   2   3
ENDBRANCH   1   2
BRANCH   1  28
ATOM     28  O   UNL A   1      39.263  22.953  26.753  1.00  0.00    -0.377 OA
BRANCH  28  29
ATOM     29  C   UNL A   1      38.792  24.249  27.116  1.00  0.00     0.188 C 
BRANCH  29  30
ATOM     30  C   UNL A   1      39.727  25.110  27.959  1.00  0.00     0.188 C 
BRANCH  30  31
ATOM     31  O   UNL A   1      39.701  26.536  27.952  1.00  0.00    -0.376 OA
BRANCH  31  32
ATOM     32  C   UNL A   1      39.966  27.314  29.109  1.00  0.00     0.202 C 
BRANCH  32  33
ATOM     33  C   UNL A   1      38.976  28.412  29.501  1.00  0.00     0.261 C 
BRANCH  33  34
ATOM     34  O   UNL A   1      38.753  28.524  30.899  1.00  0.00    -0.460 OA
BRANCH  34  35
ATOM     35  C   UNL A   1      37.654  29.233  31.248  1.00  0.00     0.338 C 
ATOM     36  O   UNL A   1      36.531  29.148  30.789  1.00  0.00    -0.246 OA
BRANCH  35  37
ATOM     37  C   UNL A   1      38.040  29.981  32.456  1.00  0.00     0.060 A 
ATOM     38  C   UNL A   1      37.316  31.135  32.781  1.00  0.00     0.016 A 
ATOM     39  C   UNL A   1      39.023  29.475  33.314  1.00  0.00     0.016 A 
ATOM     40  C   UNL A   1      37.567  31.782  33.981  1.00  0.00     0.010 A 
ATOM     41  C   UNL A   1      39.321  30.158  34.486  1.00  0.00     0.010 A 
ATOM     42  C   UNL A   1      38.617  31.332  34.792  1.00  0.00    -0.014 A 
BRANCH  42  43
ATOM     43  C   UNL A   1      39.206  32.303  35.726  1.00  0.00     0.031 A 
ATOM     44  C   UNL A   1      40.296  33.175  35.170  1.00  0.00     0.074 A 
ATOM     45  C   UNL A   1      38.749  32.437  36.979  1.00  0.00     0.049 A 
ATOM     46  N   UNL A   1      40.947  34.151  35.738  1.00  0.00    -0.248 NA
ATOM     47  C   UNL A   1      40.698  32.913  33.773  1.00  0.00     0.031 C 
ATOM     48  C   UNL A   1      37.664  31.661  37.578  1.00  0.00     0.029 A 
ATOM     49  N   UNL A   1      39.145  33.291  37.970  1.00  0.00    -0.354 N 
ATOM     50  C   UNL A   1      41.826  34.620  34.769  1.00  0.00     0.074 A 
ATOM     51  C   UNL A   1      41.651  33.809  33.589  1.00  0.00     0.031 C 
ATOM     52  C   UNL A   1      37.485  32.076  38.845  1.00  0.00     0.029 A 
ATOM     53  C   UNL A   1      38.456  33.126  39.145  1.00  0.00     0.049 A 
ATOM     54  H   UNL A   1      39.857  33.961  37.853  1.00  0.00     0.167 HD
ATOM     55  C   UNL A   1      42.703  35.643  34.858  1.00  0.00     0.031 A 
ATOM     56  C   UNL A   1      38.613  33.752  40.326  1.00  0.00     0.031 A 
ATOM     57  C   UNL A   1      42.893  36.406  36.059  1.00  0.00     0.049 A 
ATOM     58  C   UNL A   1      39.647  34.844  40.424  1.00  0.00     0.074 A 
ATOM     59  C   UNL A   1      43.759  37.457  36.285  1.00  0.00     0.029 A 
ATOM     60  N   UNL A   1      42.209  36.180  37.246  1.00  0.00    -0.354 N 
ATOM     61  N   UNL A   1      40.462  35.298  39.498  1.00  0.00    -0.248 NA
ATOM     62  C   UNL A   1      39.770  35.521  41.721  1.00  0.00     0.031 C 
ATOM     63  C   UNL A   1      43.645  37.825  37.629  1.00  0.00     0.029 A 
ATOM     64  C   UNL A   1      42.652  37.056  38.219  1.00  0.00     0.049 A 
ATOM     65  H   UNL A   1      41.511  35.497  37.375  1.00  0.00     0.167 HD
ATOM     66  C   UNL A   1      41.174  36.334  40.091  1.00  0.00     0.074 A 
ATOM     67  C   UNL A   1      40.678  36.448  41.450  1.00  0.00     0.031 C 
ATOM     68  C   UNL A   1      42.146  37.126  39.567  1.00  0.00     0.031 A 
BRANCH  55  69
ATOM     69  C   UNL A   1      43.554  35.927  33.651  1.00  0.00    -0.014 A 
ATOM     70  C   UNL A   1      43.187  36.904  32.704  1.00  0.00     0.010 A 
ATOM     71  C   UNL A   1      44.736  35.194  33.453  1.00  0.00     0.010 A 
ATOM     72  C   UNL A   1      43.970  37.114  31.566  1.00  0.00     0.020 A 
ATOM     73  C   UNL A   1      45.538  35.422  32.333  1.00  0.00     0.020 A 
ATOM     74  C   UNL A   1      45.142  36.371  31.389  1.00  0.00     0.054 A 
BRANCH  74  75
ATOM     75  S   UNL A   1      46.156  36.682  29.917  1.00  0.00     0.124 S 
ATOM     76  O   UNL A   1      45.156  37.120  28.947  1.00  0.00    -0.237 OA
ATOM     77  O   UNL A   1      47.078  37.717  30.379  1.00  0.00    -0.237 OA
ATOM     78  O   UNL A   1      46.768  35.386  29.637  1.00  0.00    -0.744 OA
ENDBRANCH  74  75
ENDBRANCH  55  69
BRANCH  56  79
ATOM     79  C   UNL A   1      37.782  33.354  41.495  1.00  0.00    -0.014 A 
ATOM     80  C   UNL A   1      36.558  33.988  41.768  1.00  0.00     0.010 A 
ATOM     81  C   UNL A   1      38.212  32.311  42.337  1.00  0.00     0.010 A 
ATOM     82  C   UNL A   1      35.785  33.595  42.867  1.00  0.00     0.020 A 
ATOM     83  C   UNL A   1      37.429  31.896  43.419  1.00  0.00     0.020 A 
ATOM     84  C   UNL A   1      36.224  32.547  43.682  1.00  0.00     0.054 A 
BRANCH  84  85
ATOM     85  S   UNL A   1      35.175  32.013  45.063  1.00  0.00     0.124 S 
ATOM     86  O   UNL A   1      33.866  31.904  44.427  1.00  0.00    -0.237 OA
ATOM     87  O   UNL A   1      35.795  30.750  45.457  1.00  0.00    -0.237 OA
ATOM     88  O   UNL A   1      35.312  33.095  46.035  1.00  0.00    -0.744 OA
ENDBRANCH  84  85
ENDBRANCH  56  79
BRANCH  68  89
ATOM     89  C   UNL A   1      42.702  38.204  40.459  1.00  0.00    -0.014 A 
ATOM     90  C   UNL A   1      43.834  37.982  41.263  1.00  0.00     0.010 A 
ATOM     91  C   UNL A   1      42.090  39.471  40.467  1.00  0.00     0.010 A 
ATOM     92  C   UNL A   1      44.303  38.988  42.109  1.00  0.00     0.020 A 
ATOM     93  C   UNL A   1      42.580  40.491  41.283  1.00  0.00     0.020 A 
ATOM     94  C   UNL A   1      43.668  40.234  42.119  1.00  0.00     0.054 A 
BRANCH  94  95
ATOM     95  S   UNL A   1      44.292  41.524  43.229  1.00  0.00     0.124 S 
ATOM     96  O   UNL A   1      43.805  41.066  44.527  1.00  0.00    -0.237 OA
ATOM     97  O   UNL A   1      45.738  41.441  43.036  1.00  0.00    -0.237 OA
ATOM     98  O   UNL A   1      43.670  42.746  42.726  1.00  0.00    -0.744 OA
ENDBRANCH  94  95
ENDBRANCH  68  89
ENDBRANCH  42  43
ENDBRANCH  35  37
ENDBRANCH  34  35
ENDBRANCH  33  34
ENDBRANCH  32  33
ENDBRANCH  31  32
ENDBRANCH  30  31
ENDBRANCH  29  30
ENDBRANCH  28  29
ENDBRANCH   1  28
TORSDOF 29
ENDMDL
