MODEL 1
REMARK VINA RESULT:     -10.3      0.000      0.000
REMARK SMILES CCn1nc(-c2cccnc2)c2cc(C(=O)OCCOCCOCCOCCOC(=O)c3ccc(-c4c5nc(c(-c6ccc(S(=O)(=O)[O-])cc6)c6ccc([nH]6)c(-c6ccc(S(=O)(=O)[O-])cc6)c6nc(c(-c7ccc(S(=O)(=O)[O-])cc7)c7ccc4[nH]7)C=C6)C=C5)cc3)sc21
REMARK SMILES IDX 24 1 23 2 22 3 21 4 20 5 19 6 18 7 17 8 15 9 16 10 14 11
REMARK SMILES IDX 3 12 4 13 93 14 5 15 12 16 92 17 13 18 2 19 1 20 6 21 7 22
REMARK SMILES IDX 11 23 8 24 10 25 9 26 25 27 26 28 27 29 28 30 29 31 30 32
REMARK SMILES IDX 31 33 32 34 33 35 91 36 34 37 90 38 35 39 36 40 37 41 84 42
REMARK SMILES IDX 38 43 89 44 83 45 85 46 39 47 88 48 82 49 81 50 40 52 70 53
REMARK SMILES IDX 51 54 69 55 52 56 55 57 68 58 86 59 53 60 54 61 67 63 87 64
REMARK SMILES IDX 56 65 41 66 42 67 50 68 43 69 49 70 44 71 45 72 46 73 47 74
REMARK SMILES IDX 48 75 71 76 72 77 80 78 73 79 79 80 74 81 75 82 76 83 77 84
REMARK SMILES IDX 78 85 57 86 58 87 66 88 59 89 65 90 60 91 61 92 62 93 63 94
REMARK SMILES IDX 64 95
REMARK H PARENT 85 51 55 62
REMARK Flexibility Score: inf
ROOT
ATOM      1  C   UNL A   1      31.513  29.491  26.031  1.00  0.00     0.188 C 
ENDROOT
BRANCH   1   2
ATOM      2  O   UNL A   1      31.881  28.713  27.172  1.00  0.00    -0.377 OA
BRANCH   2   3
ATOM      3  C   UNL A   1      32.822  27.681  26.919  1.00  0.00     0.188 C 
BRANCH   3   4
ATOM      4  C   UNL A   1      32.827  27.163  25.462  1.00  0.00     0.188 C 
BRANCH   4   5
ATOM      5  O   UNL A   1      33.901  27.407  24.558  1.00  0.00    -0.376 OA
BRANCH   5   6
ATOM      6  C   UNL A   1      33.740  28.167  23.372  1.00  0.00     0.202 C 
BRANCH   6   7
ATOM      7  C   UNL A   1      33.486  27.484  22.022  1.00  0.00     0.261 C 
BRANCH   7   8
ATOM      8  O   UNL A   1      33.840  26.109  21.940  1.00  0.00    -0.459 OA
BRANCH   8   9
ATOM      9  C   UNL A   1      32.905  25.199  22.316  1.00  0.00     0.348 C 
ATOM     10  O   UNL A   1      31.705  25.261  22.039  1.00  0.00    -0.245 OA
BRANCH   9  11
ATOM     11  C   UNL A   1      33.563  24.079  22.957  1.00  0.00     0.115 A 
ATOM     12  N   UNL A   1      34.278  20.747  24.536  1.00  0.00    -0.254 N 
ATOM     13  N   UNL A   1      35.463  20.852  25.211  1.00  0.00    -0.171 NA
ATOM     14  C   UNL A   1      33.969  21.909  23.922  1.00  0.00     0.122 A 
ATOM     15  C   UNL A   1      35.861  22.135  25.035  1.00  0.00     0.103 A 
ATOM     16  C   UNL A   1      34.925  22.789  24.234  1.00  0.00     0.040 A 
ATOM     17  S   UNL A   1      32.800  22.509  22.916  1.00  0.00    -0.109 S 
ATOM     18  C   UNL A   1      34.759  24.060  23.684  1.00  0.00     0.040 A 
BRANCH  12  19
ATOM     19  C   UNL A   1      33.607  19.463  24.521  1.00  0.00     0.142 C 
ATOM     20  C   UNL A   1      34.492  18.226  24.515  1.00  0.00     0.029 C 
ENDBRANCH  12  19
BRANCH  15  21
ATOM     21  C   UNL A   1      37.123  22.588  25.579  1.00  0.00     0.021 A 
ATOM     22  C   UNL A   1      38.194  21.700  25.696  1.00  0.00     0.013 A 
ATOM     23  C   UNL A   1      37.294  23.877  26.067  1.00  0.00     0.121 A 
ATOM     24  C   UNL A   1      39.381  22.125  26.286  1.00  0.00     0.021 A 
ATOM     25  N   UNL A   1      38.445  24.323  26.634  1.00  0.00    -0.264 NA
ATOM     26  C   UNL A   1      39.455  23.432  26.739  1.00  0.00     0.111 A 
ENDBRANCH  15  21
ENDBRANCH   9  11
ENDBRANCH   8   9
ENDBRANCH   7   8
ENDBRANCH   6   7
ENDBRANCH   5   6
ENDBRANCH   4   5
ENDBRANCH   3   4
ENDBRANCH   2   3
ENDBRANCH   1   2
BRANCH   1  27
ATOM     27  C   UNL A   1      31.720  31.025  26.109  1.00  0.00     0.188 C 
BRANCH  27  28
ATOM     28  O   UNL A   1      32.262  31.469  27.348  1.00  0.00    -0.376 OA
BRANCH  28  29
ATOM     29  C   UNL A   1      33.658  31.647  27.518  1.00  0.00     0.202 C 
BRANCH  29  30
ATOM     30  C   UNL A   1      34.057  32.690  28.555  1.00  0.00     0.261 C 
BRANCH  30  31
ATOM     31  O   UNL A   1      35.402  32.558  28.972  1.00  0.00    -0.460 OA
BRANCH  31  32
ATOM     32  C   UNL A   1      35.587  31.757  30.036  1.00  0.00     0.338 C 
ATOM     33  O   UNL A   1      35.301  31.996  31.201  1.00  0.00    -0.246 OA
BRANCH  32  34
ATOM     34  C   UNL A   1      36.303  30.568  29.583  1.00  0.00     0.060 A 
ATOM     35  C   UNL A   1      36.548  29.605  30.559  1.00  0.00     0.016 A 
ATOM     36  C   UNL A   1      37.033  30.644  28.385  1.00  0.00     0.016 A 
ATOM     37  C   UNL A   1      37.741  28.938  30.490  1.00  0.00     0.010 A 
ATOM     38  C   UNL A   1      38.232  29.993  28.327  1.00  0.00     0.010 A 
ATOM     39  C   UNL A   1      38.609  29.251  29.439  1.00  0.00    -0.014 A 
BRANCH  39  40
ATOM     40  C   UNL A   1      39.958  28.758  29.527  1.00  0.00     0.031 A 
ATOM     41  C   UNL A   1      40.437  28.733  30.914  1.00  0.00     0.074 A 
ATOM     42  C   UNL A   1      40.625  28.314  28.449  1.00  0.00     0.049 A 
ATOM     43  N   UNL A   1      41.220  29.581  31.487  1.00  0.00    -0.248 NA
ATOM     44  C   UNL A   1      39.762  27.800  31.831  1.00  0.00     0.031 C 
ATOM     45  C   UNL A   1      40.086  28.033  27.112  1.00  0.00     0.029 A 
ATOM     46  N   UNL A   1      41.914  27.901  28.358  1.00  0.00    -0.354 N 
ATOM     47  C   UNL A   1      41.349  29.106  32.783  1.00  0.00     0.074 A 
ATOM     48  C   UNL A   1      40.240  28.216  33.003  1.00  0.00     0.031 C 
ATOM     49  C   UNL A   1      40.975  27.276  26.430  1.00  0.00     0.029 A 
ATOM     50  C   UNL A   1      42.188  27.154  27.223  1.00  0.00     0.049 A 
ATOM     51  H   UNL A   1      42.594  28.113  29.037  1.00  0.00     0.167 HD
ATOM     52  C   UNL A   1      42.551  29.160  33.420  1.00  0.00     0.031 A 
ATOM     53  C   UNL A   1      43.308  26.422  27.006  1.00  0.00     0.031 A 
ATOM     54  C   UNL A   1      43.464  30.050  32.749  1.00  0.00     0.049 A 
ATOM     55  C   UNL A   1      44.364  26.955  27.901  1.00  0.00     0.074 A 
ATOM     56  C   UNL A   1      43.554  31.409  32.542  1.00  0.00     0.029 A 
ATOM     57  N   UNL A   1      44.272  29.439  31.820  1.00  0.00    -0.354 N 
ATOM     58  N   UNL A   1      44.844  28.164  27.799  1.00  0.00    -0.248 NA
ATOM     59  C   UNL A   1      44.634  26.291  29.170  1.00  0.00     0.031 C 
ATOM     60  C   UNL A   1      44.245  31.571  31.305  1.00  0.00     0.029 A 
ATOM     61  C   UNL A   1      44.588  30.311  30.810  1.00  0.00     0.049 A 
ATOM     62  H   UNL A   1      44.582  28.506  31.873  1.00  0.00     0.167 HD
ATOM     63  C   UNL A   1      45.092  28.559  29.103  1.00  0.00     0.074 A 
ATOM     64  C   UNL A   1      45.102  27.325  29.877  1.00  0.00     0.031 C 
ATOM     65  C   UNL A   1      44.964  29.866  29.479  1.00  0.00     0.031 A 
BRANCH  52  66
ATOM     66  C   UNL A   1      43.053  28.029  34.288  1.00  0.00    -0.014 A 
ATOM     67  C   UNL A   1      43.988  28.321  35.299  1.00  0.00     0.010 A 
ATOM     68  C   UNL A   1      42.874  26.666  33.962  1.00  0.00     0.010 A 
ATOM     69  C   UNL A   1      44.740  27.306  35.905  1.00  0.00     0.020 A 
ATOM     70  C   UNL A   1      43.583  25.646  34.588  1.00  0.00     0.020 A 
ATOM     71  C   UNL A   1      44.538  25.975  35.535  1.00  0.00     0.054 A 
BRANCH  71  72
ATOM     72  S   UNL A   1      45.579  24.679  36.243  1.00  0.00     0.124 S 
ATOM     73  O   UNL A   1      45.490  24.973  37.671  1.00  0.00    -0.237 OA
ATOM     74  O   UNL A   1      44.903  23.465  35.797  1.00  0.00    -0.237 OA
ATOM     75  O   UNL A   1      46.885  24.921  35.633  1.00  0.00    -0.744 OA
ENDBRANCH  71  72
ENDBRANCH  52  66
BRANCH  53  76
ATOM     76  C   UNL A   1      43.390  25.095  26.350  1.00  0.00    -0.014 A 
ATOM     77  C   UNL A   1      43.993  24.941  25.090  1.00  0.00     0.010 A 
ATOM     78  C   UNL A   1      43.116  23.927  27.094  1.00  0.00     0.010 A 
ATOM     79  C   UNL A   1      44.360  23.670  24.615  1.00  0.00     0.020 A 
ATOM     80  C   UNL A   1      43.473  22.658  26.627  1.00  0.00     0.020 A 
ATOM     81  C   UNL A   1      44.114  22.537  25.397  1.00  0.00     0.054 A 
BRANCH  81  82
ATOM     82  S   UNL A   1      44.736  20.919  24.852  1.00  0.00     0.124 S 
ATOM     83  O   UNL A   1      44.922  21.125  23.419  1.00  0.00    -0.237 OA
ATOM     84  O   UNL A   1      45.961  20.770  25.633  1.00  0.00    -0.237 OA
ATOM     85  O   UNL A   1      43.660  19.997  25.212  1.00  0.00    -0.744 OA
ENDBRANCH  81  82
ENDBRANCH  53  76
BRANCH  65  86
ATOM     86  C   UNL A   1      45.056  30.920  28.404  1.00  0.00    -0.014 A 
ATOM     87  C   UNL A   1      44.027  31.219  27.493  1.00  0.00     0.010 A 
ATOM     88  C   UNL A   1      46.220  31.710  28.390  1.00  0.00     0.010 A 
ATOM     89  C   UNL A   1      44.170  32.274  26.577  1.00  0.00     0.020 A 
ATOM     90  C   UNL A   1      46.360  32.772  27.495  1.00  0.00     0.020 A 
ATOM     91  C   UNL A   1      45.339  33.043  26.586  1.00  0.00     0.054 A 
BRANCH  91  92
ATOM     92  S   UNL A   1      45.508  34.432  25.429  1.00  0.00     0.124 S 
ATOM     93  O   UNL A   1      44.683  34.008  24.301  1.00  0.00    -0.237 OA
ATOM     94  O   UNL A   1      44.989  35.561  26.199  1.00  0.00    -0.237 OA
ATOM     95  O   UNL A   1      46.944  34.487  25.158  1.00  0.00    -0.744 OA
ENDBRANCH  91  92
ENDBRANCH  65  86
ENDBRANCH  39  40
ENDBRANCH  32  34
ENDBRANCH  31  32
ENDBRANCH  30  31
ENDBRANCH  29  30
ENDBRANCH  28  29
ENDBRANCH  27  28
ENDBRANCH   1  27
TORSDOF 25
ENDMDL
MODEL 2
REMARK VINA RESULT:      -9.9      2.066      7.369
REMARK SMILES CCn1nc(-c2cccnc2)c2cc(C(=O)OCCOCCOCCOCCOC(=O)c3ccc(-c4c5nc(c(-c6ccc(S(=O)(=O)[O-])cc6)c6ccc([nH]6)c(-c6ccc(S(=O)(=O)[O-])cc6)c6nc(c(-c7ccc(S(=O)(=O)[O-])cc7)c7ccc4[nH]7)C=C6)C=C5)cc3)sc21
REMARK SMILES IDX 24 1 23 2 22 3 21 4 20 5 19 6 18 7 17 8 15 9 16 10 14 11
REMARK SMILES IDX 3 12 4 13 93 14 5 15 12 16 92 17 13 18 2 19 1 20 6 21 7 22
REMARK SMILES IDX 11 23 8 24 10 25 9 26 25 27 26 28 27 29 28 30 29 31 30 32
REMARK SMILES IDX 31 33 32 34 33 35 91 36 34 37 90 38 35 39 36 40 37 41 84 42
REMARK SMILES IDX 38 43 89 44 83 45 85 46 39 47 88 48 82 49 81 50 40 52 70 53
REMARK SMILES IDX 51 54 69 55 52 56 55 57 68 58 86 59 53 60 54 61 67 63 87 64
REMARK SMILES IDX 56 65 41 66 42 67 50 68 43 69 49 70 44 71 45 72 46 73 47 74
REMARK SMILES IDX 48 75 71 76 72 77 80 78 73 79 79 80 74 81 75 82 76 83 77 84
REMARK SMILES IDX 78 85 57 86 58 87 66 88 59 89 65 90 60 91 61 92 62 93 63 94
REMARK SMILES IDX 64 95
REMARK H PARENT 85 51 55 62
REMARK Flexibility Score: inf
ROOT
ATOM      1  C   UNL A   1      31.597  29.456  25.975  1.00  0.00     0.188 C 
ENDROOT
BRANCH   1   2
ATOM      2  O   UNL A   1      31.625  28.449  26.990  1.00  0.00    -0.377 OA
BRANCH   2   3
ATOM      3  C   UNL A   1      32.531  27.382  26.754  1.00  0.00     0.188 C 
BRANCH   3   4
ATOM      4  C   UNL A   1      32.657  26.968  25.270  1.00  0.00     0.188 C 
BRANCH   4   5
ATOM      5  O   UNL A   1      33.617  27.541  24.386  1.00  0.00    -0.376 OA
BRANCH   5   6
ATOM      6  C   UNL A   1      33.496  27.461  22.976  1.00  0.00     0.202 C 
BRANCH   6   7
ATOM      7  C   UNL A   1      32.469  26.530  22.320  1.00  0.00     0.261 C 
BRANCH   7   8
ATOM      8  O   UNL A   1      32.835  25.157  22.234  1.00  0.00    -0.459 OA
BRANCH   8   9
ATOM      9  C   UNL A   1      32.176  24.283  23.035  1.00  0.00     0.348 C 
ATOM     10  O   UNL A   1      30.950  24.215  23.152  1.00  0.00    -0.245 OA
BRANCH   9  11
ATOM     11  C   UNL A   1      33.126  23.353  23.608  1.00  0.00     0.115 A 
ATOM     12  N   UNL A   1      36.285  21.725  24.825  1.00  0.00    -0.254 N 
ATOM     13  N   UNL A   1      36.025  20.394  25.004  1.00  0.00    -0.171 NA
ATOM     14  C   UNL A   1      35.181  22.379  24.407  1.00  0.00     0.122 A 
ATOM     15  C   UNL A   1      34.731  20.231  24.638  1.00  0.00     0.103 A 
ATOM     16  C   UNL A   1      34.212  21.470  24.265  1.00  0.00     0.040 A 
ATOM     17  S   UNL A   1      34.710  23.928  24.062  1.00  0.00    -0.109 S 
ATOM     18  C   UNL A   1      32.988  21.976  23.827  1.00  0.00     0.040 A 
BRANCH  12  19
ATOM     19  C   UNL A   1      37.606  22.219  25.159  1.00  0.00     0.142 C 
ATOM     20  C   UNL A   1      37.676  23.401  26.114  1.00  0.00     0.029 C 
ENDBRANCH  12  19
BRANCH  15  21
ATOM     21  C   UNL A   1      34.099  18.935  24.752  1.00  0.00     0.021 A 
ATOM     22  C   UNL A   1      34.762  17.791  24.300  1.00  0.00     0.013 A 
ATOM     23  C   UNL A   1      32.806  18.785  25.236  1.00  0.00     0.121 A 
ATOM     24  C   UNL A   1      34.119  16.558  24.348  1.00  0.00     0.021 A 
ATOM     25  N   UNL A   1      32.160  17.593  25.308  1.00  0.00    -0.264 NA
ATOM     26  C   UNL A   1      32.829  16.511  24.852  1.00  0.00     0.111 A 
ENDBRANCH  15  21
ENDBRANCH   9  11
ENDBRANCH   8   9
ENDBRANCH   7   8
ENDBRANCH   6   7
ENDBRANCH   5   6
ENDBRANCH   4   5
ENDBRANCH   3   4
ENDBRANCH   2   3
ENDBRANCH   1   2
BRANCH   1  27
ATOM     27  C   UNL A   1      32.287  30.809  26.285  1.00  0.00     0.188 C 
BRANCH  27  28
ATOM     28  O   UNL A   1      33.083  30.791  27.464  1.00  0.00    -0.376 OA
BRANCH  28  29
ATOM     29  C   UNL A   1      34.475  30.531  27.407  1.00  0.00     0.202 C 
BRANCH  29  30
ATOM     30  C   UNL A   1      35.266  30.957  28.638  1.00  0.00     0.261 C 
BRANCH  30  31
ATOM     31  O   UNL A   1      36.650  31.087  28.380  1.00  0.00    -0.460 OA
BRANCH  31  32
ATOM     32  C   UNL A   1      37.453  30.652  29.367  1.00  0.00     0.338 C 
ATOM     33  O   UNL A   1      37.673  31.200  30.438  1.00  0.00    -0.246 OA
BRANCH  32  34
ATOM     34  C   UNL A   1      38.122  29.441  28.901  1.00  0.00     0.060 A 
ATOM     35  C   UNL A   1      38.489  28.536  29.894  1.00  0.00     0.016 A 
ATOM     36  C   UNL A   1      38.705  29.450  27.622  1.00  0.00     0.016 A 
ATOM     37  C   UNL A   1      39.671  27.869  29.722  1.00  0.00     0.010 A 
ATOM     38  C   UNL A   1      39.895  28.801  27.461  1.00  0.00     0.010 A 
ATOM     39  C   UNL A   1      40.407  28.124  28.560  1.00  0.00    -0.014 A 
BRANCH  39  40
ATOM     40  C   UNL A   1      41.761  27.641  28.516  1.00  0.00     0.031 A 
ATOM     41  C   UNL A   1      41.825  26.243  28.077  1.00  0.00     0.074 A 
ATOM     42  C   UNL A   1      42.810  28.438  28.779  1.00  0.00     0.049 A 
ATOM     43  N   UNL A   1      41.986  25.197  28.813  1.00  0.00    -0.248 NA
ATOM     44  C   UNL A   1      41.407  25.963  26.693  1.00  0.00     0.031 C 
ATOM     45  C   UNL A   1      42.814  29.901  28.917  1.00  0.00     0.029 A 
ATOM     46  N   UNL A   1      44.125  28.115  28.858  1.00  0.00    -0.354 N 
ATOM     47  C   UNL A   1      41.965  24.140  27.917  1.00  0.00     0.074 A 
ATOM     48  C   UNL A   1      41.335  24.633  26.720  1.00  0.00     0.031 C 
ATOM     49  C   UNL A   1      44.087  30.348  28.817  1.00  0.00     0.029 A 
ATOM     50  C   UNL A   1      44.981  29.202  28.763  1.00  0.00     0.049 A 
ATOM     51  H   UNL A   1      44.444  27.191  28.973  1.00  0.00     0.167 HD
ATOM     52  C   UNL A   1      42.813  23.088  28.074  1.00  0.00     0.031 A 
ATOM     53  C   UNL A   1      46.320  29.143  28.567  1.00  0.00     0.031 A 
ATOM     54  C   UNL A   1      43.391  23.068  29.393  1.00  0.00     0.049 A 
ATOM     55  C   UNL A   1      46.769  27.792  28.986  1.00  0.00     0.074 A 
ATOM     56  C   UNL A   1      42.935  22.843  30.673  1.00  0.00     0.029 A 
ATOM     57  N   UNL A   1      44.595  23.724  29.495  1.00  0.00    -0.354 N 
ATOM     58  N   UNL A   1      46.686  27.361  30.214  1.00  0.00    -0.248 NA
ATOM     59  C   UNL A   1      46.958  26.754  27.980  1.00  0.00     0.031 C 
ATOM     60  C   UNL A   1      43.783  23.606  31.529  1.00  0.00     0.029 A 
ATOM     61  C   UNL A   1      44.753  24.244  30.753  1.00  0.00     0.049 A 
ATOM     62  H   UNL A   1      45.252  23.807  28.767  1.00  0.00     0.167 HD
ATOM     63  C   UNL A   1      46.390  26.013  30.099  1.00  0.00     0.074 A 
ATOM     64  C   UNL A   1      46.731  25.667  28.726  1.00  0.00     0.031 C 
ATOM     65  C   UNL A   1      45.617  25.380  31.029  1.00  0.00     0.031 A 
BRANCH  52  66
ATOM     66  C   UNL A   1      43.511  22.434  26.902  1.00  0.00    -0.014 A 
ATOM     67  C   UNL A   1      42.845  21.402  26.214  1.00  0.00     0.010 A 
ATOM     68  C   UNL A   1      44.890  22.586  26.641  1.00  0.00     0.010 A 
ATOM     69  C   UNL A   1      43.540  20.538  25.357  1.00  0.00     0.020 A 
ATOM     70  C   UNL A   1      45.582  21.762  25.759  1.00  0.00     0.020 A 
ATOM     71  C   UNL A   1      44.908  20.719  25.146  1.00  0.00     0.054 A 
BRANCH  71  72
ATOM     72  S   UNL A   1      45.822  19.542  24.124  1.00  0.00     0.124 S 
ATOM     73  O   UNL A   1      45.036  19.544  22.893  1.00  0.00    -0.237 OA
ATOM     74  O   UNL A   1      47.139  20.165  24.042  1.00  0.00    -0.237 OA
ATOM     75  O   UNL A   1      45.769  18.305  24.900  1.00  0.00    -0.744 OA
ENDBRANCH  71  72
ENDBRANCH  52  66
BRANCH  53  76
ATOM     76  C   UNL A   1      47.135  30.045  27.719  1.00  0.00    -0.014 A 
ATOM     77  C   UNL A   1      46.570  31.175  27.102  1.00  0.00     0.010 A 
ATOM     78  C   UNL A   1      48.544  29.945  27.741  1.00  0.00     0.010 A 
ATOM     79  C   UNL A   1      47.383  32.193  26.575  1.00  0.00     0.020 A 
ATOM     80  C   UNL A   1      49.359  30.952  27.215  1.00  0.00     0.020 A 
ATOM     81  C   UNL A   1      48.775  32.083  26.653  1.00  0.00     0.054 A 
BRANCH  81  82
ATOM     82  S   UNL A   1      49.815  33.474  26.119  1.00  0.00     0.124 S 
ATOM     83  O   UNL A   1      50.279  34.019  27.392  1.00  0.00    -0.237 OA
ATOM     84  O   UNL A   1      50.833  32.816  25.306  1.00  0.00    -0.237 OA
ATOM     85  O   UNL A   1      48.891  34.330  25.378  1.00  0.00    -0.744 OA
ENDBRANCH  81  82
ENDBRANCH  53  76
BRANCH  65  86
ATOM     86  C   UNL A   1      45.520  25.997  32.402  1.00  0.00    -0.014 A 
ATOM     87  C   UNL A   1      44.425  26.753  32.859  1.00  0.00     0.010 A 
ATOM     88  C   UNL A   1      46.561  25.707  33.302  1.00  0.00     0.010 A 
ATOM     89  C   UNL A   1      44.385  27.222  34.182  1.00  0.00     0.020 A 
ATOM     90  C   UNL A   1      46.517  26.152  34.624  1.00  0.00     0.020 A 
ATOM     91  C   UNL A   1      45.435  26.917  35.056  1.00  0.00     0.054 A 
BRANCH  91  92
ATOM     92  S   UNL A   1      45.364  27.488  36.777  1.00  0.00     0.124 S 
ATOM     93  O   UNL A   1      46.709  28.011  36.995  1.00  0.00    -0.237 OA
ATOM     94  O   UNL A   1      44.298  28.488  36.744  1.00  0.00    -0.237 OA
ATOM     95  O   UNL A   1      45.041  26.279  37.534  1.00  0.00    -0.744 OA
ENDBRANCH  91  92
ENDBRANCH  65  86
ENDBRANCH  39  40
ENDBRANCH  32  34
ENDBRANCH  31  32
ENDBRANCH  30  31
ENDBRANCH  29  30
ENDBRANCH  28  29
ENDBRANCH  27  28
ENDBRANCH   1  27
TORSDOF 25
ENDMDL
MODEL 3
REMARK VINA RESULT:      -9.4      2.144      3.414
REMARK SMILES CCn1nc(-c2cccnc2)c2cc(C(=O)OCCOCCOCCOCCOC(=O)c3ccc(-c4c5nc(c(-c6ccc(S(=O)(=O)[O-])cc6)c6ccc([nH]6)c(-c6ccc(S(=O)(=O)[O-])cc6)c6nc(c(-c7ccc(S(=O)(=O)[O-])cc7)c7ccc4[nH]7)C=C6)C=C5)cc3)sc21
REMARK SMILES IDX 24 1 23 2 22 3 21 4 20 5 19 6 18 7 17 8 15 9 16 10 14 11
REMARK SMILES IDX 3 12 4 13 93 14 5 15 12 16 92 17 13 18 2 19 1 20 6 21 7 22
REMARK SMILES IDX 11 23 8 24 10 25 9 26 25 27 26 28 27 29 28 30 29 31 30 32
REMARK SMILES IDX 31 33 32 34 33 35 91 36 34 37 90 38 35 39 36 40 37 41 84 42
REMARK SMILES IDX 38 43 89 44 83 45 85 46 39 47 88 48 82 49 81 50 40 52 70 53
REMARK SMILES IDX 51 54 69 55 52 56 55 57 68 58 86 59 53 60 54 61 67 63 87 64
REMARK SMILES IDX 56 65 41 66 42 67 50 68 43 69 49 70 44 71 45 72 46 73 47 74
REMARK SMILES IDX 48 75 71 76 72 77 80 78 73 79 79 80 74 81 75 82 76 83 77 84
REMARK SMILES IDX 78 85 57 86 58 87 66 88 59 89 65 90 60 91 61 92 62 93 63 94
REMARK SMILES IDX 64 95
REMARK H PARENT 85 51 55 62
REMARK Flexibility Score: inf
ROOT
ATOM      1  C   UNL A   1      32.964  26.359  24.952  1.00  0.00     0.188 C 
ENDROOT
BRANCH   1   2
ATOM      2  O   UNL A   1      32.394  26.173  26.249  1.00  0.00    -0.377 OA
BRANCH   2   3
ATOM      3  C   UNL A   1      31.311  25.257  26.305  1.00  0.00     0.188 C 
BRANCH   3   4
ATOM      4  C   UNL A   1      31.295  24.217  25.161  1.00  0.00     0.188 C 
BRANCH   4   5
ATOM      5  O   UNL A   1      31.563  22.833  25.371  1.00  0.00    -0.376 OA
BRANCH   5   6
ATOM      6  C   UNL A   1      32.723  22.198  24.860  1.00  0.00     0.202 C 
BRANCH   6   7
ATOM      7  C   UNL A   1      33.914  21.873  25.770  1.00  0.00     0.261 C 
BRANCH   7   8
ATOM      8  O   UNL A   1      35.191  21.849  25.144  1.00  0.00    -0.459 OA
BRANCH   8   9
ATOM      9  C   UNL A   1      35.828  20.653  25.067  1.00  0.00     0.348 C 
ATOM     10  O   UNL A   1      35.323  19.607  24.653  1.00  0.00    -0.245 OA
BRANCH   9  11
ATOM     11  C   UNL A   1      37.225  20.836  25.404  1.00  0.00     0.115 A 
ATOM     12  N   UNL A   1      40.856  20.235  26.154  1.00  0.00    -0.254 N 
ATOM     13  N   UNL A   1      41.344  21.355  26.770  1.00  0.00    -0.171 NA
ATOM     14  C   UNL A   1      39.554  20.391  25.834  1.00  0.00     0.122 A 
ATOM     15  C   UNL A   1      40.289  22.198  26.865  1.00  0.00     0.103 A 
ATOM     16  C   UNL A   1      39.176  21.592  26.283  1.00  0.00     0.040 A 
ATOM     17  S   UNL A   1      38.358  19.555  25.053  1.00  0.00    -0.109 S 
ATOM     18  C   UNL A   1      37.841  21.919  26.043  1.00  0.00     0.040 A 
BRANCH  12  19
ATOM     19  C   UNL A   1      41.770  19.143  25.887  1.00  0.00     0.142 C 
ATOM     20  C   UNL A   1      43.215  19.513  25.592  1.00  0.00     0.029 C 
ENDBRANCH  12  19
BRANCH  15  21
ATOM     21  C   UNL A   1      40.461  23.520  27.428  1.00  0.00     0.021 A 
ATOM     22  C   UNL A   1      41.648  23.852  28.084  1.00  0.00     0.013 A 
ATOM     23  C   UNL A   1      39.446  24.467  27.406  1.00  0.00     0.121 A 
ATOM     24  C   UNL A   1      41.778  25.100  28.684  1.00  0.00     0.021 A 
ATOM     25  N   UNL A   1      39.549  25.698  27.971  1.00  0.00    -0.264 NA
ATOM     26  C   UNL A   1      40.710  25.979  28.605  1.00  0.00     0.111 A 
ENDBRANCH  15  21
ENDBRANCH   9  11
ENDBRANCH   8   9
ENDBRANCH   7   8
ENDBRANCH   6   7
ENDBRANCH   5   6
ENDBRANCH   4   5
ENDBRANCH   3   4
ENDBRANCH   2   3
ENDBRANCH   1   2
BRANCH   1  27
ATOM     27  C   UNL A   1      33.220  27.813  24.480  1.00  0.00     0.188 C 
BRANCH  27  28
ATOM     28  O   UNL A   1      32.431  28.784  25.158  1.00  0.00    -0.376 OA
BRANCH  28  29
ATOM     29  C   UNL A   1      32.738  29.187  26.482  1.00  0.00     0.202 C 
BRANCH  29  30
ATOM     30  C   UNL A   1      33.458  30.525  26.602  1.00  0.00     0.261 C 
BRANCH  30  31
ATOM     31  O   UNL A   1      34.842  30.380  26.854  1.00  0.00    -0.460 OA
BRANCH  31  32
ATOM     32  C   UNL A   1      35.366  31.301  27.682  1.00  0.00     0.338 C 
ATOM     33  O   UNL A   1      35.273  32.517  27.589  1.00  0.00    -0.246 OA
BRANCH  32  34
ATOM     34  C   UNL A   1      36.176  30.603  28.675  1.00  0.00     0.060 A 
ATOM     35  C   UNL A   1      36.885  31.420  29.553  1.00  0.00     0.016 A 
ATOM     36  C   UNL A   1      36.517  29.261  28.436  1.00  0.00     0.016 A 
ATOM     37  C   UNL A   1      38.131  30.995  29.929  1.00  0.00     0.010 A 
ATOM     38  C   UNL A   1      37.768  28.848  28.793  1.00  0.00     0.010 A 
ATOM     39  C   UNL A   1      38.588  29.773  29.427  1.00  0.00    -0.014 A 
BRANCH  39  40
ATOM     40  C   UNL A   1      39.984  29.470  29.596  1.00  0.00     0.031 A 
ATOM     41  C   UNL A   1      40.313  29.185  30.997  1.00  0.00     0.074 A 
ATOM     42  C   UNL A   1      40.827  29.392  28.552  1.00  0.00     0.049 A 
ATOM     43  N   UNL A   1      40.876  29.975  31.845  1.00  0.00    -0.248 NA
ATOM     44  C   UNL A   1      39.714  27.975  31.586  1.00  0.00     0.031 C 
ATOM     45  C   UNL A   1      40.487  29.363  27.124  1.00  0.00     0.029 A 
ATOM     46  N   UNL A   1      42.170  29.199  28.556  1.00  0.00    -0.354 N 
ATOM     47  C   UNL A   1      40.947  29.230  33.012  1.00  0.00     0.074 A 
ATOM     48  C   UNL A   1      39.988  28.165  32.875  1.00  0.00     0.031 C 
ATOM     49  C   UNL A   1      41.559  28.922  26.426  1.00  0.00     0.029 A 
ATOM     50  C   UNL A   1      42.685  28.788  27.337  1.00  0.00     0.049 A 
ATOM     51  H   UNL A   1      42.729  29.339  29.355  1.00  0.00     0.167 HD
ATOM     52  C   UNL A   1      42.048  29.301  33.809  1.00  0.00     0.031 A 
ATOM     53  C   UNL A   1      43.929  28.295  27.126  1.00  0.00     0.031 A 
ATOM     54  C   UNL A   1      42.862  30.445  33.483  1.00  0.00     0.049 A 
ATOM     55  C   UNL A   1      44.780  28.745  28.255  1.00  0.00     0.074 A 
ATOM     56  C   UNL A   1      42.740  31.812  33.591  1.00  0.00     0.029 A 
ATOM     57  N   UNL A   1      43.855  30.192  32.567  1.00  0.00    -0.354 N 
ATOM     58  N   UNL A   1      45.054  30.000  28.488  1.00  0.00    -0.248 NA
ATOM     59  C   UNL A   1      45.023  27.844  29.376  1.00  0.00     0.031 C 
ATOM     60  C   UNL A   1      43.520  32.359  32.529  1.00  0.00     0.029 A 
ATOM     61  C   UNL A   1      44.122  31.313  31.826  1.00  0.00     0.049 A 
ATOM     62  H   UNL A   1      44.312  29.326  32.460  1.00  0.00     0.167 HD
ATOM     63  C   UNL A   1      45.093  30.106  29.868  1.00  0.00     0.074 A 
ATOM     64  C   UNL A   1      45.232  28.737  30.349  1.00  0.00     0.031 C 
ATOM     65  C   UNL A   1      44.706  31.254  30.496  1.00  0.00     0.031 A 
BRANCH  52  66
ATOM     66  C   UNL A   1      42.642  28.079  34.473  1.00  0.00    -0.014 A 
ATOM     67  C   UNL A   1      43.977  27.741  34.186  1.00  0.00     0.010 A 
ATOM     68  C   UNL A   1      41.862  27.098  35.123  1.00  0.00     0.010 A 
ATOM     69  C   UNL A   1      44.482  26.468  34.484  1.00  0.00     0.020 A 
ATOM     70  C   UNL A   1      42.365  25.846  35.465  1.00  0.00     0.020 A 
ATOM     71  C   UNL A   1      43.665  25.526  35.113  1.00  0.00     0.054 A 
BRANCH  71  72
ATOM     72  S   UNL A   1      44.284  23.853  35.403  1.00  0.00     0.124 S 
ATOM     73  O   UNL A   1      44.552  23.880  36.838  1.00  0.00    -0.237 OA
ATOM     74  O   UNL A   1      43.155  23.030  34.979  1.00  0.00    -0.237 OA
ATOM     75  O   UNL A   1      45.464  23.774  34.545  1.00  0.00    -0.744 OA
ENDBRANCH  71  72
ENDBRANCH  52  66
BRANCH  53  76
ATOM     76  C   UNL A   1      44.304  27.187  26.216  1.00  0.00    -0.014 A 
ATOM     77  C   UNL A   1      45.647  26.938  25.885  1.00  0.00     0.010 A 
ATOM     78  C   UNL A   1      43.353  26.196  25.889  1.00  0.00     0.010 A 
ATOM     79  C   UNL A   1      46.033  25.720  25.299  1.00  0.00     0.020 A 
ATOM     80  C   UNL A   1      43.728  24.983  25.301  1.00  0.00     0.020 A 
ATOM     81  C   UNL A   1      45.071  24.742  25.028  1.00  0.00     0.054 A 
BRANCH  81  82
ATOM     82  S   UNL A   1      45.597  23.111  24.423  1.00  0.00     0.124 S 
ATOM     83  O   UNL A   1      45.940  22.418  25.662  1.00  0.00    -0.237 OA
ATOM     84  O   UNL A   1      44.403  22.626  23.737  1.00  0.00    -0.237 OA
ATOM     85  O   UNL A   1      46.729  23.416  23.550  1.00  0.00    -0.744 OA
ENDBRANCH  81  82
ENDBRANCH  53  76
BRANCH  65  86
ATOM     86  C   UNL A   1      44.730  32.535  29.700  1.00  0.00    -0.014 A 
ATOM     87  C   UNL A   1      45.861  33.360  29.555  1.00  0.00     0.010 A 
ATOM     88  C   UNL A   1      43.563  32.859  28.986  1.00  0.00     0.010 A 
ATOM     89  C   UNL A   1      45.814  34.493  28.726  1.00  0.00     0.020 A 
ATOM     90  C   UNL A   1      43.516  33.973  28.146  1.00  0.00     0.020 A 
ATOM     91  C   UNL A   1      44.639  34.791  28.028  1.00  0.00     0.054 A 
BRANCH  91  92
ATOM     92  S   UNL A   1      44.591  36.233  26.927  1.00  0.00     0.124 S 
ATOM     93  O   UNL A   1      43.241  36.167  26.374  1.00  0.00    -0.237 OA
ATOM     94  O   UNL A   1      44.844  37.347  27.839  1.00  0.00    -0.237 OA
ATOM     95  O   UNL A   1      45.664  35.975  25.967  1.00  0.00    -0.744 OA
ENDBRANCH  91  92
ENDBRANCH  65  86
ENDBRANCH  39  40
ENDBRANCH  32  34
ENDBRANCH  31  32
ENDBRANCH  30  31
ENDBRANCH  29  30
ENDBRANCH  28  29
ENDBRANCH  27  28
ENDBRANCH   1  27
TORSDOF 25
ENDMDL
