MODEL 1
REMARK VINA RESULT:      -8.9      0.000      0.000
REMARK SMILES O=C(OCCOCCOCCOCCOC(=O)[C@H]([C@@H]1CCOC1)[C@@H]1CCS(=O)(=O)C1)c1ccc(-c2c3nc(c(-c4ccc(S(=O)(=O)[O-])cc4)c4ccc([nH]4)c(-c4ccc(S(=O)(=O)[O-])cc4)c4nc(c(-c5ccc(S(=O)(=O)[O-])cc5)c5ccc2[nH]5)C=C4)C=C3)cc1
REMARK SMILES IDX 8 1 7 2 6 3 5 4 4 5 3 6 2 7 1 8 31 9 32 10 90 11 33 12 89 13
REMARK SMILES IDX 34 14 35 15 36 16 83 17 37 18 88 19 82 20 84 21 38 22 87 23
REMARK SMILES IDX 81 24 80 25 39 27 69 28 50 29 68 30 51 31 54 32 67 33 85 34
REMARK SMILES IDX 52 35 53 36 66 38 86 39 55 40 40 41 41 42 49 43 42 44 48 45
REMARK SMILES IDX 43 46 44 47 45 48 46 49 47 50 70 51 71 52 79 53 72 54 78 55
REMARK SMILES IDX 73 56 74 57 75 58 76 59 77 60 56 61 57 62 65 63 58 64 64 65
REMARK SMILES IDX 59 66 60 67 61 68 62 69 63 70 9 71 10 72 11 73 12 74 13 75
REMARK SMILES IDX 14 76 15 77 16 78 17 79 18 80 24 81 25 82 30 83 26 84 27 85
REMARK SMILES IDX 28 86 29 87 19 88 20 89 23 90 21 91 22 92
REMARK H PARENT 84 26 54 37
REMARK Flexibility Score: inf
ROOT
ATOM      1  C   UNL A   1      32.814  27.655  23.740  1.00  0.00     0.188 C 
ENDROOT
BRANCH   1   2
ATOM      2  C   UNL A   1      32.245  28.864  24.481  1.00  0.00     0.188 C 
BRANCH   2   3
ATOM      3  O   UNL A   1      32.562  28.804  25.878  1.00  0.00    -0.376 OA
BRANCH   3   4
ATOM      4  C   UNL A   1      33.427  29.820  26.385  1.00  0.00     0.202 C 
BRANCH   4   5
ATOM      5  C   UNL A   1      32.771  31.188  26.601  1.00  0.00     0.261 C 
BRANCH   5   6
ATOM      6  O   UNL A   1      33.190  31.827  27.821  1.00  0.00    -0.460 OA
BRANCH   6   7
ATOM      7  C   UNL A   1      33.973  32.907  28.021  1.00  0.00     0.338 C 
ATOM      8  O   UNL A   1      33.817  33.898  27.309  1.00  0.00    -0.246 OA
BRANCH   7   9
ATOM      9  C   UNL A   1      35.004  32.976  29.095  1.00  0.00     0.060 A 
ATOM     10  C   UNL A   1      36.275  33.527  28.953  1.00  0.00     0.016 A 
ATOM     11  C   UNL A   1      34.643  32.464  30.350  1.00  0.00     0.016 A 
ATOM     12  C   UNL A   1      37.227  33.419  29.950  1.00  0.00     0.010 A 
ATOM     13  C   UNL A   1      35.582  32.380  31.379  1.00  0.00     0.010 A 
ATOM     14  C   UNL A   1      36.902  32.779  31.140  1.00  0.00    -0.014 A 
BRANCH  14  15
ATOM     15  C   UNL A   1      38.022  32.260  31.946  1.00  0.00     0.031 A 
ATOM     16  C   UNL A   1      38.903  31.224  31.301  1.00  0.00     0.074 A 
ATOM     17  C   UNL A   1      38.345  32.832  33.118  1.00  0.00     0.049 A 
ATOM     18  N   UNL A   1      39.909  30.562  31.801  1.00  0.00    -0.248 NA
ATOM     19  C   UNL A   1      38.615  30.896  29.890  1.00  0.00     0.031 C 
ATOM     20  C   UNL A   1      37.648  33.968  33.729  1.00  0.00     0.029 A 
ATOM     21  N   UNL A   1      39.372  32.566  33.983  1.00  0.00    -0.354 N 
ATOM     22  C   UNL A   1      40.320  29.694  30.794  1.00  0.00     0.074 A 
ATOM     23  C   UNL A   1      39.465  29.912  29.654  1.00  0.00     0.031 C 
ATOM     24  C   UNL A   1      38.291  34.322  34.854  1.00  0.00     0.029 A 
ATOM     25  C   UNL A   1      39.386  33.386  35.085  1.00  0.00     0.049 A 
ATOM     26  H   UNL A   1      40.037  31.858  33.828  1.00  0.00     0.167 HD
ATOM     27  C   UNL A   1      41.321  28.788  30.831  1.00  0.00     0.031 A 
ATOM     28  C   UNL A   1      40.176  33.346  36.173  1.00  0.00     0.031 A 
ATOM     29  C   UNL A   1      42.167  28.618  31.978  1.00  0.00     0.049 A 
ATOM     30  C   UNL A   1      41.224  32.266  36.234  1.00  0.00     0.074 A 
ATOM     31  C   UNL A   1      43.183  27.704  32.178  1.00  0.00     0.029 A 
ATOM     32  N   UNL A   1      42.093  29.402  33.121  1.00  0.00    -0.354 N 
ATOM     33  N   UNL A   1      41.540  31.373  35.323  1.00  0.00    -0.248 NA
ATOM     34  C   UNL A   1      42.013  32.179  37.467  1.00  0.00     0.031 C 
ATOM     35  C   UNL A   1      43.685  27.900  33.469  1.00  0.00     0.029 A 
ATOM     36  C   UNL A   1      43.033  28.984  34.042  1.00  0.00     0.049 A 
ATOM     37  H   UNL A   1      41.463  30.147  33.256  1.00  0.00     0.167 HD
ATOM     38  C   UNL A   1      42.586  30.635  35.861  1.00  0.00     0.074 A 
ATOM     39  C   UNL A   1      42.856  31.199  37.171  1.00  0.00     0.031 C 
ATOM     40  C   UNL A   1      43.266  29.588  35.331  1.00  0.00     0.031 A 
BRANCH  27  41
ATOM     41  C   UNL A   1      41.467  27.867  29.648  1.00  0.00    -0.014 A 
ATOM     42  C   UNL A   1      40.545  26.839  29.377  1.00  0.00     0.010 A 
ATOM     43  C   UNL A   1      42.586  28.018  28.808  1.00  0.00     0.010 A 
ATOM     44  C   UNL A   1      40.765  25.953  28.317  1.00  0.00     0.020 A 
ATOM     45  C   UNL A   1      42.793  27.153  27.729  1.00  0.00     0.020 A 
ATOM     46  C   UNL A   1      41.891  26.113  27.503  1.00  0.00     0.054 A 
BRANCH  46  47
ATOM     47  S   UNL A   1      42.151  24.955  26.131  1.00  0.00     0.124 S 
ATOM     48  O   UNL A   1      41.799  25.775  24.975  1.00  0.00    -0.237 OA
ATOM     49  O   UNL A   1      43.567  24.623  26.258  1.00  0.00    -0.237 OA
ATOM     50  O   UNL A   1      41.228  23.860  26.421  1.00  0.00    -0.744 OA
ENDBRANCH  46  47
ENDBRANCH  27  41
BRANCH  28  51
ATOM     51  C   UNL A   1      39.966  34.302  37.298  1.00  0.00    -0.014 A 
ATOM     52  C   UNL A   1      39.153  33.968  38.395  1.00  0.00     0.010 A 
ATOM     53  C   UNL A   1      40.585  35.568  37.275  1.00  0.00     0.010 A 
ATOM     54  C   UNL A   1      38.949  34.885  39.433  1.00  0.00     0.020 A 
ATOM     55  C   UNL A   1      40.410  36.473  38.325  1.00  0.00     0.020 A 
ATOM     56  C   UNL A   1      39.582  36.131  39.393  1.00  0.00     0.054 A 
BRANCH  56  57
ATOM     57  S   UNL A   1      39.331  37.289  40.767  1.00  0.00     0.124 S 
ATOM     58  O   UNL A   1      38.774  36.420  41.800  1.00  0.00    -0.237 OA
ATOM     59  O   UNL A   1      40.684  37.781  41.013  1.00  0.00    -0.237 OA
ATOM     60  O   UNL A   1      38.407  38.278  40.216  1.00  0.00    -0.744 OA
ENDBRANCH  56  57
ENDBRANCH  28  51
BRANCH  40  61
ATOM     61  C   UNL A   1      44.405  29.037  36.142  1.00  0.00    -0.014 A 
ATOM     62  C   UNL A   1      45.691  29.596  36.076  1.00  0.00     0.010 A 
ATOM     63  C   UNL A   1      44.156  27.968  37.023  1.00  0.00     0.010 A 
ATOM     64  C   UNL A   1      46.724  29.065  36.850  1.00  0.00     0.020 A 
ATOM     65  C   UNL A   1      45.177  27.460  37.823  1.00  0.00     0.020 A 
ATOM     66  C   UNL A   1      46.461  27.999  37.716  1.00  0.00     0.054 A 
BRANCH  66  67
ATOM     67  S   UNL A   1      47.811  27.348  38.733  1.00  0.00     0.124 S 
ATOM     68  O   UNL A   1      48.987  27.858  38.034  1.00  0.00    -0.237 OA
ATOM     69  O   UNL A   1      47.545  27.945  40.039  1.00  0.00    -0.237 OA
ATOM     70  O   UNL A   1      47.627  25.900  38.667  1.00  0.00    -0.744 OA
ENDBRANCH  66  67
ENDBRANCH  40  61
ENDBRANCH  14  15
ENDBRANCH   7   9
ENDBRANCH   6   7
ENDBRANCH   5   6
ENDBRANCH   4   5
ENDBRANCH   3   4
ENDBRANCH   2   3
ENDBRANCH   1   2
BRANCH   1  71
ATOM     71  O   UNL A   1      32.670  26.368  24.326  1.00  0.00    -0.377 OA
BRANCH  71  72
ATOM     72  C   UNL A   1      31.366  25.950  24.680  1.00  0.00     0.188 C 
BRANCH  72  73
ATOM     73  C   UNL A   1      31.139  25.704  26.187  1.00  0.00     0.188 C 
BRANCH  73  74
ATOM     74  O   UNL A   1      31.520  24.402  26.601  1.00  0.00    -0.376 OA
BRANCH  74  75
ATOM     75  C   UNL A   1      30.513  23.411  26.383  1.00  0.00     0.202 C 
BRANCH  75  76
ATOM     76  C   UNL A   1      31.007  22.164  25.634  1.00  0.00     0.261 C 
BRANCH  76  77
ATOM     77  O   UNL A   1      32.155  22.358  24.768  1.00  0.00    -0.463 OA
BRANCH  77  78
ATOM     78  C   UNL A   1      32.547  21.381  23.910  1.00  0.00     0.309 C 
ATOM     79  O   UNL A   1      31.873  20.954  22.987  1.00  0.00    -0.252 OA
BRANCH  78  80
ATOM     80  C   UNL A   1      33.982  20.898  24.253  1.00  0.00     0.109 C 
BRANCH  80  81
ATOM     81  C   UNL A   1      34.746  22.137  24.793  1.00  0.00     0.019 C 
ATOM     82  C   UNL A   1      35.420  22.970  23.673  1.00  0.00     0.021 C 
ATOM     83  C   UNL A   1      35.757  21.953  25.924  1.00  0.00     0.141 C 
ATOM     84  C   UNL A   1      36.883  22.580  23.587  1.00  0.00     0.137 C 
ATOM     85  S   UNL A   1      37.383  22.314  25.271  1.00  0.00     0.150 S 
ATOM     86  O   UNL A   1      38.225  21.144  25.320  1.00  0.00    -0.229 OA
ATOM     87  O   UNL A   1      37.817  23.592  25.807  1.00  0.00    -0.229 OA
ENDBRANCH  80  81
BRANCH  80  88
ATOM     88  C   UNL A   1      33.969  19.489  24.936  1.00  0.00     0.032 C 
ATOM     89  C   UNL A   1      34.185  18.237  24.104  1.00  0.00     0.035 C 
ATOM     90  C   UNL A   1      32.813  19.113  25.842  1.00  0.00     0.164 C 
ATOM     91  C   UNL A   1      32.914  17.431  24.228  1.00  0.00     0.160 C 
ATOM     92  O   UNL A   1      32.102  18.048  25.224  1.00  0.00    -0.381 OA
ENDBRANCH  80  88
ENDBRANCH  78  80
ENDBRANCH  77  78
ENDBRANCH  76  77
ENDBRANCH  75  76
ENDBRANCH  74  75
ENDBRANCH  73  74
ENDBRANCH  72  73
ENDBRANCH  71  72
ENDBRANCH   1  71
TORSDOF 25
ENDMDL
MODEL 2
REMARK VINA RESULT:      -8.5      2.082      2.941
REMARK SMILES O=C(OCCOCCOCCOCCOC(=O)[C@H]([C@@H]1CCOC1)[C@@H]1CCS(=O)(=O)C1)c1ccc(-c2c3nc(c(-c4ccc(S(=O)(=O)[O-])cc4)c4ccc([nH]4)c(-c4ccc(S(=O)(=O)[O-])cc4)c4nc(c(-c5ccc(S(=O)(=O)[O-])cc5)c5ccc2[nH]5)C=C4)C=C3)cc1
REMARK SMILES IDX 8 1 7 2 6 3 5 4 4 5 3 6 2 7 1 8 31 9 32 10 90 11 33 12 89 13
REMARK SMILES IDX 34 14 35 15 36 16 83 17 37 18 88 19 82 20 84 21 38 22 87 23
REMARK SMILES IDX 81 24 80 25 39 27 69 28 50 29 68 30 51 31 54 32 67 33 85 34
REMARK SMILES IDX 52 35 53 36 66 38 86 39 55 40 40 41 41 42 49 43 42 44 48 45
REMARK SMILES IDX 43 46 44 47 45 48 46 49 47 50 70 51 71 52 79 53 72 54 78 55
REMARK SMILES IDX 73 56 74 57 75 58 76 59 77 60 56 61 57 62 65 63 58 64 64 65
REMARK SMILES IDX 59 66 60 67 61 68 62 69 63 70 9 71 10 72 11 73 12 74 13 75
REMARK SMILES IDX 14 76 15 77 16 78 17 79 18 80 24 81 25 82 30 83 26 84 27 85
REMARK SMILES IDX 28 86 29 87 19 88 20 89 23 90 21 91 22 92
REMARK H PARENT 84 26 54 37
REMARK Flexibility Score: inf
ROOT
ATOM      1  C   UNL A   1      32.211  27.396  23.878  1.00  0.00     0.188 C 
ENDROOT
BRANCH   1   2
ATOM      2  C   UNL A   1      31.468  28.311  24.850  1.00  0.00     0.188 C 
BRANCH   2   3
ATOM      3  O   UNL A   1      31.892  29.672  24.697  1.00  0.00    -0.376 OA
BRANCH   3   4
ATOM      4  C   UNL A   1      31.817  30.502  25.855  1.00  0.00     0.202 C 
BRANCH   4   5
ATOM      5  C   UNL A   1      32.464  29.922  27.118  1.00  0.00     0.261 C 
BRANCH   5   6
ATOM      6  O   UNL A   1      33.844  30.300  27.269  1.00  0.00    -0.460 OA
BRANCH   6   7
ATOM      7  C   UNL A   1      34.959  29.543  27.332  1.00  0.00     0.338 C 
ATOM      8  O   UNL A   1      35.058  28.565  26.593  1.00  0.00    -0.246 OA
BRANCH   7   9
ATOM      9  C   UNL A   1      36.104  29.856  28.232  1.00  0.00     0.060 A 
ATOM     10  C   UNL A   1      37.275  30.504  27.847  1.00  0.00     0.016 A 
ATOM     11  C   UNL A   1      35.968  29.485  29.578  1.00  0.00     0.016 A 
ATOM     12  C   UNL A   1      38.353  30.625  28.705  1.00  0.00     0.010 A 
ATOM     13  C   UNL A   1      37.034  29.632  30.467  1.00  0.00     0.010 A 
ATOM     14  C   UNL A   1      38.259  30.121  29.997  1.00  0.00    -0.014 A 
BRANCH  14  15
ATOM     15  C   UNL A   1      39.524  29.827  30.693  1.00  0.00     0.031 A 
ATOM     16  C   UNL A   1      40.404  28.767  30.087  1.00  0.00     0.074 A 
ATOM     17  C   UNL A   1      39.950  30.608  31.700  1.00  0.00     0.049 A 
ATOM     18  N   UNL A   1      41.529  28.272  30.524  1.00  0.00    -0.248 NA
ATOM     19  C   UNL A   1      39.957  28.189  28.803  1.00  0.00     0.031 C 
ATOM     20  C   UNL A   1      39.237  31.775  32.229  1.00  0.00     0.029 A 
ATOM     21  N   UNL A   1      41.107  30.566  32.428  1.00  0.00    -0.354 N 
ATOM     22  C   UNL A   1      41.879  27.283  29.611  1.00  0.00     0.074 A 
ATOM     23  C   UNL A   1      40.857  27.245  28.594  1.00  0.00     0.031 C 
ATOM     24  C   UNL A   1      39.992  32.357  33.175  1.00  0.00     0.029 A 
ATOM     25  C   UNL A   1      41.194  31.556  33.377  1.00  0.00     0.049 A 
ATOM     26  H   UNL A   1      41.810  29.893  32.285  1.00  0.00     0.167 HD
ATOM     27  C   UNL A   1      42.959  26.471  29.633  1.00  0.00     0.031 A 
ATOM     28  C   UNL A   1      42.128  31.756  34.325  1.00  0.00     0.031 A 
ATOM     29  C   UNL A   1      43.968  26.557  30.649  1.00  0.00     0.049 A 
ATOM     30  C   UNL A   1      43.274  30.781  34.390  1.00  0.00     0.074 A 
ATOM     31  C   UNL A   1      45.086  25.767  30.830  1.00  0.00     0.029 A 
ATOM     32  N   UNL A   1      43.978  27.512  31.657  1.00  0.00    -0.354 N 
ATOM     33  N   UNL A   1      43.546  29.775  33.589  1.00  0.00    -0.248 NA
ATOM     34  C   UNL A   1      44.231  30.958  35.487  1.00  0.00     0.031 C 
ATOM     35  C   UNL A   1      45.740  26.210  31.985  1.00  0.00     0.029 A 
ATOM     36  C   UNL A   1      45.072  27.323  32.477  1.00  0.00     0.049 A 
ATOM     37  H   UNL A   1      43.303  28.220  31.771  1.00  0.00     0.167 HD
ATOM     38  C   UNL A   1      44.723  29.215  34.068  1.00  0.00     0.074 A 
ATOM     39  C   UNL A   1      45.116  30.007  35.220  1.00  0.00     0.031 C 
ATOM     40  C   UNL A   1      45.421  28.147  33.608  1.00  0.00     0.031 A 
BRANCH  27  41
ATOM     41  C   UNL A   1      43.028  25.380  28.596  1.00  0.00    -0.014 A 
ATOM     42  C   UNL A   1      43.607  25.582  27.331  1.00  0.00     0.010 A 
ATOM     43  C   UNL A   1      42.457  24.129  28.894  1.00  0.00     0.010 A 
ATOM     44  C   UNL A   1      43.572  24.567  26.367  1.00  0.00     0.020 A 
ATOM     45  C   UNL A   1      42.448  23.103  27.945  1.00  0.00     0.020 A 
ATOM     46  C   UNL A   1      42.988  23.336  26.680  1.00  0.00     0.054 A 
BRANCH  46  47
ATOM     47  S   UNL A   1      42.961  22.034  25.417  1.00  0.00     0.124 S 
ATOM     48  O   UNL A   1      41.590  21.541  25.523  1.00  0.00    -0.237 OA
ATOM     49  O   UNL A   1      43.270  22.770  24.194  1.00  0.00    -0.237 OA
ATOM     50  O   UNL A   1      43.993  21.100  25.857  1.00  0.00    -0.744 OA
ENDBRANCH  46  47
ENDBRANCH  27  41
BRANCH  28  51
ATOM     51  C   UNL A   1      41.984  32.867  35.308  1.00  0.00    -0.014 A 
ATOM     52  C   UNL A   1      42.601  34.112  35.094  1.00  0.00     0.010 A 
ATOM     53  C   UNL A   1      41.222  32.682  36.479  1.00  0.00     0.010 A 
ATOM     54  C   UNL A   1      42.474  35.139  36.036  1.00  0.00     0.020 A 
ATOM     55  C   UNL A   1      41.066  33.716  37.406  1.00  0.00     0.020 A 
ATOM     56  C   UNL A   1      41.705  34.935  37.186  1.00  0.00     0.054 A 
BRANCH  56  57
ATOM     57  S   UNL A   1      41.525  36.293  38.377  1.00  0.00     0.124 S 
ATOM     58  O   UNL A   1      41.852  35.636  39.638  1.00  0.00    -0.237 OA
ATOM     59  O   UNL A   1      42.505  37.263  37.894  1.00  0.00    -0.237 OA
ATOM     60  O   UNL A   1      40.130  36.699  38.223  1.00  0.00    -0.744 OA
ENDBRANCH  56  57
ENDBRANCH  28  51
BRANCH  40  61
ATOM     61  C   UNL A   1      46.710  27.824  34.310  1.00  0.00    -0.014 A 
ATOM     62  C   UNL A   1      46.753  26.930  35.392  1.00  0.00     0.010 A 
ATOM     63  C   UNL A   1      47.904  28.395  33.834  1.00  0.00     0.010 A 
ATOM     64  C   UNL A   1      47.968  26.644  36.015  1.00  0.00     0.020 A 
ATOM     65  C   UNL A   1      49.124  28.084  34.432  1.00  0.00     0.020 A 
ATOM     66  C   UNL A   1      49.145  27.226  35.532  1.00  0.00     0.054 A 
BRANCH  66  67
ATOM     67  S   UNL A   1      50.714  26.816  36.339  1.00  0.00     0.124 S 
ATOM     68  O   UNL A   1      51.551  27.952  35.964  1.00  0.00    -0.237 OA
ATOM     69  O   UNL A   1      50.340  26.746  37.750  1.00  0.00    -0.237 OA
ATOM     70  O   UNL A   1      51.090  25.539  35.737  1.00  0.00    -0.744 OA
ENDBRANCH  66  67
ENDBRANCH  40  61
ENDBRANCH  14  15
ENDBRANCH   7   9
ENDBRANCH   6   7
ENDBRANCH   5   6
ENDBRANCH   4   5
ENDBRANCH   3   4
ENDBRANCH   2   3
ENDBRANCH   1   2
BRANCH   1  71
ATOM     71  O   UNL A   1      32.271  26.005  24.164  1.00  0.00    -0.377 OA
BRANCH  71  72
ATOM     72  C   UNL A   1      31.242  25.453  24.963  1.00  0.00     0.188 C 
BRANCH  72  73
ATOM     73  C   UNL A   1      31.571  25.325  26.465  1.00  0.00     0.188 C 
BRANCH  73  74
ATOM     74  O   UNL A   1      31.759  23.981  26.880  1.00  0.00    -0.376 OA
BRANCH  74  75
ATOM     75  C   UNL A   1      30.765  23.082  26.386  1.00  0.00     0.202 C 
BRANCH  75  76
ATOM     76  C   UNL A   1      31.330  21.877  25.618  1.00  0.00     0.261 C 
BRANCH  76  77
ATOM     77  O   UNL A   1      32.140  22.190  24.456  1.00  0.00    -0.463 OA
BRANCH  77  78
ATOM     78  C   UNL A   1      32.622  21.199  23.662  1.00  0.00     0.309 C 
ATOM     79  O   UNL A   1      32.052  20.754  22.680  1.00  0.00    -0.252 OA
BRANCH  78  80
ATOM     80  C   UNL A   1      34.013  20.726  24.165  1.00  0.00     0.109 C 
BRANCH  80  81
ATOM     81  C   UNL A   1      34.701  21.970  24.790  1.00  0.00     0.019 C 
ATOM     82  C   UNL A   1      35.334  22.909  23.732  1.00  0.00     0.021 C 
ATOM     83  C   UNL A   1      35.714  21.771  25.917  1.00  0.00     0.141 C 
ATOM     84  C   UNL A   1      36.817  22.610  23.635  1.00  0.00     0.137 C 
ATOM     85  S   UNL A   1      37.321  22.266  25.303  1.00  0.00     0.150 S 
ATOM     86  O   UNL A   1      38.228  21.145  25.287  1.00  0.00    -0.229 OA
ATOM     87  O   UNL A   1      37.677  23.530  25.924  1.00  0.00    -0.229 OA
ENDBRANCH  80  81
BRANCH  80  88
ATOM     88  C   UNL A   1      33.933  19.316  24.840  1.00  0.00     0.032 C 
ATOM     89  C   UNL A   1      34.870  18.205  24.397  1.00  0.00     0.035 C 
ATOM     90  C   UNL A   1      32.591  18.619  24.952  1.00  0.00     0.164 C 
ATOM     91  C   UNL A   1      33.986  17.112  23.844  1.00  0.00     0.160 C 
ATOM     92  O   UNL A   1      32.634  17.456  24.137  1.00  0.00    -0.381 OA
ENDBRANCH  80  88
ENDBRANCH  78  80
ENDBRANCH  77  78
ENDBRANCH  76  77
ENDBRANCH  75  76
ENDBRANCH  74  75
ENDBRANCH  73  74
ENDBRANCH  72  73
ENDBRANCH  71  72
ENDBRANCH   1  71
TORSDOF 25
ENDMDL
MODEL 3
REMARK VINA RESULT:      -8.3      2.374      8.794
REMARK SMILES O=C(OCCOCCOCCOCCOC(=O)[C@H]([C@@H]1CCOC1)[C@@H]1CCS(=O)(=O)C1)c1ccc(-c2c3nc(c(-c4ccc(S(=O)(=O)[O-])cc4)c4ccc([nH]4)c(-c4ccc(S(=O)(=O)[O-])cc4)c4nc(c(-c5ccc(S(=O)(=O)[O-])cc5)c5ccc2[nH]5)C=C4)C=C3)cc1
REMARK SMILES IDX 8 1 7 2 6 3 5 4 4 5 3 6 2 7 1 8 31 9 32 10 90 11 33 12 89 13
REMARK SMILES IDX 34 14 35 15 36 16 83 17 37 18 88 19 82 20 84 21 38 22 87 23
REMARK SMILES IDX 81 24 80 25 39 27 69 28 50 29 68 30 51 31 54 32 67 33 85 34
REMARK SMILES IDX 52 35 53 36 66 38 86 39 55 40 40 41 41 42 49 43 42 44 48 45
REMARK SMILES IDX 43 46 44 47 45 48 46 49 47 50 70 51 71 52 79 53 72 54 78 55
REMARK SMILES IDX 73 56 74 57 75 58 76 59 77 60 56 61 57 62 65 63 58 64 64 65
REMARK SMILES IDX 59 66 60 67 61 68 62 69 63 70 9 71 10 72 11 73 12 74 13 75
REMARK SMILES IDX 14 76 15 77 16 78 17 79 18 80 24 81 25 82 30 83 26 84 27 85
REMARK SMILES IDX 28 86 29 87 19 88 20 89 23 90 21 91 22 92
REMARK H PARENT 84 26 54 37
REMARK Flexibility Score: inf
ROOT
ATOM      1  C   UNL A   1      32.193  27.528  24.828  1.00  0.00     0.188 C 
ENDROOT
BRANCH   1   2
ATOM      2  C   UNL A   1      31.325  28.533  25.585  1.00  0.00     0.188 C 
BRANCH   2   3
ATOM      3  O   UNL A   1      31.503  29.857  25.062  1.00  0.00    -0.376 OA
BRANCH   3   4
ATOM      4  C   UNL A   1      31.728  30.897  26.013  1.00  0.00     0.202 C 
BRANCH   4   5
ATOM      5  C   UNL A   1      32.365  30.450  27.332  1.00  0.00     0.261 C 
BRANCH   5   6
ATOM      6  O   UNL A   1      33.778  30.717  27.396  1.00  0.00    -0.460 OA
BRANCH   6   7
ATOM      7  C   UNL A   1      34.832  29.875  27.380  1.00  0.00     0.338 C 
ATOM      8  O   UNL A   1      34.845  28.950  26.569  1.00  0.00    -0.246 OA
BRANCH   7   9
ATOM      9  C   UNL A   1      36.010  30.031  28.279  1.00  0.00     0.060 A 
ATOM     10  C   UNL A   1      37.121  30.828  28.016  1.00  0.00     0.016 A 
ATOM     11  C   UNL A   1      35.972  29.332  29.495  1.00  0.00     0.016 A 
ATOM     12  C   UNL A   1      38.239  30.805  28.829  1.00  0.00     0.010 A 
ATOM     13  C   UNL A   1      37.080  29.326  30.345  1.00  0.00     0.010 A 
ATOM     14  C   UNL A   1      38.247  29.994  29.958  1.00  0.00    -0.014 A 
BRANCH  14  15
ATOM     15  C   UNL A   1      39.565  29.621  30.503  1.00  0.00     0.031 A 
ATOM     16  C   UNL A   1      39.973  30.266  31.801  1.00  0.00     0.074 A 
ATOM     17  C   UNL A   1      40.269  28.611  29.965  1.00  0.00     0.049 A 
ATOM     18  N   UNL A   1      41.092  30.166  32.462  1.00  0.00    -0.248 NA
ATOM     19  C   UNL A   1      38.973  31.140  32.448  1.00  0.00     0.031 C 
ATOM     20  C   UNL A   1      39.853  27.808  28.810  1.00  0.00     0.029 A 
ATOM     21  N   UNL A   1      41.459  28.055  30.346  1.00  0.00    -0.354 N 
ATOM     22  C   UNL A   1      40.955  31.016  33.555  1.00  0.00     0.074 A 
ATOM     23  C   UNL A   1      39.649  31.621  33.476  1.00  0.00     0.031 C 
ATOM     24  C   UNL A   1      40.761  26.841  28.600  1.00  0.00     0.029 A 
ATOM     25  C   UNL A   1      41.858  27.011  29.546  1.00  0.00     0.049 A 
ATOM     26  H   UNL A   1      41.978  28.371  31.120  1.00  0.00     0.167 HD
ATOM     27  C   UNL A   1      41.854  31.272  34.531  1.00  0.00     0.031 A 
ATOM     28  C   UNL A   1      43.005  26.308  29.563  1.00  0.00     0.031 A 
ATOM     29  C   UNL A   1      43.136  30.629  34.588  1.00  0.00     0.049 A 
ATOM     30  C   UNL A   1      44.032  26.676  30.601  1.00  0.00     0.074 A 
ATOM     31  C   UNL A   1      44.167  30.828  35.484  1.00  0.00     0.029 A 
ATOM     32  N   UNL A   1      43.551  29.642  33.703  1.00  0.00    -0.354 N 
ATOM     33  N   UNL A   1      43.944  27.559  31.570  1.00  0.00    -0.248 NA
ATOM     34  C   UNL A   1      45.313  25.964  30.545  1.00  0.00     0.031 C 
ATOM     35  C   UNL A   1      45.230  30.002  35.103  1.00  0.00     0.029 A 
ATOM     36  C   UNL A   1      44.831  29.233  34.018  1.00  0.00     0.049 A 
ATOM     37  H   UNL A   1      43.011  29.286  32.959  1.00  0.00     0.167 HD
ATOM     38  C   UNL A   1      45.148  27.490  32.259  1.00  0.00     0.074 A 
ATOM     39  C   UNL A   1      45.938  26.465  31.602  1.00  0.00     0.031 C 
ATOM     40  C   UNL A   1      45.570  28.201  33.334  1.00  0.00     0.031 A 
BRANCH  27  41
ATOM     41  C   UNL A   1      41.510  32.349  35.525  1.00  0.00    -0.014 A 
ATOM     42  C   UNL A   1      40.870  32.068  36.746  1.00  0.00     0.010 A 
ATOM     43  C   UNL A   1      41.804  33.687  35.201  1.00  0.00     0.010 A 
ATOM     44  C   UNL A   1      40.491  33.110  37.601  1.00  0.00     0.020 A 
ATOM     45  C   UNL A   1      41.455  34.727  36.068  1.00  0.00     0.020 A 
ATOM     46  C   UNL A   1      40.782  34.432  37.253  1.00  0.00     0.054 A 
BRANCH  46  47
ATOM     47  S   UNL A   1      40.287  35.763  38.382  1.00  0.00     0.124 S 
ATOM     48  O   UNL A   1      39.194  35.138  39.123  1.00  0.00    -0.237 OA
ATOM     49  O   UNL A   1      41.507  36.003  39.147  1.00  0.00    -0.237 OA
ATOM     50  O   UNL A   1      39.891  36.848  37.488  1.00  0.00    -0.744 OA
ENDBRANCH  46  47
ENDBRANCH  27  41
BRANCH  28  51
ATOM     51  C   UNL A   1      43.261  25.252  28.543  1.00  0.00    -0.014 A 
ATOM     52  C   UNL A   1      42.740  23.954  28.694  1.00  0.00     0.010 A 
ATOM     53  C   UNL A   1      44.038  25.541  27.404  1.00  0.00     0.010 A 
ATOM     54  C   UNL A   1      43.007  22.966  27.738  1.00  0.00     0.020 A 
ATOM     55  C   UNL A   1      44.279  24.567  26.431  1.00  0.00     0.020 A 
ATOM     56  C   UNL A   1      43.772  23.280  26.611  1.00  0.00     0.054 A 
BRANCH  56  57
ATOM     57  S   UNL A   1      44.075  21.994  25.367  1.00  0.00     0.124 S 
ATOM     58  O   UNL A   1      43.420  20.834  25.964  1.00  0.00    -0.237 OA
ATOM     59  O   UNL A   1      43.429  22.548  24.181  1.00  0.00    -0.237 OA
ATOM     60  O   UNL A   1      45.533  21.923  25.298  1.00  0.00    -0.744 OA
ENDBRANCH  56  57
ENDBRANCH  28  51
BRANCH  40  61
ATOM     61  C   UNL A   1      46.916  27.843  33.900  1.00  0.00    -0.014 A 
ATOM     62  C   UNL A   1      48.088  28.485  33.469  1.00  0.00     0.010 A 
ATOM     63  C   UNL A   1      46.988  26.877  34.920  1.00  0.00     0.010 A 
ATOM     64  C   UNL A   1      49.320  28.135  34.022  1.00  0.00     0.020 A 
ATOM     65  C   UNL A   1      48.213  26.551  35.500  1.00  0.00     0.020 A 
ATOM     66  C   UNL A   1      49.375  27.168  35.032  1.00  0.00     0.054 A 
BRANCH  66  67
ATOM     67  S   UNL A   1      50.982  26.753  35.756  1.00  0.00     0.124 S 
ATOM     68  O   UNL A   1      50.989  27.572  36.964  1.00  0.00    -0.237 OA
ATOM     69  O   UNL A   1      50.874  25.312  35.970  1.00  0.00    -0.237 OA
ATOM     70  O   UNL A   1      51.939  27.153  34.726  1.00  0.00    -0.744 OA
ENDBRANCH  66  67
ENDBRANCH  40  61
ENDBRANCH  14  15
ENDBRANCH   7   9
ENDBRANCH   6   7
ENDBRANCH   5   6
ENDBRANCH   4   5
ENDBRANCH   3   4
ENDBRANCH   2   3
ENDBRANCH   1   2
BRANCH   1  71
ATOM     71  O   UNL A   1      32.468  26.273  25.437  1.00  0.00    -0.377 OA
BRANCH  71  72
ATOM     72  C   UNL A   1      31.627  25.185  25.108  1.00  0.00     0.188 C 
BRANCH  72  73
ATOM     73  C   UNL A   1      30.411  24.988  26.039  1.00  0.00     0.188 C 
BRANCH  73  74
ATOM     74  O   UNL A   1      30.581  23.919  26.957  1.00  0.00    -0.376 OA
BRANCH  74  75
ATOM     75  C   UNL A   1      30.599  22.630  26.341  1.00  0.00     0.202 C 
BRANCH  75  76
ATOM     76  C   UNL A   1      31.968  21.934  26.377  1.00  0.00     0.261 C 
BRANCH  76  77
ATOM     77  O   UNL A   1      32.976  22.471  25.482  1.00  0.00    -0.463 OA
BRANCH  77  78
ATOM     78  C   UNL A   1      33.511  21.700  24.500  1.00  0.00     0.309 C 
ATOM     79  O   UNL A   1      33.443  21.947  23.307  1.00  0.00    -0.252 OA
BRANCH  78  80
ATOM     80  C   UNL A   1      34.241  20.472  25.107  1.00  0.00     0.109 C 
BRANCH  80  81
ATOM     81  C   UNL A   1      33.883  19.258  24.207  1.00  0.00     0.019 C 
ATOM     82  C   UNL A   1      32.415  18.792  24.372  1.00  0.00     0.021 C 
ATOM     83  C   UNL A   1      34.782  18.022  24.234  1.00  0.00     0.141 C 
ATOM     84  C   UNL A   1      32.380  17.612  25.323  1.00  0.00     0.137 C 
ATOM     85  S   UNL A   1      33.839  16.674  24.939  1.00  0.00     0.150 S 
ATOM     86  O   UNL A   1      34.435  16.226  26.174  1.00  0.00    -0.229 OA
ATOM     87  O   UNL A   1      33.499  15.749  23.873  1.00  0.00    -0.229 OA
ENDBRANCH  80  81
BRANCH  80  88
ATOM     88  C   UNL A   1      35.688  20.837  25.581  1.00  0.00     0.032 C 
ATOM     89  C   UNL A   1      35.975  22.210  26.164  1.00  0.00     0.035 C 
ATOM     90  C   UNL A   1      36.858  20.601  24.647  1.00  0.00     0.164 C 
ATOM     91  C   UNL A   1      36.972  22.856  25.231  1.00  0.00     0.160 C 
ATOM     92  O   UNL A   1      37.403  21.867  24.300  1.00  0.00    -0.381 OA
ENDBRANCH  80  88
ENDBRANCH  78  80
ENDBRANCH  77  78
ENDBRANCH  76  77
ENDBRANCH  75  76
ENDBRANCH  74  75
ENDBRANCH  73  74
ENDBRANCH  72  73
ENDBRANCH  71  72
ENDBRANCH   1  71
TORSDOF 25
ENDMDL
