MODEL 1
REMARK VINA RESULT:      -9.2      0.000      0.000
REMARK SMILES Cc1cc(NC(=O)c2ccc(Br)cc2N)ccc1C(=O)OCCOCCOCCOCCOC(=O)c1ccc(-c2c3nc(c(-c4ccc(S(=O)(=O)[O-])cc4)c4ccc([nH]4)c(-c4ccc(S(=O)(=O)[O-])cc4)c4nc(c(-c5ccc(S(=O)(=O)[O-])cc5)c5ccc2[nH]5)C=C4)C=C3)cc1
REMARK SMILES IDX 27 1 26 2 25 3 24 4 23 5 22 6 21 7 19 8 20 9 18 10 1 11 2 12
REMARK SMILES IDX 3 13 4 14 17 15 16 16 5 17 6 18 7 20 8 21 9 22 14 23 10 24
REMARK SMILES IDX 13 25 11 26 12 27 15 28 28 31 29 32 30 33 31 34 32 35 33 36
REMARK SMILES IDX 34 37 35 38 36 39 37 40 95 41 38 42 94 43 39 44 40 45 41 46
REMARK SMILES IDX 88 47 42 48 93 49 87 50 89 51 43 52 92 53 86 54 85 55 44 57
REMARK SMILES IDX 74 58 55 59 73 60 56 61 59 62 72 63 90 64 57 65 58 66 71 68
REMARK SMILES IDX 91 69 60 70 45 71 46 72 54 73 47 74 53 75 48 76 49 77 50 78
REMARK SMILES IDX 51 79 52 80 75 81 76 82 84 83 77 84 83 85 78 86 79 87 80 88
REMARK SMILES IDX 81 89 82 90 61 91 62 92 70 93 63 94 69 95 64 96 65 97 66 98
REMARK SMILES IDX 67 99 68 100
REMARK H PARENT 5 19 15 29 15 30 89 56 59 67
REMARK Flexibility Score: inf
ROOT
ATOM      1  O   UNL A   1      39.780  23.736  27.409  1.00  0.00    -0.377 OA
ENDROOT
BRANCH   1   2
ATOM      2  C   UNL A   1      38.931  24.364  26.467  1.00  0.00     0.188 C 
BRANCH   2   3
ATOM      3  C   UNL A   1      37.553  23.760  26.125  1.00  0.00     0.188 C 
BRANCH   3   4
ATOM      4  O   UNL A   1      37.393  22.766  25.130  1.00  0.00    -0.376 OA
BRANCH   4   5
ATOM      5  C   UNL A   1      36.662  21.611  25.527  1.00  0.00     0.202 C 
BRANCH   5   6
ATOM      6  C   UNL A   1      35.353  21.306  24.824  1.00  0.00     0.261 C 
BRANCH   6   7
ATOM      7  O   UNL A   1      34.329  21.393  25.798  1.00  0.00    -0.460 OA
BRANCH   7   8
ATOM      8  C   UNL A   1      33.924  22.639  26.051  1.00  0.00     0.338 C 
ATOM      9  O   UNL A   1      34.379  23.434  26.841  1.00  0.00    -0.246 OA
BRANCH   8  10
ATOM     10  C   UNL A   1      33.055  23.015  24.921  1.00  0.00     0.063 A 
ATOM     11  C   UNL A   1      30.773  22.334  25.944  1.00  0.00     0.045 C 
ATOM     12  C   UNL A   1      31.654  22.901  24.871  1.00  0.00    -0.035 A 
ATOM     13  C   UNL A   1      31.007  23.483  23.786  1.00  0.00     0.030 A 
ATOM     14  C   UNL A   1      31.741  24.195  22.846  1.00  0.00     0.041 A 
ATOM     15  C   UNL A   1      33.778  23.458  23.800  1.00  0.00     0.018 A 
ATOM     16  C   UNL A   1      33.115  24.027  22.732  1.00  0.00     0.027 A 
BRANCH  14  17
ATOM     17  N   UNL A   1      31.185  25.278  22.175  1.00  0.00    -0.322 N 
ATOM     18  C   UNL A   1      31.316  26.627  22.451  1.00  0.00     0.257 C 
ATOM     19  H   UNL A   1      30.622  25.056  21.400  1.00  0.00     0.170 HD
ATOM     20  O   UNL A   1      30.644  27.409  21.771  1.00  0.00    -0.269 OA
BRANCH  18  21
ATOM     21  C   UNL A   1      32.225  27.210  23.500  1.00  0.00     0.063 A 
ATOM     22  C   UNL A   1      31.768  26.998  24.816  1.00  0.00     0.017 A 
ATOM     23  C   UNL A   1      33.397  27.984  23.302  1.00  0.00     0.045 A 
ATOM     24  C   UNL A   1      32.431  27.542  25.918  1.00  0.00     0.016 A 
ATOM     25  C   UNL A   1      34.063  28.506  24.432  1.00  0.00     0.042 A 
ATOM     26  C   UNL A   1      33.580  28.292  25.721  1.00  0.00     0.020 A 
ATOM     27  Br  UNL A   1      34.453  29.082  27.200  1.00  0.00    -0.051 Br
BRANCH  23  28
ATOM     28  N   UNL A   1      33.860  28.436  22.065  1.00  0.00    -0.398 N 
ATOM     29  H   UNL A   1      34.827  28.473  21.884  1.00  0.00     0.156 HD
ATOM     30  H   UNL A   1      33.220  28.718  21.372  1.00  0.00     0.156 HD
ENDBRANCH  23  28
ENDBRANCH  18  21
ENDBRANCH  14  17
ENDBRANCH   8  10
ENDBRANCH   7   8
ENDBRANCH   6   7
ENDBRANCH   5   6
ENDBRANCH   4   5
ENDBRANCH   3   4
ENDBRANCH   2   3
ENDBRANCH   1   2
BRANCH   1  31
ATOM     31  C   UNL A   1      40.580  22.629  26.981  1.00  0.00     0.188 C 
BRANCH  31  32
ATOM     32  C   UNL A   1      41.258  21.782  28.039  1.00  0.00     0.188 C 
BRANCH  32  33
ATOM     33  O   UNL A   1      42.297  21.067  27.369  1.00  0.00    -0.376 OA
BRANCH  33  34
ATOM     34  C   UNL A   1      42.252  21.066  25.957  1.00  0.00     0.202 C 
BRANCH  34  35
ATOM     35  C   UNL A   1      43.629  21.118  25.302  1.00  0.00     0.261 C 
BRANCH  35  36
ATOM     36  O   UNL A   1      43.867  22.369  24.600  1.00  0.00    -0.460 OA
BRANCH  36  37
ATOM     37  C   UNL A   1      44.841  23.239  25.016  1.00  0.00     0.338 C 
ATOM     38  O   UNL A   1      45.600  23.795  24.234  1.00  0.00    -0.246 OA
BRANCH  37  39
ATOM     39  C   UNL A   1      44.674  23.708  26.419  1.00  0.00     0.060 A 
ATOM     40  C   UNL A   1      43.582  24.481  26.846  1.00  0.00     0.016 A 
ATOM     41  C   UNL A   1      45.636  23.368  27.345  1.00  0.00     0.016 A 
ATOM     42  C   UNL A   1      43.576  25.094  28.120  1.00  0.00     0.010 A 
ATOM     43  C   UNL A   1      45.650  24.010  28.569  1.00  0.00     0.010 A 
ATOM     44  C   UNL A   1      44.663  24.926  28.968  1.00  0.00    -0.014 A 
BRANCH  44  45
ATOM     45  C   UNL A   1      44.946  25.674  30.221  1.00  0.00     0.031 A 
ATOM     46  C   UNL A   1      44.584  25.017  31.533  1.00  0.00     0.074 A 
ATOM     47  C   UNL A   1      45.847  26.697  30.198  1.00  0.00     0.049 A 
ATOM     48  N   UNL A   1      44.999  25.395  32.692  1.00  0.00    -0.248 NA
ATOM     49  C   UNL A   1      43.789  23.789  31.645  1.00  0.00     0.031 C 
ATOM     50  C   UNL A   1      46.691  27.161  31.305  1.00  0.00     0.029 A 
ATOM     51  N   UNL A   1      46.307  27.506  29.175  1.00  0.00    -0.354 N 
ATOM     52  C   UNL A   1      44.850  24.361  33.598  1.00  0.00     0.074 A 
ATOM     53  C   UNL A   1      44.043  23.393  32.901  1.00  0.00     0.031 C 
ATOM     54  C   UNL A   1      47.432  28.222  30.951  1.00  0.00     0.029 A 
ATOM     55  C   UNL A   1      46.908  28.659  29.687  1.00  0.00     0.049 A 
ATOM     56  H   UNL A   1      46.224  27.299  28.216  1.00  0.00     0.167 HD
ATOM     57  C   UNL A   1      45.535  24.420  34.782  1.00  0.00     0.031 A 
ATOM     58  C   UNL A   1      46.321  29.886  29.548  1.00  0.00     0.031 A 
ATOM     59  C   UNL A   1      46.157  25.751  34.964  1.00  0.00     0.049 A 
ATOM     60  C   UNL A   1      45.799  30.308  30.936  1.00  0.00     0.074 A 
ATOM     61  C   UNL A   1      47.441  26.206  35.209  1.00  0.00     0.029 A 
ATOM     62  N   UNL A   1      45.404  26.895  34.677  1.00  0.00    -0.354 N 
ATOM     63  N   UNL A   1      45.325  29.457  31.829  1.00  0.00    -0.248 NA
ATOM     64  C   UNL A   1      46.132  31.602  31.542  1.00  0.00     0.031 C 
ATOM     65  C   UNL A   1      47.484  27.594  34.859  1.00  0.00     0.029 A 
ATOM     66  C   UNL A   1      46.206  28.005  34.481  1.00  0.00     0.049 A 
ATOM     67  H   UNL A   1      44.422  26.908  34.621  1.00  0.00     0.167 HD
ATOM     68  C   UNL A   1      45.517  29.972  33.092  1.00  0.00     0.074 A 
ATOM     69  C   UNL A   1      45.949  31.347  32.851  1.00  0.00     0.031 C 
ATOM     70  C   UNL A   1      45.598  29.318  34.297  1.00  0.00     0.031 A 
BRANCH  57  71
ATOM     71  C   UNL A   1      45.803  23.250  35.740  1.00  0.00    -0.014 A 
ATOM     72  C   UNL A   1      46.230  22.010  35.208  1.00  0.00     0.010 A 
ATOM     73  C   UNL A   1      45.591  23.257  37.138  1.00  0.00     0.010 A 
ATOM     74  C   UNL A   1      46.431  20.861  35.998  1.00  0.00     0.020 A 
ATOM     75  C   UNL A   1      45.818  22.117  37.950  1.00  0.00     0.020 A 
ATOM     76  C   UNL A   1      46.234  20.920  37.372  1.00  0.00     0.054 A 
BRANCH  76  77
ATOM     77  S   UNL A   1      46.554  19.433  38.370  1.00  0.00     0.124 S 
ATOM     78  O   UNL A   1      46.229  19.881  39.722  1.00  0.00    -0.237 OA
ATOM     79  O   UNL A   1      45.632  18.457  37.795  1.00  0.00    -0.237 OA
ATOM     80  O   UNL A   1      47.970  19.153  38.136  1.00  0.00    -0.744 OA
ENDBRANCH  76  77
ENDBRANCH  57  71
BRANCH  58  81
ATOM     81  C   UNL A   1      45.857  30.073  28.127  1.00  0.00    -0.014 A 
ATOM     82  C   UNL A   1      44.501  30.495  28.027  1.00  0.00     0.010 A 
ATOM     83  C   UNL A   1      46.746  30.524  27.130  1.00  0.00     0.010 A 
ATOM     84  C   UNL A   1      44.121  31.530  27.158  1.00  0.00     0.020 A 
ATOM     85  C   UNL A   1      46.356  31.555  26.239  1.00  0.00     0.020 A 
ATOM     86  C   UNL A   1      45.068  32.099  26.312  1.00  0.00     0.054 A 
BRANCH  86  87
ATOM     87  S   UNL A   1      44.661  33.703  25.531  1.00  0.00     0.124 S 
ATOM     88  O   UNL A   1      45.977  34.260  25.248  1.00  0.00    -0.237 OA
ATOM     89  O   UNL A   1      43.877  33.298  24.363  1.00  0.00    -0.237 OA
ATOM     90  O   UNL A   1      43.894  34.394  26.559  1.00  0.00    -0.744 OA
ENDBRANCH  86  87
ENDBRANCH  58  81
BRANCH  70  91
ATOM     91  C   UNL A   1      44.953  29.926  35.519  1.00  0.00    -0.014 A 
ATOM     92  C   UNL A   1      45.707  30.567  36.511  1.00  0.00     0.010 A 
ATOM     93  C   UNL A   1      43.543  30.064  35.576  1.00  0.00     0.010 A 
ATOM     94  C   UNL A   1      45.085  31.269  37.540  1.00  0.00     0.020 A 
ATOM     95  C   UNL A   1      42.915  30.812  36.568  1.00  0.00     0.020 A 
ATOM     96  C   UNL A   1      43.696  31.386  37.562  1.00  0.00     0.054 A 
BRANCH  96  97
ATOM     97  S   UNL A   1      42.933  32.326  38.896  1.00  0.00     0.124 S 
ATOM     98  O   UNL A   1      43.160  33.698  38.449  1.00  0.00    -0.237 OA
ATOM     99  O   UNL A   1      41.545  31.873  38.851  1.00  0.00    -0.237 OA
ATOM    100  O   UNL A   1      43.679  31.919  40.081  1.00  0.00    -0.744 OA
ENDBRANCH  96  97
ENDBRANCH  70  91
ENDBRANCH  44  45
ENDBRANCH  37  39
ENDBRANCH  36  37
ENDBRANCH  35  36
ENDBRANCH  34  35
ENDBRANCH  33  34
ENDBRANCH  32  33
ENDBRANCH  31  32
ENDBRANCH   1  31
TORSDOF 26
ENDMDL
MODEL 2
REMARK VINA RESULT:      -8.2      6.153     11.999
REMARK SMILES Cc1cc(NC(=O)c2ccc(Br)cc2N)ccc1C(=O)OCCOCCOCCOCCOC(=O)c1ccc(-c2c3nc(c(-c4ccc(S(=O)(=O)[O-])cc4)c4ccc([nH]4)c(-c4ccc(S(=O)(=O)[O-])cc4)c4nc(c(-c5ccc(S(=O)(=O)[O-])cc5)c5ccc2[nH]5)C=C4)C=C3)cc1
REMARK SMILES IDX 27 1 26 2 25 3 24 4 23 5 22 6 21 7 19 8 20 9 18 10 1 11 2 12
REMARK SMILES IDX 3 13 4 14 17 15 16 16 5 17 6 18 7 20 8 21 9 22 14 23 10 24
REMARK SMILES IDX 13 25 11 26 12 27 15 28 28 31 29 32 30 33 31 34 32 35 33 36
REMARK SMILES IDX 34 37 35 38 36 39 37 40 95 41 38 42 94 43 39 44 40 45 41 46
REMARK SMILES IDX 88 47 42 48 93 49 87 50 89 51 43 52 92 53 86 54 85 55 44 57
REMARK SMILES IDX 74 58 55 59 73 60 56 61 59 62 72 63 90 64 57 65 58 66 71 68
REMARK SMILES IDX 91 69 60 70 45 71 46 72 54 73 47 74 53 75 48 76 49 77 50 78
REMARK SMILES IDX 51 79 52 80 75 81 76 82 84 83 77 84 83 85 78 86 79 87 80 88
REMARK SMILES IDX 81 89 82 90 61 91 62 92 70 93 63 94 69 95 64 96 65 97 66 98
REMARK SMILES IDX 67 99 68 100
REMARK H PARENT 5 19 15 29 15 30 89 56 59 67
REMARK Flexibility Score: inf
ROOT
ATOM      1  O   UNL A   1      39.477  34.333  35.305  1.00  0.00    -0.377 OA
ENDROOT
BRANCH   1   2
ATOM      2  C   UNL A   1      39.920  34.557  36.631  1.00  0.00     0.188 C 
BRANCH   2   3
ATOM      3  C   UNL A   1      40.673  33.455  37.405  1.00  0.00     0.188 C 
BRANCH   3   4
ATOM      4  O   UNL A   1      40.479  32.079  37.135  1.00  0.00    -0.376 OA
BRANCH   4   5
ATOM      5  C   UNL A   1      41.450  31.475  36.287  1.00  0.00     0.202 C 
BRANCH   5   6
ATOM      6  C   UNL A   1      40.999  30.927  34.947  1.00  0.00     0.261 C 
BRANCH   6   7
ATOM      7  O   UNL A   1      42.168  30.566  34.232  1.00  0.00    -0.460 OA
BRANCH   7   8
ATOM      8  C   UNL A   1      42.698  31.562  33.521  1.00  0.00     0.338 C 
ATOM      9  O   UNL A   1      42.271  32.681  33.354  1.00  0.00    -0.246 OA
BRANCH   8  10
ATOM     10  C   UNL A   1      44.101  31.178  33.277  1.00  0.00     0.063 A 
ATOM     11  C   UNL A   1      45.210  32.521  35.197  1.00  0.00     0.045 C 
ATOM     12  C   UNL A   1      45.220  31.583  34.027  1.00  0.00    -0.035 A 
ATOM     13  C   UNL A   1      46.432  30.961  33.746  1.00  0.00     0.030 A 
ATOM     14  C   UNL A   1      46.483  29.942  32.804  1.00  0.00     0.041 A 
ATOM     15  C   UNL A   1      44.258  30.385  32.128  1.00  0.00     0.018 A 
ATOM     16  C   UNL A   1      45.471  29.782  31.866  1.00  0.00     0.027 A 
BRANCH  14  17
ATOM     17  N   UNL A   1      47.394  28.900  32.927  1.00  0.00    -0.322 N 
ATOM     18  C   UNL A   1      47.249  27.698  33.597  1.00  0.00     0.257 C 
ATOM     19  H   UNL A   1      48.257  29.034  32.475  1.00  0.00     0.170 HD
ATOM     20  O   UNL A   1      48.239  26.961  33.651  1.00  0.00    -0.269 OA
BRANCH  18  21
ATOM     21  C   UNL A   1      45.978  27.218  34.246  1.00  0.00     0.063 A 
ATOM     22  C   UNL A   1      45.916  27.496  35.626  1.00  0.00     0.017 A 
ATOM     23  C   UNL A   1      44.925  26.479  33.651  1.00  0.00     0.045 A 
ATOM     24  C   UNL A   1      44.855  27.049  36.415  1.00  0.00     0.016 A 
ATOM     25  C   UNL A   1      43.851  26.055  34.464  1.00  0.00     0.042 A 
ATOM     26  C   UNL A   1      43.823  26.332  35.829  1.00  0.00     0.020 A 
ATOM     27  Br  UNL A   1      42.410  25.671  36.898  1.00  0.00    -0.051 Br
BRANCH  23  28
ATOM     28  N   UNL A   1      44.938  25.967  32.352  1.00  0.00    -0.398 N 
ATOM     29  H   UNL A   1      44.164  26.107  31.759  1.00  0.00     0.156 HD
ATOM     30  H   UNL A   1      45.720  25.466  32.027  1.00  0.00     0.156 HD
ENDBRANCH  23  28
ENDBRANCH  18  21
ENDBRANCH  14  17
ENDBRANCH   8  10
ENDBRANCH   7   8
ENDBRANCH   6   7
ENDBRANCH   5   6
ENDBRANCH   4   5
ENDBRANCH   3   4
ENDBRANCH   2   3
ENDBRANCH   1   2
BRANCH   1  31
ATOM     31  C   UNL A   1      38.086  34.082  35.081  1.00  0.00     0.188 C 
BRANCH  31  32
ATOM     32  C   UNL A   1      37.596  32.648  35.143  1.00  0.00     0.188 C 
BRANCH  32  33
ATOM     33  O   UNL A   1      37.595  32.171  33.796  1.00  0.00    -0.376 OA
BRANCH  33  34
ATOM     34  C   UNL A   1      37.279  30.808  33.611  1.00  0.00     0.202 C 
BRANCH  34  35
ATOM     35  C   UNL A   1      36.921  30.454  32.169  1.00  0.00     0.261 C 
BRANCH  35  36
ATOM     36  O   UNL A   1      36.963  29.023  31.918  1.00  0.00    -0.460 OA
BRANCH  36  37
ATOM     37  C   UNL A   1      38.080  28.286  32.213  1.00  0.00     0.338 C 
ATOM     38  O   UNL A   1      38.056  27.341  32.990  1.00  0.00    -0.246 OA
BRANCH  37  39
ATOM     39  C   UNL A   1      39.213  28.501  31.271  1.00  0.00     0.060 A 
ATOM     40  C   UNL A   1      39.134  28.219  29.898  1.00  0.00     0.016 A 
ATOM     41  C   UNL A   1      40.397  29.002  31.769  1.00  0.00     0.016 A 
ATOM     42  C   UNL A   1      40.291  28.220  29.085  1.00  0.00     0.010 A 
ATOM     43  C   UNL A   1      41.532  28.952  30.983  1.00  0.00     0.010 A 
ATOM     44  C   UNL A   1      41.526  28.510  29.650  1.00  0.00    -0.014 A 
BRANCH  44  45
ATOM     45  C   UNL A   1      42.862  28.325  29.025  1.00  0.00     0.031 A 
ATOM     46  C   UNL A   1      43.394  26.916  28.900  1.00  0.00     0.074 A 
ATOM     47  C   UNL A   1      43.378  29.319  28.248  1.00  0.00     0.049 A 
ATOM     48  N   UNL A   1      44.384  26.560  28.158  1.00  0.00    -0.248 NA
ATOM     49  C   UNL A   1      42.778  25.746  29.535  1.00  0.00     0.031 C 
ATOM     50  C   UNL A   1      44.309  29.173  27.123  1.00  0.00     0.029 A 
ATOM     51  N   UNL A   1      43.135  30.680  28.197  1.00  0.00    -0.354 N 
ATOM     52  C   UNL A   1      44.332  25.196  27.938  1.00  0.00     0.074 A 
ATOM     53  C   UNL A   1      43.333  24.725  28.864  1.00  0.00     0.031 C 
ATOM     54  C   UNL A   1      44.652  30.362  26.606  1.00  0.00     0.029 A 
ATOM     55  C   UNL A   1      44.172  31.345  27.539  1.00  0.00     0.049 A 
ATOM     56  H   UNL A   1      42.338  31.120  28.573  1.00  0.00     0.167 HD
ATOM     57  C   UNL A   1      45.067  24.665  26.912  1.00  0.00     0.031 A 
ATOM     58  C   UNL A   1      45.034  32.161  28.216  1.00  0.00     0.031 A 
ATOM     59  C   UNL A   1      45.992  25.675  26.351  1.00  0.00     0.049 A 
ATOM     60  C   UNL A   1      46.394  31.439  28.287  1.00  0.00     0.074 A 
ATOM     61  C   UNL A   1      46.231  26.192  25.090  1.00  0.00     0.029 A 
ATOM     62  N   UNL A   1      46.726  26.482  27.229  1.00  0.00    -0.354 N 
ATOM     63  N   UNL A   1      46.521  30.127  28.391  1.00  0.00    -0.248 NA
ATOM     64  C   UNL A   1      47.646  32.074  27.860  1.00  0.00     0.031 C 
ATOM     65  C   UNL A   1      46.936  27.427  25.252  1.00  0.00     0.029 A 
ATOM     66  C   UNL A   1      47.201  27.622  26.606  1.00  0.00     0.049 A 
ATOM     67  H   UNL A   1      46.885  26.264  28.175  1.00  0.00     0.167 HD
ATOM     68  C   UNL A   1      47.722  29.744  27.833  1.00  0.00     0.074 A 
ATOM     69  C   UNL A   1      48.419  31.005  27.592  1.00  0.00     0.031 C 
ATOM     70  C   UNL A   1      48.095  28.524  27.325  1.00  0.00     0.031 A 
BRANCH  57  71
ATOM     71  C   UNL A   1      44.877  23.281  26.274  1.00  0.00    -0.014 A 
ATOM     72  C   UNL A   1      46.019  22.505  25.965  1.00  0.00     0.010 A 
ATOM     73  C   UNL A   1      43.645  22.711  25.880  1.00  0.00     0.010 A 
ATOM     74  C   UNL A   1      45.950  21.257  25.314  1.00  0.00     0.020 A 
ATOM     75  C   UNL A   1      43.557  21.444  25.251  1.00  0.00     0.020 A 
ATOM     76  C   UNL A   1      44.715  20.724  24.967  1.00  0.00     0.054 A 
BRANCH  76  77
ATOM     77  S   UNL A   1      44.657  19.087  24.176  1.00  0.00     0.124 S 
ATOM     78  O   UNL A   1      45.997  18.562  24.430  1.00  0.00    -0.237 OA
ATOM     79  O   UNL A   1      43.576  18.420  24.899  1.00  0.00    -0.237 OA
ATOM     80  O   UNL A   1      44.366  19.385  22.774  1.00  0.00    -0.744 OA
ENDBRANCH  76  77
ENDBRANCH  57  71
BRANCH  58  81
ATOM     81  C   UNL A   1      44.261  33.079  29.126  1.00  0.00    -0.014 A 
ATOM     82  C   UNL A   1      44.856  33.233  30.410  1.00  0.00     0.010 A 
ATOM     83  C   UNL A   1      43.555  34.184  28.608  1.00  0.00     0.010 A 
ATOM     84  C   UNL A   1      44.985  34.497  31.009  1.00  0.00     0.020 A 
ATOM     85  C   UNL A   1      43.668  35.456  29.223  1.00  0.00     0.020 A 
ATOM     86  C   UNL A   1      44.444  35.614  30.378  1.00  0.00     0.054 A 
BRANCH  86  87
ATOM     87  S   UNL A   1      44.998  37.264  30.941  1.00  0.00     0.124 S 
ATOM     88  O   UNL A   1      43.815  37.782  31.615  1.00  0.00    -0.237 OA
ATOM     89  O   UNL A   1      46.134  36.941  31.806  1.00  0.00    -0.237 OA
ATOM     90  O   UNL A   1      45.360  37.939  29.701  1.00  0.00    -0.744 OA
ENDBRANCH  86  87
ENDBRANCH  58  81
BRANCH  70  91
ATOM     91  C   UNL A   1      49.492  28.008  27.577  1.00  0.00    -0.014 A 
ATOM     92  C   UNL A   1      50.303  27.532  26.539  1.00  0.00     0.010 A 
ATOM     93  C   UNL A   1      50.099  28.212  28.842  1.00  0.00     0.010 A 
ATOM     94  C   UNL A   1      51.642  27.223  26.762  1.00  0.00     0.020 A 
ATOM     95  C   UNL A   1      51.451  27.960  29.060  1.00  0.00     0.020 A 
ATOM     96  C   UNL A   1      52.206  27.438  28.019  1.00  0.00     0.054 A 
BRANCH  96  97
ATOM     97  S   UNL A   1      53.949  27.051  28.256  1.00  0.00     0.124 S 
ATOM     98  O   UNL A   1      54.053  25.757  27.586  1.00  0.00    -0.237 OA
ATOM     99  O   UNL A   1      54.616  28.162  27.582  1.00  0.00    -0.237 OA
ATOM    100  O   UNL A   1      54.106  27.022  29.707  1.00  0.00    -0.744 OA
ENDBRANCH  96  97
ENDBRANCH  70  91
ENDBRANCH  44  45
ENDBRANCH  37  39
ENDBRANCH  36  37
ENDBRANCH  35  36
ENDBRANCH  34  35
ENDBRANCH  33  34
ENDBRANCH  32  33
ENDBRANCH  31  32
ENDBRANCH   1  31
TORSDOF 26
ENDMDL
MODEL 3
REMARK VINA RESULT:      -8.0      5.421     12.142
REMARK SMILES Cc1cc(NC(=O)c2ccc(Br)cc2N)ccc1C(=O)OCCOCCOCCOCCOC(=O)c1ccc(-c2c3nc(c(-c4ccc(S(=O)(=O)[O-])cc4)c4ccc([nH]4)c(-c4ccc(S(=O)(=O)[O-])cc4)c4nc(c(-c5ccc(S(=O)(=O)[O-])cc5)c5ccc2[nH]5)C=C4)C=C3)cc1
REMARK SMILES IDX 27 1 26 2 25 3 24 4 23 5 22 6 21 7 19 8 20 9 18 10 1 11 2 12
REMARK SMILES IDX 3 13 4 14 17 15 16 16 5 17 6 18 7 20 8 21 9 22 14 23 10 24
REMARK SMILES IDX 13 25 11 26 12 27 15 28 28 31 29 32 30 33 31 34 32 35 33 36
REMARK SMILES IDX 34 37 35 38 36 39 37 40 95 41 38 42 94 43 39 44 40 45 41 46
REMARK SMILES IDX 88 47 42 48 93 49 87 50 89 51 43 52 92 53 86 54 85 55 44 57
REMARK SMILES IDX 74 58 55 59 73 60 56 61 59 62 72 63 90 64 57 65 58 66 71 68
REMARK SMILES IDX 91 69 60 70 45 71 46 72 54 73 47 74 53 75 48 76 49 77 50 78
REMARK SMILES IDX 51 79 52 80 75 81 76 82 84 83 77 84 83 85 78 86 79 87 80 88
REMARK SMILES IDX 81 89 82 90 61 91 62 92 70 93 63 94 69 95 64 96 65 97 66 98
REMARK SMILES IDX 67 99 68 100
REMARK H PARENT 5 19 15 29 15 30 89 56 59 67
REMARK Flexibility Score: inf
ROOT
ATOM      1  O   UNL A   1      51.177  22.203  33.963  1.00  0.00    -0.377 OA
ENDROOT
BRANCH   1   2
ATOM      2  C   UNL A   1      51.546  22.884  32.777  1.00  0.00     0.188 C 
BRANCH   2   3
ATOM      3  C   UNL A   1      52.219  24.271  32.844  1.00  0.00     0.188 C 
BRANCH   3   4
ATOM      4  O   UNL A   1      51.473  25.473  32.803  1.00  0.00    -0.376 OA
BRANCH   4   5
ATOM      5  C   UNL A   1      50.059  25.318  32.766  1.00  0.00     0.202 C 
BRANCH   5   6
ATOM      6  C   UNL A   1      49.223  26.056  33.794  1.00  0.00     0.261 C 
BRANCH   6   7
ATOM      7  O   UNL A   1      49.366  27.440  33.529  1.00  0.00    -0.460 OA
BRANCH   7   8
ATOM      8  C   UNL A   1      48.208  28.096  33.430  1.00  0.00     0.338 C 
ATOM      9  O   UNL A   1      47.464  28.451  34.315  1.00  0.00    -0.246 OA
BRANCH   8  10
ATOM     10  C   UNL A   1      48.177  28.650  32.064  1.00  0.00     0.063 A 
ATOM     11  C   UNL A   1      50.027  30.447  32.332  1.00  0.00     0.045 C 
ATOM     12  C   UNL A   1      48.993  29.681  31.562  1.00  0.00    -0.035 A 
ATOM     13  C   UNL A   1      48.934  29.929  30.195  1.00  0.00     0.030 A 
ATOM     14  C   UNL A   1      48.140  29.130  29.382  1.00  0.00     0.041 A 
ATOM     15  C   UNL A   1      47.163  28.089  31.270  1.00  0.00     0.018 A 
ATOM     16  C   UNL A   1      47.120  28.354  29.916  1.00  0.00     0.027 A 
BRANCH  14  17
ATOM     17  N   UNL A   1      48.496  28.874  28.063  1.00  0.00    -0.322 N 
ATOM     18  C   UNL A   1      47.938  29.378  26.902  1.00  0.00     0.257 C 
ATOM     19  H   UNL A   1      49.247  28.250  27.939  1.00  0.00     0.170 HD
ATOM     20  O   UNL A   1      48.361  28.927  25.833  1.00  0.00    -0.269 OA
BRANCH  18  21
ATOM     21  C   UNL A   1      46.874  30.441  26.846  1.00  0.00     0.063 A 
ATOM     22  C   UNL A   1      47.377  31.746  27.015  1.00  0.00     0.017 A 
ATOM     23  C   UNL A   1      45.472  30.261  26.725  1.00  0.00     0.045 A 
ATOM     24  C   UNL A   1      46.531  32.854  27.081  1.00  0.00     0.016 A 
ATOM     25  C   UNL A   1      44.637  31.398  26.773  1.00  0.00     0.042 A 
ATOM     26  C   UNL A   1      45.161  32.675  26.956  1.00  0.00     0.020 A 
ATOM     27  Br  UNL A   1      44.001  34.161  27.103  1.00  0.00    -0.051 Br
BRANCH  23  28
ATOM     28  N   UNL A   1      44.817  29.028  26.744  1.00  0.00    -0.398 N 
ATOM     29  H   UNL A   1      44.328  28.718  25.947  1.00  0.00     0.156 HD
ATOM     30  H   UNL A   1      44.843  28.469  27.553  1.00  0.00     0.156 HD
ENDBRANCH  23  28
ENDBRANCH  18  21
ENDBRANCH  14  17
ENDBRANCH   8  10
ENDBRANCH   7   8
ENDBRANCH   6   7
ENDBRANCH   5   6
ENDBRANCH   4   5
ENDBRANCH   3   4
ENDBRANCH   2   3
ENDBRANCH   1   2
BRANCH   1  31
ATOM     31  C   UNL A   1      50.314  21.066  33.860  1.00  0.00     0.188 C 
BRANCH  31  32
ATOM     32  C   UNL A   1      49.363  20.783  35.006  1.00  0.00     0.188 C 
BRANCH  32  33
ATOM     33  O   UNL A   1      48.092  20.520  34.410  1.00  0.00    -0.376 OA
BRANCH  33  34
ATOM     34  C   UNL A   1      47.146  19.848  35.214  1.00  0.00     0.202 C 
BRANCH  34  35
ATOM     35  C   UNL A   1      45.875  20.655  35.467  1.00  0.00     0.261 C 
BRANCH  35  36
ATOM     36  O   UNL A   1      45.922  21.975  34.858  1.00  0.00    -0.460 OA
BRANCH  36  37
ATOM     37  C   UNL A   1      46.029  23.104  35.626  1.00  0.00     0.338 C 
ATOM     38  O   UNL A   1      47.008  23.332  36.323  1.00  0.00    -0.246 OA
BRANCH  37  39
ATOM     39  C   UNL A   1      45.046  24.167  35.280  1.00  0.00     0.060 A 
ATOM     40  C   UNL A   1      43.695  23.903  35.001  1.00  0.00     0.016 A 
ATOM     41  C   UNL A   1      45.480  25.475  35.231  1.00  0.00     0.016 A 
ATOM     42  C   UNL A   1      42.854  24.901  34.458  1.00  0.00     0.010 A 
ATOM     43  C   UNL A   1      44.669  26.433  34.654  1.00  0.00     0.010 A 
ATOM     44  C   UNL A   1      43.366  26.166  34.202  1.00  0.00    -0.014 A 
BRANCH  44  45
ATOM     45  C   UNL A   1      42.719  27.254  33.422  1.00  0.00     0.031 A 
ATOM     46  C   UNL A   1      41.972  28.323  34.185  1.00  0.00     0.074 A 
ATOM     47  C   UNL A   1      43.127  27.490  32.143  1.00  0.00     0.049 A 
ATOM     48  N   UNL A   1      41.597  29.455  33.701  1.00  0.00    -0.248 NA
ATOM     49  C   UNL A   1      41.670  28.249  35.619  1.00  0.00     0.031 C 
ATOM     50  C   UNL A   1      43.093  28.768  31.423  1.00  0.00     0.029 A 
ATOM     51  N   UNL A   1      43.756  26.691  31.206  1.00  0.00    -0.354 N 
ATOM     52  C   UNL A   1      41.347  30.341  34.733  1.00  0.00     0.074 A 
ATOM     53  C   UNL A   1      41.362  29.521  35.917  1.00  0.00     0.031 C 
ATOM     54  C   UNL A   1      43.528  28.636  30.160  1.00  0.00     0.029 A 
ATOM     55  C   UNL A   1      43.610  27.222  29.922  1.00  0.00     0.049 A 
ATOM     56  H   UNL A   1      44.241  25.860  31.414  1.00  0.00     0.167 HD
ATOM     57  C   UNL A   1      41.277  31.679  34.450  1.00  0.00     0.031 A 
ATOM     58  C   UNL A   1      42.820  26.612  28.987  1.00  0.00     0.031 A 
ATOM     59  C   UNL A   1      41.259  31.906  32.987  1.00  0.00     0.049 A 
ATOM     60  C   UNL A   1      41.564  27.487  28.804  1.00  0.00     0.074 A 
ATOM     61  C   UNL A   1      42.018  32.653  32.103  1.00  0.00     0.029 A 
ATOM     62  N   UNL A   1      40.437  31.104  32.187  1.00  0.00    -0.354 N 
ATOM     63  N   UNL A   1      41.002  28.175  29.783  1.00  0.00    -0.248 NA
ATOM     64  C   UNL A   1      41.111  27.947  27.487  1.00  0.00     0.031 C 
ATOM     65  C   UNL A   1      41.787  32.136  30.788  1.00  0.00     0.029 A 
ATOM     66  C   UNL A   1      40.825  31.130  30.860  1.00  0.00     0.049 A 
ATOM     67  H   UNL A   1      39.674  30.584  32.529  1.00  0.00     0.167 HD
ATOM     68  C   UNL A   1      40.351  29.268  29.252  1.00  0.00     0.074 A 
ATOM     69  C   UNL A   1      40.381  29.032  27.811  1.00  0.00     0.031 C 
ATOM     70  C   UNL A   1      40.013  30.456  29.852  1.00  0.00     0.031 A 
BRANCH  57  71
ATOM     71  C   UNL A   1      41.378  32.832  35.459  1.00  0.00    -0.014 A 
ATOM     72  C   UNL A   1      40.248  33.656  35.676  1.00  0.00     0.010 A 
ATOM     73  C   UNL A   1      42.541  33.218  36.164  1.00  0.00     0.010 A 
ATOM     74  C   UNL A   1      40.265  34.780  36.526  1.00  0.00     0.020 A 
ATOM     75  C   UNL A   1      42.565  34.328  37.046  1.00  0.00     0.020 A 
ATOM     76  C   UNL A   1      41.424  35.108  37.218  1.00  0.00     0.054 A 
BRANCH  76  77
ATOM     77  S   UNL A   1      41.398  36.533  38.349  1.00  0.00     0.124 S 
ATOM     78  O   UNL A   1      41.621  35.910  39.652  1.00  0.00    -0.237 OA
ATOM     79  O   UNL A   1      42.498  37.356  37.852  1.00  0.00    -0.237 OA
ATOM     80  O   UNL A   1      40.066  37.106  38.159  1.00  0.00    -0.744 OA
ENDBRANCH  76  77
ENDBRANCH  57  71
BRANCH  58  81
ATOM     81  C   UNL A   1      43.109  25.135  28.958  1.00  0.00    -0.014 A 
ATOM     82  C   UNL A   1      42.042  24.361  28.420  1.00  0.00     0.010 A 
ATOM     83  C   UNL A   1      44.419  24.659  28.745  1.00  0.00     0.010 A 
ATOM     84  C   UNL A   1      42.278  23.340  27.486  1.00  0.00     0.020 A 
ATOM     85  C   UNL A   1      44.657  23.614  27.817  1.00  0.00     0.020 A 
ATOM     86  C   UNL A   1      43.587  23.015  27.141  1.00  0.00     0.054 A 
BRANCH  86  87
ATOM     87  S   UNL A   1      43.849  22.014  25.632  1.00  0.00     0.124 S 
ATOM     88  O   UNL A   1      43.149  22.786  24.615  1.00  0.00    -0.237 OA
ATOM     89  O   UNL A   1      45.308  21.987  25.518  1.00  0.00    -0.237 OA
ATOM     90  O   UNL A   1      43.249  20.730  25.970  1.00  0.00    -0.744 OA
ENDBRANCH  86  87
ENDBRANCH  58  81
BRANCH  70  91
ATOM     91  C   UNL A   1      38.683  31.097  29.537  1.00  0.00    -0.014 A 
ATOM     92  C   UNL A   1      37.500  30.351  29.468  1.00  0.00     0.010 A 
ATOM     93  C   UNL A   1      38.567  32.511  29.532  1.00  0.00     0.010 A 
ATOM     94  C   UNL A   1      36.264  30.979  29.347  1.00  0.00     0.020 A 
ATOM     95  C   UNL A   1      37.332  33.149  29.469  1.00  0.00     0.020 A 
ATOM     96  C   UNL A   1      36.188  32.371  29.348  1.00  0.00     0.054 A 
BRANCH  96  97
ATOM     97  S   UNL A   1      34.566  33.144  29.218  1.00  0.00     0.124 S 
ATOM     98  O   UNL A   1      34.135  33.149  30.613  1.00  0.00    -0.237 OA
ATOM     99  O   UNL A   1      34.882  34.454  28.654  1.00  0.00    -0.237 OA
ATOM    100  O   UNL A   1      33.824  32.252  28.333  1.00  0.00    -0.744 OA
ENDBRANCH  96  97
ENDBRANCH  70  91
ENDBRANCH  44  45
ENDBRANCH  37  39
ENDBRANCH  36  37
ENDBRANCH  35  36
ENDBRANCH  34  35
ENDBRANCH  33  34
ENDBRANCH  32  33
ENDBRANCH  31  32
ENDBRANCH   1  31
TORSDOF 26
ENDMDL
