MODEL 1
REMARK VINA RESULT:      -8.0      0.000      0.000
REMARK SMILES COc1ccccc1[C@@H]1C[N@@H+](Cc2cc(C(C)=O)cn2C)C[C@H]1C(=O)OCCOCCOCCOCCOC(=O)c1ccc(-c2c3nc(c(-c4ccc(S(=O)(=O)[O-])cc4)c4ccc([nH]4)c(-c4ccc(S(=O)(=O)[O-])cc4)c4nc(c(-c5ccc(S(=O)(=O)[O-])cc5)c5ccc2[nH]5)C=C4)C=C3)cc1
REMARK SMILES IDX 32 1 31 2 30 3 29 4 28 5 27 6 26 7 24 8 25 9 23 10 9 11
REMARK SMILES IDX 10 12 11 13 22 14 8 16 3 17 4 18 5 19 7 20 6 21 2 22 1 23
REMARK SMILES IDX 12 24 13 25 14 26 20 27 15 28 19 29 21 30 16 31 17 32 18 33
REMARK SMILES IDX 33 34 34 35 35 36 36 37 37 38 38 39 39 40 40 41 41 42 42 43
REMARK SMILES IDX 100 44 43 45 99 46 44 47 45 48 46 49 93 50 47 51 98 52 92 53
REMARK SMILES IDX 94 54 48 55 97 56 91 57 90 58 49 60 79 61 60 62 78 63 61 64
REMARK SMILES IDX 64 65 77 66 95 67 62 68 63 69 76 71 96 72 65 73 50 74 51 75
REMARK SMILES IDX 59 76 52 77 58 78 53 79 54 80 55 81 56 82 57 83 80 84 81 85
REMARK SMILES IDX 89 86 82 87 88 88 83 89 84 90 85 91 86 92 87 93 66 94 67 95
REMARK SMILES IDX 75 96 68 97 74 98 69 99 70 100 71 101 72 102 73 103
REMARK H PARENT 11 15 94 59 64 70
REMARK Flexibility Score: inf
ROOT
ATOM      1  O   UNL A   1      40.906  25.811  27.835  1.00  0.00    -0.377 OA
ENDROOT
BRANCH   1   2
ATOM      2  C   UNL A   1      40.300  25.070  26.786  1.00  0.00     0.188 C 
BRANCH   2   3
ATOM      3  C   UNL A   1      39.024  24.238  26.977  1.00  0.00     0.188 C 
BRANCH   3   4
ATOM      4  O   UNL A   1      38.125  24.247  25.899  1.00  0.00    -0.376 OA
BRANCH   4   5
ATOM      5  C   UNL A   1      37.340  23.111  25.611  1.00  0.00     0.202 C 
BRANCH   5   6
ATOM      6  C   UNL A   1      35.829  23.144  25.324  1.00  0.00     0.261 C 
BRANCH   6   7
ATOM      7  O   UNL A   1      35.024  24.174  25.926  1.00  0.00    -0.463 OA
BRANCH   7   8
ATOM      8  C   UNL A   1      34.032  24.661  25.151  1.00  0.00     0.315 C 
ATOM      9  O   UNL A   1      34.093  24.691  23.920  1.00  0.00    -0.252 OA
BRANCH   8  10
ATOM     10  C   UNL A   1      32.801  25.209  25.845  1.00  0.00     0.167 C 
ATOM     11  C   UNL A   1      31.500  25.652  25.164  1.00  0.00     0.098 C 
ATOM     12  C   UNL A   1      30.384  25.092  26.071  1.00  0.00     0.272 C 
ATOM     13  N   UNL A   1      30.933  23.911  26.729  1.00  0.00    -0.329 N 
ATOM     14  C   UNL A   1      32.367  24.157  26.875  1.00  0.00     0.278 C 
ATOM     15  H   UNL A   1      30.508  23.789  27.648  1.00  0.00     0.348 HD
BRANCH  11  16
ATOM     16  C   UNL A   1      31.172  27.126  24.881  1.00  0.00     0.004 A 
ATOM     17  C   UNL A   1      31.623  28.289  25.538  1.00  0.00     0.122 A 
ATOM     18  C   UNL A   1      31.282  29.557  25.017  1.00  0.00     0.047 A 
ATOM     19  C   UNL A   1      30.491  29.701  23.876  1.00  0.00     0.004 A 
ATOM     20  C   UNL A   1      30.335  27.311  23.744  1.00  0.00     0.008 A 
ATOM     21  C   UNL A   1      30.009  28.571  23.241  1.00  0.00     0.001 A 
BRANCH  17  22
ATOM     22  O   UNL A   1      32.563  28.376  26.529  1.00  0.00    -0.496 OA
ATOM     23  C   UNL A   1      33.411  29.517  26.575  1.00  0.00     0.278 C 
ENDBRANCH  17  22
ENDBRANCH  11  16
BRANCH  13  24
ATOM     24  C   UNL A   1      30.561  22.622  26.127  1.00  0.00     0.317 C 
BRANCH  24  25
ATOM     25  C   UNL A   1      31.633  21.911  25.362  1.00  0.00     0.073 A 
ATOM     26  C   UNL A   1      32.606  21.040  25.839  1.00  0.00     0.041 A 
ATOM     27  N   UNL A   1      31.884  22.075  24.018  1.00  0.00    -0.349 N 
ATOM     28  C   UNL A   1      33.356  20.547  24.740  1.00  0.00     0.035 A 
ATOM     29  C   UNL A   1      32.854  21.192  23.626  1.00  0.00     0.097 A 
ATOM     30  C   UNL A   1      31.290  23.050  23.133  1.00  0.00     0.149 C 
BRANCH  28  31
ATOM     31  C   UNL A   1      34.439  19.572  24.690  1.00  0.00     0.161 C 
ATOM     32  C   UNL A   1      34.155  18.157  24.254  1.00  0.00     0.093 C 
ATOM     33  O   UNL A   1      35.586  19.899  24.996  1.00  0.00    -0.294 OA
ENDBRANCH  28  31
ENDBRANCH  24  25
ENDBRANCH  13  24
ENDBRANCH   8  10
ENDBRANCH   7   8
ENDBRANCH   6   7
ENDBRANCH   5   6
ENDBRANCH   4   5
ENDBRANCH   3   4
ENDBRANCH   2   3
ENDBRANCH   1   2
BRANCH   1  34
ATOM     34  C   UNL A   1      40.273  26.974  28.355  1.00  0.00     0.188 C 
BRANCH  34  35
ATOM     35  C   UNL A   1      40.932  27.714  29.531  1.00  0.00     0.188 C 
BRANCH  35  36
ATOM     36  O   UNL A   1      40.869  29.127  29.431  1.00  0.00    -0.376 OA
BRANCH  36  37
ATOM     37  C   UNL A   1      39.745  29.686  28.769  1.00  0.00     0.202 C 
BRANCH  37  38
ATOM     38  C   UNL A   1      38.602  30.283  29.604  1.00  0.00     0.261 C 
BRANCH  38  39
ATOM     39  O   UNL A   1      38.137  29.530  30.734  1.00  0.00    -0.460 OA
BRANCH  39  40
ATOM     40  C   UNL A   1      37.074  29.986  31.428  1.00  0.00     0.338 C 
ATOM     41  O   UNL A   1      35.901  29.705  31.255  1.00  0.00    -0.246 OA
BRANCH  40  42
ATOM     42  C   UNL A   1      37.605  30.779  32.554  1.00  0.00     0.060 A 
ATOM     43  C   UNL A   1      37.051  32.034  32.837  1.00  0.00     0.016 A 
ATOM     44  C   UNL A   1      38.640  30.265  33.337  1.00  0.00     0.016 A 
ATOM     45  C   UNL A   1      37.549  32.790  33.900  1.00  0.00     0.010 A 
ATOM     46  C   UNL A   1      39.148  31.029  34.389  1.00  0.00     0.010 A 
ATOM     47  C   UNL A   1      38.624  32.307  34.658  1.00  0.00    -0.014 A 
BRANCH  47  48
ATOM     48  C   UNL A   1      39.351  33.221  35.572  1.00  0.00     0.031 A 
ATOM     49  C   UNL A   1      38.955  33.209  37.023  1.00  0.00     0.074 A 
ATOM     50  C   UNL A   1      40.340  34.027  35.144  1.00  0.00     0.049 A 
ATOM     51  N   UNL A   1      39.403  33.935  38.015  1.00  0.00    -0.248 NA
ATOM     52  C   UNL A   1      37.903  32.251  37.404  1.00  0.00     0.031 C 
ATOM     53  C   UNL A   1      40.839  34.104  33.773  1.00  0.00     0.029 A 
ATOM     54  N   UNL A   1      41.099  34.944  35.829  1.00  0.00    -0.354 N 
ATOM     55  C   UNL A   1      38.686  33.522  39.131  1.00  0.00     0.074 A 
ATOM     56  C   UNL A   1      37.739  32.524  38.688  1.00  0.00     0.031 C 
ATOM     57  C   UNL A   1      41.809  35.033  33.713  1.00  0.00     0.029 A 
ATOM     58  C   UNL A   1      41.985  35.632  35.034  1.00  0.00     0.049 A 
ATOM     59  H   UNL A   1      41.015  35.095  36.799  1.00  0.00     0.167 HD
ATOM     60  C   UNL A   1      38.814  33.923  40.417  1.00  0.00     0.031 A 
ATOM     61  C   UNL A   1      42.827  36.642  35.337  1.00  0.00     0.031 A 
ATOM     62  C   UNL A   1      39.739  34.933  40.849  1.00  0.00     0.049 A 
ATOM     63  C   UNL A   1      42.906  37.129  36.762  1.00  0.00     0.074 A 
ATOM     64  C   UNL A   1      39.950  35.419  42.128  1.00  0.00     0.029 A 
ATOM     65  N   UNL A   1      40.606  35.620  40.011  1.00  0.00    -0.354 N 
ATOM     66  N   UNL A   1      42.241  36.712  37.815  1.00  0.00    -0.248 NA
ATOM     67  C   UNL A   1      43.858  38.212  37.044  1.00  0.00     0.031 C 
ATOM     68  C   UNL A   1      40.902  36.440  42.052  1.00  0.00     0.029 A 
ATOM     69  C   UNL A   1      41.335  36.543  40.738  1.00  0.00     0.049 A 
ATOM     70  H   UNL A   1      40.688  35.472  39.041  1.00  0.00     0.167 HD
ATOM     71  C   UNL A   1      42.713  37.463  38.887  1.00  0.00     0.074 A 
ATOM     72  C   UNL A   1      43.729  38.349  38.358  1.00  0.00     0.031 C 
ATOM     73  C   UNL A   1      42.342  37.421  40.191  1.00  0.00     0.031 A 
BRANCH  60  74
ATOM     74  C   UNL A   1      37.897  33.284  41.426  1.00  0.00    -0.014 A 
ATOM     75  C   UNL A   1      36.612  33.802  41.673  1.00  0.00     0.010 A 
ATOM     76  C   UNL A   1      38.332  32.161  42.152  1.00  0.00     0.010 A 
ATOM     77  C   UNL A   1      35.802  33.246  42.666  1.00  0.00     0.020 A 
ATOM     78  C   UNL A   1      37.511  31.580  43.123  1.00  0.00     0.020 A 
ATOM     79  C   UNL A   1      36.261  32.140  43.389  1.00  0.00     0.054 A 
BRANCH  79  80
ATOM     80  S   UNL A   1      35.191  31.439  44.675  1.00  0.00     0.124 S 
ATOM     81  O   UNL A   1      35.395  32.373  45.779  1.00  0.00    -0.237 OA
ATOM     82  O   UNL A   1      33.871  31.482  44.052  1.00  0.00    -0.237 OA
ATOM     83  O   UNL A   1      35.734  30.099  44.885  1.00  0.00    -0.744 OA
ENDBRANCH  79  80
ENDBRANCH  60  74
BRANCH  61  84
ATOM     84  C   UNL A   1      43.650  37.269  34.263  1.00  0.00    -0.014 A 
ATOM     85  C   UNL A   1      44.863  36.694  33.848  1.00  0.00     0.010 A 
ATOM     86  C   UNL A   1      43.205  38.448  33.636  1.00  0.00     0.010 A 
ATOM     87  C   UNL A   1      45.617  37.287  32.829  1.00  0.00     0.020 A 
ATOM     88  C   UNL A   1      43.943  39.029  32.599  1.00  0.00     0.020 A 
ATOM     89  C   UNL A   1      45.149  38.446  32.205  1.00  0.00     0.054 A 
BRANCH  89  90
ATOM     90  S   UNL A   1      46.103  39.153  30.832  1.00  0.00     0.124 S 
ATOM     91  O   UNL A   1      45.162  40.116  30.269  1.00  0.00    -0.237 OA
ATOM     92  O   UNL A   1      47.262  39.722  31.515  1.00  0.00    -0.237 OA
ATOM     93  O   UNL A   1      46.395  37.996  29.987  1.00  0.00    -0.744 OA
ENDBRANCH  89  90
ENDBRANCH  61  84
BRANCH  73  94
ATOM     94  C   UNL A   1      43.059  38.335  41.152  1.00  0.00    -0.014 A 
ATOM     95  C   UNL A   1      42.566  39.617  41.448  1.00  0.00     0.010 A 
ATOM     96  C   UNL A   1      44.206  37.871  41.822  1.00  0.00     0.010 A 
ATOM     97  C   UNL A   1      43.226  40.430  42.374  1.00  0.00     0.020 A 
ATOM     98  C   UNL A   1      44.851  38.667  42.770  1.00  0.00     0.020 A 
ATOM     99  C   UNL A   1      44.364  39.949  43.031  1.00  0.00     0.054 A 
BRANCH  99 100
ATOM    100  S   UNL A   1      45.173  41.006  44.263  1.00  0.00     0.124 S 
ATOM    101  O   UNL A   1      45.374  42.244  43.516  1.00  0.00    -0.237 OA
ATOM    102  O   UNL A   1      44.178  41.071  45.331  1.00  0.00    -0.237 OA
ATOM    103  O   UNL A   1      46.393  40.276  44.598  1.00  0.00    -0.744 OA
ENDBRANCH  99 100
ENDBRANCH  73  94
ENDBRANCH  47  48
ENDBRANCH  40  42
ENDBRANCH  39  40
ENDBRANCH  38  39
ENDBRANCH  37  38
ENDBRANCH  36  37
ENDBRANCH  35  36
ENDBRANCH  34  35
ENDBRANCH   1  34
TORSDOF 28
ENDMDL
MODEL 2
REMARK VINA RESULT:      -7.7      7.998     13.619
REMARK SMILES COc1ccccc1[C@@H]1C[N@@H+](Cc2cc(C(C)=O)cn2C)C[C@H]1C(=O)OCCOCCOCCOCCOC(=O)c1ccc(-c2c3nc(c(-c4ccc(S(=O)(=O)[O-])cc4)c4ccc([nH]4)c(-c4ccc(S(=O)(=O)[O-])cc4)c4nc(c(-c5ccc(S(=O)(=O)[O-])cc5)c5ccc2[nH]5)C=C4)C=C3)cc1
REMARK SMILES IDX 32 1 31 2 30 3 29 4 28 5 27 6 26 7 24 8 25 9 23 10 9 11
REMARK SMILES IDX 10 12 11 13 22 14 8 16 3 17 4 18 5 19 7 20 6 21 2 22 1 23
REMARK SMILES IDX 12 24 13 25 14 26 20 27 15 28 19 29 21 30 16 31 17 32 18 33
REMARK SMILES IDX 33 34 34 35 35 36 36 37 37 38 38 39 39 40 40 41 41 42 42 43
REMARK SMILES IDX 100 44 43 45 99 46 44 47 45 48 46 49 93 50 47 51 98 52 92 53
REMARK SMILES IDX 94 54 48 55 97 56 91 57 90 58 49 60 79 61 60 62 78 63 61 64
REMARK SMILES IDX 64 65 77 66 95 67 62 68 63 69 76 71 96 72 65 73 50 74 51 75
REMARK SMILES IDX 59 76 52 77 58 78 53 79 54 80 55 81 56 82 57 83 80 84 81 85
REMARK SMILES IDX 89 86 82 87 88 88 83 89 84 90 85 91 86 92 87 93 66 94 67 95
REMARK SMILES IDX 75 96 68 97 74 98 69 99 70 100 71 101 72 102 73 103
REMARK H PARENT 11 15 94 59 64 70
REMARK Flexibility Score: inf
ROOT
ATOM      1  O   UNL A   1      41.481  26.229  28.157  1.00  0.00    -0.377 OA
ENDROOT
BRANCH   1   2
ATOM      2  C   UNL A   1      40.875  25.497  27.101  1.00  0.00     0.188 C 
BRANCH   2   3
ATOM      3  C   UNL A   1      40.186  24.141  27.311  1.00  0.00     0.188 C 
BRANCH   3   4
ATOM      4  O   UNL A   1      39.094  23.877  26.469  1.00  0.00    -0.376 OA
BRANCH   4   5
ATOM      5  C   UNL A   1      38.794  22.556  26.077  1.00  0.00     0.202 C 
BRANCH   5   6
ATOM      6  C   UNL A   1      37.399  22.068  25.650  1.00  0.00     0.261 C 
BRANCH   6   7
ATOM      7  O   UNL A   1      36.234  22.737  26.167  1.00  0.00    -0.463 OA
BRANCH   7   8
ATOM      8  C   UNL A   1      35.344  23.149  25.240  1.00  0.00     0.315 C 
ATOM      9  O   UNL A   1      35.361  22.759  24.070  1.00  0.00    -0.252 OA
BRANCH   8  10
ATOM     10  C   UNL A   1      34.294  24.154  25.670  1.00  0.00     0.167 C 
ATOM     11  C   UNL A   1      33.262  24.831  24.759  1.00  0.00     0.098 C 
ATOM     12  C   UNL A   1      31.954  24.803  25.576  1.00  0.00     0.272 C 
ATOM     13  N   UNL A   1      32.044  23.652  26.469  1.00  0.00    -0.329 N 
ATOM     14  C   UNL A   1      33.465  23.484  26.773  1.00  0.00     0.278 C 
ATOM     15  H   UNL A   1      31.525  23.831  27.328  1.00  0.00     0.348 HD
BRANCH  11  16
ATOM     16  C   UNL A   1      33.442  26.259  24.220  1.00  0.00     0.004 A 
ATOM     17  C   UNL A   1      33.712  27.454  24.915  1.00  0.00     0.122 A 
ATOM     18  C   UNL A   1      33.961  28.639  24.188  1.00  0.00     0.047 A 
ATOM     19  C   UNL A   1      33.931  28.673  22.793  1.00  0.00     0.004 A 
ATOM     20  C   UNL A   1      33.379  26.339  22.799  1.00  0.00     0.008 A 
ATOM     21  C   UNL A   1      33.630  27.518  22.095  1.00  0.00     0.001 A 
BRANCH  17  22
ATOM     22  O   UNL A   1      33.992  27.600  26.247  1.00  0.00    -0.496 OA
ATOM     23  C   UNL A   1      32.929  27.895  27.145  1.00  0.00     0.278 C 
ENDBRANCH  17  22
ENDBRANCH  11  16
BRANCH  13  24
ATOM     24  C   UNL A   1      31.337  22.444  26.018  1.00  0.00     0.317 C 
BRANCH  24  25
ATOM     25  C   UNL A   1      32.147  21.448  25.248  1.00  0.00     0.073 A 
ATOM     26  C   UNL A   1      33.038  20.496  25.731  1.00  0.00     0.041 A 
ATOM     27  N   UNL A   1      32.198  21.366  23.874  1.00  0.00    -0.349 N 
ATOM     28  C   UNL A   1      33.513  19.722  24.641  1.00  0.00     0.035 A 
ATOM     29  C   UNL A   1      32.943  20.276  23.511  1.00  0.00     0.097 A 
ATOM     30  C   UNL A   1      31.626  22.292  22.923  1.00  0.00     0.149 C 
BRANCH  28  31
ATOM     31  C   UNL A   1      34.409  18.571  24.613  1.00  0.00     0.161 C 
ATOM     32  C   UNL A   1      33.845  17.185  24.430  1.00  0.00     0.093 C 
ATOM     33  O   UNL A   1      35.625  18.726  24.732  1.00  0.00    -0.294 OA
ENDBRANCH  28  31
ENDBRANCH  24  25
ENDBRANCH  13  24
ENDBRANCH   8  10
ENDBRANCH   7   8
ENDBRANCH   6   7
ENDBRANCH   5   6
ENDBRANCH   4   5
ENDBRANCH   3   4
ENDBRANCH   2   3
ENDBRANCH   1   2
BRANCH   1  34
ATOM     34  C   UNL A   1      40.715  27.140  28.935  1.00  0.00     0.188 C 
BRANCH  34  35
ATOM     35  C   UNL A   1      41.356  27.774  30.181  1.00  0.00     0.188 C 
BRANCH  35  36
ATOM     36  O   UNL A   1      41.120  29.166  30.306  1.00  0.00    -0.376 OA
BRANCH  36  37
ATOM     37  C   UNL A   1      39.852  29.654  29.892  1.00  0.00     0.202 C 
BRANCH  37  38
ATOM     38  C   UNL A   1      39.554  31.157  30.005  1.00  0.00     0.261 C 
BRANCH  38  39
ATOM     39  O   UNL A   1      40.091  31.861  31.135  1.00  0.00    -0.460 OA
BRANCH  39  40
ATOM     40  C   UNL A   1      40.854  32.952  30.919  1.00  0.00     0.338 C 
ATOM     41  O   UNL A   1      40.531  34.120  31.050  1.00  0.00    -0.246 OA
BRANCH  40  42
ATOM     42  C   UNL A   1      42.223  32.472  30.643  1.00  0.00     0.060 A 
ATOM     43  C   UNL A   1      42.836  32.792  29.426  1.00  0.00     0.016 A 
ATOM     44  C   UNL A   1      42.899  31.717  31.604  1.00  0.00     0.016 A 
ATOM     45  C   UNL A   1      44.129  32.340  29.158  1.00  0.00     0.010 A 
ATOM     46  C   UNL A   1      44.186  31.252  31.328  1.00  0.00     0.010 A 
ATOM     47  C   UNL A   1      44.797  31.538  30.093  1.00  0.00    -0.014 A 
BRANCH  47  48
ATOM     48  C   UNL A   1      46.023  30.806  29.693  1.00  0.00     0.031 A 
ATOM     49  C   UNL A   1      47.346  31.451  30.003  1.00  0.00     0.074 A 
ATOM     50  C   UNL A   1      45.978  29.604  29.091  1.00  0.00     0.049 A 
ATOM     51  N   UNL A   1      48.557  31.042  29.725  1.00  0.00    -0.248 NA
ATOM     52  C   UNL A   1      47.292  32.738  30.716  1.00  0.00     0.031 C 
ATOM     53  C   UNL A   1      44.761  28.860  28.769  1.00  0.00     0.029 A 
ATOM     54  N   UNL A   1      46.993  28.799  28.633  1.00  0.00    -0.354 N 
ATOM     55  C   UNL A   1      49.405  32.022  30.228  1.00  0.00     0.074 A 
ATOM     56  C   UNL A   1      48.572  33.068  30.778  1.00  0.00     0.031 C 
ATOM     57  C   UNL A   1      45.100  27.716  28.150  1.00  0.00     0.029 A 
ATOM     58  C   UNL A   1      46.553  27.655  28.010  1.00  0.00     0.049 A 
ATOM     59  H   UNL A   1      47.946  29.022  28.741  1.00  0.00     0.167 HD
ATOM     60  C   UNL A   1      50.757  32.045  30.249  1.00  0.00     0.031 A 
ATOM     61  C   UNL A   1      47.246  26.682  27.383  1.00  0.00     0.031 A 
ATOM     62  C   UNL A   1      51.581  31.015  29.679  1.00  0.00     0.049 A 
ATOM     63  C   UNL A   1      48.752  26.757  27.350  1.00  0.00     0.074 A 
ATOM     64  C   UNL A   1      52.962  30.938  29.641  1.00  0.00     0.029 A 
ATOM     65  N   UNL A   1      51.098  29.882  29.040  1.00  0.00    -0.354 N 
ATOM     66  N   UNL A   1      49.543  27.677  27.852  1.00  0.00    -0.248 NA
ATOM     67  C   UNL A   1      49.459  25.659  26.678  1.00  0.00     0.031 C 
ATOM     68  C   UNL A   1      53.312  29.788  28.927  1.00  0.00     0.029 A 
ATOM     69  C   UNL A   1      52.151  29.112  28.582  1.00  0.00     0.049 A 
ATOM     70  H   UNL A   1      50.145  29.659  28.930  1.00  0.00     0.167 HD
ATOM     71  C   UNL A   1      50.841  27.255  27.580  1.00  0.00     0.074 A 
ATOM     72  C   UNL A   1      50.728  25.990  26.882  1.00  0.00     0.031 C 
ATOM     73  C   UNL A   1      52.018  27.856  27.884  1.00  0.00     0.031 A 
BRANCH  60  74
ATOM     74  C   UNL A   1      51.411  33.246  30.878  1.00  0.00    -0.014 A 
ATOM     75  C   UNL A   1      51.723  33.271  32.250  1.00  0.00     0.010 A 
ATOM     76  C   UNL A   1      51.703  34.374  30.090  1.00  0.00     0.010 A 
ATOM     77  C   UNL A   1      52.260  34.421  32.834  1.00  0.00     0.020 A 
ATOM     78  C   UNL A   1      52.272  35.514  30.664  1.00  0.00     0.020 A 
ATOM     79  C   UNL A   1      52.526  35.539  32.036  1.00  0.00     0.054 A 
BRANCH  79  80
ATOM     80  S   UNL A   1      53.220  37.020  32.820  1.00  0.00     0.124 S 
ATOM     81  O   UNL A   1      53.510  37.864  31.663  1.00  0.00    -0.237 OA
ATOM     82  O   UNL A   1      52.124  37.476  33.670  1.00  0.00    -0.237 OA
ATOM     83  O   UNL A   1      54.392  36.517  33.533  1.00  0.00    -0.744 OA
ENDBRANCH  79  80
ENDBRANCH  60  74
BRANCH  61  84
ATOM     84  C   UNL A   1      46.517  25.561  26.722  1.00  0.00    -0.014 A 
ATOM     85  C   UNL A   1      46.395  24.307  27.344  1.00  0.00     0.010 A 
ATOM     86  C   UNL A   1      45.924  25.756  25.460  1.00  0.00     0.010 A 
ATOM     87  C   UNL A   1      45.695  23.269  26.717  1.00  0.00     0.020 A 
ATOM     88  C   UNL A   1      45.202  24.730  24.843  1.00  0.00     0.020 A 
ATOM     89  C   UNL A   1      45.097  23.490  25.474  1.00  0.00     0.054 A 
BRANCH  89  90
ATOM     90  S   UNL A   1      44.128  22.155  24.716  1.00  0.00     0.124 S 
ATOM     91  O   UNL A   1      42.758  22.599  24.953  1.00  0.00    -0.237 OA
ATOM     92  O   UNL A   1      44.575  22.191  23.326  1.00  0.00    -0.237 OA
ATOM     93  O   UNL A   1      44.539  20.966  25.462  1.00  0.00    -0.744 OA
ENDBRANCH  89  90
ENDBRANCH  61  84
BRANCH  73  94
ATOM     94  C   UNL A   1      53.288  27.142  27.494  1.00  0.00    -0.014 A 
ATOM     95  C   UNL A   1      53.923  26.247  28.371  1.00  0.00     0.010 A 
ATOM     96  C   UNL A   1      53.812  27.321  26.200  1.00  0.00     0.010 A 
ATOM     97  C   UNL A   1      55.077  25.566  27.972  1.00  0.00     0.020 A 
ATOM     98  C   UNL A   1      54.946  26.620  25.786  1.00  0.00     0.020 A 
ATOM     99  C   UNL A   1      55.580  25.756  26.680  1.00  0.00     0.054 A 
BRANCH  99 100
ATOM    100  S   UNL A   1      57.051  24.824  26.170  1.00  0.00     0.124 S 
ATOM    101  O   UNL A   1      58.029  25.888  25.966  1.00  0.00    -0.237 OA
ATOM    102  O   UNL A   1      57.295  23.958  27.321  1.00  0.00    -0.237 OA
ATOM    103  O   UNL A   1      56.620  24.133  24.957  1.00  0.00    -0.744 OA
ENDBRANCH  99 100
ENDBRANCH  73  94
ENDBRANCH  47  48
ENDBRANCH  40  42
ENDBRANCH  39  40
ENDBRANCH  38  39
ENDBRANCH  37  38
ENDBRANCH  36  37
ENDBRANCH  35  36
ENDBRANCH  34  35
ENDBRANCH   1  34
TORSDOF 28
ENDMDL
MODEL 3
REMARK VINA RESULT:      -7.1      6.539     11.895
REMARK SMILES COc1ccccc1[C@@H]1C[N@@H+](Cc2cc(C(C)=O)cn2C)C[C@H]1C(=O)OCCOCCOCCOCCOC(=O)c1ccc(-c2c3nc(c(-c4ccc(S(=O)(=O)[O-])cc4)c4ccc([nH]4)c(-c4ccc(S(=O)(=O)[O-])cc4)c4nc(c(-c5ccc(S(=O)(=O)[O-])cc5)c5ccc2[nH]5)C=C4)C=C3)cc1
REMARK SMILES IDX 32 1 31 2 30 3 29 4 28 5 27 6 26 7 24 8 25 9 23 10 9 11
REMARK SMILES IDX 10 12 11 13 22 14 8 16 3 17 4 18 5 19 7 20 6 21 2 22 1 23
REMARK SMILES IDX 12 24 13 25 14 26 20 27 15 28 19 29 21 30 16 31 17 32 18 33
REMARK SMILES IDX 33 34 34 35 35 36 36 37 37 38 38 39 39 40 40 41 41 42 42 43
REMARK SMILES IDX 100 44 43 45 99 46 44 47 45 48 46 49 93 50 47 51 98 52 92 53
REMARK SMILES IDX 94 54 48 55 97 56 91 57 90 58 49 60 79 61 60 62 78 63 61 64
REMARK SMILES IDX 64 65 77 66 95 67 62 68 63 69 76 71 96 72 65 73 50 74 51 75
REMARK SMILES IDX 59 76 52 77 58 78 53 79 54 80 55 81 56 82 57 83 80 84 81 85
REMARK SMILES IDX 89 86 82 87 88 88 83 89 84 90 85 91 86 92 87 93 66 94 67 95
REMARK SMILES IDX 75 96 68 97 74 98 69 99 70 100 71 101 72 102 73 103
REMARK H PARENT 11 15 94 59 64 70
REMARK Flexibility Score: inf
ROOT
ATOM      1  O   UNL A   1      44.930  23.008  27.623  1.00  0.00    -0.377 OA
ENDROOT
BRANCH   1   2
ATOM      2  C   UNL A   1      44.549  23.207  28.976  1.00  0.00     0.188 C 
BRANCH   2   3
ATOM      3  C   UNL A   1      43.223  23.865  29.384  1.00  0.00     0.188 C 
BRANCH   3   4
ATOM      4  O   UNL A   1      43.197  25.267  29.327  1.00  0.00    -0.376 OA
BRANCH   4   5
ATOM      5  C   UNL A   1      44.338  26.020  29.675  1.00  0.00     0.202 C 
BRANCH   5   6
ATOM      6  C   UNL A   1      44.579  27.482  29.259  1.00  0.00     0.261 C 
BRANCH   6   7
ATOM      7  O   UNL A   1      45.232  28.374  30.179  1.00  0.00    -0.463 OA
BRANCH   7   8
ATOM      8  C   UNL A   1      46.541  28.597  29.939  1.00  0.00     0.315 C 
ATOM      9  O   UNL A   1      47.402  28.560  30.820  1.00  0.00    -0.252 OA
BRANCH   8  10
ATOM     10  C   UNL A   1      46.950  28.926  28.517  1.00  0.00     0.167 C 
ATOM     11  C   UNL A   1      47.507  30.267  28.023  1.00  0.00     0.098 C 
ATOM     12  C   UNL A   1      48.656  29.876  27.070  1.00  0.00     0.272 C 
ATOM     13  N   UNL A   1      49.152  28.582  27.523  1.00  0.00    -0.329 N 
ATOM     14  C   UNL A   1      48.005  27.888  28.108  1.00  0.00     0.278 C 
ATOM     15  H   UNL A   1      49.514  28.046  26.734  1.00  0.00     0.348 HD
BRANCH  11  16
ATOM     16  C   UNL A   1      46.638  31.309  27.300  1.00  0.00     0.004 A 
ATOM     17  C   UNL A   1      45.259  31.286  27.013  1.00  0.00     0.122 A 
ATOM     18  C   UNL A   1      44.650  32.425  26.442  1.00  0.00     0.047 A 
ATOM     19  C   UNL A   1      45.375  33.576  26.131  1.00  0.00     0.004 A 
ATOM     20  C   UNL A   1      47.354  32.484  26.932  1.00  0.00     0.008 A 
ATOM     21  C   UNL A   1      46.736  33.603  26.371  1.00  0.00     0.001 A 
BRANCH  17  22
ATOM     22  O   UNL A   1      44.338  30.359  27.421  1.00  0.00    -0.496 OA
ATOM     23  C   UNL A   1      43.281  30.771  28.279  1.00  0.00     0.278 C 
ENDBRANCH  17  22
ENDBRANCH  11  16
BRANCH  13  24
ATOM     24  C   UNL A   1      50.367  28.624  28.351  1.00  0.00     0.317 C 
BRANCH  24  25
ATOM     25  C   UNL A   1      51.383  27.554  28.095  1.00  0.00     0.073 A 
ATOM     26  C   UNL A   1      51.605  26.829  26.930  1.00  0.00     0.041 A 
ATOM     27  N   UNL A   1      52.246  27.045  29.039  1.00  0.00    -0.349 N 
ATOM     28  C   UNL A   1      52.724  25.980  27.127  1.00  0.00     0.035 A 
ATOM     29  C   UNL A   1      53.110  26.169  28.440  1.00  0.00     0.097 A 
ATOM     30  C   UNL A   1      52.242  27.313  30.460  1.00  0.00     0.149 C 
BRANCH  28  31
ATOM     31  C   UNL A   1      53.398  25.070  26.208  1.00  0.00     0.161 C 
ATOM     32  C   UNL A   1      54.901  25.097  26.095  1.00  0.00     0.093 C 
ATOM     33  O   UNL A   1      52.748  24.275  25.530  1.00  0.00    -0.294 OA
ENDBRANCH  28  31
ENDBRANCH  24  25
ENDBRANCH  13  24
ENDBRANCH   8  10
ENDBRANCH   7   8
ENDBRANCH   6   7
ENDBRANCH   5   6
ENDBRANCH   4   5
ENDBRANCH   3   4
ENDBRANCH   2   3
ENDBRANCH   1   2
BRANCH   1  34
ATOM     34  C   UNL A   1      45.956  23.801  27.039  1.00  0.00     0.188 C 
BRANCH  34  35
ATOM     35  C   UNL A   1      45.561  25.062  26.250  1.00  0.00     0.188 C 
BRANCH  35  36
ATOM     36  O   UNL A   1      44.201  25.091  25.852  1.00  0.00    -0.376 OA
BRANCH  36  37
ATOM     37  C   UNL A   1      43.573  26.361  25.760  1.00  0.00     0.202 C 
BRANCH  37  38
ATOM     38  C   UNL A   1      42.213  26.576  26.441  1.00  0.00     0.261 C 
BRANCH  38  39
ATOM     39  O   UNL A   1      41.357  25.435  26.599  1.00  0.00    -0.460 OA
BRANCH  39  40
ATOM     40  C   UNL A   1      40.034  25.632  26.767  1.00  0.00     0.338 C 
ATOM     41  O   UNL A   1      39.121  25.052  26.204  1.00  0.00    -0.246 OA
BRANCH  40  42
ATOM     42  C   UNL A   1      39.879  26.580  27.888  1.00  0.00     0.060 A 
ATOM     43  C   UNL A   1      40.311  27.903  27.739  1.00  0.00     0.016 A 
ATOM     44  C   UNL A   1      39.289  26.154  29.080  1.00  0.00     0.016 A 
ATOM     45  C   UNL A   1      40.170  28.805  28.795  1.00  0.00     0.010 A 
ATOM     46  C   UNL A   1      39.163  27.052  30.141  1.00  0.00     0.010 A 
ATOM     47  C   UNL A   1      39.628  28.374  30.013  1.00  0.00    -0.014 A 
BRANCH  47  48
ATOM     48  C   UNL A   1      39.760  29.226  31.221  1.00  0.00     0.031 A 
ATOM     49  C   UNL A   1      40.913  28.944  32.145  1.00  0.00     0.074 A 
ATOM     50  C   UNL A   1      38.902  30.227  31.491  1.00  0.00     0.049 A 
ATOM     51  N   UNL A   1      41.228  29.511  33.280  1.00  0.00    -0.248 NA
ATOM     52  C   UNL A   1      41.829  27.867  31.732  1.00  0.00     0.031 C 
ATOM     53  C   UNL A   1      37.768  30.621  30.657  1.00  0.00     0.029 A 
ATOM     54  N   UNL A   1      38.851  31.092  32.557  1.00  0.00    -0.354 N 
ATOM     55  C   UNL A   1      42.376  28.859  33.715  1.00  0.00     0.074 A 
ATOM     56  C   UNL A   1      42.670  27.820  32.753  1.00  0.00     0.031 C 
ATOM     57  C   UNL A   1      37.122  31.640  31.252  1.00  0.00     0.029 A 
ATOM     58  C   UNL A   1      37.781  31.954  32.518  1.00  0.00     0.049 A 
ATOM     59  H   UNL A   1      39.519  31.093  33.280  1.00  0.00     0.167 HD
ATOM     60  C   UNL A   1      43.132  29.111  34.808  1.00  0.00     0.031 A 
ATOM     61  C   UNL A   1      37.373  32.878  33.412  1.00  0.00     0.031 A 
ATOM     62  C   UNL A   1      42.822  30.127  35.775  1.00  0.00     0.049 A 
ATOM     63  C   UNL A   1      38.185  33.097  34.664  1.00  0.00     0.074 A 
ATOM     64  C   UNL A   1      43.517  30.466  36.922  1.00  0.00     0.029 A 
ATOM     65  N   UNL A   1      41.719  30.967  35.711  1.00  0.00    -0.354 N 
ATOM     66  N   UNL A   1      39.283  32.491  35.052  1.00  0.00    -0.248 NA
ATOM     67  C   UNL A   1      37.712  34.134  35.592  1.00  0.00     0.031 C 
ATOM     68  C   UNL A   1      42.802  31.471  37.581  1.00  0.00     0.029 A 
ATOM     69  C   UNL A   1      41.699  31.807  36.809  1.00  0.00     0.049 A 
ATOM     70  H   UNL A   1      41.049  30.965  34.988  1.00  0.00     0.167 HD
ATOM     71  C   UNL A   1      39.646  33.090  36.254  1.00  0.00     0.074 A 
ATOM     72  C   UNL A   1      38.659  34.116  36.522  1.00  0.00     0.031 C 
ATOM     73  C   UNL A   1      40.703  32.820  37.061  1.00  0.00     0.031 A 
BRANCH  60  74
ATOM     74  C   UNL A   1      44.339  28.237  35.020  1.00  0.00    -0.014 A 
ATOM     75  C   UNL A   1      44.223  26.962  35.606  1.00  0.00     0.010 A 
ATOM     76  C   UNL A   1      45.612  28.703  34.646  1.00  0.00     0.010 A 
ATOM     77  C   UNL A   1      45.361  26.195  35.865  1.00  0.00     0.020 A 
ATOM     78  C   UNL A   1      46.750  27.924  34.873  1.00  0.00     0.020 A 
ATOM     79  C   UNL A   1      46.619  26.685  35.502  1.00  0.00     0.054 A 
BRANCH  79  80
ATOM     80  S   UNL A   1      48.080  25.670  35.854  1.00  0.00     0.124 S 
ATOM     81  O   UNL A   1      47.670  24.960  37.063  1.00  0.00    -0.237 OA
ATOM     82  O   UNL A   1      48.197  24.848  34.652  1.00  0.00    -0.237 OA
ATOM     83  O   UNL A   1      49.147  26.651  36.040  1.00  0.00    -0.744 OA
ENDBRANCH  79  80
ENDBRANCH  60  74
BRANCH  61  84
ATOM     84  C   UNL A   1      36.123  33.652  33.161  1.00  0.00    -0.014 A 
ATOM     85  C   UNL A   1      36.163  34.916  32.548  1.00  0.00     0.010 A 
ATOM     86  C   UNL A   1      34.876  33.110  33.524  1.00  0.00     0.010 A 
ATOM     87  C   UNL A   1      34.980  35.625  32.306  1.00  0.00     0.020 A 
ATOM     88  C   UNL A   1      33.690  33.804  33.259  1.00  0.00     0.020 A 
ATOM     89  C   UNL A   1      33.751  35.060  32.656  1.00  0.00     0.054 A 
BRANCH  89  90
ATOM     90  S   UNL A   1      32.225  35.961  32.259  1.00  0.00     0.124 S 
ATOM     91  O   UNL A   1      32.319  37.123  33.138  1.00  0.00    -0.237 OA
ATOM     92  O   UNL A   1      32.382  36.231  30.832  1.00  0.00    -0.237 OA
ATOM     93  O   UNL A   1      31.168  35.008  32.591  1.00  0.00    -0.744 OA
ENDBRANCH  89  90
ENDBRANCH  61  84
BRANCH  73  94
ATOM     94  C   UNL A   1      40.871  33.664  38.299  1.00  0.00    -0.014 A 
ATOM     95  C   UNL A   1      40.328  33.270  39.533  1.00  0.00     0.010 A 
ATOM     96  C   UNL A   1      41.649  34.835  38.235  1.00  0.00     0.010 A 
ATOM     97  C   UNL A   1      40.533  34.050  40.675  1.00  0.00     0.020 A 
ATOM     98  C   UNL A   1      41.883  35.600  39.380  1.00  0.00     0.020 A 
ATOM     99  C   UNL A   1      41.312  35.209  40.592  1.00  0.00     0.054 A 
BRANCH  99 100
ATOM    100  S   UNL A   1      41.603  36.176  42.099  1.00  0.00     0.124 S 
ATOM    101  O   UNL A   1      42.976  36.633  41.905  1.00  0.00    -0.237 OA
ATOM    102  O   UNL A   1      40.578  37.213  42.016  1.00  0.00    -0.237 OA
ATOM    103  O   UNL A   1      41.416  35.205  43.175  1.00  0.00    -0.744 OA
ENDBRANCH  99 100
ENDBRANCH  73  94
ENDBRANCH  47  48
ENDBRANCH  40  42
ENDBRANCH  39  40
ENDBRANCH  38  39
ENDBRANCH  37  38
ENDBRANCH  36  37
ENDBRANCH  35  36
ENDBRANCH  34  35
ENDBRANCH   1  34
TORSDOF 28
ENDMDL
