MODEL 1
REMARK VINA RESULT:      -9.8      0.000      0.000
REMARK SMILES C[N@H+]1CCN(C(=O)c2cnn3c2CCCC3)C[C@@H]1C(=O)OCCOCCOCCOCCOC(=O)c1ccc(-c2c3nc(c(-c4ccc(S(=O)(=O)[O-])cc4)c4ccc([nH]4)c(-c4ccc(S(=O)(=O)[O-])cc4)c4nc(c(-c5ccc(S(=O)(=O)[O-])cc5)c5ccc2[nH]5)C=C4)C=C3)cc1
REMARK SMILES IDX 28 1 27 2 26 3 25 4 24 5 23 6 22 7 21 8 19 9 20 10 18 11
REMARK SMILES IDX 1 12 2 13 3 14 4 16 17 17 5 18 6 19 7 20 8 21 9 22 12 23
REMARK SMILES IDX 10 24 11 25 13 26 16 27 14 28 15 29 29 30 30 31 31 32 32 33
REMARK SMILES IDX 33 34 34 35 35 36 36 37 37 38 95 39 38 40 94 41 39 42 40 43
REMARK SMILES IDX 41 44 88 45 42 46 93 47 87 48 89 49 43 50 92 51 86 52 85 53
REMARK SMILES IDX 44 55 74 56 55 57 73 58 56 59 59 60 72 61 90 62 57 63 58 64
REMARK SMILES IDX 71 66 91 67 60 68 45 69 46 70 54 71 47 72 53 73 48 74 49 75
REMARK SMILES IDX 50 76 51 77 52 78 75 79 76 80 84 81 77 82 83 83 78 84 79 85
REMARK SMILES IDX 80 86 81 87 82 88 61 89 62 90 70 91 63 92 69 93 64 94 65 95
REMARK SMILES IDX 66 96 67 97 68 98
REMARK H PARENT 2 15 89 54 59 65
REMARK Flexibility Score: inf
ROOT
ATOM      1  C   UNL A   1      34.104  35.845  28.386  1.00  0.00     0.188 C 
ENDROOT
BRANCH   1   2
ATOM      2  O   UNL A   1      34.235  34.563  27.799  1.00  0.00    -0.377 OA
BRANCH   2   3
ATOM      3  C   UNL A   1      35.186  33.701  28.401  1.00  0.00     0.188 C 
BRANCH   3   4
ATOM      4  C   UNL A   1      34.586  32.503  29.188  1.00  0.00     0.188 C 
BRANCH   4   5
ATOM      5  O   UNL A   1      34.611  31.181  28.654  1.00  0.00    -0.376 OA
BRANCH   5   6
ATOM      6  C   UNL A   1      34.123  30.976  27.343  1.00  0.00     0.202 C 
BRANCH   6   7
ATOM      7  C   UNL A   1      33.382  29.658  27.051  1.00  0.00     0.261 C 
BRANCH   7   8
ATOM      8  O   UNL A   1      33.276  29.292  25.656  1.00  0.00    -0.459 OA
BRANCH   8   9
ATOM      9  C   UNL A   1      32.110  29.575  25.030  1.00  0.00     0.366 C 
ATOM     10  O   UNL A   1      31.315  30.406  25.466  1.00  0.00    -0.245 OA
BRANCH   9  11
ATOM     11  C   UNL A   1      31.790  28.726  23.772  1.00  0.00     0.314 C 
ATOM     12  C   UNL A   1      29.950  29.743  22.387  1.00  0.00     0.333 C 
ATOM     13  N   UNL A   1      30.387  28.720  23.311  1.00  0.00    -0.323 N 
ATOM     14  C   UNL A   1      29.510  27.568  23.486  1.00  0.00     0.284 C 
ATOM     15  H   UNL A   1      30.178  29.075  24.244  1.00  0.00     0.348 HD
ATOM     16  C   UNL A   1      30.116  26.264  24.034  1.00  0.00     0.181 C 
ATOM     17  C   UNL A   1      32.332  27.298  24.037  1.00  0.00     0.197 C 
ATOM     18  N   UNL A   1      31.360  26.468  24.758  1.00  0.00    -0.326 N 
BRANCH  18  19
ATOM     19  C   UNL A   1      31.562  25.798  25.961  1.00  0.00     0.257 C 
ATOM     20  O   UNL A   1      31.277  26.299  27.047  1.00  0.00    -0.269 OA
BRANCH  19  21
ATOM     21  C   UNL A   1      32.012  24.424  25.892  1.00  0.00     0.081 A 
ATOM     22  C   UNL A   1      31.280  23.215  25.913  1.00  0.00     0.149 A 
ATOM     23  C   UNL A   1      33.319  24.020  25.691  1.00  0.00     0.051 A 
ATOM     24  N   UNL A   1      32.066  22.133  25.836  1.00  0.00    -0.180 NA
ATOM     25  N   UNL A   1      33.295  22.655  25.714  1.00  0.00    -0.269 N 
ATOM     26  C   UNL A   1      34.570  24.783  25.437  1.00  0.00     0.057 C 
ATOM     27  C   UNL A   1      34.466  21.802  25.665  1.00  0.00     0.144 C 
ATOM     28  C   UNL A   1      35.819  23.928  25.659  1.00  0.00     0.008 C 
ATOM     29  C   UNL A   1      35.658  22.532  25.047  1.00  0.00     0.024 C 
ENDBRANCH  19  21
ENDBRANCH  18  19
ENDBRANCH   9  11
ENDBRANCH   8   9
ENDBRANCH   7   8
ENDBRANCH   6   7
ENDBRANCH   5   6
ENDBRANCH   4   5
ENDBRANCH   3   4
ENDBRANCH   2   3
ENDBRANCH   1   2
BRANCH   1  30
ATOM     30  C   UNL A   1      33.032  35.975  29.485  1.00  0.00     0.188 C 
BRANCH  30  31
ATOM     31  O   UNL A   1      33.206  37.105  30.334  1.00  0.00    -0.376 OA
BRANCH  31  32
ATOM     32  C   UNL A   1      32.932  37.040  31.721  1.00  0.00     0.202 C 
BRANCH  32  33
ATOM     33  C   UNL A   1      34.069  36.644  32.664  1.00  0.00     0.261 C 
BRANCH  33  34
ATOM     34  O   UNL A   1      35.002  35.724  32.132  1.00  0.00    -0.460 OA
BRANCH  34  35
ATOM     35  C   UNL A   1      34.719  34.440  32.379  1.00  0.00     0.338 C 
ATOM     36  O   UNL A   1      33.610  33.900  32.297  1.00  0.00    -0.246 OA
BRANCH  35  37
ATOM     37  C   UNL A   1      35.915  33.780  32.888  1.00  0.00     0.060 A 
ATOM     38  C   UNL A   1      37.133  34.329  32.497  1.00  0.00     0.016 A 
ATOM     39  C   UNL A   1      35.804  32.483  33.420  1.00  0.00     0.016 A 
ATOM     40  C   UNL A   1      38.195  33.473  32.365  1.00  0.00     0.010 A 
ATOM     41  C   UNL A   1      36.869  31.628  33.285  1.00  0.00     0.010 A 
ATOM     42  C   UNL A   1      38.008  32.113  32.657  1.00  0.00    -0.014 A 
BRANCH  42  43
ATOM     43  C   UNL A   1      39.088  31.221  32.316  1.00  0.00     0.031 A 
ATOM     44  C   UNL A   1      39.927  30.894  33.478  1.00  0.00     0.074 A 
ATOM     45  C   UNL A   1      39.309  30.757  31.074  1.00  0.00     0.049 A 
ATOM     46  N   UNL A   1      41.069  31.415  33.773  1.00  0.00    -0.248 NA
ATOM     47  C   UNL A   1      39.331  30.072  34.539  1.00  0.00     0.031 C 
ATOM     48  C   UNL A   1      38.431  30.801  29.903  1.00  0.00     0.029 A 
ATOM     49  N   UNL A   1      40.380  30.054  30.630  1.00  0.00    -0.354 N 
ATOM     50  C   UNL A   1      41.448  30.812  34.959  1.00  0.00     0.074 A 
ATOM     51  C   UNL A   1      40.271  30.161  35.481  1.00  0.00     0.031 C 
ATOM     52  C   UNL A   1      38.907  29.951  28.963  1.00  0.00     0.029 A 
ATOM     53  C   UNL A   1      40.193  29.434  29.405  1.00  0.00     0.049 A 
ATOM     54  H   UNL A   1      41.222  29.990  31.137  1.00  0.00     0.167 HD
ATOM     55  C   UNL A   1      42.759  30.661  35.281  1.00  0.00     0.031 A 
ATOM     56  C   UNL A   1      41.018  28.512  28.849  1.00  0.00     0.031 A 
ATOM     57  C   UNL A   1      43.613  31.479  34.459  1.00  0.00     0.049 A 
ATOM     58  C   UNL A   1      42.356  28.694  29.471  1.00  0.00     0.074 A 
ATOM     59  C   UNL A   1      43.772  32.835  34.264  1.00  0.00     0.029 A 
ATOM     60  N   UNL A   1      44.200  30.860  33.381  1.00  0.00    -0.354 N 
ATOM     61  N   UNL A   1      43.086  29.762  29.301  1.00  0.00    -0.248 NA
ATOM     62  C   UNL A   1      42.692  27.894  30.639  1.00  0.00     0.031 C 
ATOM     63  C   UNL A   1      44.065  32.980  32.876  1.00  0.00     0.029 A 
ATOM     64  C   UNL A   1      44.125  31.706  32.305  1.00  0.00     0.049 A 
ATOM     65  H   UNL A   1      44.606  29.963  33.381  1.00  0.00     0.167 HD
ATOM     66  C   UNL A   1      43.666  30.002  30.539  1.00  0.00     0.074 A 
ATOM     67  C   UNL A   1      43.470  28.763  31.290  1.00  0.00     0.031 C 
ATOM     68  C   UNL A   1      44.006  31.267  30.928  1.00  0.00     0.031 A 
BRANCH  55  69
ATOM     69  C   UNL A   1      43.269  29.459  36.025  1.00  0.00    -0.014 A 
ATOM     70  C   UNL A   1      44.199  29.646  37.064  1.00  0.00     0.010 A 
ATOM     71  C   UNL A   1      43.074  28.141  35.560  1.00  0.00     0.010 A 
ATOM     72  C   UNL A   1      44.926  28.568  37.580  1.00  0.00     0.020 A 
ATOM     73  C   UNL A   1      43.760  27.055  36.097  1.00  0.00     0.020 A 
ATOM     74  C   UNL A   1      44.705  27.280  37.086  1.00  0.00     0.054 A 
BRANCH  74  75
ATOM     75  S   UNL A   1      45.705  25.908  37.704  1.00  0.00     0.124 S 
ATOM     76  O   UNL A   1      44.683  24.997  38.213  1.00  0.00    -0.237 OA
ATOM     77  O   UNL A   1      46.404  25.470  36.499  1.00  0.00    -0.237 OA
ATOM     78  O   UNL A   1      46.551  26.531  38.719  1.00  0.00    -0.744 OA
ENDBRANCH  74  75
ENDBRANCH  55  69
BRANCH  56  79
ATOM     79  C   UNL A   1      40.620  27.259  28.158  1.00  0.00    -0.014 A 
ATOM     80  C   UNL A   1      41.322  26.802  27.027  1.00  0.00     0.010 A 
ATOM     81  C   UNL A   1      39.738  26.356  28.789  1.00  0.00     0.010 A 
ATOM     82  C   UNL A   1      41.199  25.472  26.586  1.00  0.00     0.020 A 
ATOM     83  C   UNL A   1      39.605  25.032  28.353  1.00  0.00     0.020 A 
ATOM     84  C   UNL A   1      40.356  24.590  27.267  1.00  0.00     0.054 A 
BRANCH  84  85
ATOM     85  S   UNL A   1      40.339  22.830  26.807  1.00  0.00     0.124 S 
ATOM     86  O   UNL A   1      41.381  22.766  25.786  1.00  0.00    -0.237 OA
ATOM     87  O   UNL A   1      40.650  22.169  28.071  1.00  0.00    -0.237 OA
ATOM     88  O   UNL A   1      38.978  22.616  26.318  1.00  0.00    -0.744 OA
ENDBRANCH  84  85
ENDBRANCH  56  79
BRANCH  68  89
ATOM     89  C   UNL A   1      44.074  32.345  29.869  1.00  0.00    -0.014 A 
ATOM     90  C   UNL A   1      45.134  32.497  28.954  1.00  0.00     0.010 A 
ATOM     91  C   UNL A   1      42.939  33.162  29.716  1.00  0.00     0.010 A 
ATOM     92  C   UNL A   1      45.068  33.461  27.933  1.00  0.00     0.020 A 
ATOM     93  C   UNL A   1      42.858  34.108  28.693  1.00  0.00     0.020 A 
ATOM     94  C   UNL A   1      43.927  34.262  27.812  1.00  0.00     0.054 A 
BRANCH  94  95
ATOM     95  S   UNL A   1      43.826  35.485  26.474  1.00  0.00     0.124 S 
ATOM     96  O   UNL A   1      42.407  35.830  26.467  1.00  0.00    -0.237 OA
ATOM     97  O   UNL A   1      44.728  36.540  26.929  1.00  0.00    -0.237 OA
ATOM     98  O   UNL A   1      44.288  34.751  25.296  1.00  0.00    -0.744 OA
ENDBRANCH  94  95
ENDBRANCH  68  89
ENDBRANCH  42  43
ENDBRANCH  35  37
ENDBRANCH  34  35
ENDBRANCH  33  34
ENDBRANCH  32  33
ENDBRANCH  31  32
ENDBRANCH  30  31
ENDBRANCH   1  30
TORSDOF 25
ENDMDL
MODEL 2
REMARK VINA RESULT:      -9.6      2.813      9.593
REMARK SMILES C[N@H+]1CCN(C(=O)c2cnn3c2CCCC3)C[C@@H]1C(=O)OCCOCCOCCOCCOC(=O)c1ccc(-c2c3nc(c(-c4ccc(S(=O)(=O)[O-])cc4)c4ccc([nH]4)c(-c4ccc(S(=O)(=O)[O-])cc4)c4nc(c(-c5ccc(S(=O)(=O)[O-])cc5)c5ccc2[nH]5)C=C4)C=C3)cc1
REMARK SMILES IDX 28 1 27 2 26 3 25 4 24 5 23 6 22 7 21 8 19 9 20 10 18 11
REMARK SMILES IDX 1 12 2 13 3 14 4 16 17 17 5 18 6 19 7 20 8 21 9 22 12 23
REMARK SMILES IDX 10 24 11 25 13 26 16 27 14 28 15 29 29 30 30 31 31 32 32 33
REMARK SMILES IDX 33 34 34 35 35 36 36 37 37 38 95 39 38 40 94 41 39 42 40 43
REMARK SMILES IDX 41 44 88 45 42 46 93 47 87 48 89 49 43 50 92 51 86 52 85 53
REMARK SMILES IDX 44 55 74 56 55 57 73 58 56 59 59 60 72 61 90 62 57 63 58 64
REMARK SMILES IDX 71 66 91 67 60 68 45 69 46 70 54 71 47 72 53 73 48 74 49 75
REMARK SMILES IDX 50 76 51 77 52 78 75 79 76 80 84 81 77 82 83 83 78 84 79 85
REMARK SMILES IDX 80 86 81 87 82 88 61 89 62 90 70 91 63 92 69 93 64 94 65 95
REMARK SMILES IDX 66 96 67 97 68 98
REMARK H PARENT 2 15 89 54 59 65
REMARK Flexibility Score: inf
ROOT
ATOM      1  C   UNL A   1      38.028  20.516  25.267  1.00  0.00     0.188 C 
ENDROOT
BRANCH   1   2
ATOM      2  O   UNL A   1      36.871  21.302  25.495  1.00  0.00    -0.377 OA
BRANCH   2   3
ATOM      3  C   UNL A   1      37.103  22.650  25.866  1.00  0.00     0.188 C 
BRANCH   3   4
ATOM      4  C   UNL A   1      35.865  23.583  25.775  1.00  0.00     0.188 C 
BRANCH   4   5
ATOM      5  O   UNL A   1      35.756  24.571  24.753  1.00  0.00    -0.376 OA
BRANCH   5   6
ATOM      6  C   UNL A   1      34.465  24.939  24.307  1.00  0.00     0.202 C 
BRANCH   6   7
ATOM      7  C   UNL A   1      33.986  26.373  24.600  1.00  0.00     0.261 C 
BRANCH   7   8
ATOM      8  O   UNL A   1      33.634  27.166  23.444  1.00  0.00    -0.459 OA
BRANCH   8   9
ATOM      9  C   UNL A   1      32.553  27.974  23.555  1.00  0.00     0.366 C 
ATOM     10  O   UNL A   1      32.496  28.883  24.381  1.00  0.00    -0.245 OA
BRANCH   9  11
ATOM     11  C   UNL A   1      31.353  27.633  22.635  1.00  0.00     0.314 C 
ATOM     12  C   UNL A   1      30.045  29.685  21.987  1.00  0.00     0.333 C 
ATOM     13  N   UNL A   1      30.147  28.475  22.773  1.00  0.00    -0.323 N 
ATOM     14  C   UNL A   1      28.927  27.997  23.415  1.00  0.00     0.284 C 
ATOM     15  H   UNL A   1      30.558  28.752  23.665  1.00  0.00     0.348 HD
ATOM     16  C   UNL A   1      28.848  26.516  23.823  1.00  0.00     0.181 C 
ATOM     17  C   UNL A   1      31.046  26.126  22.826  1.00  0.00     0.197 C 
ATOM     18  N   UNL A   1      30.151  25.888  23.964  1.00  0.00    -0.326 N 
BRANCH  18  19
ATOM     19  C   UNL A   1      30.390  25.059  25.056  1.00  0.00     0.257 C 
ATOM     20  O   UNL A   1      29.956  25.311  26.179  1.00  0.00    -0.269 OA
BRANCH  19  21
ATOM     21  C   UNL A   1      31.071  23.806  24.807  1.00  0.00     0.081 A 
ATOM     22  C   UNL A   1      31.210  23.056  23.618  1.00  0.00     0.149 A 
ATOM     23  C   UNL A   1      31.836  23.115  25.730  1.00  0.00     0.051 A 
ATOM     24  N   UNL A   1      31.915  21.932  23.795  1.00  0.00    -0.180 NA
ATOM     25  N   UNL A   1      32.270  21.992  25.086  1.00  0.00    -0.269 N 
ATOM     26  C   UNL A   1      32.232  23.427  27.128  1.00  0.00     0.057 C 
ATOM     27  C   UNL A   1      33.007  20.910  25.708  1.00  0.00     0.144 C 
ATOM     28  C   UNL A   1      32.760  22.193  27.864  1.00  0.00     0.008 C 
ATOM     29  C   UNL A   1      33.712  21.380  26.980  1.00  0.00     0.024 C 
ENDBRANCH  19  21
ENDBRANCH  18  19
ENDBRANCH   9  11
ENDBRANCH   8   9
ENDBRANCH   7   8
ENDBRANCH   6   7
ENDBRANCH   5   6
ENDBRANCH   4   5
ENDBRANCH   3   4
ENDBRANCH   2   3
ENDBRANCH   1   2
BRANCH   1  30
ATOM     30  C   UNL A   1      39.362  21.136  25.723  1.00  0.00     0.188 C 
BRANCH  30  31
ATOM     31  O   UNL A   1      40.122  20.302  26.592  1.00  0.00    -0.376 OA
BRANCH  31  32
ATOM     32  C   UNL A   1      41.037  19.346  26.090  1.00  0.00     0.202 C 
BRANCH  32  33
ATOM     33  C   UNL A   1      42.533  19.622  26.255  1.00  0.00     0.261 C 
BRANCH  33  34
ATOM     34  O   UNL A   1      43.089  20.519  25.314  1.00  0.00    -0.460 OA
BRANCH  34  35
ATOM     35  C   UNL A   1      43.823  21.501  25.850  1.00  0.00     0.338 C 
ATOM     36  O   UNL A   1      45.054  21.596  25.831  1.00  0.00    -0.246 OA
BRANCH  35  37
ATOM     37  C   UNL A   1      42.943  22.403  26.583  1.00  0.00     0.060 A 
ATOM     38  C   UNL A   1      42.150  23.249  25.812  1.00  0.00     0.016 A 
ATOM     39  C   UNL A   1      43.180  22.625  27.951  1.00  0.00     0.016 A 
ATOM     40  C   UNL A   1      41.838  24.474  26.343  1.00  0.00     0.010 A 
ATOM     41  C   UNL A   1      42.868  23.853  28.478  1.00  0.00     0.010 A 
ATOM     42  C   UNL A   1      42.302  24.793  27.628  1.00  0.00    -0.014 A 
BRANCH  42  43
ATOM     43  C   UNL A   1      42.122  26.155  28.064  1.00  0.00     0.031 A 
ATOM     44  C   UNL A   1      43.265  27.009  27.707  1.00  0.00     0.074 A 
ATOM     45  C   UNL A   1      41.040  26.588  28.733  1.00  0.00     0.049 A 
ATOM     46  N   UNL A   1      44.224  27.376  28.488  1.00  0.00    -0.248 NA
ATOM     47  C   UNL A   1      43.485  27.294  26.284  1.00  0.00     0.031 C 
ATOM     48  C   UNL A   1      39.751  25.922  28.931  1.00  0.00     0.029 A 
ATOM     49  N   UNL A   1      40.856  27.796  29.320  1.00  0.00    -0.354 N 
ATOM     50  C   UNL A   1      45.064  28.139  27.697  1.00  0.00     0.074 A 
ATOM     51  C   UNL A   1      44.679  27.887  26.330  1.00  0.00     0.031 C 
ATOM     52  C   UNL A   1      38.852  26.828  29.383  1.00  0.00     0.029 A 
ATOM     53  C   UNL A   1      39.541  28.081  29.650  1.00  0.00     0.049 A 
ATOM     54  H   UNL A   1      41.597  28.420  29.498  1.00  0.00     0.167 HD
ATOM     55  C   UNL A   1      45.828  29.125  28.235  1.00  0.00     0.031 A 
ATOM     56  C   UNL A   1      39.067  29.289  30.046  1.00  0.00     0.031 A 
ATOM     57  C   UNL A   1      45.908  29.024  29.669  1.00  0.00     0.049 A 
ATOM     58  C   UNL A   1      40.223  30.056  30.580  1.00  0.00     0.074 A 
ATOM     59  C   UNL A   1      46.409  28.093  30.556  1.00  0.00     0.029 A 
ATOM     60  N   UNL A   1      45.048  29.821  30.388  1.00  0.00    -0.354 N 
ATOM     61  N   UNL A   1      40.869  29.717  31.661  1.00  0.00    -0.248 NA
ATOM     62  C   UNL A   1      40.945  30.939  29.676  1.00  0.00     0.031 C 
ATOM     63  C   UNL A   1      45.506  28.106  31.659  1.00  0.00     0.029 A 
ATOM     64  C   UNL A   1      44.532  29.078  31.418  1.00  0.00     0.049 A 
ATOM     65  H   UNL A   1      44.839  30.764  30.196  1.00  0.00     0.167 HD
ATOM     66  C   UNL A   1      42.203  29.978  31.378  1.00  0.00     0.074 A 
ATOM     67  C   UNL A   1      42.174  30.823  30.186  1.00  0.00     0.031 C 
ATOM     68  C   UNL A   1      43.205  29.264  31.973  1.00  0.00     0.031 A 
BRANCH  55  69
ATOM     69  C   UNL A   1      46.120  30.404  27.501  1.00  0.00    -0.014 A 
ATOM     70  C   UNL A   1      47.441  30.882  27.465  1.00  0.00     0.010 A 
ATOM     71  C   UNL A   1      45.101  31.286  27.081  1.00  0.00     0.010 A 
ATOM     72  C   UNL A   1      47.721  32.194  27.068  1.00  0.00     0.020 A 
ATOM     73  C   UNL A   1      45.372  32.579  26.642  1.00  0.00     0.020 A 
ATOM     74  C   UNL A   1      46.681  33.035  26.666  1.00  0.00     0.054 A 
BRANCH  74  75
ATOM     75  S   UNL A   1      47.044  34.751  26.230  1.00  0.00     0.124 S 
ATOM     76  O   UNL A   1      48.494  34.719  26.069  1.00  0.00    -0.237 OA
ATOM     77  O   UNL A   1      46.271  34.926  25.004  1.00  0.00    -0.237 OA
ATOM     78  O   UNL A   1      46.556  35.507  27.382  1.00  0.00    -0.744 OA
ENDBRANCH  74  75
ENDBRANCH  55  69
BRANCH  56  79
ATOM     79  C   UNL A   1      37.806  29.941  29.606  1.00  0.00    -0.014 A 
ATOM     80  C   UNL A   1      36.840  30.351  30.543  1.00  0.00     0.010 A 
ATOM     81  C   UNL A   1      37.688  30.429  28.288  1.00  0.00     0.010 A 
ATOM     82  C   UNL A   1      35.834  31.270  30.192  1.00  0.00     0.020 A 
ATOM     83  C   UNL A   1      36.687  31.339  27.928  1.00  0.00     0.020 A 
ATOM     84  C   UNL A   1      35.779  31.774  28.890  1.00  0.00     0.054 A 
BRANCH  84  85
ATOM     85  S   UNL A   1      34.595  33.096  28.489  1.00  0.00     0.124 S 
ATOM     86  O   UNL A   1      34.440  33.773  29.773  1.00  0.00    -0.237 OA
ATOM     87  O   UNL A   1      35.298  33.850  27.456  1.00  0.00    -0.237 OA
ATOM     88  O   UNL A   1      33.414  32.369  28.025  1.00  0.00    -0.744 OA
ENDBRANCH  84  85
ENDBRANCH  56  79
BRANCH  68  89
ATOM     89  C   UNL A   1      42.865  28.440  33.196  1.00  0.00    -0.014 A 
ATOM     90  C   UNL A   1      42.905  27.032  33.243  1.00  0.00     0.010 A 
ATOM     91  C   UNL A   1      42.621  29.141  34.390  1.00  0.00     0.010 A 
ATOM     92  C   UNL A   1      42.677  26.349  34.449  1.00  0.00     0.020 A 
ATOM     93  C   UNL A   1      42.413  28.469  35.597  1.00  0.00     0.020 A 
ATOM     94  C   UNL A   1      42.430  27.075  35.619  1.00  0.00     0.054 A 
BRANCH  94  95
ATOM     95  S   UNL A   1      42.169  26.195  37.186  1.00  0.00     0.124 S 
ATOM     96  O   UNL A   1      42.245  24.795  36.780  1.00  0.00    -0.237 OA
ATOM     97  O   UNL A   1      43.274  26.671  38.014  1.00  0.00    -0.237 OA
ATOM     98  O   UNL A   1      40.845  26.640  37.619  1.00  0.00    -0.744 OA
ENDBRANCH  94  95
ENDBRANCH  68  89
ENDBRANCH  42  43
ENDBRANCH  35  37
ENDBRANCH  34  35
ENDBRANCH  33  34
ENDBRANCH  32  33
ENDBRANCH  31  32
ENDBRANCH  30  31
ENDBRANCH   1  30
TORSDOF 25
ENDMDL
MODEL 3
REMARK VINA RESULT:      -9.5      2.552      9.549
REMARK SMILES C[N@H+]1CCN(C(=O)c2cnn3c2CCCC3)C[C@@H]1C(=O)OCCOCCOCCOCCOC(=O)c1ccc(-c2c3nc(c(-c4ccc(S(=O)(=O)[O-])cc4)c4ccc([nH]4)c(-c4ccc(S(=O)(=O)[O-])cc4)c4nc(c(-c5ccc(S(=O)(=O)[O-])cc5)c5ccc2[nH]5)C=C4)C=C3)cc1
REMARK SMILES IDX 28 1 27 2 26 3 25 4 24 5 23 6 22 7 21 8 19 9 20 10 18 11
REMARK SMILES IDX 1 12 2 13 3 14 4 16 17 17 5 18 6 19 7 20 8 21 9 22 12 23
REMARK SMILES IDX 10 24 11 25 13 26 16 27 14 28 15 29 29 30 30 31 31 32 32 33
REMARK SMILES IDX 33 34 34 35 35 36 36 37 37 38 95 39 38 40 94 41 39 42 40 43
REMARK SMILES IDX 41 44 88 45 42 46 93 47 87 48 89 49 43 50 92 51 86 52 85 53
REMARK SMILES IDX 44 55 74 56 55 57 73 58 56 59 59 60 72 61 90 62 57 63 58 64
REMARK SMILES IDX 71 66 91 67 60 68 45 69 46 70 54 71 47 72 53 73 48 74 49 75
REMARK SMILES IDX 50 76 51 77 52 78 75 79 76 80 84 81 77 82 83 83 78 84 79 85
REMARK SMILES IDX 80 86 81 87 82 88 61 89 62 90 70 91 63 92 69 93 64 94 65 95
REMARK SMILES IDX 66 96 67 97 68 98
REMARK H PARENT 2 15 89 54 59 65
REMARK Flexibility Score: inf
ROOT
ATOM      1  C   UNL A   1      36.573  21.215  25.348  1.00  0.00     0.188 C 
ENDROOT
BRANCH   1   2
ATOM      2  O   UNL A   1      35.614  22.206  25.671  1.00  0.00    -0.377 OA
BRANCH   2   3
ATOM      3  C   UNL A   1      34.642  21.835  26.632  1.00  0.00     0.188 C 
BRANCH   3   4
ATOM      4  C   UNL A   1      33.269  22.550  26.493  1.00  0.00     0.188 C 
BRANCH   4   5
ATOM      5  O   UNL A   1      33.077  23.882  26.963  1.00  0.00    -0.376 OA
BRANCH   5   6
ATOM      6  C   UNL A   1      33.370  24.953  26.086  1.00  0.00     0.202 C 
BRANCH   6   7
ATOM      7  C   UNL A   1      32.430  26.173  26.105  1.00  0.00     0.261 C 
BRANCH   7   8
ATOM      8  O   UNL A   1      33.065  27.452  26.332  1.00  0.00    -0.459 OA
BRANCH   8   9
ATOM      9  C   UNL A   1      32.255  28.514  26.551  1.00  0.00     0.366 C 
ATOM     10  O   UNL A   1      31.455  28.548  27.484  1.00  0.00    -0.245 OA
BRANCH   9  11
ATOM     11  C   UNL A   1      32.332  29.655  25.504  1.00  0.00     0.314 C 
ATOM     12  C   UNL A   1      31.408  31.821  26.395  1.00  0.00     0.333 C 
ATOM     13  N   UNL A   1      31.255  30.665  25.539  1.00  0.00    -0.323 N 
ATOM     14  C   UNL A   1      30.201  30.722  24.532  1.00  0.00     0.284 C 
ATOM     15  H   UNL A   1      30.750  29.971  26.090  1.00  0.00     0.348 HD
ATOM     16  C   UNL A   1      30.305  29.792  23.311  1.00  0.00     0.181 C 
ATOM     17  C   UNL A   1      32.471  28.987  24.113  1.00  0.00     0.197 C 
ATOM     18  N   UNL A   1      31.166  28.642  23.536  1.00  0.00    -0.326 N 
BRANCH  18  19
ATOM     19  C   UNL A   1      30.750  27.388  23.102  1.00  0.00     0.257 C 
ATOM     20  O   UNL A   1      29.563  27.066  23.064  1.00  0.00    -0.269 OA
BRANCH  19  21
ATOM     21  C   UNL A   1      31.759  26.496  22.570  1.00  0.00     0.081 A 
ATOM     22  C   UNL A   1      32.952  26.775  21.866  1.00  0.00     0.149 A 
ATOM     23  C   UNL A   1      31.785  25.124  22.744  1.00  0.00     0.051 A 
ATOM     24  N   UNL A   1      33.625  25.666  21.530  1.00  0.00    -0.180 NA
ATOM     25  N   UNL A   1      32.887  24.685  22.067  1.00  0.00    -0.269 N 
ATOM     26  C   UNL A   1      30.911  24.201  23.514  1.00  0.00     0.057 C 
ATOM     27  C   UNL A   1      33.243  23.293  21.874  1.00  0.00     0.144 C 
ATOM     28  C   UNL A   1      31.110  22.742  23.097  1.00  0.00     0.008 C 
ATOM     29  C   UNL A   1      32.595  22.403  22.935  1.00  0.00     0.024 C 
ENDBRANCH  19  21
ENDBRANCH  18  19
ENDBRANCH   9  11
ENDBRANCH   8   9
ENDBRANCH   7   8
ENDBRANCH   6   7
ENDBRANCH   5   6
ENDBRANCH   4   5
ENDBRANCH   3   4
ENDBRANCH   2   3
ENDBRANCH   1   2
BRANCH   1  30
ATOM     30  C   UNL A   1      38.009  21.720  25.109  1.00  0.00     0.188 C 
BRANCH  30  31
ATOM     31  O   UNL A   1      38.876  21.553  26.226  1.00  0.00    -0.376 OA
BRANCH  31  32
ATOM     32  C   UNL A   1      39.941  20.620  26.205  1.00  0.00     0.202 C 
BRANCH  32  33
ATOM     33  C   UNL A   1      41.350  21.126  26.514  1.00  0.00     0.261 C 
BRANCH  33  34
ATOM     34  O   UNL A   1      42.057  21.658  25.410  1.00  0.00    -0.460 OA
BRANCH  34  35
ATOM     35  C   UNL A   1      42.773  22.754  25.686  1.00  0.00     0.338 C 
ATOM     36  O   UNL A   1      43.964  22.944  25.415  1.00  0.00    -0.246 OA
BRANCH  35  37
ATOM     37  C   UNL A   1      41.958  23.665  26.479  1.00  0.00     0.060 A 
ATOM     38  C   UNL A   1      41.314  24.682  25.779  1.00  0.00     0.016 A 
ATOM     39  C   UNL A   1      42.135  23.700  27.874  1.00  0.00     0.016 A 
ATOM     40  C   UNL A   1      41.111  25.867  26.437  1.00  0.00     0.010 A 
ATOM     41  C   UNL A   1      41.931  24.889  28.529  1.00  0.00     0.010 A 
ATOM     42  C   UNL A   1      41.529  25.980  27.772  1.00  0.00    -0.014 A 
BRANCH  42  43
ATOM     43  C   UNL A   1      41.477  27.296  28.359  1.00  0.00     0.031 A 
ATOM     44  C   UNL A   1      42.691  28.078  28.079  1.00  0.00     0.074 A 
ATOM     45  C   UNL A   1      40.445  27.746  29.091  1.00  0.00     0.049 A 
ATOM     46  N   UNL A   1      43.685  28.267  28.878  1.00  0.00    -0.248 NA
ATOM     47  C   UNL A   1      42.925  28.499  26.692  1.00  0.00     0.031 C 
ATOM     48  C   UNL A   1      39.102  27.181  29.238  1.00  0.00     0.029 A 
ATOM     49  N   UNL A   1      40.377  28.893  29.812  1.00  0.00    -0.354 N 
ATOM     50  C   UNL A   1      44.585  29.035  28.161  1.00  0.00     0.074 A 
ATOM     51  C   UNL A   1      44.168  28.974  26.782  1.00  0.00     0.031 C 
ATOM     52  C   UNL A   1      38.293  28.108  29.803  1.00  0.00     0.029 A 
ATOM     53  C   UNL A   1      39.096  29.256  30.195  1.00  0.00     0.049 A 
ATOM     54  H   UNL A   1      41.173  29.424  30.044  1.00  0.00     0.167 HD
ATOM     55  C   UNL A   1      45.440  29.883  28.791  1.00  0.00     0.031 A 
ATOM     56  C   UNL A   1      38.737  30.450  30.731  1.00  0.00     0.031 A 
ATOM     57  C   UNL A   1      45.522  29.615  30.204  1.00  0.00     0.049 A 
ATOM     58  C   UNL A   1      39.962  31.045  31.325  1.00  0.00     0.074 A 
ATOM     59  C   UNL A   1      45.942  28.549  30.972  1.00  0.00     0.029 A 
ATOM     60  N   UNL A   1      44.744  30.401  31.021  1.00  0.00    -0.354 N 
ATOM     61  N   UNL A   1      40.583  30.531  32.350  1.00  0.00    -0.248 NA
ATOM     62  C   UNL A   1      40.755  31.955  30.512  1.00  0.00     0.031 C 
ATOM     63  C   UNL A   1      45.054  28.519  32.087  1.00  0.00     0.029 A 
ATOM     64  C   UNL A   1      44.171  29.597  31.972  1.00  0.00     0.049 A 
ATOM     65  H   UNL A   1      44.621  31.374  30.939  1.00  0.00     0.167 HD
ATOM     66  C   UNL A   1      41.933  30.701  32.074  1.00  0.00     0.074 A 
ATOM     67  C   UNL A   1      41.973  31.673  30.983  1.00  0.00     0.031 C 
ATOM     68  C   UNL A   1      42.870  29.837  32.568  1.00  0.00     0.031 A 
BRANCH  55  69
ATOM     69  C   UNL A   1      45.842  31.203  28.198  1.00  0.00    -0.014 A 
ATOM     70  C   UNL A   1      44.875  32.217  28.074  1.00  0.00     0.010 A 
ATOM     71  C   UNL A   1      47.062  31.387  27.513  1.00  0.00     0.010 A 
ATOM     72  C   UNL A   1      45.106  33.337  27.268  1.00  0.00     0.020 A 
ATOM     73  C   UNL A   1      47.320  32.518  26.745  1.00  0.00     0.020 A 
ATOM     74  C   UNL A   1      46.327  33.475  26.604  1.00  0.00     0.054 A 
BRANCH  74  75
ATOM     75  S   UNL A   1      46.586  34.886  25.505  1.00  0.00     0.124 S 
ATOM     76  O   UNL A   1      46.269  36.010  26.381  1.00  0.00    -0.237 OA
ATOM     77  O   UNL A   1      47.992  34.738  25.142  1.00  0.00    -0.237 OA
ATOM     78  O   UNL A   1      45.638  34.651  24.418  1.00  0.00    -0.744 OA
ENDBRANCH  74  75
ENDBRANCH  55  69
BRANCH  56  79
ATOM     79  C   UNL A   1      37.538  31.257  30.388  1.00  0.00    -0.014 A 
ATOM     80  C   UNL A   1      36.482  31.409  31.306  1.00  0.00     0.010 A 
ATOM     81  C   UNL A   1      37.566  32.124  29.275  1.00  0.00     0.010 A 
ATOM     82  C   UNL A   1      35.530  32.433  31.154  1.00  0.00     0.020 A 
ATOM     83  C   UNL A   1      36.619  33.142  29.113  1.00  0.00     0.020 A 
ATOM     84  C   UNL A   1      35.619  33.307  30.067  1.00  0.00     0.054 A 
BRANCH  84  85
ATOM     85  S   UNL A   1      34.499  34.738  29.973  1.00  0.00     0.124 S 
ATOM     86  O   UNL A   1      33.191  34.121  30.169  1.00  0.00    -0.237 OA
ATOM     87  O   UNL A   1      34.972  35.583  31.066  1.00  0.00    -0.237 OA
ATOM     88  O   UNL A   1      34.738  35.272  28.633  1.00  0.00    -0.744 OA
ENDBRANCH  84  85
ENDBRANCH  56  79
BRANCH  68  89
ATOM     89  C   UNL A   1      42.466  28.916  33.698  1.00  0.00    -0.014 A 
ATOM     90  C   UNL A   1      41.819  27.677  33.522  1.00  0.00     0.010 A 
ATOM     91  C   UNL A   1      42.885  29.271  34.993  1.00  0.00     0.010 A 
ATOM     92  C   UNL A   1      41.574  26.833  34.619  1.00  0.00     0.020 A 
ATOM     93  C   UNL A   1      42.662  28.430  36.084  1.00  0.00     0.020 A 
ATOM     94  C   UNL A   1      41.997  27.219  35.895  1.00  0.00     0.054 A 
BRANCH  94  95
ATOM     95  S   UNL A   1      41.712  26.116  37.309  1.00  0.00     0.124 S 
ATOM     96  O   UNL A   1      42.835  26.429  38.188  1.00  0.00    -0.237 OA
ATOM     97  O   UNL A   1      40.399  26.538  37.790  1.00  0.00    -0.237 OA
ATOM     98  O   UNL A   1      41.746  24.778  36.719  1.00  0.00    -0.744 OA
ENDBRANCH  94  95
ENDBRANCH  68  89
ENDBRANCH  42  43
ENDBRANCH  35  37
ENDBRANCH  34  35
ENDBRANCH  33  34
ENDBRANCH  32  33
ENDBRANCH  31  32
ENDBRANCH  30  31
ENDBRANCH   1  30
TORSDOF 25
ENDMDL
