MODEL 1
REMARK VINA RESULT:      -9.8      0.000      0.000
REMARK SMILES CC1=C(C)C[C@@H](C(=O)OCCOCCOCCOCCOC(=O)c2ccc(-c3c4nc(c(-c5ccc(S(=O)(=O)[O-])cc5)c5ccc([nH]5)c(-c5ccc(S(=O)(=O)[O-])cc5)c5nc(c(-c6ccc(S(=O)(=O)[O-])cc6)c6ccc3[nH]6)C=C5)C=C4)cc2)[C@@H](C(=O)N2CCN(c3cccc(C(F)(F)F)c3)CC2)C1
REMARK SMILES IDX 15 1 14 2 13 3 12 4 11 5 10 6 9 7 7 8 8 9 6 10 1 11 2 12
REMARK SMILES IDX 3 13 103 14 4 15 5 16 84 17 85 18 86 19 87 20 88 21 102 22
REMARK SMILES IDX 89 23 101 24 90 25 91 26 92 27 100 28 93 29 95 30 94 31
REMARK SMILES IDX 96 32 97 33 98 34 99 35 16 36 17 37 18 38 19 39 20 40 21 41
REMARK SMILES IDX 22 42 23 43 24 44 25 45 83 46 26 47 82 48 27 49 28 50 29 51
REMARK SMILES IDX 76 52 30 53 81 54 75 55 77 56 31 57 80 58 74 59 73 60 32 62
REMARK SMILES IDX 62 63 43 64 61 65 44 66 47 67 60 68 78 69 45 70 46 71 59 73
REMARK SMILES IDX 79 74 48 75 33 76 34 77 42 78 35 79 41 80 36 81 37 82 38 83
REMARK SMILES IDX 39 84 40 85 63 86 64 87 72 88 65 89 71 90 66 91 67 92 68 93
REMARK SMILES IDX 69 94 70 95 49 96 50 97 58 98 51 99 57 100 52 101 53 102
REMARK SMILES IDX 54 103 55 104 56 105
REMARK H PARENT 77 61 47 72
REMARK Flexibility Score: inf
ROOT
ATOM      1  O   UNL A   1      35.508  20.617  25.147  1.00  0.00    -0.377 OA
ENDROOT
BRANCH   1   2
ATOM      2  C   UNL A   1      34.104  20.647  24.982  1.00  0.00     0.188 C 
BRANCH   2   3
ATOM      3  C   UNL A   1      33.391  21.749  25.765  1.00  0.00     0.188 C 
BRANCH   3   4
ATOM      4  O   UNL A   1      32.010  21.962  25.514  1.00  0.00    -0.376 OA
BRANCH   4   5
ATOM      5  C   UNL A   1      31.256  22.731  26.445  1.00  0.00     0.202 C 
BRANCH   5   6
ATOM      6  C   UNL A   1      31.828  24.059  26.975  1.00  0.00     0.261 C 
BRANCH   6   7
ATOM      7  O   UNL A   1      31.934  25.137  26.012  1.00  0.00    -0.463 OA
BRANCH   7   8
ATOM      8  C   UNL A   1      30.767  25.704  25.663  1.00  0.00     0.310 C 
ATOM      9  O   UNL A   1      30.011  26.217  26.495  1.00  0.00    -0.252 OA
BRANCH   8  10
ATOM     10  C   UNL A   1      30.418  25.827  24.180  1.00  0.00     0.116 C 
ATOM     11  C   UNL A   1      33.648  26.876  21.416  1.00  0.00     0.039 C 
ATOM     12  C   UNL A   1      32.473  26.278  22.137  1.00  0.00    -0.074 C 
ATOM     13  C   UNL A   1      32.468  25.124  22.829  1.00  0.00    -0.073 C 
ATOM     14  C   UNL A   1      31.183  27.050  22.003  1.00  0.00     0.045 C 
ATOM     15  C   UNL A   1      33.623  24.177  22.993  1.00  0.00     0.039 C 
ATOM     16  C   UNL A   1      31.180  24.678  23.469  1.00  0.00     0.046 C 
ATOM     17  C   UNL A   1      30.291  27.087  23.279  1.00  0.00     0.097 C 
BRANCH  17  18
ATOM     18  C   UNL A   1      30.453  28.519  23.795  1.00  0.00     0.227 C 
ATOM     19  O   UNL A   1      29.553  29.345  23.630  1.00  0.00    -0.275 OA
ATOM     20  N   UNL A   1      31.500  28.745  24.725  1.00  0.00    -0.339 N 
ATOM     21  C   UNL A   1      31.399  29.961  25.541  1.00  0.00     0.141 C 
ATOM     22  C   UNL A   1      32.867  28.189  24.616  1.00  0.00     0.141 C 
ATOM     23  C   UNL A   1      32.160  29.890  26.872  1.00  0.00     0.138 C 
ATOM     24  C   UNL A   1      33.736  28.248  25.904  1.00  0.00     0.138 C 
ATOM     25  N   UNL A   1      33.560  29.506  26.634  1.00  0.00    -0.368 N 
BRANCH  25  26
ATOM     26  C   UNL A   1      34.564  30.083  27.395  1.00  0.00     0.037 A 
ATOM     27  C   UNL A   1      34.625  31.464  27.624  1.00  0.00     0.026 A 
ATOM     28  C   UNL A   1      35.660  29.323  27.828  1.00  0.00     0.039 A 
ATOM     29  C   UNL A   1      35.760  32.076  28.167  1.00  0.00     0.003 A 
ATOM     30  C   UNL A   1      36.860  29.931  28.260  1.00  0.00     0.058 A 
ATOM     31  C   UNL A   1      36.888  31.317  28.450  1.00  0.00     0.013 A 
BRANCH  30  32
ATOM     32  C   UNL A   1      38.130  29.129  28.405  1.00  0.00     0.416 C 
ATOM     33  F   UNL A   1      38.111  27.981  27.669  1.00  0.00    -0.166 F 
ATOM     34  F   UNL A   1      39.237  29.810  28.004  1.00  0.00    -0.166 F 
ATOM     35  F   UNL A   1      38.375  28.735  29.687  1.00  0.00    -0.166 F 
ENDBRANCH  30  32
ENDBRANCH  25  26
ENDBRANCH  17  18
ENDBRANCH   8  10
ENDBRANCH   7   8
ENDBRANCH   6   7
ENDBRANCH   5   6
ENDBRANCH   4   5
ENDBRANCH   3   4
ENDBRANCH   2   3
ENDBRANCH   1   2
BRANCH   1  36
ATOM     36  C   UNL A   1      36.338  21.678  24.669  1.00  0.00     0.188 C 
BRANCH  36  37
ATOM     37  C   UNL A   1      37.732  21.878  25.272  1.00  0.00     0.188 C 
BRANCH  37  38
ATOM     38  O   UNL A   1      38.605  20.746  25.327  1.00  0.00    -0.376 OA
BRANCH  38  39
ATOM     39  C   UNL A   1      39.680  20.772  26.258  1.00  0.00     0.202 C 
BRANCH  39  40
ATOM     40  C   UNL A   1      40.609  19.580  26.142  1.00  0.00     0.261 C 
BRANCH  40  41
ATOM     41  O   UNL A   1      41.842  19.856  26.804  1.00  0.00    -0.460 OA
BRANCH  41  42
ATOM     42  C   UNL A   1      42.676  20.624  26.086  1.00  0.00     0.338 C 
ATOM     43  O   UNL A   1      43.265  20.321  25.054  1.00  0.00    -0.246 OA
BRANCH  42  44
ATOM     44  C   UNL A   1      42.664  21.987  26.619  1.00  0.00     0.060 A 
ATOM     45  C   UNL A   1      42.608  23.011  25.672  1.00  0.00     0.016 A 
ATOM     46  C   UNL A   1      42.824  22.262  27.983  1.00  0.00     0.016 A 
ATOM     47  C   UNL A   1      42.859  24.310  26.063  1.00  0.00     0.010 A 
ATOM     48  C   UNL A   1      43.068  23.577  28.378  1.00  0.00     0.010 A 
ATOM     49  C   UNL A   1      43.178  24.580  27.400  1.00  0.00    -0.014 A 
BRANCH  49  50
ATOM     50  C   UNL A   1      43.914  25.835  27.656  1.00  0.00     0.031 A 
ATOM     51  C   UNL A   1      43.213  26.918  28.436  1.00  0.00     0.074 A 
ATOM     52  C   UNL A   1      45.225  25.912  27.378  1.00  0.00     0.049 A 
ATOM     53  N   UNL A   1      43.698  28.025  28.935  1.00  0.00    -0.248 NA
ATOM     54  C   UNL A   1      41.776  26.723  28.703  1.00  0.00     0.031 C 
ATOM     55  C   UNL A   1      46.005  24.877  26.696  1.00  0.00     0.029 A 
ATOM     56  N   UNL A   1      46.138  26.885  27.679  1.00  0.00    -0.354 N 
ATOM     57  C   UNL A   1      42.630  28.651  29.568  1.00  0.00     0.074 A 
ATOM     58  C   UNL A   1      41.462  27.830  29.357  1.00  0.00     0.031 C 
ATOM     59  C   UNL A   1      47.291  25.263  26.655  1.00  0.00     0.029 A 
ATOM     60  C   UNL A   1      47.416  26.577  27.279  1.00  0.00     0.049 A 
ATOM     61  H   UNL A   1      45.903  27.724  28.136  1.00  0.00     0.167 HD
ATOM     62  C   UNL A   1      42.625  29.804  30.279  1.00  0.00     0.031 A 
ATOM     63  C   UNL A   1      48.555  27.282  27.407  1.00  0.00     0.031 A 
ATOM     64  C   UNL A   1      43.797  30.614  30.479  1.00  0.00     0.049 A 
ATOM     65  C   UNL A   1      48.510  28.596  28.141  1.00  0.00     0.074 A 
ATOM     66  C   UNL A   1      43.912  31.805  31.171  1.00  0.00     0.029 A 
ATOM     67  N   UNL A   1      45.057  30.311  29.984  1.00  0.00    -0.354 N 
ATOM     68  N   UNL A   1      47.492  29.180  28.732  1.00  0.00    -0.248 NA
ATOM     69  C   UNL A   1      49.772  29.338  28.239  1.00  0.00     0.031 C 
ATOM     70  C   UNL A   1      45.229  32.256  31.038  1.00  0.00     0.029 A 
ATOM     71  C   UNL A   1      45.952  31.308  30.330  1.00  0.00     0.049 A 
ATOM     72  H   UNL A   1      45.281  29.506  29.464  1.00  0.00     0.167 HD
ATOM     73  C   UNL A   1      47.999  30.346  29.296  1.00  0.00     0.074 A 
ATOM     74  C   UNL A   1      49.417  30.368  28.995  1.00  0.00     0.031 C 
ATOM     75  C   UNL A   1      47.356  31.312  30.001  1.00  0.00     0.031 A 
BRANCH  62  76
ATOM     76  C   UNL A   1      41.309  30.274  30.840  1.00  0.00    -0.014 A 
ATOM     77  C   UNL A   1      40.713  29.649  31.953  1.00  0.00     0.010 A 
ATOM     78  C   UNL A   1      40.662  31.375  30.250  1.00  0.00     0.010 A 
ATOM     79  C   UNL A   1      39.479  30.094  32.439  1.00  0.00     0.020 A 
ATOM     80  C   UNL A   1      39.444  31.841  30.752  1.00  0.00     0.020 A 
ATOM     81  C   UNL A   1      38.852  31.189  31.835  1.00  0.00     0.054 A 
BRANCH  81  82
ATOM     82  S   UNL A   1      37.266  31.762  32.500  1.00  0.00     0.124 S 
ATOM     83  O   UNL A   1      37.589  31.981  33.908  1.00  0.00    -0.237 OA
ATOM     84  O   UNL A   1      37.009  32.969  31.719  1.00  0.00    -0.237 OA
ATOM     85  O   UNL A   1      36.357  30.649  32.239  1.00  0.00    -0.744 OA
ENDBRANCH  81  82
ENDBRANCH  62  76
BRANCH  63  86
ATOM     86  C   UNL A   1      49.818  26.765  26.816  1.00  0.00    -0.014 A 
ATOM     87  C   UNL A   1      50.125  26.966  25.459  1.00  0.00     0.010 A 
ATOM     88  C   UNL A   1      50.730  26.060  27.624  1.00  0.00     0.010 A 
ATOM     89  C   UNL A   1      51.309  26.454  24.918  1.00  0.00     0.020 A 
ATOM     90  C   UNL A   1      51.928  25.575  27.096  1.00  0.00     0.020 A 
ATOM     91  C   UNL A   1      52.205  25.764  25.742  1.00  0.00     0.054 A 
BRANCH  91  92
ATOM     92  S   UNL A   1      53.753  25.144  25.029  1.00  0.00     0.124 S 
ATOM     93  O   UNL A   1      54.743  25.621  25.989  1.00  0.00    -0.237 OA
ATOM     94  O   UNL A   1      53.533  23.700  25.008  1.00  0.00    -0.237 OA
ATOM     95  O   UNL A   1      53.801  25.779  23.713  1.00  0.00    -0.744 OA
ENDBRANCH  91  92
ENDBRANCH  63  86
BRANCH  75  96
ATOM     96  C   UNL A   1      48.194  32.452  30.519  1.00  0.00    -0.014 A 
ATOM     97  C   UNL A   1      48.395  33.619  29.761  1.00  0.00     0.010 A 
ATOM     98  C   UNL A   1      48.780  32.354  31.794  1.00  0.00     0.010 A 
ATOM     99  C   UNL A   1      49.221  34.638  30.241  1.00  0.00     0.020 A 
ATOM    100  C   UNL A   1      49.575  33.387  32.295  1.00  0.00     0.020 A 
ATOM    101  C   UNL A   1      49.811  34.512  31.502  1.00  0.00     0.054 A 
BRANCH 101 102
ATOM    102  S   UNL A   1      50.883  35.845  32.101  1.00  0.00     0.124 S 
ATOM    103  O   UNL A   1      51.771  35.131  33.015  1.00  0.00    -0.237 OA
ATOM    104  O   UNL A   1      51.506  36.332  30.872  1.00  0.00    -0.237 OA
ATOM    105  O   UNL A   1      49.955  36.778  32.734  1.00  0.00    -0.744 OA
ENDBRANCH 101 102
ENDBRANCH  75  96
ENDBRANCH  49  50
ENDBRANCH  42  44
ENDBRANCH  41  42
ENDBRANCH  40  41
ENDBRANCH  39  40
ENDBRANCH  38  39
ENDBRANCH  37  38
ENDBRANCH  36  37
ENDBRANCH   1  36
TORSDOF 26
ENDMDL
MODEL 2
REMARK VINA RESULT:      -9.5      2.009      2.838
REMARK SMILES CC1=C(C)C[C@@H](C(=O)OCCOCCOCCOCCOC(=O)c2ccc(-c3c4nc(c(-c5ccc(S(=O)(=O)[O-])cc5)c5ccc([nH]5)c(-c5ccc(S(=O)(=O)[O-])cc5)c5nc(c(-c6ccc(S(=O)(=O)[O-])cc6)c6ccc3[nH]6)C=C5)C=C4)cc2)[C@@H](C(=O)N2CCN(c3cccc(C(F)(F)F)c3)CC2)C1
REMARK SMILES IDX 15 1 14 2 13 3 12 4 11 5 10 6 9 7 7 8 8 9 6 10 1 11 2 12
REMARK SMILES IDX 3 13 103 14 4 15 5 16 84 17 85 18 86 19 87 20 88 21 102 22
REMARK SMILES IDX 89 23 101 24 90 25 91 26 92 27 100 28 93 29 95 30 94 31
REMARK SMILES IDX 96 32 97 33 98 34 99 35 16 36 17 37 18 38 19 39 20 40 21 41
REMARK SMILES IDX 22 42 23 43 24 44 25 45 83 46 26 47 82 48 27 49 28 50 29 51
REMARK SMILES IDX 76 52 30 53 81 54 75 55 77 56 31 57 80 58 74 59 73 60 32 62
REMARK SMILES IDX 62 63 43 64 61 65 44 66 47 67 60 68 78 69 45 70 46 71 59 73
REMARK SMILES IDX 79 74 48 75 33 76 34 77 42 78 35 79 41 80 36 81 37 82 38 83
REMARK SMILES IDX 39 84 40 85 63 86 64 87 72 88 65 89 71 90 66 91 67 92 68 93
REMARK SMILES IDX 69 94 70 95 49 96 50 97 58 98 51 99 57 100 52 101 53 102
REMARK SMILES IDX 54 103 55 104 56 105
REMARK H PARENT 77 61 47 72
REMARK Flexibility Score: inf
ROOT
ATOM      1  O   UNL A   1      35.680  20.836  25.358  1.00  0.00    -0.377 OA
ENDROOT
BRANCH   1   2
ATOM      2  C   UNL A   1      34.385  21.058  24.834  1.00  0.00     0.188 C 
BRANCH   2   3
ATOM      3  C   UNL A   1      33.959  22.525  24.777  1.00  0.00     0.188 C 
BRANCH   3   4
ATOM      4  O   UNL A   1      33.203  22.960  23.658  1.00  0.00    -0.376 OA
BRANCH   4   5
ATOM      5  C   UNL A   1      31.787  22.832  23.697  1.00  0.00     0.202 C 
BRANCH   5   6
ATOM      6  C   UNL A   1      30.976  23.649  24.720  1.00  0.00     0.261 C 
BRANCH   6   7
ATOM      7  O   UNL A   1      31.586  24.882  25.178  1.00  0.00    -0.463 OA
BRANCH   7   8
ATOM      8  C   UNL A   1      30.722  25.818  25.607  1.00  0.00     0.310 C 
ATOM      9  O   UNL A   1      29.878  25.583  26.479  1.00  0.00    -0.252 OA
BRANCH   8  10
ATOM     10  C   UNL A   1      30.863  27.249  25.090  1.00  0.00     0.116 C 
ATOM     11  C   UNL A   1      34.044  28.052  22.189  1.00  0.00     0.039 C 
ATOM     12  C   UNL A   1      32.762  27.948  22.967  1.00  0.00    -0.074 C 
ATOM     13  C   UNL A   1      31.726  27.135  22.689  1.00  0.00    -0.073 C 
ATOM     14  C   UNL A   1      32.645  28.901  24.132  1.00  0.00     0.045 C 
ATOM     15  C   UNL A   1      31.620  26.191  21.524  1.00  0.00     0.039 C 
ATOM     16  C   UNL A   1      30.514  27.190  23.580  1.00  0.00     0.046 C 
ATOM     17  C   UNL A   1      31.941  28.326  25.396  1.00  0.00     0.097 C 
BRANCH  17  18
ATOM     18  C   UNL A   1      33.088  28.121  26.390  1.00  0.00     0.227 C 
ATOM     19  O   UNL A   1      33.643  27.024  26.480  1.00  0.00    -0.275 OA
ATOM     20  N   UNL A   1      33.674  29.291  26.935  1.00  0.00    -0.339 N 
ATOM     21  C   UNL A   1      35.012  29.141  27.520  1.00  0.00     0.141 C 
ATOM     22  C   UNL A   1      32.924  30.474  27.410  1.00  0.00     0.141 C 
ATOM     23  C   UNL A   1      35.833  30.437  27.555  1.00  0.00     0.138 C 
ATOM     24  C   UNL A   1      33.752  31.774  27.618  1.00  0.00     0.138 C 
ATOM     25  N   UNL A   1      35.064  31.504  28.214  1.00  0.00    -0.368 N 
BRANCH  25  26
ATOM     26  C   UNL A   1      35.718  32.408  29.037  1.00  0.00     0.037 A 
ATOM     27  C   UNL A   1      37.023  32.845  28.773  1.00  0.00     0.026 A 
ATOM     28  C   UNL A   1      35.158  32.795  30.263  1.00  0.00     0.039 A 
ATOM     29  C   UNL A   1      37.774  33.547  29.722  1.00  0.00     0.003 A 
ATOM     30  C   UNL A   1      35.938  33.391  31.278  1.00  0.00     0.058 A 
ATOM     31  C   UNL A   1      37.247  33.788  30.984  1.00  0.00     0.013 A 
BRANCH  30  32
ATOM     32  C   UNL A   1      35.422  33.499  32.693  1.00  0.00     0.416 C 
ATOM     33  F   UNL A   1      35.367  32.291  33.323  1.00  0.00    -0.166 F 
ATOM     34  F   UNL A   1      36.194  34.296  33.480  1.00  0.00    -0.166 F 
ATOM     35  F   UNL A   1      34.159  34.007  32.768  1.00  0.00    -0.166 F 
ENDBRANCH  30  32
ENDBRANCH  25  26
ENDBRANCH  17  18
ENDBRANCH   8  10
ENDBRANCH   7   8
ENDBRANCH   6   7
ENDBRANCH   5   6
ENDBRANCH   4   5
ENDBRANCH   3   4
ENDBRANCH   2   3
ENDBRANCH   1   2
BRANCH   1  36
ATOM     36  C   UNL A   1      36.845  21.345  24.707  1.00  0.00     0.188 C 
BRANCH  36  37
ATOM     37  C   UNL A   1      37.963  21.979  25.542  1.00  0.00     0.188 C 
BRANCH  37  38
ATOM     38  O   UNL A   1      39.152  21.215  25.756  1.00  0.00    -0.376 OA
BRANCH  38  39
ATOM     39  C   UNL A   1      40.001  21.582  26.837  1.00  0.00     0.202 C 
BRANCH  39  40
ATOM     40  C   UNL A   1      40.930  20.471  27.282  1.00  0.00     0.261 C 
BRANCH  40  41
ATOM     41  O   UNL A   1      42.280  20.933  27.283  1.00  0.00    -0.460 OA
BRANCH  41  42
ATOM     42  C   UNL A   1      42.891  20.804  26.096  1.00  0.00     0.338 C 
ATOM     43  O   UNL A   1      42.732  19.911  25.270  1.00  0.00    -0.246 OA
BRANCH  42  44
ATOM     44  C   UNL A   1      43.684  22.003  25.822  1.00  0.00     0.060 A 
ATOM     45  C   UNL A   1      44.847  22.150  26.581  1.00  0.00     0.016 A 
ATOM     46  C   UNL A   1      43.251  23.007  24.948  1.00  0.00     0.016 A 
ATOM     47  C   UNL A   1      45.506  23.362  26.582  1.00  0.00     0.010 A 
ATOM     48  C   UNL A   1      43.925  24.228  24.942  1.00  0.00     0.010 A 
ATOM     49  C   UNL A   1      44.993  24.429  25.833  1.00  0.00    -0.014 A 
BRANCH  49  50
ATOM     50  C   UNL A   1      45.408  25.783  26.253  1.00  0.00     0.031 A 
ATOM     51  C   UNL A   1      44.488  26.554  27.164  1.00  0.00     0.074 A 
ATOM     52  C   UNL A   1      46.653  26.211  25.992  1.00  0.00     0.049 A 
ATOM     53  N   UNL A   1      44.703  27.672  27.805  1.00  0.00    -0.248 NA
ATOM     54  C   UNL A   1      43.149  25.981  27.396  1.00  0.00     0.031 C 
ATOM     55  C   UNL A   1      47.642  25.494  25.185  1.00  0.00     0.029 A 
ATOM     56  N   UNL A   1      47.312  27.332  26.421  1.00  0.00    -0.354 N 
ATOM     57  C   UNL A   1      43.533  27.934  28.509  1.00  0.00     0.074 A 
ATOM     58  C   UNL A   1      42.594  26.886  28.188  1.00  0.00     0.031 C 
ATOM     59  C   UNL A   1      48.795  26.184  25.200  1.00  0.00     0.029 A 
ATOM     60  C   UNL A   1      48.614  27.399  25.991  1.00  0.00     0.049 A 
ATOM     61  H   UNL A   1      46.893  28.024  26.983  1.00  0.00     0.167 HD
ATOM     62  C   UNL A   1      43.269  28.950  29.363  1.00  0.00     0.031 A 
ATOM     63  C   UNL A   1      49.551  28.338  26.214  1.00  0.00     0.031 A 
ATOM     64  C   UNL A   1      44.214  29.990  29.672  1.00  0.00     0.049 A 
ATOM     65  C   UNL A   1      49.209  29.498  27.111  1.00  0.00     0.074 A 
ATOM     66  C   UNL A   1      44.056  31.075  30.513  1.00  0.00     0.029 A 
ATOM     67  N   UNL A   1      45.496  30.069  29.147  1.00  0.00    -0.354 N 
ATOM     68  N   UNL A   1      48.097  29.735  27.769  1.00  0.00    -0.248 NA
ATOM     69  C   UNL A   1      50.256  30.506  27.310  1.00  0.00     0.031 C 
ATOM     70  C   UNL A   1      45.220  31.848  30.446  1.00  0.00     0.029 A 
ATOM     71  C   UNL A   1      46.131  31.202  29.623  1.00  0.00     0.049 A 
ATOM     72  H   UNL A   1      45.894  29.416  28.528  1.00  0.00     0.167 HD
ATOM     73  C   UNL A   1      48.321  30.908  28.482  1.00  0.00     0.074 A 
ATOM     74  C   UNL A   1      49.683  31.314  28.193  1.00  0.00     0.031 C 
ATOM     75  C   UNL A   1      47.483  31.590  29.304  1.00  0.00     0.031 A 
BRANCH  62  76
ATOM     76  C   UNL A   1      41.893  29.010  29.975  1.00  0.00    -0.014 A 
ATOM     77  C   UNL A   1      40.811  29.610  29.304  1.00  0.00     0.010 A 
ATOM     78  C   UNL A   1      41.677  28.437  31.242  1.00  0.00     0.010 A 
ATOM     79  C   UNL A   1      39.549  29.669  29.906  1.00  0.00     0.020 A 
ATOM     80  C   UNL A   1      40.411  28.466  31.832  1.00  0.00     0.020 A 
ATOM     81  C   UNL A   1      39.357  29.096  31.167  1.00  0.00     0.054 A 
BRANCH  81  82
ATOM     82  S   UNL A   1      37.706  29.163  31.914  1.00  0.00     0.124 S 
ATOM     83  O   UNL A   1      37.709  27.974  32.763  1.00  0.00    -0.237 OA
ATOM     84  O   UNL A   1      37.726  30.440  32.621  1.00  0.00    -0.237 OA
ATOM     85  O   UNL A   1      36.803  29.103  30.767  1.00  0.00    -0.744 OA
ENDBRANCH  81  82
ENDBRANCH  62  76
BRANCH  63  86
ATOM     86  C   UNL A   1      50.885  28.224  25.566  1.00  0.00    -0.014 A 
ATOM     87  C   UNL A   1      51.198  28.952  24.405  1.00  0.00     0.010 A 
ATOM     88  C   UNL A   1      51.860  27.375  26.121  1.00  0.00     0.010 A 
ATOM     89  C   UNL A   1      52.451  28.815  23.799  1.00  0.00     0.020 A 
ATOM     90  C   UNL A   1      53.124  27.259  25.538  1.00  0.00     0.020 A 
ATOM     91  C   UNL A   1      53.408  27.971  24.373  1.00  0.00     0.054 A 
BRANCH  91  92
ATOM     92  S   UNL A   1      55.041  27.840  23.594  1.00  0.00     0.124 S 
ATOM     93  O   UNL A   1      55.850  28.715  24.436  1.00  0.00    -0.237 OA
ATOM     94  O   UNL A   1      55.327  26.412  23.703  1.00  0.00    -0.237 OA
ATOM     95  O   UNL A   1      54.810  28.320  22.233  1.00  0.00    -0.744 OA
ENDBRANCH  91  92
ENDBRANCH  63  86
BRANCH  75  96
ATOM     96  C   UNL A   1      48.033  32.825  29.969  1.00  0.00    -0.014 A 
ATOM     97  C   UNL A   1      49.053  32.747  30.934  1.00  0.00     0.010 A 
ATOM     98  C   UNL A   1      47.526  34.087  29.609  1.00  0.00     0.010 A 
ATOM     99  C   UNL A   1      49.507  33.901  31.575  1.00  0.00     0.020 A 
ATOM    100  C   UNL A   1      48.006  35.248  30.219  1.00  0.00     0.020 A 
ATOM    101  C   UNL A   1      48.975  35.144  31.218  1.00  0.00     0.054 A 
BRANCH 101 102
ATOM    102  S   UNL A   1      49.577  36.627  32.068  1.00  0.00     0.124 S 
ATOM    103  O   UNL A   1      48.332  37.320  32.386  1.00  0.00    -0.237 OA
ATOM    104  O   UNL A   1      50.297  36.071  33.212  1.00  0.00    -0.237 OA
ATOM    105  O   UNL A   1      50.418  37.283  31.069  1.00  0.00    -0.744 OA
ENDBRANCH 101 102
ENDBRANCH  75  96
ENDBRANCH  49  50
ENDBRANCH  42  44
ENDBRANCH  41  42
ENDBRANCH  40  41
ENDBRANCH  39  40
ENDBRANCH  38  39
ENDBRANCH  37  38
ENDBRANCH  36  37
ENDBRANCH   1  36
TORSDOF 26
ENDMDL
MODEL 3
REMARK VINA RESULT:      -9.1      4.462      8.607
REMARK SMILES CC1=C(C)C[C@@H](C(=O)OCCOCCOCCOCCOC(=O)c2ccc(-c3c4nc(c(-c5ccc(S(=O)(=O)[O-])cc5)c5ccc([nH]5)c(-c5ccc(S(=O)(=O)[O-])cc5)c5nc(c(-c6ccc(S(=O)(=O)[O-])cc6)c6ccc3[nH]6)C=C5)C=C4)cc2)[C@@H](C(=O)N2CCN(c3cccc(C(F)(F)F)c3)CC2)C1
REMARK SMILES IDX 15 1 14 2 13 3 12 4 11 5 10 6 9 7 7 8 8 9 6 10 1 11 2 12
REMARK SMILES IDX 3 13 103 14 4 15 5 16 84 17 85 18 86 19 87 20 88 21 102 22
REMARK SMILES IDX 89 23 101 24 90 25 91 26 92 27 100 28 93 29 95 30 94 31
REMARK SMILES IDX 96 32 97 33 98 34 99 35 16 36 17 37 18 38 19 39 20 40 21 41
REMARK SMILES IDX 22 42 23 43 24 44 25 45 83 46 26 47 82 48 27 49 28 50 29 51
REMARK SMILES IDX 76 52 30 53 81 54 75 55 77 56 31 57 80 58 74 59 73 60 32 62
REMARK SMILES IDX 62 63 43 64 61 65 44 66 47 67 60 68 78 69 45 70 46 71 59 73
REMARK SMILES IDX 79 74 48 75 33 76 34 77 42 78 35 79 41 80 36 81 37 82 38 83
REMARK SMILES IDX 39 84 40 85 63 86 64 87 72 88 65 89 71 90 66 91 67 92 68 93
REMARK SMILES IDX 69 94 70 95 49 96 50 97 58 98 51 99 57 100 52 101 53 102
REMARK SMILES IDX 54 103 55 104 56 105
REMARK H PARENT 77 61 47 72
REMARK Flexibility Score: inf
ROOT
ATOM      1  O   UNL A   1      33.170  28.670  25.727  1.00  0.00    -0.377 OA
ENDROOT
BRANCH   1   2
ATOM      2  C   UNL A   1      32.008  28.840  24.939  1.00  0.00     0.188 C 
BRANCH   2   3
ATOM      3  C   UNL A   1      32.198  28.555  23.449  1.00  0.00     0.188 C 
BRANCH   3   4
ATOM      4  O   UNL A   1      31.186  27.825  22.772  1.00  0.00    -0.376 OA
BRANCH   4   5
ATOM      5  C   UNL A   1      30.980  26.460  23.117  1.00  0.00     0.202 C 
BRANCH   5   6
ATOM      6  C   UNL A   1      31.867  25.373  22.484  1.00  0.00     0.261 C 
BRANCH   6   7
ATOM      7  O   UNL A   1      32.224  24.261  23.344  1.00  0.00    -0.463 OA
BRANCH   7   8
ATOM      8  C   UNL A   1      33.264  23.524  22.917  1.00  0.00     0.310 C 
ATOM      9  O   UNL A   1      33.912  23.823  21.909  1.00  0.00    -0.252 OA
BRANCH   8  10
ATOM     10  C   UNL A   1      33.735  22.346  23.770  1.00  0.00     0.116 C 
ATOM     11  C   UNL A   1      33.000  22.541  28.082  1.00  0.00     0.039 C 
ATOM     12  C   UNL A   1      33.126  22.164  26.633  1.00  0.00    -0.074 C 
ATOM     13  C   UNL A   1      32.124  22.104  25.737  1.00  0.00    -0.073 C 
ATOM     14  C   UNL A   1      34.517  21.773  26.195  1.00  0.00     0.045 C 
ATOM     15  C   UNL A   1      30.669  22.364  26.006  1.00  0.00     0.039 C 
ATOM     16  C   UNL A   1      32.449  21.684  24.327  1.00  0.00     0.046 C 
ATOM     17  C   UNL A   1      34.923  22.240  24.766  1.00  0.00     0.097 C 
BRANCH  17  18
ATOM     18  C   UNL A   1      35.919  23.374  25.024  1.00  0.00     0.227 C 
ATOM     19  O   UNL A   1      35.533  24.544  25.061  1.00  0.00    -0.275 OA
ATOM     20  N   UNL A   1      37.191  23.002  25.528  1.00  0.00    -0.339 N 
ATOM     21  C   UNL A   1      37.973  24.060  26.179  1.00  0.00     0.141 C 
ATOM     22  C   UNL A   1      37.990  21.852  25.049  1.00  0.00     0.141 C 
ATOM     23  C   UNL A   1      39.009  23.546  27.188  1.00  0.00     0.138 C 
ATOM     24  C   UNL A   1      39.161  21.400  25.968  1.00  0.00     0.138 C 
ATOM     25  N   UNL A   1      39.873  22.538  26.557  1.00  0.00    -0.368 N 
BRANCH  25  26
ATOM     26  C   UNL A   1      41.222  22.499  26.874  1.00  0.00     0.037 A 
ATOM     27  C   UNL A   1      41.689  22.755  28.170  1.00  0.00     0.026 A 
ATOM     28  C   UNL A   1      42.190  22.367  25.868  1.00  0.00     0.039 A 
ATOM     29  C   UNL A   1      43.045  22.969  28.440  1.00  0.00     0.003 A 
ATOM     30  C   UNL A   1      43.544  22.702  26.095  1.00  0.00     0.058 A 
ATOM     31  C   UNL A   1      43.966  22.979  27.400  1.00  0.00     0.013 A 
BRANCH  30  32
ATOM     32  C   UNL A   1      44.504  22.877  24.944  1.00  0.00     0.416 C 
ATOM     33  F   UNL A   1      45.193  24.052  25.010  1.00  0.00    -0.166 F 
ATOM     34  F   UNL A   1      45.446  21.896  24.884  1.00  0.00    -0.166 F 
ATOM     35  F   UNL A   1      43.891  22.883  23.726  1.00  0.00    -0.166 F 
ENDBRANCH  30  32
ENDBRANCH  25  26
ENDBRANCH  17  18
ENDBRANCH   8  10
ENDBRANCH   7   8
ENDBRANCH   6   7
ENDBRANCH   5   6
ENDBRANCH   4   5
ENDBRANCH   3   4
ENDBRANCH   2   3
ENDBRANCH   1   2
BRANCH   1  36
ATOM     36  C   UNL A   1      33.276  29.245  27.031  1.00  0.00     0.188 C 
BRANCH  36  37
ATOM     37  C   UNL A   1      33.196  30.766  27.196  1.00  0.00     0.188 C 
BRANCH  37  38
ATOM     38  O   UNL A   1      34.031  31.376  28.184  1.00  0.00    -0.376 OA
BRANCH  38  39
ATOM     39  C   UNL A   1      34.154  32.794  28.176  1.00  0.00     0.202 C 
BRANCH  39  40
ATOM     40  C   UNL A   1      34.440  33.383  29.542  1.00  0.00     0.261 C 
BRANCH  40  41
ATOM     41  O   UNL A   1      34.400  32.359  30.534  1.00  0.00    -0.460 OA
BRANCH  41  42
ATOM     42  C   UNL A   1      35.059  32.678  31.659  1.00  0.00     0.338 C 
ATOM     43  O   UNL A   1      34.645  33.343  32.602  1.00  0.00    -0.246 OA
BRANCH  42  44
ATOM     44  C   UNL A   1      36.334  31.960  31.697  1.00  0.00     0.060 A 
ATOM     45  C   UNL A   1      37.263  32.418  32.634  1.00  0.00     0.016 A 
ATOM     46  C   UNL A   1      36.661  30.959  30.775  1.00  0.00     0.016 A 
ATOM     47  C   UNL A   1      38.570  31.983  32.561  1.00  0.00     0.010 A 
ATOM     48  C   UNL A   1      37.981  30.513  30.708  1.00  0.00     0.010 A 
ATOM     49  C   UNL A   1      38.948  31.100  31.541  1.00  0.00    -0.014 A 
BRANCH  49  50
ATOM     50  C   UNL A   1      40.385  31.073  31.200  1.00  0.00     0.031 A 
ATOM     51  C   UNL A   1      40.981  32.298  30.555  1.00  0.00     0.074 A 
ATOM     52  C   UNL A   1      41.159  30.069  31.640  1.00  0.00     0.049 A 
ATOM     53  N   UNL A   1      42.236  32.585  30.324  1.00  0.00    -0.248 NA
ATOM     54  C   UNL A   1      40.040  33.349  30.126  1.00  0.00     0.031 C 
ATOM     55  C   UNL A   1      40.679  28.879  32.345  1.00  0.00     0.029 A 
ATOM     56  N   UNL A   1      42.519  29.916  31.601  1.00  0.00    -0.354 N 
ATOM     57  C   UNL A   1      42.231  33.840  29.726  1.00  0.00     0.074 A 
ATOM     58  C   UNL A   1      40.852  34.245  29.587  1.00  0.00     0.031 C 
ATOM     59  C   UNL A   1      41.736  28.128  32.697  1.00  0.00     0.029 A 
ATOM     60  C   UNL A   1      42.958  28.770  32.218  1.00  0.00     0.049 A 
ATOM     61  H   UNL A   1      43.124  30.564  31.172  1.00  0.00     0.167 HD
ATOM     62  C   UNL A   1      43.284  34.598  29.340  1.00  0.00     0.031 A 
ATOM     63  C   UNL A   1      44.208  28.298  32.375  1.00  0.00     0.031 A 
ATOM     64  C   UNL A   1      44.653  34.180  29.482  1.00  0.00     0.049 A 
ATOM     65  C   UNL A   1      45.360  29.127  31.872  1.00  0.00     0.074 A 
ATOM     66  C   UNL A   1      45.802  34.857  29.118  1.00  0.00     0.029 A 
ATOM     67  N   UNL A   1      45.054  32.972  30.034  1.00  0.00    -0.354 N 
ATOM     68  N   UNL A   1      45.341  30.311  31.304  1.00  0.00    -0.248 NA
ATOM     69  C   UNL A   1      46.702  28.563  32.049  1.00  0.00     0.031 C 
ATOM     70  C   UNL A   1      46.896  34.029  29.390  1.00  0.00     0.029 A 
ATOM     71  C   UNL A   1      46.433  32.869  29.994  1.00  0.00     0.049 A 
ATOM     72  H   UNL A   1      44.447  32.289  30.399  1.00  0.00     0.167 HD
ATOM     73  C   UNL A   1      46.672  30.646  31.080  1.00  0.00     0.074 A 
ATOM     74  C   UNL A   1      47.466  29.548  31.598  1.00  0.00     0.031 C 
ATOM     75  C   UNL A   1      47.196  31.757  30.502  1.00  0.00     0.031 A 
BRANCH  62  76
ATOM     76  C   UNL A   1      42.990  35.922  28.684  1.00  0.00    -0.014 A 
ATOM     77  C   UNL A   1      42.998  37.127  29.412  1.00  0.00     0.010 A 
ATOM     78  C   UNL A   1      42.715  35.962  27.304  1.00  0.00     0.010 A 
ATOM     79  C   UNL A   1      42.700  38.339  28.781  1.00  0.00     0.020 A 
ATOM     80  C   UNL A   1      42.447  37.175  26.664  1.00  0.00     0.020 A 
ATOM     81  C   UNL A   1      42.427  38.355  27.409  1.00  0.00     0.054 A 
BRANCH  81  82
ATOM     82  S   UNL A   1      42.068  39.943  26.609  1.00  0.00     0.124 S 
ATOM     83  O   UNL A   1      40.815  39.657  25.917  1.00  0.00    -0.237 OA
ATOM     84  O   UNL A   1      41.965  40.856  27.744  1.00  0.00    -0.237 OA
ATOM     85  O   UNL A   1      43.221  40.162  25.740  1.00  0.00    -0.744 OA
ENDBRANCH  81  82
ENDBRANCH  62  76
BRANCH  63  86
ATOM     86  C   UNL A   1      44.425  26.975  33.019  1.00  0.00    -0.014 A 
ATOM     87  C   UNL A   1      44.375  25.783  32.276  1.00  0.00     0.010 A 
ATOM     88  C   UNL A   1      44.690  26.906  34.400  1.00  0.00     0.010 A 
ATOM     89  C   UNL A   1      44.562  24.548  32.905  1.00  0.00     0.020 A 
ATOM     90  C   UNL A   1      44.910  25.678  35.026  1.00  0.00     0.020 A 
ATOM     91  C   UNL A   1      44.831  24.504  34.277  1.00  0.00     0.054 A 
BRANCH  91  92
ATOM     92  S   UNL A   1      45.112  22.894  35.064  1.00  0.00     0.124 S 
ATOM     93  O   UNL A   1      44.822  23.185  36.464  1.00  0.00    -0.237 OA
ATOM     94  O   UNL A   1      44.147  22.038  34.380  1.00  0.00    -0.237 OA
ATOM     95  O   UNL A   1      46.513  22.606  34.763  1.00  0.00    -0.744 OA
ENDBRANCH  91  92
ENDBRANCH  63  86
BRANCH  75  96
ATOM     96  C   UNL A   1      48.698  31.847  30.433  1.00  0.00    -0.014 A 
ATOM     97  C   UNL A   1      49.414  31.358  29.326  1.00  0.00     0.010 A 
ATOM     98  C   UNL A   1      49.403  32.446  31.493  1.00  0.00     0.010 A 
ATOM     99  C   UNL A   1      50.809  31.404  29.311  1.00  0.00     0.020 A 
ATOM    100  C   UNL A   1      50.797  32.530  31.465  1.00  0.00     0.020 A 
ATOM    101  C   UNL A   1      51.492  31.984  30.385  1.00  0.00     0.054 A 
BRANCH 101 102
ATOM    102  S   UNL A   1      53.303  32.028  30.346  1.00  0.00     0.124 S 
ATOM    103  O   UNL A   1      53.568  33.455  30.193  1.00  0.00    -0.237 OA
ATOM    104  O   UNL A   1      53.667  31.456  31.640  1.00  0.00    -0.237 OA
ATOM    105  O   UNL A   1      53.645  31.203  29.189  1.00  0.00    -0.744 OA
ENDBRANCH 101 102
ENDBRANCH  75  96
ENDBRANCH  49  50
ENDBRANCH  42  44
ENDBRANCH  41  42
ENDBRANCH  40  41
ENDBRANCH  39  40
ENDBRANCH  38  39
ENDBRANCH  37  38
ENDBRANCH  36  37
ENDBRANCH   1  36
TORSDOF 26
ENDMDL
