MODEL 1
REMARK VINA RESULT:      -5.8      0.000      0.000
REMARK SMILES COc1ccc2c(c1)[C@H]([NH2+][C@@H](C(=O)OCCOCCOCCOCCOC(=O)c1ccc(-c3c4nc(c(-c5ccc(S(=O)(=O)[O-])cc5)c5ccc([nH]5)c(-c5ccc(S(=O)(=O)[O-])cc5)c5nc(c(-c6ccc(S(=O)(=O)[O-])cc6)c6ccc3[nH]6)C=C5)C=C4)cc1)C1CC1)CC2
REMARK SMILES IDX 20 1 19 2 18 3 17 4 16 5 15 6 14 7 12 8 13 9 11 10 10 11
REMARK SMILES IDX 9 14 3 15 4 16 8 17 5 18 7 19 6 20 93 21 92 22 2 23 1 24
REMARK SMILES IDX 89 25 90 26 91 27 21 28 22 29 23 30 24 31 25 32 26 33 27 34
REMARK SMILES IDX 28 35 29 36 30 37 88 38 31 39 87 40 32 41 33 42 34 43 81 44
REMARK SMILES IDX 35 45 86 46 80 47 82 48 36 49 85 50 79 51 78 52 37 54 67 55
REMARK SMILES IDX 48 56 66 57 49 58 52 59 65 60 83 61 50 62 51 63 64 65 84 66
REMARK SMILES IDX 53 67 38 68 39 69 47 70 40 71 46 72 41 73 42 74 43 75 44 76
REMARK SMILES IDX 45 77 68 78 69 79 77 80 70 81 76 82 71 83 72 84 73 85 74 86
REMARK SMILES IDX 75 87 54 88 55 89 63 90 56 91 62 92 57 93 58 94 59 95 60 96
REMARK SMILES IDX 61 97
REMARK H PARENT 10 12 10 13 82 53 52 64
REMARK Flexibility Score: inf
ROOT
ATOM      1  O   UNL A   1      44.653  26.882  34.339  1.00  0.00    -0.377 OA
ENDROOT
BRANCH   1   2
ATOM      2  C   UNL A   1      44.611  28.192  34.854  1.00  0.00     0.188 C 
BRANCH   2   3
ATOM      3  C   UNL A   1      43.208  28.753  35.140  1.00  0.00     0.188 C 
BRANCH   3   4
ATOM      4  O   UNL A   1      42.225  28.763  34.123  1.00  0.00    -0.376 OA
BRANCH   4   5
ATOM      5  C   UNL A   1      40.896  29.166  34.429  1.00  0.00     0.202 C 
BRANCH   5   6
ATOM      6  C   UNL A   1      40.029  30.014  33.474  1.00  0.00     0.261 C 
BRANCH   6   7
ATOM      7  O   UNL A   1      39.370  29.330  32.390  1.00  0.00    -0.459 OA
BRANCH   7   8
ATOM      8  C   UNL A   1      38.014  29.253  32.449  1.00  0.00     0.365 C 
ATOM      9  O   UNL A   1      37.411  28.463  33.176  1.00  0.00    -0.245 OA
BRANCH   8  10
ATOM     10  C   UNL A   1      37.247  30.287  31.568  1.00  0.00     0.297 C 
BRANCH  10  11
ATOM     11  N   UNL A   1      36.258  31.128  32.278  1.00  0.00    -0.328 N 
ATOM     12  H   UNL A   1      35.375  31.079  31.768  1.00  0.00     0.347 HD
ATOM     13  H   UNL A   1      36.193  30.760  33.226  1.00  0.00     0.347 HD
BRANCH  11  14
ATOM     14  C   UNL A   1      36.631  32.527  32.403  1.00  0.00     0.215 C 
ATOM     15  C   UNL A   1      38.609  33.128  35.675  1.00  0.00     0.119 A 
ATOM     16  C   UNL A   1      39.472  34.118  35.176  1.00  0.00     0.047 A 
ATOM     17  C   UNL A   1      37.692  32.493  34.819  1.00  0.00     0.056 A 
ATOM     18  C   UNL A   1      39.402  34.514  33.841  1.00  0.00     0.008 A 
ATOM     19  C   UNL A   1      37.627  32.885  33.485  1.00  0.00     0.016 A 
ATOM     20  C   UNL A   1      38.475  33.901  33.017  1.00  0.00    -0.038 A 
ATOM     21  C   UNL A   1      38.162  34.257  31.598  1.00  0.00     0.042 C 
ATOM     22  C   UNL A   1      37.379  33.023  31.151  1.00  0.00     0.075 C 
BRANCH  15  23
ATOM     23  O   UNL A   1      38.592  32.706  36.981  1.00  0.00    -0.497 OA
ATOM     24  C   UNL A   1      38.184  33.677  37.943  1.00  0.00     0.278 C 
ENDBRANCH  15  23
ENDBRANCH  11  14
ENDBRANCH  10  11
BRANCH  10  25
ATOM     25  C   UNL A   1      36.859  29.660  30.233  1.00  0.00     0.059 C 
ATOM     26  C   UNL A   1      37.201  30.183  28.846  1.00  0.00     0.011 C 
ATOM     27  C   UNL A   1      37.757  28.873  29.294  1.00  0.00     0.011 C 
ENDBRANCH  10  25
ENDBRANCH   8  10
ENDBRANCH   7   8
ENDBRANCH   6   7
ENDBRANCH   5   6
ENDBRANCH   4   5
ENDBRANCH   3   4
ENDBRANCH   2   3
ENDBRANCH   1   2
BRANCH   1  28
ATOM     28  C   UNL A   1      45.481  26.654  33.208  1.00  0.00     0.188 C 
BRANCH  28  29
ATOM     29  C   UNL A   1      45.406  27.636  32.021  1.00  0.00     0.188 C 
BRANCH  29  30
ATOM     30  O   UNL A   1      44.106  27.819  31.474  1.00  0.00    -0.376 OA
BRANCH  30  31
ATOM     31  C   UNL A   1      43.795  27.260  30.205  1.00  0.00     0.202 C 
BRANCH  31  32
ATOM     32  C   UNL A   1      42.318  27.009  29.853  1.00  0.00     0.261 C 
BRANCH  32  33
ATOM     33  O   UNL A   1      41.447  28.149  29.886  1.00  0.00    -0.460 OA
BRANCH  33  34
ATOM     34  C   UNL A   1      41.462  28.990  28.834  1.00  0.00     0.338 C 
ATOM     35  O   UNL A   1      41.124  28.738  27.688  1.00  0.00    -0.246 OA
BRANCH  34  36
ATOM     36  C   UNL A   1      41.754  30.346  29.339  1.00  0.00     0.060 A 
ATOM     37  C   UNL A   1      43.076  30.809  29.297  1.00  0.00     0.016 A 
ATOM     38  C   UNL A   1      40.737  31.155  29.853  1.00  0.00     0.016 A 
ATOM     39  C   UNL A   1      43.395  32.058  29.824  1.00  0.00     0.010 A 
ATOM     40  C   UNL A   1      41.063  32.396  30.407  1.00  0.00     0.010 A 
ATOM     41  C   UNL A   1      42.400  32.829  30.438  1.00  0.00    -0.014 A 
BRANCH  41  42
ATOM     42  C   UNL A   1      42.802  33.949  31.323  1.00  0.00     0.031 A 
ATOM     43  C   UNL A   1      43.059  35.290  30.686  1.00  0.00     0.074 A 
ATOM     44  C   UNL A   1      42.882  33.803  32.657  1.00  0.00     0.049 A 
ATOM     45  N   UNL A   1      43.431  36.415  31.239  1.00  0.00    -0.248 NA
ATOM     46  C   UNL A   1      42.866  35.372  29.228  1.00  0.00     0.031 C 
ATOM     47  C   UNL A   1      42.596  32.573  33.396  1.00  0.00     0.029 A 
ATOM     48  N   UNL A   1      43.227  34.709  33.630  1.00  0.00    -0.354 N 
ATOM     49  C   UNL A   1      43.521  37.333  30.198  1.00  0.00     0.074 A 
ATOM     50  C   UNL A   1      43.202  36.629  28.978  1.00  0.00     0.031 C 
ATOM     51  C   UNL A   1      42.779  32.803  34.708  1.00  0.00     0.029 A 
ATOM     52  C   UNL A   1      43.229  34.181  34.899  1.00  0.00     0.049 A 
ATOM     53  H   UNL A   1      43.451  35.647  33.436  1.00  0.00     0.167 HD
ATOM     54  C   UNL A   1      43.831  38.650  30.254  1.00  0.00     0.031 A 
ATOM     55  C   UNL A   1      43.574  34.745  36.075  1.00  0.00     0.031 A 
ATOM     56  C   UNL A   1      44.165  39.345  31.469  1.00  0.00     0.049 A 
ATOM     57  C   UNL A   1      44.010  36.190  36.098  1.00  0.00     0.074 A 
ATOM     58  C   UNL A   1      44.501  40.676  31.633  1.00  0.00     0.029 A 
ATOM     59  N   UNL A   1      44.207  38.762  32.726  1.00  0.00    -0.354 N 
ATOM     60  N   UNL A   1      44.085  37.048  35.108  1.00  0.00    -0.248 NA
ATOM     61  C   UNL A   1      44.395  36.745  37.403  1.00  0.00     0.031 C 
ATOM     62  C   UNL A   1      44.807  40.884  32.981  1.00  0.00     0.029 A 
ATOM     63  C   UNL A   1      44.586  39.702  33.669  1.00  0.00     0.049 A 
ATOM     64  H   UNL A   1      43.999  37.820  32.920  1.00  0.00     0.167 HD
ATOM     65  C   UNL A   1      44.485  38.253  35.678  1.00  0.00     0.074 A 
ATOM     66  C   UNL A   1      44.624  38.014  37.100  1.00  0.00     0.031 C 
ATOM     67  C   UNL A   1      44.712  39.451  35.083  1.00  0.00     0.031 A 
BRANCH  54  68
ATOM     68  C   UNL A   1      43.858  39.415  28.956  1.00  0.00    -0.014 A 
ATOM     69  C   UNL A   1      42.689  39.988  28.422  1.00  0.00     0.010 A 
ATOM     70  C   UNL A   1      45.078  39.595  28.280  1.00  0.00     0.010 A 
ATOM     71  C   UNL A   1      42.736  40.699  27.220  1.00  0.00     0.020 A 
ATOM     72  C   UNL A   1      45.135  40.332  27.095  1.00  0.00     0.020 A 
ATOM     73  C   UNL A   1      43.960  40.868  26.565  1.00  0.00     0.054 A 
BRANCH  73  74
ATOM     74  S   UNL A   1      43.995  41.825  25.024  1.00  0.00     0.124 S 
ATOM     75  O   UNL A   1      45.176  41.283  24.359  1.00  0.00    -0.237 OA
ATOM     76  O   UNL A   1      42.714  41.486  24.409  1.00  0.00    -0.237 OA
ATOM     77  O   UNL A   1      44.117  43.209  25.478  1.00  0.00    -0.744 OA
ENDBRANCH  73  74
ENDBRANCH  54  68
BRANCH  55  78
ATOM     78  C   UNL A   1      43.539  33.944  37.332  1.00  0.00    -0.014 A 
ATOM     79  C   UNL A   1      42.375  33.891  38.120  1.00  0.00     0.010 A 
ATOM     80  C   UNL A   1      44.685  33.253  37.765  1.00  0.00     0.010 A 
ATOM     81  C   UNL A   1      42.367  33.187  39.329  1.00  0.00     0.020 A 
ATOM     82  C   UNL A   1      44.673  32.522  38.956  1.00  0.00     0.020 A 
ATOM     83  C   UNL A   1      43.517  32.506  39.739  1.00  0.00     0.054 A 
BRANCH  83  84
ATOM     84  S   UNL A   1      43.475  31.576  41.297  1.00  0.00     0.124 S 
ATOM     85  O   UNL A   1      44.253  30.387  40.962  1.00  0.00    -0.237 OA
ATOM     86  O   UNL A   1      44.106  32.504  42.232  1.00  0.00    -0.237 OA
ATOM     87  O   UNL A   1      42.049  31.349  41.521  1.00  0.00    -0.744 OA
ENDBRANCH  83  84
ENDBRANCH  55  78
BRANCH  67  88
ATOM     88  C   UNL A   1      45.073  40.616  35.970  1.00  0.00    -0.014 A 
ATOM     89  C   UNL A   1      44.094  41.473  36.502  1.00  0.00     0.010 A 
ATOM     90  C   UNL A   1      46.424  40.826  36.313  1.00  0.00     0.010 A 
ATOM     91  C   UNL A   1      44.462  42.543  37.323  1.00  0.00     0.020 A 
ATOM     92  C   UNL A   1      46.791  41.872  37.161  1.00  0.00     0.020 A 
ATOM     93  C   UNL A   1      45.810  42.736  37.647  1.00  0.00     0.054 A 
BRANCH  93  94
ATOM     94  S   UNL A   1      46.257  44.115  38.737  1.00  0.00     0.124 S 
ATOM     95  O   UNL A   1      46.438  45.208  37.786  1.00  0.00    -0.237 OA
ATOM     96  O   UNL A   1      45.089  44.226  39.607  1.00  0.00    -0.237 OA
ATOM     97  O   UNL A   1      47.477  43.655  39.396  1.00  0.00    -0.744 OA
ENDBRANCH  93  94
ENDBRANCH  67  88
ENDBRANCH  41  42
ENDBRANCH  34  36
ENDBRANCH  33  34
ENDBRANCH  32  33
ENDBRANCH  31  32
ENDBRANCH  30  31
ENDBRANCH  29  30
ENDBRANCH  28  29
ENDBRANCH   1  28
TORSDOF 27
ENDMDL
MODEL 2
REMARK VINA RESULT:      -5.6      5.872     10.654
REMARK SMILES COc1ccc2c(c1)[C@H]([NH2+][C@@H](C(=O)OCCOCCOCCOCCOC(=O)c1ccc(-c3c4nc(c(-c5ccc(S(=O)(=O)[O-])cc5)c5ccc([nH]5)c(-c5ccc(S(=O)(=O)[O-])cc5)c5nc(c(-c6ccc(S(=O)(=O)[O-])cc6)c6ccc3[nH]6)C=C5)C=C4)cc1)C1CC1)CC2
REMARK SMILES IDX 20 1 19 2 18 3 17 4 16 5 15 6 14 7 12 8 13 9 11 10 10 11
REMARK SMILES IDX 9 14 3 15 4 16 8 17 5 18 7 19 6 20 93 21 92 22 2 23 1 24
REMARK SMILES IDX 89 25 90 26 91 27 21 28 22 29 23 30 24 31 25 32 26 33 27 34
REMARK SMILES IDX 28 35 29 36 30 37 88 38 31 39 87 40 32 41 33 42 34 43 81 44
REMARK SMILES IDX 35 45 86 46 80 47 82 48 36 49 85 50 79 51 78 52 37 54 67 55
REMARK SMILES IDX 48 56 66 57 49 58 52 59 65 60 83 61 50 62 51 63 64 65 84 66
REMARK SMILES IDX 53 67 38 68 39 69 47 70 40 71 46 72 41 73 42 74 43 75 44 76
REMARK SMILES IDX 45 77 68 78 69 79 77 80 70 81 76 82 71 83 72 84 73 85 74 86
REMARK SMILES IDX 75 87 54 88 55 89 63 90 56 91 62 92 57 93 58 94 59 95 60 96
REMARK SMILES IDX 61 97
REMARK H PARENT 10 12 10 13 82 53 52 64
REMARK Flexibility Score: inf
ROOT
ATOM      1  O   UNL A   1      39.092  27.031  29.201  1.00  0.00    -0.377 OA
ENDROOT
BRANCH   1   2
ATOM      2  C   UNL A   1      39.979  26.456  28.270  1.00  0.00     0.188 C 
BRANCH   2   3
ATOM      3  C   UNL A   1      39.786  24.954  28.003  1.00  0.00     0.188 C 
BRANCH   3   4
ATOM      4  O   UNL A   1      39.764  24.464  26.676  1.00  0.00    -0.376 OA
BRANCH   4   5
ATOM      5  C   UNL A   1      38.814  23.474  26.305  1.00  0.00     0.202 C 
BRANCH   5   6
ATOM      6  C   UNL A   1      37.313  23.777  26.101  1.00  0.00     0.261 C 
BRANCH   6   7
ATOM      7  O   UNL A   1      36.454  22.672  25.753  1.00  0.00    -0.459 OA
BRANCH   7   8
ATOM      8  C   UNL A   1      35.115  22.905  25.788  1.00  0.00     0.365 C 
ATOM      9  O   UNL A   1      34.553  23.494  26.711  1.00  0.00    -0.245 OA
BRANCH   8  10
ATOM     10  C   UNL A   1      34.320  22.425  24.534  1.00  0.00     0.297 C 
BRANCH  10  11
ATOM     11  N   UNL A   1      33.737  23.495  23.694  1.00  0.00    -0.328 N 
ATOM     12  H   UNL A   1      34.434  24.232  23.589  1.00  0.00     0.347 HD
ATOM     13  H   UNL A   1      33.478  23.059  22.809  1.00  0.00     0.347 HD
BRANCH  11  14
ATOM     14  C   UNL A   1      32.524  24.091  24.228  1.00  0.00     0.215 C 
ATOM     15  C   UNL A   1      33.166  27.747  25.325  1.00  0.00     0.119 A 
ATOM     16  C   UNL A   1      31.906  28.258  24.972  1.00  0.00     0.047 A 
ATOM     17  C   UNL A   1      33.488  26.407  25.049  1.00  0.00     0.056 A 
ATOM     18  C   UNL A   1      30.944  27.434  24.386  1.00  0.00     0.008 A 
ATOM     19  C   UNL A   1      32.530  25.587  24.458  1.00  0.00     0.016 A 
ATOM     20  C   UNL A   1      31.265  26.110  24.147  1.00  0.00    -0.038 A 
ATOM     21  C   UNL A   1      30.348  25.042  23.639  1.00  0.00     0.042 C 
ATOM     22  C   UNL A   1      31.350  23.960  23.239  1.00  0.00     0.075 C 
BRANCH  15  23
ATOM     23  O   UNL A   1      34.153  28.482  25.933  1.00  0.00    -0.497 OA
ATOM     24  C   UNL A   1      33.946  28.778  27.313  1.00  0.00     0.278 C 
ENDBRANCH  15  23
ENDBRANCH  11  14
ENDBRANCH  10  11
BRANCH  10  25
ATOM     25  C   UNL A   1      33.465  21.211  24.882  1.00  0.00     0.059 C 
ATOM     26  C   UNL A   1      31.974  21.202  25.183  1.00  0.00     0.011 C 
ATOM     27  C   UNL A   1      32.482  20.491  23.974  1.00  0.00     0.011 C 
ENDBRANCH  10  25
ENDBRANCH   8  10
ENDBRANCH   7   8
ENDBRANCH   6   7
ENDBRANCH   5   6
ENDBRANCH   4   5
ENDBRANCH   3   4
ENDBRANCH   2   3
ENDBRANCH   1   2
BRANCH   1  28
ATOM     28  C   UNL A   1      39.167  28.437  29.387  1.00  0.00     0.188 C 
BRANCH  28  29
ATOM     29  C   UNL A   1      38.355  29.356  28.452  1.00  0.00     0.188 C 
BRANCH  29  30
ATOM     30  O   UNL A   1      37.548  30.323  29.113  1.00  0.00    -0.376 OA
BRANCH  30  31
ATOM     31  C   UNL A   1      36.602  31.074  28.364  1.00  0.00     0.202 C 
BRANCH  31  32
ATOM     32  C   UNL A   1      35.618  31.983  29.122  1.00  0.00     0.261 C 
BRANCH  32  33
ATOM     33  O   UNL A   1      36.168  32.795  30.169  1.00  0.00    -0.460 OA
BRANCH  33  34
ATOM     34  C   UNL A   1      35.530  32.817  31.356  1.00  0.00     0.338 C 
ATOM     35  O   UNL A   1      34.339  32.632  31.552  1.00  0.00    -0.246 OA
BRANCH  34  36
ATOM     36  C   UNL A   1      36.551  32.891  32.420  1.00  0.00     0.060 A 
ATOM     37  C   UNL A   1      37.829  33.364  32.095  1.00  0.00     0.016 A 
ATOM     38  C   UNL A   1      36.254  32.495  33.727  1.00  0.00     0.016 A 
ATOM     39  C   UNL A   1      38.832  33.385  33.061  1.00  0.00     0.010 A 
ATOM     40  C   UNL A   1      37.269  32.491  34.688  1.00  0.00     0.010 A 
ATOM     41  C   UNL A   1      38.572  32.889  34.344  1.00  0.00    -0.014 A 
BRANCH  41  42
ATOM     42  C   UNL A   1      39.714  32.556  35.230  1.00  0.00     0.031 A 
ATOM     43  C   UNL A   1      40.060  33.530  36.326  1.00  0.00     0.074 A 
ATOM     44  C   UNL A   1      40.389  31.399  35.109  1.00  0.00     0.049 A 
ATOM     45  N   UNL A   1      41.015  33.472  37.218  1.00  0.00    -0.248 NA
ATOM     46  C   UNL A   1      39.211  34.729  36.431  1.00  0.00     0.031 C 
ATOM     47  C   UNL A   1      40.107  30.349  34.131  1.00  0.00     0.029 A 
ATOM     48  N   UNL A   1      41.454  30.915  35.827  1.00  0.00    -0.354 N 
ATOM     49  C   UNL A   1      40.883  34.626  37.983  1.00  0.00     0.074 A 
ATOM     50  C   UNL A   1      39.784  35.383  37.430  1.00  0.00     0.031 C 
ATOM     51  C   UNL A   1      40.982  29.343  34.310  1.00  0.00     0.029 A 
ATOM     52  C   UNL A   1      41.906  29.693  35.388  1.00  0.00     0.049 A 
ATOM     53  H   UNL A   1      41.857  31.397  36.584  1.00  0.00     0.167 HD
ATOM     54  C   UNL A   1      41.608  35.017  39.058  1.00  0.00     0.031 A 
ATOM     55  C   UNL A   1      42.955  28.953  35.800  1.00  0.00     0.031 A 
ATOM     56  C   UNL A   1      42.713  34.269  39.596  1.00  0.00     0.049 A 
ATOM     57  C   UNL A   1      43.807  29.457  36.940  1.00  0.00     0.074 A 
ATOM     58  C   UNL A   1      43.517  34.581  40.678  1.00  0.00     0.029 A 
ATOM     59  N   UNL A   1      43.171  33.062  39.090  1.00  0.00    -0.354 N 
ATOM     60  N   UNL A   1      43.669  30.547  37.658  1.00  0.00    -0.248 NA
ATOM     61  C   UNL A   1      44.951  28.622  37.332  1.00  0.00     0.031 C 
ATOM     62  C   UNL A   1      44.500  33.593  40.788  1.00  0.00     0.029 A 
ATOM     63  C   UNL A   1      44.261  32.627  39.824  1.00  0.00     0.049 A 
ATOM     64  H   UNL A   1      42.779  32.586  38.323  1.00  0.00     0.167 HD
ATOM     65  C   UNL A   1      44.683  30.505  38.612  1.00  0.00     0.074 A 
ATOM     66  C   UNL A   1      45.416  29.277  38.385  1.00  0.00     0.031 C 
ATOM     67  C   UNL A   1      44.976  31.397  39.591  1.00  0.00     0.031 A 
BRANCH  54  68
ATOM     68  C   UNL A   1      41.247  36.331  39.701  1.00  0.00    -0.014 A 
ATOM     69  C   UNL A   1      40.361  36.392  40.793  1.00  0.00     0.010 A 
ATOM     70  C   UNL A   1      41.832  37.520  39.229  1.00  0.00     0.010 A 
ATOM     71  C   UNL A   1      40.044  37.620  41.379  1.00  0.00     0.020 A 
ATOM     72  C   UNL A   1      41.542  38.746  39.832  1.00  0.00     0.020 A 
ATOM     73  C   UNL A   1      40.638  38.790  40.895  1.00  0.00     0.054 A 
BRANCH  73  74
ATOM     74  S   UNL A   1      40.233  40.365  41.699  1.00  0.00     0.124 S 
ATOM     75  O   UNL A   1      41.462  40.653  42.434  1.00  0.00    -0.237 OA
ATOM     76  O   UNL A   1      39.961  41.241  40.562  1.00  0.00    -0.237 OA
ATOM     77  O   UNL A   1      39.074  40.045  42.528  1.00  0.00    -0.744 OA
ENDBRANCH  73  74
ENDBRANCH  54  68
BRANCH  55  78
ATOM     78  C   UNL A   1      43.277  27.662  35.127  1.00  0.00    -0.014 A 
ATOM     79  C   UNL A   1      42.628  26.473  35.502  1.00  0.00     0.010 A 
ATOM     80  C   UNL A   1      44.263  27.612  34.125  1.00  0.00     0.010 A 
ATOM     81  C   UNL A   1      42.977  25.255  34.909  1.00  0.00     0.020 A 
ATOM     82  C   UNL A   1      44.593  26.403  33.506  1.00  0.00     0.020 A 
ATOM     83  C   UNL A   1      43.958  25.228  33.913  1.00  0.00     0.054 A 
BRANCH  83  84
ATOM     84  S   UNL A   1      44.375  23.642  33.137  1.00  0.00     0.124 S 
ATOM     85  O   UNL A   1      45.725  23.404  33.638  1.00  0.00    -0.237 OA
ATOM     86  O   UNL A   1      43.339  22.756  33.663  1.00  0.00    -0.237 OA
ATOM     87  O   UNL A   1      44.278  23.924  31.707  1.00  0.00    -0.744 OA
ENDBRANCH  83  84
ENDBRANCH  55  78
BRANCH  67  88
ATOM     88  C   UNL A   1      46.102  31.054  40.535  1.00  0.00    -0.014 A 
ATOM     89  C   UNL A   1      47.414  31.513  40.321  1.00  0.00     0.010 A 
ATOM     90  C   UNL A   1      45.824  30.292  41.687  1.00  0.00     0.010 A 
ATOM     91  C   UNL A   1      48.434  31.179  41.216  1.00  0.00     0.020 A 
ATOM     92  C   UNL A   1      46.834  29.986  42.602  1.00  0.00     0.020 A 
ATOM     93  C   UNL A   1      48.137  30.416  42.351  1.00  0.00     0.054 A 
BRANCH  93  94
ATOM     94  S   UNL A   1      49.474  30.021  43.511  1.00  0.00     0.124 S 
ATOM     95  O   UNL A   1      49.342  31.085  44.501  1.00  0.00    -0.237 OA
ATOM     96  O   UNL A   1      49.110  28.683  43.974  1.00  0.00    -0.237 OA
ATOM     97  O   UNL A   1      50.679  30.082  42.687  1.00  0.00    -0.744 OA
ENDBRANCH  93  94
ENDBRANCH  67  88
ENDBRANCH  41  42
ENDBRANCH  34  36
ENDBRANCH  33  34
ENDBRANCH  32  33
ENDBRANCH  31  32
ENDBRANCH  30  31
ENDBRANCH  29  30
ENDBRANCH  28  29
ENDBRANCH   1  28
TORSDOF 27
ENDMDL
MODEL 3
REMARK VINA RESULT:      -5.1      5.989     12.307
REMARK SMILES COc1ccc2c(c1)[C@H]([NH2+][C@@H](C(=O)OCCOCCOCCOCCOC(=O)c1ccc(-c3c4nc(c(-c5ccc(S(=O)(=O)[O-])cc5)c5ccc([nH]5)c(-c5ccc(S(=O)(=O)[O-])cc5)c5nc(c(-c6ccc(S(=O)(=O)[O-])cc6)c6ccc3[nH]6)C=C5)C=C4)cc1)C1CC1)CC2
REMARK SMILES IDX 20 1 19 2 18 3 17 4 16 5 15 6 14 7 12 8 13 9 11 10 10 11
REMARK SMILES IDX 9 14 3 15 4 16 8 17 5 18 7 19 6 20 93 21 92 22 2 23 1 24
REMARK SMILES IDX 89 25 90 26 91 27 21 28 22 29 23 30 24 31 25 32 26 33 27 34
REMARK SMILES IDX 28 35 29 36 30 37 88 38 31 39 87 40 32 41 33 42 34 43 81 44
REMARK SMILES IDX 35 45 86 46 80 47 82 48 36 49 85 50 79 51 78 52 37 54 67 55
REMARK SMILES IDX 48 56 66 57 49 58 52 59 65 60 83 61 50 62 51 63 64 65 84 66
REMARK SMILES IDX 53 67 38 68 39 69 47 70 40 71 46 72 41 73 42 74 43 75 44 76
REMARK SMILES IDX 45 77 68 78 69 79 77 80 70 81 76 82 71 83 72 84 73 85 74 86
REMARK SMILES IDX 75 87 54 88 55 89 63 90 56 91 62 92 57 93 58 94 59 95 60 96
REMARK SMILES IDX 61 97
REMARK H PARENT 10 12 10 13 82 53 52 64
REMARK Flexibility Score: inf
ROOT
ATOM      1  O   UNL A   1      52.501  21.335  35.483  1.00  0.00    -0.377 OA
ENDROOT
BRANCH   1   2
ATOM      2  C   UNL A   1      51.116  21.120  35.617  1.00  0.00     0.188 C 
BRANCH   2   3
ATOM      3  C   UNL A   1      50.638  19.677  35.384  1.00  0.00     0.188 C 
BRANCH   3   4
ATOM      4  O   UNL A   1      49.555  19.419  34.511  1.00  0.00    -0.376 OA
BRANCH   4   5
ATOM      5  C   UNL A   1      48.835  20.504  33.939  1.00  0.00     0.202 C 
BRANCH   5   6
ATOM      6  C   UNL A   1      47.547  21.085  34.562  1.00  0.00     0.261 C 
BRANCH   6   7
ATOM      7  O   UNL A   1      47.680  21.830  35.790  1.00  0.00    -0.459 OA
BRANCH   7   8
ATOM      8  C   UNL A   1      46.579  21.904  36.583  1.00  0.00     0.365 C 
ATOM      9  O   UNL A   1      45.434  22.020  36.145  1.00  0.00    -0.245 OA
BRANCH   8  10
ATOM     10  C   UNL A   1      46.847  21.769  38.114  1.00  0.00     0.297 C 
BRANCH  10  11
ATOM     11  N   UNL A   1      48.153  22.281  38.586  1.00  0.00    -0.328 N 
ATOM     12  H   UNL A   1      48.168  22.220  39.605  1.00  0.00     0.347 HD
ATOM     13  H   UNL A   1      48.867  21.707  38.140  1.00  0.00     0.347 HD
BRANCH  11  14
ATOM     14  C   UNL A   1      48.435  23.656  38.211  1.00  0.00     0.215 C 
ATOM     15  C   UNL A   1      45.976  26.084  39.954  1.00  0.00     0.119 A 
ATOM     16  C   UNL A   1      46.880  27.144  40.138  1.00  0.00     0.047 A 
ATOM     17  C   UNL A   1      46.415  24.869  39.399  1.00  0.00     0.056 A 
ATOM     18  C   UNL A   1      48.209  27.023  39.732  1.00  0.00     0.008 A 
ATOM     19  C   UNL A   1      47.743  24.747  39.000  1.00  0.00     0.016 A 
ATOM     20  C   UNL A   1      48.620  25.832  39.160  1.00  0.00    -0.038 A 
ATOM     21  C   UNL A   1      49.958  25.540  38.558  1.00  0.00     0.042 C 
ATOM     22  C   UNL A   1      49.912  24.015  38.464  1.00  0.00     0.075 C 
BRANCH  15  23
ATOM     23  O   UNL A   1      44.648  26.135  40.296  1.00  0.00    -0.497 OA
ATOM     24  C   UNL A   1      44.349  26.785  41.530  1.00  0.00     0.278 C 
ENDBRANCH  15  23
ENDBRANCH  11  14
ENDBRANCH  10  11
BRANCH  10  25
ATOM     25  C   UNL A   1      46.360  20.415  38.619  1.00  0.00     0.059 C 
ATOM     26  C   UNL A   1      46.698  19.050  38.040  1.00  0.00     0.011 C 
ATOM     27  C   UNL A   1      47.152  19.395  39.419  1.00  0.00     0.011 C 
ENDBRANCH  10  25
ENDBRANCH   8  10
ENDBRANCH   7   8
ENDBRANCH   6   7
ENDBRANCH   5   6
ENDBRANCH   4   5
ENDBRANCH   3   4
ENDBRANCH   2   3
ENDBRANCH   1   2
BRANCH   1  28
ATOM     28  C   UNL A   1      53.096  20.985  34.242  1.00  0.00     0.188 C 
BRANCH  28  29
ATOM     29  C   UNL A   1      52.649  21.730  32.967  1.00  0.00     0.188 C 
BRANCH  29  30
ATOM     30  O   UNL A   1      52.877  23.134  32.981  1.00  0.00    -0.376 OA
BRANCH  30  31
ATOM     31  C   UNL A   1      51.934  24.001  32.366  1.00  0.00     0.202 C 
BRANCH  31  32
ATOM     32  C   UNL A   1      50.442  23.819  32.697  1.00  0.00     0.261 C 
BRANCH  32  33
ATOM     33  O   UNL A   1      50.099  23.716  34.086  1.00  0.00    -0.460 OA
BRANCH  33  34
ATOM     34  C   UNL A   1      50.248  24.809  34.859  1.00  0.00     0.338 C 
ATOM     35  O   UNL A   1      51.256  25.152  35.457  1.00  0.00    -0.246 OA
BRANCH  34  36
ATOM     36  C   UNL A   1      49.047  25.652  34.695  1.00  0.00     0.060 A 
ATOM     37  C   UNL A   1      47.804  25.134  35.083  1.00  0.00     0.016 A 
ATOM     38  C   UNL A   1      49.141  26.939  34.161  1.00  0.00     0.016 A 
ATOM     39  C   UNL A   1      46.644  25.878  34.882  1.00  0.00     0.010 A 
ATOM     40  C   UNL A   1      47.974  27.673  33.934  1.00  0.00     0.010 A 
ATOM     41  C   UNL A   1      46.719  27.124  34.248  1.00  0.00    -0.014 A 
BRANCH  41  42
ATOM     42  C   UNL A   1      45.481  27.723  33.694  1.00  0.00     0.031 A 
ATOM     43  C   UNL A   1      44.915  27.126  32.432  1.00  0.00     0.074 A 
ATOM     44  C   UNL A   1      44.841  28.728  34.317  1.00  0.00     0.049 A 
ATOM     45  N   UNL A   1      43.856  27.476  31.749  1.00  0.00    -0.248 NA
ATOM     46  C   UNL A   1      45.640  25.974  31.868  1.00  0.00     0.031 C 
ATOM     47  C   UNL A   1      45.254  29.348  35.576  1.00  0.00     0.029 A 
ATOM     48  N   UNL A   1      43.696  29.402  33.969  1.00  0.00    -0.354 N 
ATOM     49  C   UNL A   1      43.794  26.593  30.675  1.00  0.00     0.074 A 
ATOM     50  C   UNL A   1      44.938  25.717  30.775  1.00  0.00     0.031 C 
ATOM     51  C   UNL A   1      44.374  30.314  35.894  1.00  0.00     0.029 A 
ATOM     52  C   UNL A   1      43.359  30.405  34.846  1.00  0.00     0.049 A 
ATOM     53  H   UNL A   1      43.167  29.186  33.168  1.00  0.00     0.167 HD
ATOM     54  C   UNL A   1      42.861  26.513  29.697  1.00  0.00     0.031 A 
ATOM     55  C   UNL A   1      42.354  31.304  34.795  1.00  0.00     0.031 A 
ATOM     56  C   UNL A   1      41.731  27.398  29.591  1.00  0.00     0.049 A 
ATOM     57  C   UNL A   1      41.381  31.255  33.642  1.00  0.00     0.074 A 
ATOM     58  C   UNL A   1      40.732  27.405  28.635  1.00  0.00     0.029 A 
ATOM     59  N   UNL A   1      41.455  28.434  30.470  1.00  0.00    -0.354 N 
ATOM     60  N   UNL A   1      41.330  30.412  32.637  1.00  0.00    -0.248 NA
ATOM     61  C   UNL A   1      40.321  32.273  33.626  1.00  0.00     0.031 C 
ATOM     62  C   UNL A   1      39.885  28.485  28.900  1.00  0.00     0.029 A 
ATOM     63  C   UNL A   1      40.312  29.103  30.065  1.00  0.00     0.049 A 
ATOM     64  H   UNL A   1      41.991  28.661  31.263  1.00  0.00     0.167 HD
ATOM     65  C   UNL A   1      40.210  30.774  31.894  1.00  0.00     0.074 A 
ATOM     66  C   UNL A   1      39.607  31.903  32.573  1.00  0.00     0.031 C 
ATOM     67  C   UNL A   1      39.719  30.220  30.757  1.00  0.00     0.031 A 
BRANCH  54  68
ATOM     68  C   UNL A   1      43.044  25.450  28.645  1.00  0.00    -0.014 A 
ATOM     69  C   UNL A   1      43.840  25.678  27.507  1.00  0.00     0.010 A 
ATOM     70  C   UNL A   1      42.441  24.191  28.817  1.00  0.00     0.010 A 
ATOM     71  C   UNL A   1      44.003  24.676  26.546  1.00  0.00     0.020 A 
ATOM     72  C   UNL A   1      42.627  23.177  27.874  1.00  0.00     0.020 A 
ATOM     73  C   UNL A   1      43.396  23.432  26.736  1.00  0.00     0.054 A 
BRANCH  73  74
ATOM     74  S   UNL A   1      43.653  22.141  25.488  1.00  0.00     0.124 S 
ATOM     75  O   UNL A   1      43.528  22.894  24.244  1.00  0.00    -0.237 OA
ATOM     76  O   UNL A   1      44.997  21.660  25.800  1.00  0.00    -0.237 OA
ATOM     77  O   UNL A   1      42.578  21.187  25.747  1.00  0.00    -0.744 OA
ENDBRANCH  73  74
ENDBRANCH  54  68
BRANCH  55  78
ATOM     78  C   UNL A   1      42.219  32.343  35.856  1.00  0.00    -0.014 A 
ATOM     79  C   UNL A   1      41.547  32.060  37.058  1.00  0.00     0.010 A 
ATOM     80  C   UNL A   1      42.738  33.635  35.654  1.00  0.00     0.010 A 
ATOM     81  C   UNL A   1      41.370  33.056  38.025  1.00  0.00     0.020 A 
ATOM     82  C   UNL A   1      42.593  34.624  36.631  1.00  0.00     0.020 A 
ATOM     83  C   UNL A   1      41.896  34.333  37.805  1.00  0.00     0.054 A 
BRANCH  83  84
ATOM     84  S   UNL A   1      41.680  35.601  39.085  1.00  0.00     0.124 S 
ATOM     85  O   UNL A   1      42.961  36.299  39.040  1.00  0.00    -0.237 OA
ATOM     86  O   UNL A   1      40.531  36.353  38.588  1.00  0.00    -0.237 OA
ATOM     87  O   UNL A   1      41.432  34.825  40.297  1.00  0.00    -0.744 OA
ENDBRANCH  83  84
ENDBRANCH  55  78
BRANCH  67  88
ATOM     88  C   UNL A   1      38.433  30.781  30.203  1.00  0.00    -0.014 A 
ATOM     89  C   UNL A   1      37.179  30.267  30.576  1.00  0.00     0.010 A 
ATOM     90  C   UNL A   1      38.486  31.881  29.324  1.00  0.00     0.010 A 
ATOM     91  C   UNL A   1      36.006  30.811  30.047  1.00  0.00     0.020 A 
ATOM     92  C   UNL A   1      37.314  32.450  28.821  1.00  0.00     0.020 A 
ATOM     93  C   UNL A   1      36.081  31.899  29.171  1.00  0.00     0.054 A 
BRANCH  93  94
ATOM     94  S   UNL A   1      34.542  32.605  28.520  1.00  0.00     0.124 S 
ATOM     95  O   UNL A   1      35.039  33.580  27.554  1.00  0.00    -0.237 OA
ATOM     96  O   UNL A   1      33.872  31.439  27.950  1.00  0.00    -0.237 OA
ATOM     97  O   UNL A   1      33.894  33.173  29.700  1.00  0.00    -0.744 OA
ENDBRANCH  93  94
ENDBRANCH  67  88
ENDBRANCH  41  42
ENDBRANCH  34  36
ENDBRANCH  33  34
ENDBRANCH  32  33
ENDBRANCH  31  32
ENDBRANCH  30  31
ENDBRANCH  29  30
ENDBRANCH  28  29
ENDBRANCH   1  28
TORSDOF 27
ENDMDL
