MODEL 1
REMARK VINA RESULT:      -8.5      0.000      0.000
REMARK SMILES O=C(/C=C/c1ccc(O)c(O)c1)OCCOCCOCCOCCOC(=O)c1ccc(-c2c3nc(c(-c4ccc(S(=O)(=O)[O-])cc4)c4ccc([nH]4)c(-c4ccc(S(=O)(=O)[O-])cc4)c4nc(c(-c5ccc(S(=O)(=O)[O-])cc5)c5ccc2[nH]5)C=C4)C=C3)cc1
REMARK SMILES IDX 20 1 19 2 18 3 17 4 16 5 15 6 14 7 13 8 2 9 1 10 3 11 4 12
REMARK SMILES IDX 5 13 6 14 12 15 7 16 10 17 8 18 11 19 9 21 21 23 22 24 23 25
REMARK SMILES IDX 24 26 25 27 26 28 27 29 28 30 29 31 87 32 30 33 86 34 31 35
REMARK SMILES IDX 32 36 33 37 80 38 34 39 85 40 79 41 81 42 35 43 84 44 78 45
REMARK SMILES IDX 77 46 36 48 66 49 47 50 65 51 48 52 51 53 64 54 82 55 49 56
REMARK SMILES IDX 50 57 63 59 83 60 52 61 37 62 38 63 46 64 39 65 45 66 40 67
REMARK SMILES IDX 41 68 42 69 43 70 44 71 67 72 68 73 76 74 69 75 75 76 70 77
REMARK SMILES IDX 71 78 72 79 73 80 74 81 53 82 54 83 62 84 55 85 61 86 56 87
REMARK SMILES IDX 57 88 58 89 59 90 60 91
REMARK H PARENT 11 20 9 22 81 47 51 58
REMARK Flexibility Score: inf
ROOT
ATOM      1  C   UNL A   1      31.201  29.568  24.197  1.00  0.00     0.188 C 
ENDROOT
BRANCH   1   2
ATOM      2  O   UNL A   1      32.302  28.910  23.600  1.00  0.00    -0.377 OA
BRANCH   2   3
ATOM      3  C   UNL A   1      31.938  27.999  22.577  1.00  0.00     0.188 C 
BRANCH   3   4
ATOM      4  C   UNL A   1      31.630  26.582  23.046  1.00  0.00     0.188 C 
BRANCH   4   5
ATOM      5  O   UNL A   1      30.293  26.162  23.272  1.00  0.00    -0.376 OA
BRANCH   5   6
ATOM      6  C   UNL A   1      29.602  26.202  24.504  1.00  0.00     0.202 C 
BRANCH   6   7
ATOM      7  C   UNL A   1      30.014  25.375  25.717  1.00  0.00     0.261 C 
BRANCH   7   8
ATOM      8  O   UNL A   1      30.847  24.233  25.501  1.00  0.00    -0.460 OA
BRANCH   8   9
ATOM      9  C   UNL A   1      31.436  23.488  26.463  1.00  0.00     0.330 C 
ATOM     10  O   UNL A   1      30.856  23.260  27.521  1.00  0.00    -0.247 OA
BRANCH   9  11
ATOM     11  C   UNL A   1      32.892  23.264  26.395  1.00  0.00     0.094 C 
ATOM     12  C   UNL A   1      33.551  22.377  25.640  1.00  0.00     0.016 C 
BRANCH  12  13
ATOM     13  C   UNL A   1      35.017  22.387  25.553  1.00  0.00    -0.021 A 
ATOM     14  C   UNL A   1      35.751  23.537  25.874  1.00  0.00     0.012 A 
ATOM     15  C   UNL A   1      35.697  21.220  25.178  1.00  0.00     0.058 A 
ATOM     16  C   UNL A   1      37.150  23.509  25.878  1.00  0.00     0.051 A 
ATOM     17  C   UNL A   1      37.085  21.199  25.187  1.00  0.00     0.157 A 
ATOM     18  C   UNL A   1      37.808  22.327  25.555  1.00  0.00     0.157 A 
BRANCH  17  19
ATOM     19  O   UNL A   1      37.736  20.046  24.857  1.00  0.00    -0.504 OA
ATOM     20  H   UNL A   1      37.308  19.218  24.961  1.00  0.00     0.293 HD
ENDBRANCH  17  19
BRANCH  18  21
ATOM     21  O   UNL A   1      39.170  22.224  25.605  1.00  0.00    -0.504 OA
ATOM     22  H   UNL A   1      39.704  22.845  25.150  1.00  0.00     0.293 HD
ENDBRANCH  18  21
ENDBRANCH  12  13
ENDBRANCH   9  11
ENDBRANCH   8   9
ENDBRANCH   7   8
ENDBRANCH   6   7
ENDBRANCH   5   6
ENDBRANCH   4   5
ENDBRANCH   3   4
ENDBRANCH   2   3
ENDBRANCH   1   2
BRANCH   1  23
ATOM     23  C   UNL A   1      31.484  30.187  25.583  1.00  0.00     0.188 C 
BRANCH  23  24
ATOM     24  O   UNL A   1      31.416  29.416  26.771  1.00  0.00    -0.376 OA
BRANCH  24  25
ATOM     25  C   UNL A   1      32.052  28.154  26.858  1.00  0.00     0.202 C 
BRANCH  25  26
ATOM     26  C   UNL A   1      33.549  28.013  27.199  1.00  0.00     0.261 C 
BRANCH  26  27
ATOM     27  O   UNL A   1      34.435  29.016  26.692  1.00  0.00    -0.460 OA
BRANCH  27  28
ATOM     28  C   UNL A   1      34.730  30.036  27.534  1.00  0.00     0.338 C 
ATOM     29  O   UNL A   1      33.960  30.879  27.965  1.00  0.00    -0.246 OA
BRANCH  28  30
ATOM     30  C   UNL A   1      36.111  29.845  28.038  1.00  0.00     0.060 A 
ATOM     31  C   UNL A   1      37.180  30.087  27.162  1.00  0.00     0.016 A 
ATOM     32  C   UNL A   1      36.358  29.483  29.364  1.00  0.00     0.016 A 
ATOM     33  C   UNL A   1      38.497  29.950  27.600  1.00  0.00     0.010 A 
ATOM     34  C   UNL A   1      37.677  29.305  29.792  1.00  0.00     0.010 A 
ATOM     35  C   UNL A   1      38.749  29.503  28.901  1.00  0.00    -0.014 A 
BRANCH  35  36
ATOM     36  C   UNL A   1      40.100  28.994  29.241  1.00  0.00     0.031 A 
ATOM     37  C   UNL A   1      41.032  29.928  29.965  1.00  0.00     0.074 A 
ATOM     38  C   UNL A   1      40.483  27.738  28.952  1.00  0.00     0.049 A 
ATOM     39  N   UNL A   1      42.273  29.743  30.332  1.00  0.00    -0.248 NA
ATOM     40  C   UNL A   1      40.488  31.250  30.322  1.00  0.00     0.031 C 
ATOM     41  C   UNL A   1      39.652  26.721  28.311  1.00  0.00     0.029 A 
ATOM     42  N   UNL A   1      41.686  27.109  29.161  1.00  0.00    -0.354 N 
ATOM     43  C   UNL A   1      42.661  30.927  30.948  1.00  0.00     0.074 A 
ATOM     44  C   UNL A   1      41.536  31.832  30.882  1.00  0.00     0.031 C 
ATOM     45  C   UNL A   1      40.376  25.596  28.167  1.00  0.00     0.029 A 
ATOM     46  C   UNL A   1      41.730  25.826  28.671  1.00  0.00     0.049 A 
ATOM     47  H   UNL A   1      42.446  27.537  29.618  1.00  0.00     0.167 HD
ATOM     48  C   UNL A   1      43.847  31.236  31.521  1.00  0.00     0.031 A 
ATOM     49  C   UNL A   1      42.755  24.949  28.613  1.00  0.00     0.031 A 
ATOM     50  C   UNL A   1      44.971  30.339  31.568  1.00  0.00     0.049 A 
ATOM     51  C   UNL A   1      44.097  25.346  29.178  1.00  0.00     0.074 A 
ATOM     52  C   UNL A   1      46.216  30.552  32.132  1.00  0.00     0.029 A 
ATOM     53  N   UNL A   1      44.989  29.065  31.022  1.00  0.00    -0.354 N 
ATOM     54  N   UNL A   1      44.445  26.462  29.775  1.00  0.00    -0.248 NA
ATOM     55  C   UNL A   1      45.183  24.361  29.065  1.00  0.00     0.031 C 
ATOM     56  C   UNL A   1      47.009  29.431  31.868  1.00  0.00     0.029 A 
ATOM     57  C   UNL A   1      46.235  28.491  31.206  1.00  0.00     0.049 A 
ATOM     58  H   UNL A   1      44.229  28.633  30.570  1.00  0.00     0.167 HD
ATOM     59  C   UNL A   1      45.781  26.300  30.136  1.00  0.00     0.074 A 
ATOM     60  C   UNL A   1      46.171  24.973  29.703  1.00  0.00     0.031 C 
ATOM     61  C   UNL A   1      46.608  27.168  30.770  1.00  0.00     0.031 A 
BRANCH  48  62
ATOM     62  C   UNL A   1      44.002  32.617  32.099  1.00  0.00    -0.014 A 
ATOM     63  C   UNL A   1      44.453  33.695  31.313  1.00  0.00     0.010 A 
ATOM     64  C   UNL A   1      43.664  32.846  33.444  1.00  0.00     0.010 A 
ATOM     65  C   UNL A   1      44.597  34.966  31.875  1.00  0.00     0.020 A 
ATOM     66  C   UNL A   1      43.776  34.122  34.001  1.00  0.00     0.020 A 
ATOM     67  C   UNL A   1      44.257  35.171  33.215  1.00  0.00     0.054 A 
BRANCH  67  68
ATOM     68  S   UNL A   1      44.426  36.839  33.909  1.00  0.00     0.124 S 
ATOM     69  O   UNL A   1      43.681  36.722  35.160  1.00  0.00    -0.237 OA
ATOM     70  O   UNL A   1      45.874  36.980  34.050  1.00  0.00    -0.237 OA
ATOM     71  O   UNL A   1      43.815  37.700  32.898  1.00  0.00    -0.744 OA
ENDBRANCH  67  68
ENDBRANCH  48  62
BRANCH  49  72
ATOM     72  C   UNL A   1      42.564  23.616  27.975  1.00  0.00    -0.014 A 
ATOM     73  C   UNL A   1      42.853  23.420  26.613  1.00  0.00     0.010 A 
ATOM     74  C   UNL A   1      42.075  22.533  28.729  1.00  0.00     0.010 A 
ATOM     75  C   UNL A   1      42.646  22.173  26.014  1.00  0.00     0.020 A 
ATOM     76  C   UNL A   1      41.896  21.276  28.142  1.00  0.00     0.020 A 
ATOM     77  C   UNL A   1      42.173  21.108  26.786  1.00  0.00     0.054 A 
BRANCH  77  78
ATOM     78  S   UNL A   1      41.966  19.484  26.000  1.00  0.00     0.124 S 
ATOM     79  O   UNL A   1      40.536  19.464  25.713  1.00  0.00    -0.237 OA
ATOM     80  O   UNL A   1      42.845  19.587  24.837  1.00  0.00    -0.237 OA
ATOM     81  O   UNL A   1      42.414  18.548  27.028  1.00  0.00    -0.744 OA
ENDBRANCH  77  78
ENDBRANCH  49  72
BRANCH  61  82
ATOM     82  C   UNL A   1      48.010  26.703  31.076  1.00  0.00    -0.014 A 
ATOM     83  C   UNL A   1      49.013  26.697  30.091  1.00  0.00     0.010 A 
ATOM     84  C   UNL A   1      48.342  26.328  32.392  1.00  0.00     0.010 A 
ATOM     85  C   UNL A   1      50.313  26.291  30.408  1.00  0.00     0.020 A 
ATOM     86  C   UNL A   1      49.646  25.954  32.721  1.00  0.00     0.020 A 
ATOM     87  C   UNL A   1      50.622  25.924  31.721  1.00  0.00     0.054 A 
BRANCH  87  88
ATOM     88  S   UNL A   1      52.326  25.443  32.116  1.00  0.00     0.124 S 
ATOM     89  O   UNL A   1      52.210  23.992  32.243  1.00  0.00    -0.237 OA
ATOM     90  O   UNL A   1      53.068  25.913  30.950  1.00  0.00    -0.237 OA
ATOM     91  O   UNL A   1      52.610  26.156  33.359  1.00  0.00    -0.744 OA
ENDBRANCH  87  88
ENDBRANCH  61  82
ENDBRANCH  35  36
ENDBRANCH  28  30
ENDBRANCH  27  28
ENDBRANCH  26  27
ENDBRANCH  25  26
ENDBRANCH  24  25
ENDBRANCH  23  24
ENDBRANCH   1  23
TORSDOF 26
ENDMDL
MODEL 2
REMARK VINA RESULT:      -8.2      3.855      4.751
REMARK SMILES O=C(/C=C/c1ccc(O)c(O)c1)OCCOCCOCCOCCOC(=O)c1ccc(-c2c3nc(c(-c4ccc(S(=O)(=O)[O-])cc4)c4ccc([nH]4)c(-c4ccc(S(=O)(=O)[O-])cc4)c4nc(c(-c5ccc(S(=O)(=O)[O-])cc5)c5ccc2[nH]5)C=C4)C=C3)cc1
REMARK SMILES IDX 20 1 19 2 18 3 17 4 16 5 15 6 14 7 13 8 2 9 1 10 3 11 4 12
REMARK SMILES IDX 5 13 6 14 12 15 7 16 10 17 8 18 11 19 9 21 21 23 22 24 23 25
REMARK SMILES IDX 24 26 25 27 26 28 27 29 28 30 29 31 87 32 30 33 86 34 31 35
REMARK SMILES IDX 32 36 33 37 80 38 34 39 85 40 79 41 81 42 35 43 84 44 78 45
REMARK SMILES IDX 77 46 36 48 66 49 47 50 65 51 48 52 51 53 64 54 82 55 49 56
REMARK SMILES IDX 50 57 63 59 83 60 52 61 37 62 38 63 46 64 39 65 45 66 40 67
REMARK SMILES IDX 41 68 42 69 43 70 44 71 67 72 68 73 76 74 69 75 75 76 70 77
REMARK SMILES IDX 71 78 72 79 73 80 74 81 53 82 54 83 62 84 55 85 61 86 56 87
REMARK SMILES IDX 57 88 58 89 59 90 60 91
REMARK H PARENT 11 20 9 22 81 47 51 58
REMARK Flexibility Score: inf
ROOT
ATOM      1  C   UNL A   1      31.433  30.164  25.403  1.00  0.00     0.188 C 
ENDROOT
BRANCH   1   2
ATOM      2  O   UNL A   1      31.625  29.169  24.415  1.00  0.00    -0.377 OA
BRANCH   2   3
ATOM      3  C   UNL A   1      30.696  29.236  23.348  1.00  0.00     0.188 C 
BRANCH   3   4
ATOM      4  C   UNL A   1      30.404  27.909  22.655  1.00  0.00     0.188 C 
BRANCH   4   5
ATOM      5  O   UNL A   1      29.518  26.963  23.233  1.00  0.00    -0.376 OA
BRANCH   5   6
ATOM      6  C   UNL A   1      29.851  25.992  24.204  1.00  0.00     0.202 C 
BRANCH   6   7
ATOM      7  C   UNL A   1      30.528  24.670  23.861  1.00  0.00     0.261 C 
BRANCH   7   8
ATOM      8  O   UNL A   1      31.947  24.668  23.681  1.00  0.00    -0.460 OA
BRANCH   8   9
ATOM      9  C   UNL A   1      32.617  24.064  22.674  1.00  0.00     0.330 C 
ATOM     10  O   UNL A   1      32.735  24.613  21.582  1.00  0.00    -0.247 OA
BRANCH   9  11
ATOM     11  C   UNL A   1      32.883  22.616  22.768  1.00  0.00     0.094 C 
ATOM     12  C   UNL A   1      32.904  21.856  23.869  1.00  0.00     0.016 C 
BRANCH  12  13
ATOM     13  C   UNL A   1      33.016  20.394  23.787  1.00  0.00    -0.021 A 
ATOM     14  C   UNL A   1      33.772  19.674  24.722  1.00  0.00     0.012 A 
ATOM     15  C   UNL A   1      32.329  19.702  22.779  1.00  0.00     0.058 A 
ATOM     16  C   UNL A   1      33.797  18.276  24.690  1.00  0.00     0.051 A 
ATOM     17  C   UNL A   1      32.358  18.315  22.755  1.00  0.00     0.157 A 
ATOM     18  C   UNL A   1      33.067  17.604  23.715  1.00  0.00     0.157 A 
BRANCH  17  19
ATOM     19  O   UNL A   1      31.654  17.650  21.792  1.00  0.00    -0.504 OA
ATOM     20  H   UNL A   1      31.809  16.738  21.642  1.00  0.00     0.293 HD
ENDBRANCH  17  19
BRANCH  18  21
ATOM     21  O   UNL A   1      33.004  16.239  23.676  1.00  0.00    -0.504 OA
ATOM     22  H   UNL A   1      32.546  15.810  22.980  1.00  0.00     0.293 HD
ENDBRANCH  18  21
ENDBRANCH  12  13
ENDBRANCH   9  11
ENDBRANCH   8   9
ENDBRANCH   7   8
ENDBRANCH   6   7
ENDBRANCH   5   6
ENDBRANCH   4   5
ENDBRANCH   3   4
ENDBRANCH   2   3
ENDBRANCH   1   2
BRANCH   1  23
ATOM     23  C   UNL A   1      32.246  29.961  26.700  1.00  0.00     0.188 C 
BRANCH  23  24
ATOM     24  O   UNL A   1      33.663  30.034  26.710  1.00  0.00    -0.376 OA
BRANCH  24  25
ATOM     25  C   UNL A   1      34.350  30.694  27.757  1.00  0.00     0.202 C 
BRANCH  25  26
ATOM     26  C   UNL A   1      35.888  30.794  27.792  1.00  0.00     0.261 C 
BRANCH  26  27
ATOM     27  O   UNL A   1      36.624  29.569  27.879  1.00  0.00    -0.460 OA
BRANCH  27  28
ATOM     28  C   UNL A   1      37.315  29.366  29.027  1.00  0.00     0.338 C 
ATOM     29  O   UNL A   1      36.858  29.049  30.113  1.00  0.00    -0.246 OA
BRANCH  28  30
ATOM     30  C   UNL A   1      38.763  29.374  28.711  1.00  0.00     0.060 A 
ATOM     31  C   UNL A   1      39.158  29.149  27.383  1.00  0.00     0.016 A 
ATOM     32  C   UNL A   1      39.720  29.647  29.691  1.00  0.00     0.016 A 
ATOM     33  C   UNL A   1      40.507  29.177  27.033  1.00  0.00     0.010 A 
ATOM     34  C   UNL A   1      41.076  29.633  29.349  1.00  0.00     0.010 A 
ATOM     35  C   UNL A   1      41.475  29.363  28.026  1.00  0.00    -0.014 A 
BRANCH  35  36
ATOM     36  C   UNL A   1      42.886  29.014  27.734  1.00  0.00     0.031 A 
ATOM     37  C   UNL A   1      43.920  30.093  27.913  1.00  0.00     0.074 A 
ATOM     38  C   UNL A   1      43.252  27.776  27.355  1.00  0.00     0.049 A 
ATOM     39  N   UNL A   1      45.206  30.058  27.681  1.00  0.00    -0.248 NA
ATOM     40  C   UNL A   1      43.434  31.388  28.422  1.00  0.00     0.031 C 
ATOM     41  C   UNL A   1      42.356  26.632  27.207  1.00  0.00     0.029 A 
ATOM     42  N   UNL A   1      44.489  27.283  27.019  1.00  0.00    -0.354 N 
ATOM     43  C   UNL A   1      45.678  31.326  28.002  1.00  0.00     0.074 A 
ATOM     44  C   UNL A   1      44.540  32.113  28.418  1.00  0.00     0.031 C 
ATOM     45  C   UNL A   1      43.072  25.569  26.796  1.00  0.00     0.029 A 
ATOM     46  C   UNL A   1      44.468  25.969  26.617  1.00  0.00     0.049 A 
ATOM     47  H   UNL A   1      45.313  27.820  27.061  1.00  0.00     0.167 HD
ATOM     48  C   UNL A   1      46.947  31.794  27.957  1.00  0.00     0.031 A 
ATOM     49  C   UNL A   1      45.458  25.188  26.136  1.00  0.00     0.031 A 
ATOM     50  C   UNL A   1      48.074  31.012  27.525  1.00  0.00     0.049 A 
ATOM     51  C   UNL A   1      46.850  25.757  26.010  1.00  0.00     0.074 A 
ATOM     52  C   UNL A   1      49.403  31.390  27.450  1.00  0.00     0.029 A 
ATOM     53  N   UNL A   1      48.004  29.699  27.085  1.00  0.00    -0.354 N 
ATOM     54  N   UNL A   1      47.287  26.952  26.335  1.00  0.00    -0.248 NA
ATOM     55  C   UNL A   1      47.883  24.870  25.456  1.00  0.00     0.031 C 
ATOM     56  C   UNL A   1      50.126  30.326  26.901  1.00  0.00     0.029 A 
ATOM     57  C   UNL A   1      49.261  29.261  26.705  1.00  0.00     0.049 A 
ATOM     58  H   UNL A   1      47.182  29.159  27.048  1.00  0.00     0.167 HD
ATOM     59  C   UNL A   1      48.651  26.947  26.053  1.00  0.00     0.074 A 
ATOM     60  C   UNL A   1      48.968  25.627  25.547  1.00  0.00     0.031 C 
ATOM     61  C   UNL A   1      49.560  27.943  26.203  1.00  0.00     0.031 A 
BRANCH  48  62
ATOM     62  C   UNL A   1      47.171  33.232  28.342  1.00  0.00    -0.014 A 
ATOM     63  C   UNL A   1      47.067  34.269  27.397  1.00  0.00     0.010 A 
ATOM     64  C   UNL A   1      47.464  33.552  29.680  1.00  0.00     0.010 A 
ATOM     65  C   UNL A   1      47.289  35.595  27.777  1.00  0.00     0.020 A 
ATOM     66  C   UNL A   1      47.654  34.880  30.070  1.00  0.00     0.020 A 
ATOM     67  C   UNL A   1      47.581  35.892  29.111  1.00  0.00     0.054 A 
BRANCH  67  68
ATOM     68  S   UNL A   1      47.834  37.626  29.580  1.00  0.00     0.124 S 
ATOM     69  O   UNL A   1      46.667  38.273  28.985  1.00  0.00    -0.237 OA
ATOM     70  O   UNL A   1      47.841  37.563  31.039  1.00  0.00    -0.237 OA
ATOM     71  O   UNL A   1      49.116  37.969  28.967  1.00  0.00    -0.744 OA
ENDBRANCH  67  68
ENDBRANCH  48  62
BRANCH  49  72
ATOM     72  C   UNL A   1      45.168  23.789  25.712  1.00  0.00    -0.014 A 
ATOM     73  C   UNL A   1      45.684  22.696  26.431  1.00  0.00     0.010 A 
ATOM     74  C   UNL A   1      44.381  23.542  24.572  1.00  0.00     0.010 A 
ATOM     75  C   UNL A   1      45.431  21.386  26.012  1.00  0.00     0.020 A 
ATOM     76  C   UNL A   1      44.099  22.234  24.167  1.00  0.00     0.020 A 
ATOM     77  C   UNL A   1      44.634  21.165  24.884  1.00  0.00     0.054 A 
BRANCH  77  78
ATOM     78  S   UNL A   1      44.273  19.455  24.393  1.00  0.00     0.124 S 
ATOM     79  O   UNL A   1      44.526  19.489  22.956  1.00  0.00    -0.237 OA
ATOM     80  O   UNL A   1      45.233  18.692  25.187  1.00  0.00    -0.237 OA
ATOM     81  O   UNL A   1      42.875  19.276  24.780  1.00  0.00    -0.744 OA
ENDBRANCH  77  78
ENDBRANCH  49  72
BRANCH  61  82
ATOM     82  C   UNL A   1      50.996  27.639  25.856  1.00  0.00    -0.014 A 
ATOM     83  C   UNL A   1      51.854  27.003  26.770  1.00  0.00     0.010 A 
ATOM     84  C   UNL A   1      51.473  27.941  24.566  1.00  0.00     0.010 A 
ATOM     85  C   UNL A   1      53.172  26.705  26.412  1.00  0.00     0.020 A 
ATOM     86  C   UNL A   1      52.779  27.615  24.193  1.00  0.00     0.020 A 
ATOM     87  C   UNL A   1      53.626  27.011  25.125  1.00  0.00     0.054 A 
BRANCH  87  88
ATOM     88  S   UNL A   1      55.328  26.575  24.672  1.00  0.00     0.124 S 
ATOM     89  O   UNL A   1      55.331  25.127  24.862  1.00  0.00    -0.237 OA
ATOM     90  O   UNL A   1      55.415  27.027  23.286  1.00  0.00    -0.237 OA
ATOM     91  O   UNL A   1      56.144  27.328  25.621  1.00  0.00    -0.744 OA
ENDBRANCH  87  88
ENDBRANCH  61  82
ENDBRANCH  35  36
ENDBRANCH  28  30
ENDBRANCH  27  28
ENDBRANCH  26  27
ENDBRANCH  25  26
ENDBRANCH  24  25
ENDBRANCH  23  24
ENDBRANCH   1  23
TORSDOF 26
ENDMDL
MODEL 3
REMARK VINA RESULT:      -7.9      4.281      9.811
REMARK SMILES O=C(/C=C/c1ccc(O)c(O)c1)OCCOCCOCCOCCOC(=O)c1ccc(-c2c3nc(c(-c4ccc(S(=O)(=O)[O-])cc4)c4ccc([nH]4)c(-c4ccc(S(=O)(=O)[O-])cc4)c4nc(c(-c5ccc(S(=O)(=O)[O-])cc5)c5ccc2[nH]5)C=C4)C=C3)cc1
REMARK SMILES IDX 20 1 19 2 18 3 17 4 16 5 15 6 14 7 13 8 2 9 1 10 3 11 4 12
REMARK SMILES IDX 5 13 6 14 12 15 7 16 10 17 8 18 11 19 9 21 21 23 22 24 23 25
REMARK SMILES IDX 24 26 25 27 26 28 27 29 28 30 29 31 87 32 30 33 86 34 31 35
REMARK SMILES IDX 32 36 33 37 80 38 34 39 85 40 79 41 81 42 35 43 84 44 78 45
REMARK SMILES IDX 77 46 36 48 66 49 47 50 65 51 48 52 51 53 64 54 82 55 49 56
REMARK SMILES IDX 50 57 63 59 83 60 52 61 37 62 38 63 46 64 39 65 45 66 40 67
REMARK SMILES IDX 41 68 42 69 43 70 44 71 67 72 68 73 76 74 69 75 75 76 70 77
REMARK SMILES IDX 71 78 72 79 73 80 74 81 53 82 54 83 62 84 55 85 61 86 56 87
REMARK SMILES IDX 57 88 58 89 59 90 60 91
REMARK H PARENT 11 20 9 22 81 47 51 58
REMARK Flexibility Score: inf
ROOT
ATOM      1  C   UNL A   1      31.084  26.886  26.179  1.00  0.00     0.188 C 
ENDROOT
BRANCH   1   2
ATOM      2  O   UNL A   1      31.341  25.735  26.959  1.00  0.00    -0.377 OA
BRANCH   2   3
ATOM      3  C   UNL A   1      31.105  24.516  26.276  1.00  0.00     0.188 C 
BRANCH   3   4
ATOM      4  C   UNL A   1      31.778  23.289  26.882  1.00  0.00     0.188 C 
BRANCH   4   5
ATOM      5  O   UNL A   1      33.049  22.853  26.425  1.00  0.00    -0.376 OA
BRANCH   5   6
ATOM      6  C   UNL A   1      34.129  23.681  26.045  1.00  0.00     0.202 C 
BRANCH   6   7
ATOM      7  C   UNL A   1      34.409  24.073  24.599  1.00  0.00     0.261 C 
BRANCH   7   8
ATOM      8  O   UNL A   1      34.072  25.400  24.184  1.00  0.00    -0.460 OA
BRANCH   8   9
ATOM      9  C   UNL A   1      33.423  25.734  23.046  1.00  0.00     0.330 C 
ATOM     10  O   UNL A   1      33.953  25.566  21.951  1.00  0.00    -0.247 OA
BRANCH   9  11
ATOM     11  C   UNL A   1      32.251  26.623  23.134  1.00  0.00     0.094 C 
ATOM     12  C   UNL A   1      31.966  27.684  22.369  1.00  0.00     0.016 C 
BRANCH  12  13
ATOM     13  C   UNL A   1      30.673  28.373  22.467  1.00  0.00    -0.021 A 
ATOM     14  C   UNL A   1      30.515  29.683  21.995  1.00  0.00     0.012 A 
ATOM     15  C   UNL A   1      29.568  27.699  23.009  1.00  0.00     0.058 A 
ATOM     16  C   UNL A   1      29.258  30.296  22.009  1.00  0.00     0.051 A 
ATOM     17  C   UNL A   1      28.324  28.314  23.017  1.00  0.00     0.157 A 
ATOM     18  C   UNL A   1      28.162  29.594  22.501  1.00  0.00     0.157 A 
BRANCH  17  19
ATOM     19  O   UNL A   1      27.248  27.634  23.512  1.00  0.00    -0.504 OA
ATOM     20  H   UNL A   1      26.549  28.100  23.927  1.00  0.00     0.293 HD
ENDBRANCH  17  19
BRANCH  18  21
ATOM     21  O   UNL A   1      26.901  30.120  22.479  1.00  0.00    -0.504 OA
ATOM     22  H   UNL A   1      26.780  31.046  22.405  1.00  0.00     0.293 HD
ENDBRANCH  18  21
ENDBRANCH  12  13
ENDBRANCH   9  11
ENDBRANCH   8   9
ENDBRANCH   7   8
ENDBRANCH   6   7
ENDBRANCH   5   6
ENDBRANCH   4   5
ENDBRANCH   3   4
ENDBRANCH   2   3
ENDBRANCH   1   2
BRANCH   1  23
ATOM     23  C   UNL A   1      32.135  28.010  26.309  1.00  0.00     0.188 C 
BRANCH  23  24
ATOM     24  O   UNL A   1      31.937  29.119  27.172  1.00  0.00    -0.376 OA
BRANCH  24  25
ATOM     25  C   UNL A   1      32.177  30.440  26.726  1.00  0.00     0.202 C 
BRANCH  25  26
ATOM     26  C   UNL A   1      33.378  31.268  27.224  1.00  0.00     0.261 C 
BRANCH  26  27
ATOM     27  O   UNL A   1      33.116  32.287  28.194  1.00  0.00    -0.460 OA
BRANCH  27  28
ATOM     28  C   UNL A   1      33.961  33.346  28.194  1.00  0.00     0.338 C 
ATOM     29  O   UNL A   1      33.816  34.402  27.598  1.00  0.00    -0.246 OA
BRANCH  28  30
ATOM     30  C   UNL A   1      35.007  33.114  29.218  1.00  0.00     0.060 A 
ATOM     31  C   UNL A   1      36.235  33.779  29.081  1.00  0.00     0.016 A 
ATOM     32  C   UNL A   1      34.771  32.296  30.326  1.00  0.00     0.016 A 
ATOM     33  C   UNL A   1      37.238  33.615  30.036  1.00  0.00     0.010 A 
ATOM     34  C   UNL A   1      35.791  32.099  31.262  1.00  0.00     0.010 A 
ATOM     35  C   UNL A   1      37.039  32.729  31.100  1.00  0.00    -0.014 A 
BRANCH  35  36
ATOM     36  C   UNL A   1      38.212  32.265  31.881  1.00  0.00     0.031 A 
ATOM     37  C   UNL A   1      39.119  31.252  31.235  1.00  0.00     0.074 A 
ATOM     38  C   UNL A   1      38.489  32.744  33.107  1.00  0.00     0.049 A 
ATOM     39  N   UNL A   1      40.177  30.656  31.719  1.00  0.00    -0.248 NA
ATOM     40  C   UNL A   1      38.785  30.860  29.854  1.00  0.00     0.031 C 
ATOM     41  C   UNL A   1      37.725  33.769  33.812  1.00  0.00     0.029 A 
ATOM     42  N   UNL A   1      39.499  32.415  33.978  1.00  0.00    -0.354 N 
ATOM     43  C   UNL A   1      40.624  29.810  30.711  1.00  0.00     0.074 A 
ATOM     44  C   UNL A   1      39.710  29.949  29.600  1.00  0.00     0.031 C 
ATOM     45  C   UNL A   1      38.287  33.978  35.017  1.00  0.00     0.029 A 
ATOM     46  C   UNL A   1      39.427  33.076  35.181  1.00  0.00     0.049 A 
ATOM     47  H   UNL A   1      40.208  31.768  33.761  1.00  0.00     0.167 HD
ATOM     48  C   UNL A   1      41.700  28.991  30.707  1.00  0.00     0.031 A 
ATOM     49  C   UNL A   1      40.179  32.945  36.294  1.00  0.00     0.031 A 
ATOM     50  C   UNL A   1      42.597  28.841  31.821  1.00  0.00     0.049 A 
ATOM     51  C   UNL A   1      41.322  31.960  36.300  1.00  0.00     0.074 A 
ATOM     52  C   UNL A   1      43.723  28.043  31.916  1.00  0.00     0.029 A 
ATOM     53  N   UNL A   1      42.463  29.495  33.037  1.00  0.00    -0.354 N 
ATOM     54  N   UNL A   1      41.746  31.180  35.332  1.00  0.00    -0.248 NA
ATOM     55  C   UNL A   1      42.091  31.842  37.547  1.00  0.00     0.031 C 
ATOM     56  C   UNL A   1      44.231  28.164  33.213  1.00  0.00     0.029 A 
ATOM     57  C   UNL A   1      43.467  29.094  33.900  1.00  0.00     0.049 A 
ATOM     58  H   UNL A   1      41.759  30.147  33.253  1.00  0.00     0.167 HD
ATOM     59  C   UNL A   1      42.849  30.503  35.846  1.00  0.00     0.074 A 
ATOM     60  C   UNL A   1      43.035  30.977  37.202  1.00  0.00     0.031 C 
ATOM     61  C   UNL A   1      43.639  29.576  35.249  1.00  0.00     0.031 A 
BRANCH  48  62
ATOM     62  C   UNL A   1      41.937  28.160  29.474  1.00  0.00    -0.014 A 
ATOM     63  C   UNL A   1      42.572  28.697  28.338  1.00  0.00     0.010 A 
ATOM     64  C   UNL A   1      41.542  26.811  29.462  1.00  0.00     0.010 A 
ATOM     65  C   UNL A   1      42.772  27.909  27.202  1.00  0.00     0.020 A 
ATOM     66  C   UNL A   1      41.770  26.010  28.340  1.00  0.00     0.020 A 
ATOM     67  C   UNL A   1      42.370  26.570  27.211  1.00  0.00     0.054 A 
BRANCH  67  68
ATOM     68  S   UNL A   1      42.670  25.563  25.732  1.00  0.00     0.124 S 
ATOM     69  O   UNL A   1      43.985  24.993  26.018  1.00  0.00    -0.237 OA
ATOM     70  O   UNL A   1      41.557  24.618  25.759  1.00  0.00    -0.237 OA
ATOM     71  O   UNL A   1      42.637  26.531  24.638  1.00  0.00    -0.744 OA
ENDBRANCH  67  68
ENDBRANCH  48  62
BRANCH  49  72
ATOM     72  C   UNL A   1      39.863  33.749  37.508  1.00  0.00    -0.014 A 
ATOM     73  C   UNL A   1      40.555  34.942  37.783  1.00  0.00     0.010 A 
ATOM     74  C   UNL A   1      38.872  33.315  38.407  1.00  0.00     0.010 A 
ATOM     75  C   UNL A   1      40.273  35.677  38.939  1.00  0.00     0.020 A 
ATOM     76  C   UNL A   1      38.564  34.064  39.548  1.00  0.00     0.020 A 
ATOM     77  C   UNL A   1      39.274  35.235  39.811  1.00  0.00     0.054 A 
BRANCH  77  78
ATOM     78  S   UNL A   1      38.886  36.236  41.275  1.00  0.00     0.124 S 
ATOM     79  O   UNL A   1      38.540  37.524  40.682  1.00  0.00    -0.237 OA
ATOM     80  O   UNL A   1      37.778  35.497  41.875  1.00  0.00    -0.237 OA
ATOM     81  O   UNL A   1      40.128  36.212  42.044  1.00  0.00    -0.744 OA
ENDBRANCH  77  78
ENDBRANCH  49  72
BRANCH  61  82
ATOM     82  C   UNL A   1      44.806  29.036  36.038  1.00  0.00    -0.014 A 
ATOM     83  C   UNL A   1      46.065  29.660  36.006  1.00  0.00     0.010 A 
ATOM     84  C   UNL A   1      44.617  27.921  36.876  1.00  0.00     0.010 A 
ATOM     85  C   UNL A   1      47.122  29.158  36.771  1.00  0.00     0.020 A 
ATOM     86  C   UNL A   1      45.660  27.436  37.667  1.00  0.00     0.020 A 
ATOM     87  C   UNL A   1      46.913  28.050  37.598  1.00  0.00     0.054 A 
BRANCH  87  88
ATOM     88  S   UNL A   1      48.289  27.444  38.613  1.00  0.00     0.124 S 
ATOM     89  O   UNL A   1      47.589  26.789  39.715  1.00  0.00    -0.237 OA
ATOM     90  O   UNL A   1      48.992  26.551  37.697  1.00  0.00    -0.237 OA
ATOM     91  O   UNL A   1      49.017  28.659  38.972  1.00  0.00    -0.744 OA
ENDBRANCH  87  88
ENDBRANCH  61  82
ENDBRANCH  35  36
ENDBRANCH  28  30
ENDBRANCH  27  28
ENDBRANCH  26  27
ENDBRANCH  25  26
ENDBRANCH  24  25
ENDBRANCH  23  24
ENDBRANCH   1  23
TORSDOF 26
ENDMDL
