MODEL 1
REMARK VINA RESULT:      -8.8      0.000      0.000
REMARK SMILES Cc1coc2cc3c(cc12)[C@@H](C)[C@H](CCC(=O)N[C@@H](Cc1c[nH]c2ccccc12)C(=O)OCCOCCOCCOCCOC(=O)c1ccc(-c2c4nc(c(-c5ccc(S(=O)(=O)[O-])cc5)c5ccc([nH]5)c(-c5ccc(S(=O)(=O)[O-])cc5)c5nc(c(-c6ccc(S(=O)(=O)[O-])cc6)c6ccc2[nH]6)C=C5)C=C4)cc1)C(=O)O3
REMARK SMILES IDX 37 1 36 2 35 3 34 4 33 5 32 6 30 7 31 8 19 9 18 10 16 11
REMARK SMILES IDX 17 12 15 14 14 15 13 16 1 17 2 18 3 19 10 20 4 21 5 22 9 23
REMARK SMILES IDX 6 24 8 25 7 26 11 27 109 28 12 29 107 30 108 31 20 32 21 33
REMARK SMILES IDX 22 34 29 35 23 36 24 37 28 38 25 40 27 41 26 42 38 43 39 44
REMARK SMILES IDX 40 45 41 46 42 47 43 48 44 49 45 50 46 51 47 52 48 53 106 54
REMARK SMILES IDX 49 55 105 56 50 57 51 58 52 59 99 60 53 61 104 62 98 63
REMARK SMILES IDX 100 64 54 65 103 66 97 67 96 68 55 70 85 71 66 72 84 73
REMARK SMILES IDX 67 74 70 75 83 76 101 77 68 78 69 79 82 81 102 82 71 83
REMARK SMILES IDX 56 84 57 85 65 86 58 87 64 88 59 89 60 90 61 91 62 92 63 93
REMARK SMILES IDX 86 94 87 95 95 96 88 97 94 98 89 99 90 100 91 101 92 102
REMARK SMILES IDX 93 103 72 104 73 105 81 106 74 107 80 108 75 109 76 110
REMARK SMILES IDX 77 111 78 112 79 113
REMARK H PARENT 18 13 23 39 100 69 70 80
REMARK Flexibility Score: inf
ROOT
ATOM      1  C   UNL A   1      35.920  33.031  28.256  1.00  0.00     0.188 C 
ENDROOT
BRANCH   1   2
ATOM      2  C   UNL A   1      35.681  31.561  27.915  1.00  0.00     0.188 C 
BRANCH   2   3
ATOM      3  O   UNL A   1      35.703  30.647  29.008  1.00  0.00    -0.376 OA
BRANCH   3   4
ATOM      4  C   UNL A   1      36.762  30.780  29.945  1.00  0.00     0.202 C 
BRANCH   4   5
ATOM      5  C   UNL A   1      36.511  30.443  31.421  1.00  0.00     0.261 C 
BRANCH   5   6
ATOM      6  O   UNL A   1      37.646  30.535  32.300  1.00  0.00    -0.462 OA
BRANCH   6   7
ATOM      7  C   UNL A   1      38.066  29.356  32.823  1.00  0.00     0.329 C 
ATOM      8  O   UNL A   1      37.339  28.395  33.065  1.00  0.00    -0.250 OA
BRANCH   7   9
ATOM      9  C   UNL A   1      39.677  29.300  33.183  1.00  0.00     0.196 C 
BRANCH   9  10
ATOM     10  N   UNL A   1      40.635  28.581  34.832  1.00  0.00    -0.342 N 
ATOM     11  C   UNL A   1      41.713  28.121  35.624  1.00  0.00     0.220 C 
ATOM     12  O   UNL A   1      41.466  27.869  36.805  1.00  0.00    -0.275 OA
ATOM     13  H   UNL A   1      39.889  28.510  35.468  1.00  0.00     0.164 HD
BRANCH  11  14
ATOM     14  C   UNL A   1      43.124  28.076  35.126  1.00  0.00     0.101 C 
BRANCH  14  15
ATOM     15  C   UNL A   1      43.789  26.909  35.770  1.00  0.00     0.026 C 
BRANCH  15  16
ATOM     16  C   UNL A   1      43.970  25.895  34.653  1.00  0.00     0.107 C 
ATOM     17  C   UNL A   1      50.933  22.162  34.171  1.00  0.00     0.048 C 
ATOM     18  C   UNL A   1      49.662  21.615  34.698  1.00  0.00    -0.005 A 
ATOM     19  C   UNL A   1      49.470  20.347  35.199  1.00  0.00     0.199 A 
ATOM     20  C   UNL A   1      48.380  22.271  34.733  1.00  0.00     0.024 A 
ATOM     21  O   UNL A   1      48.167  20.123  35.466  1.00  0.00    -0.464 OA
ATOM     22  C   UNL A   1      47.475  21.251  35.124  1.00  0.00     0.137 A 
ATOM     23  C   UNL A   1      47.984  23.625  34.434  1.00  0.00     0.020 A 
ATOM     24  C   UNL A   1      46.076  21.273  35.173  1.00  0.00     0.095 A 
ATOM     25  C   UNL A   1      46.625  23.856  34.435  1.00  0.00    -0.001 A 
ATOM     26  C   UNL A   1      45.646  22.483  34.707  1.00  0.00     0.138 A 
ATOM     27  C   UNL A   1      45.917  25.636  34.375  1.00  0.00     0.034 C 
ATOM     28  O   UNL A   1      43.901  22.795  35.066  1.00  0.00    -0.426 OA
ATOM     29  C   UNL A   1      46.412  26.606  33.293  1.00  0.00     0.014 C 
ATOM     30  C   UNL A   1      42.930  24.287  35.094  1.00  0.00     0.314 C 
ATOM     31  O   UNL A   1      41.777  24.263  35.528  1.00  0.00    -0.251 OA
ENDBRANCH  15  16
ENDBRANCH  14  15
ENDBRANCH  11  14
ENDBRANCH   9  10
BRANCH   9  32
ATOM     32  C   UNL A   1      40.182  29.499  31.542  1.00  0.00     0.074 C 
BRANCH  32  33
ATOM     33  C   UNL A   1      41.045  28.643  30.646  1.00  0.00    -0.020 A 
ATOM     34  C   UNL A   1      42.058  27.728  30.844  1.00  0.00     0.087 A 
ATOM     35  C   UNL A   1      40.837  28.672  29.213  1.00  0.00     0.003 A 
ATOM     36  N   UNL A   1      42.596  27.398  29.622  1.00  0.00    -0.361 N 
ATOM     37  C   UNL A   1      41.863  27.959  28.606  1.00  0.00     0.046 A 
ATOM     38  C   UNL A   1      39.853  29.258  28.390  1.00  0.00     0.010 A 
ATOM     39  H   UNL A   1      43.396  26.838  29.493  1.00  0.00     0.166 HD
ATOM     40  C   UNL A   1      42.001  27.860  27.216  1.00  0.00     0.026 A 
ATOM     41  C   UNL A   1      39.943  29.127  27.002  1.00  0.00     0.001 A 
ATOM     42  C   UNL A   1      41.009  28.450  26.424  1.00  0.00     0.002 A 
ENDBRANCH  32  33
ENDBRANCH   9  32
ENDBRANCH   7   9
ENDBRANCH   6   7
ENDBRANCH   5   6
ENDBRANCH   4   5
ENDBRANCH   3   4
ENDBRANCH   2   3
ENDBRANCH   1   2
BRANCH   1  43
ATOM     43  O   UNL A   1      34.941  33.866  27.644  1.00  0.00    -0.377 OA
BRANCH  43  44
ATOM     44  C   UNL A   1      33.669  33.948  28.272  1.00  0.00     0.188 C 
BRANCH  44  45
ATOM     45  C   UNL A   1      33.278  35.297  28.881  1.00  0.00     0.188 C 
BRANCH  45  46
ATOM     46  O   UNL A   1      32.573  35.249  30.118  1.00  0.00    -0.376 OA
BRANCH  46  47
ATOM     47  C   UNL A   1      32.961  36.193  31.120  1.00  0.00     0.202 C 
BRANCH  47  48
ATOM     48  C   UNL A   1      32.696  35.748  32.567  1.00  0.00     0.261 C 
BRANCH  48  49
ATOM     49  O   UNL A   1      33.915  35.270  33.155  1.00  0.00    -0.460 OA
BRANCH  49  50
ATOM     50  C   UNL A   1      34.073  33.925  33.227  1.00  0.00     0.338 C 
ATOM     51  O   UNL A   1      33.213  33.067  33.154  1.00  0.00    -0.246 OA
BRANCH  50  52
ATOM     52  C   UNL A   1      35.522  33.687  33.050  1.00  0.00     0.060 A 
ATOM     53  C   UNL A   1      36.311  33.242  34.114  1.00  0.00     0.016 A 
ATOM     54  C   UNL A   1      36.105  34.157  31.865  1.00  0.00     0.016 A 
ATOM     55  C   UNL A   1      37.693  33.327  34.006  1.00  0.00     0.010 A 
ATOM     56  C   UNL A   1      37.488  34.274  31.774  1.00  0.00     0.010 A 
ATOM     57  C   UNL A   1      38.280  33.867  32.849  1.00  0.00    -0.014 A 
BRANCH  57  58
ATOM     58  C   UNL A   1      39.737  33.789  32.743  1.00  0.00     0.031 A 
ATOM     59  C   UNL A   1      40.439  33.877  34.046  1.00  0.00     0.074 A 
ATOM     60  C   UNL A   1      40.447  33.497  31.638  1.00  0.00     0.049 A 
ATOM     61  N   UNL A   1      41.270  34.773  34.464  1.00  0.00    -0.248 NA
ATOM     62  C   UNL A   1      40.080  32.858  35.048  1.00  0.00     0.031 C 
ATOM     63  C   UNL A   1      39.926  32.941  30.393  1.00  0.00     0.029 A 
ATOM     64  N   UNL A   1      41.801  33.534  31.432  1.00  0.00    -0.354 N 
ATOM     65  C   UNL A   1      41.691  34.325  35.712  1.00  0.00     0.074 A 
ATOM     66  C   UNL A   1      40.807  33.251  36.090  1.00  0.00     0.031 C 
ATOM     67  C   UNL A   1      40.958  32.543  29.618  1.00  0.00     0.029 A 
ATOM     68  C   UNL A   1      42.211  32.886  30.274  1.00  0.00     0.049 A 
ATOM     69  H   UNL A   1      42.426  33.979  32.048  1.00  0.00     0.167 HD
ATOM     70  C   UNL A   1      42.874  34.695  36.268  1.00  0.00     0.031 A 
ATOM     71  C   UNL A   1      43.474  32.555  29.909  1.00  0.00     0.031 A 
ATOM     72  C   UNL A   1      43.445  35.853  35.641  1.00  0.00     0.049 A 
ATOM     73  C   UNL A   1      44.436  33.312  30.746  1.00  0.00     0.074 A 
ATOM     74  C   UNL A   1      43.051  37.164  35.468  1.00  0.00     0.029 A 
ATOM     75  N   UNL A   1      44.505  35.644  34.796  1.00  0.00    -0.354 N 
ATOM     76  N   UNL A   1      44.667  34.591  30.661  1.00  0.00    -0.248 NA
ATOM     77  C   UNL A   1      44.961  32.661  31.937  1.00  0.00     0.031 C 
ATOM     78  C   UNL A   1      43.667  37.592  34.260  1.00  0.00     0.029 A 
ATOM     79  C   UNL A   1      44.412  36.528  33.751  1.00  0.00     0.049 A 
ATOM     80  H   UNL A   1      45.215  34.972  34.918  1.00  0.00     0.167 HD
ATOM     81  C   UNL A   1      45.044  34.976  31.939  1.00  0.00     0.074 A 
ATOM     82  C   UNL A   1      45.306  33.733  32.649  1.00  0.00     0.031 C 
ATOM     83  C   UNL A   1      44.848  36.246  32.397  1.00  0.00     0.031 A 
BRANCH  70  84
ATOM     84  C   UNL A   1      43.667  33.784  37.172  1.00  0.00    -0.014 A 
ATOM     85  C   UNL A   1      44.204  34.221  38.403  1.00  0.00     0.010 A 
ATOM     86  C   UNL A   1      43.693  32.400  36.921  1.00  0.00     0.010 A 
ATOM     87  C   UNL A   1      44.787  33.342  39.314  1.00  0.00     0.020 A 
ATOM     88  C   UNL A   1      44.227  31.499  37.856  1.00  0.00     0.020 A 
ATOM     89  C   UNL A   1      44.783  31.980  39.042  1.00  0.00     0.054 A 
BRANCH  89  90
ATOM     90  S   UNL A   1      45.418  30.860  40.313  1.00  0.00     0.124 S 
ATOM     91  O   UNL A   1      46.823  30.744  39.931  1.00  0.00    -0.237 OA
ATOM     92  O   UNL A   1      45.160  31.603  41.544  1.00  0.00    -0.237 OA
ATOM     93  O   UNL A   1      44.616  29.654  40.135  1.00  0.00    -0.744 OA
ENDBRANCH  89  90
ENDBRANCH  70  84
BRANCH  71  94
ATOM     94  C   UNL A   1      43.891  31.367  29.113  1.00  0.00    -0.014 A 
ATOM     95  C   UNL A   1      44.703  30.378  29.706  1.00  0.00     0.010 A 
ATOM     96  C   UNL A   1      43.723  31.323  27.716  1.00  0.00     0.010 A 
ATOM     97  C   UNL A   1      45.361  29.413  28.942  1.00  0.00     0.020 A 
ATOM     98  C   UNL A   1      44.397  30.363  26.937  1.00  0.00     0.020 A 
ATOM     99  C   UNL A   1      45.236  29.436  27.556  1.00  0.00     0.054 A 
BRANCH  99 100
ATOM    100  S   UNL A   1      46.276  28.297  26.602  1.00  0.00     0.124 S 
ATOM    101  O   UNL A   1      45.568  27.031  26.770  1.00  0.00    -0.237 OA
ATOM    102  O   UNL A   1      46.218  28.870  25.258  1.00  0.00    -0.237 OA
ATOM    103  O   UNL A   1      47.578  28.379  27.258  1.00  0.00    -0.744 OA
ENDBRANCH  99 100
ENDBRANCH  71  94
BRANCH  83 104
ATOM    104  C   UNL A   1      44.846  37.391  31.414  1.00  0.00    -0.014 A 
ATOM    105  C   UNL A   1      43.681  37.553  30.639  1.00  0.00     0.010 A 
ATOM    106  C   UNL A   1      45.930  38.252  31.174  1.00  0.00     0.010 A 
ATOM    107  C   UNL A   1      43.581  38.563  29.680  1.00  0.00     0.020 A 
ATOM    108  C   UNL A   1      45.831  39.281  30.223  1.00  0.00     0.020 A 
ATOM    109  C   UNL A   1      44.649  39.439  29.494  1.00  0.00     0.054 A 
BRANCH 109 110
ATOM    110  S   UNL A   1      44.484  40.759  28.258  1.00  0.00     0.124 S 
ATOM    111  O   UNL A   1      44.157  41.934  29.066  1.00  0.00    -0.237 OA
ATOM    112  O   UNL A   1      45.810  40.781  27.647  1.00  0.00    -0.237 OA
ATOM    113  O   UNL A   1      43.401  40.301  27.389  1.00  0.00    -0.744 OA
ENDBRANCH 109 110
ENDBRANCH  83 104
ENDBRANCH  57  58
ENDBRANCH  50  52
ENDBRANCH  49  50
ENDBRANCH  48  49
ENDBRANCH  47  48
ENDBRANCH  46  47
ENDBRANCH  45  46
ENDBRANCH  44  45
ENDBRANCH  43  44
ENDBRANCH   1  43
TORSDOF 29
ENDMDL
MODEL 2
REMARK VINA RESULT:      -8.8      2.689      7.663
REMARK SMILES Cc1coc2cc3c(cc12)[C@@H](C)[C@H](CCC(=O)N[C@@H](Cc1c[nH]c2ccccc12)C(=O)OCCOCCOCCOCCOC(=O)c1ccc(-c2c4nc(c(-c5ccc(S(=O)(=O)[O-])cc5)c5ccc([nH]5)c(-c5ccc(S(=O)(=O)[O-])cc5)c5nc(c(-c6ccc(S(=O)(=O)[O-])cc6)c6ccc2[nH]6)C=C5)C=C4)cc1)C(=O)O3
REMARK SMILES IDX 37 1 36 2 35 3 34 4 33 5 32 6 30 7 31 8 19 9 18 10 16 11
REMARK SMILES IDX 17 12 15 14 14 15 13 16 1 17 2 18 3 19 10 20 4 21 5 22 9 23
REMARK SMILES IDX 6 24 8 25 7 26 11 27 109 28 12 29 107 30 108 31 20 32 21 33
REMARK SMILES IDX 22 34 29 35 23 36 24 37 28 38 25 40 27 41 26 42 38 43 39 44
REMARK SMILES IDX 40 45 41 46 42 47 43 48 44 49 45 50 46 51 47 52 48 53 106 54
REMARK SMILES IDX 49 55 105 56 50 57 51 58 52 59 99 60 53 61 104 62 98 63
REMARK SMILES IDX 100 64 54 65 103 66 97 67 96 68 55 70 85 71 66 72 84 73
REMARK SMILES IDX 67 74 70 75 83 76 101 77 68 78 69 79 82 81 102 82 71 83
REMARK SMILES IDX 56 84 57 85 65 86 58 87 64 88 59 89 60 90 61 91 62 92 63 93
REMARK SMILES IDX 86 94 87 95 95 96 88 97 94 98 89 99 90 100 91 101 92 102
REMARK SMILES IDX 93 103 72 104 73 105 81 106 74 107 80 108 75 109 76 110
REMARK SMILES IDX 77 111 78 112 79 113
REMARK H PARENT 18 13 23 39 100 69 70 80
REMARK Flexibility Score: inf
ROOT
ATOM      1  C   UNL A   1      35.820  32.992  28.188  1.00  0.00     0.188 C 
ENDROOT
BRANCH   1   2
ATOM      2  C   UNL A   1      35.461  31.560  27.793  1.00  0.00     0.188 C 
BRANCH   2   3
ATOM      3  O   UNL A   1      35.519  30.585  28.830  1.00  0.00    -0.376 OA
BRANCH   3   4
ATOM      4  C   UNL A   1      36.734  30.482  29.559  1.00  0.00     0.202 C 
BRANCH   4   5
ATOM      5  C   UNL A   1      36.705  30.563  31.091  1.00  0.00     0.261 C 
BRANCH   5   6
ATOM      6  O   UNL A   1      37.935  30.258  31.771  1.00  0.00    -0.462 OA
BRANCH   6   7
ATOM      7  C   UNL A   1      37.941  29.087  32.455  1.00  0.00     0.329 C 
ATOM      8  O   UNL A   1      36.990  28.640  33.095  1.00  0.00    -0.250 OA
BRANCH   7   9
ATOM      9  C   UNL A   1      39.381  28.280  32.421  1.00  0.00     0.196 C 
BRANCH   9  10
ATOM     10  N   UNL A   1      40.544  27.594  33.948  1.00  0.00    -0.342 N 
ATOM     11  C   UNL A   1      41.710  27.129  34.599  1.00  0.00     0.220 C 
ATOM     12  O   UNL A   1      41.628  26.933  35.813  1.00  0.00    -0.275 OA
ATOM     13  H   UNL A   1      39.895  27.575  34.686  1.00  0.00     0.164 HD
BRANCH  11  14
ATOM     14  C   UNL A   1      43.034  27.013  33.909  1.00  0.00     0.101 C 
BRANCH  14  15
ATOM     15  C   UNL A   1      43.956  26.289  34.826  1.00  0.00     0.026 C 
BRANCH  15  16
ATOM     16  C   UNL A   1      44.340  25.023  34.078  1.00  0.00     0.107 C 
ATOM     17  C   UNL A   1      51.475  21.918  35.527  1.00  0.00     0.048 C 
ATOM     18  C   UNL A   1      50.171  21.432  36.032  1.00  0.00    -0.005 A 
ATOM     19  C   UNL A   1      49.973  20.342  36.850  1.00  0.00     0.199 A 
ATOM     20  C   UNL A   1      48.867  21.958  35.723  1.00  0.00     0.024 A 
ATOM     21  O   UNL A   1      48.657  20.089  37.011  1.00  0.00    -0.464 OA
ATOM     22  C   UNL A   1      47.966  21.013  36.280  1.00  0.00     0.137 A 
ATOM     23  C   UNL A   1      48.451  23.136  35.003  1.00  0.00     0.020 A 
ATOM     24  C   UNL A   1      46.575  20.927  36.152  1.00  0.00     0.095 A 
ATOM     25  C   UNL A   1      47.095  23.240  34.774  1.00  0.00    -0.001 A 
ATOM     26  C   UNL A   1      46.156  21.919  35.310  1.00  0.00     0.138 A 
ATOM     27  C   UNL A   1      46.317  24.866  34.121  1.00  0.00     0.034 C 
ATOM     28  O   UNL A   1      44.364  22.167  35.352  1.00  0.00    -0.426 OA
ATOM     29  C   UNL A   1      46.911  25.535  32.874  1.00  0.00     0.014 C 
ATOM     30  C   UNL A   1      43.328  23.518  34.833  1.00  0.00     0.314 C 
ATOM     31  O   UNL A   1      42.128  23.517  35.115  1.00  0.00    -0.251 OA
ENDBRANCH  15  16
ENDBRANCH  14  15
ENDBRANCH  11  14
ENDBRANCH   9  10
BRANCH   9  32
ATOM     32  C   UNL A   1      39.205  27.772  30.778  1.00  0.00     0.074 C 
BRANCH  32  33
ATOM     33  C   UNL A   1      40.217  27.576  29.674  1.00  0.00    -0.020 A 
ATOM     34  C   UNL A   1      41.400  28.182  29.309  1.00  0.00     0.087 A 
ATOM     35  C   UNL A   1      40.033  26.501  28.721  1.00  0.00     0.003 A 
ATOM     36  N   UNL A   1      41.793  27.680  28.090  1.00  0.00    -0.361 N 
ATOM     37  C   UNL A   1      40.976  26.645  27.710  1.00  0.00     0.046 A 
ATOM     38  C   UNL A   1      39.130  25.420  28.642  1.00  0.00     0.010 A 
ATOM     39  H   UNL A   1      42.554  28.016  27.563  1.00  0.00     0.166 HD
ATOM     40  C   UNL A   1      41.018  25.811  26.586  1.00  0.00     0.026 A 
ATOM     41  C   UNL A   1      39.190  24.545  27.555  1.00  0.00     0.001 A 
ATOM     42  C   UNL A   1      40.112  24.746  26.536  1.00  0.00     0.002 A 
ENDBRANCH  32  33
ENDBRANCH   9  32
ENDBRANCH   7   9
ENDBRANCH   6   7
ENDBRANCH   5   6
ENDBRANCH   4   5
ENDBRANCH   3   4
ENDBRANCH   2   3
ENDBRANCH   1   2
BRANCH   1  43
ATOM     43  O   UNL A   1      34.905  33.925  27.621  1.00  0.00    -0.377 OA
BRANCH  43  44
ATOM     44  C   UNL A   1      33.614  34.014  28.210  1.00  0.00     0.188 C 
BRANCH  44  45
ATOM     45  C   UNL A   1      33.225  35.355  28.836  1.00  0.00     0.188 C 
BRANCH  45  46
ATOM     46  O   UNL A   1      32.598  35.296  30.114  1.00  0.00    -0.376 OA
BRANCH  46  47
ATOM     47  C   UNL A   1      33.181  36.081  31.157  1.00  0.00     0.202 C 
BRANCH  47  48
ATOM     48  C   UNL A   1      33.034  35.494  32.570  1.00  0.00     0.261 C 
BRANCH  48  49
ATOM     49  O   UNL A   1      34.314  35.050  33.043  1.00  0.00    -0.460 OA
BRANCH  49  50
ATOM     50  C   UNL A   1      34.553  33.715  33.000  1.00  0.00     0.338 C 
ATOM     51  O   UNL A   1      33.765  32.825  32.740  1.00  0.00    -0.246 OA
BRANCH  50  52
ATOM     52  C   UNL A   1      36.024  33.577  32.980  1.00  0.00     0.060 A 
ATOM     53  C   UNL A   1      36.693  32.864  33.979  1.00  0.00     0.016 A 
ATOM     54  C   UNL A   1      36.728  34.385  32.075  1.00  0.00     0.016 A 
ATOM     55  C   UNL A   1      38.067  33.012  34.103  1.00  0.00     0.010 A 
ATOM     56  C   UNL A   1      38.099  34.559  32.226  1.00  0.00     0.010 A 
ATOM     57  C   UNL A   1      38.767  33.879  33.247  1.00  0.00    -0.014 A 
BRANCH  57  58
ATOM     58  C   UNL A   1      40.226  33.873  33.339  1.00  0.00     0.031 A 
ATOM     59  C   UNL A   1      40.905  33.447  32.091  1.00  0.00     0.074 A 
ATOM     60  C   UNL A   1      40.968  34.350  34.355  1.00  0.00     0.049 A 
ATOM     61  N   UNL A   1      41.665  32.423  31.887  1.00  0.00    -0.248 NA
ATOM     62  C   UNL A   1      40.608  34.241  30.886  1.00  0.00     0.031 C 
ATOM     63  C   UNL A   1      40.502  35.205  35.442  1.00  0.00     0.029 A 
ATOM     64  N   UNL A   1      42.318  34.262  34.570  1.00  0.00    -0.354 N 
ATOM     65  C   UNL A   1      42.102  32.551  30.572  1.00  0.00     0.074 A 
ATOM     66  C   UNL A   1      41.293  33.576  29.961  1.00  0.00     0.031 C 
ATOM     67  C   UNL A   1      41.570  35.688  36.114  1.00  0.00     0.029 A 
ATOM     68  C   UNL A   1      42.787  35.119  35.557  1.00  0.00     0.049 A 
ATOM     69  H   UNL A   1      42.903  33.648  34.071  1.00  0.00     0.167 HD
ATOM     70  C   UNL A   1      43.249  31.982  30.118  1.00  0.00     0.031 A 
ATOM     71  C   UNL A   1      44.075  35.431  35.845  1.00  0.00     0.031 A 
ATOM     72  C   UNL A   1      43.743  30.954  30.989  1.00  0.00     0.049 A 
ATOM     73  C   UNL A   1      44.970  34.440  35.202  1.00  0.00     0.074 A 
ATOM     74  C   UNL A   1      43.259  29.747  31.447  1.00  0.00     0.029 A 
ATOM     75  N   UNL A   1      44.826  31.268  31.771  1.00  0.00    -0.354 N 
ATOM     76  N   UNL A   1      45.110  33.198  35.570  1.00  0.00    -0.248 NA
ATOM     77  C   UNL A   1      45.526  34.771  33.898  1.00  0.00     0.031 C 
ATOM     78  C   UNL A   1      43.856  29.553  32.723  1.00  0.00     0.029 A 
ATOM     79  C   UNL A   1      44.681  30.647  32.985  1.00  0.00     0.049 A 
ATOM     80  H   UNL A   1      45.580  31.843  31.506  1.00  0.00     0.167 HD
ATOM     81  C   UNL A   1      45.444  32.513  34.411  1.00  0.00     0.074 A 
ATOM     82  C   UNL A   1      45.786  33.545  33.443  1.00  0.00     0.031 C 
ATOM     83  C   UNL A   1      45.152  31.191  34.246  1.00  0.00     0.031 A 
BRANCH  70  84
ATOM     84  C   UNL A   1      44.095  32.610  29.037  1.00  0.00    -0.014 A 
ATOM     85  C   UNL A   1      44.306  31.990  27.786  1.00  0.00     0.010 A 
ATOM     86  C   UNL A   1      44.506  33.950  29.162  1.00  0.00     0.010 A 
ATOM     87  C   UNL A   1      44.942  32.642  26.731  1.00  0.00     0.020 A 
ATOM     88  C   UNL A   1      45.096  34.634  28.088  1.00  0.00     0.020 A 
ATOM     89  C   UNL A   1      45.322  33.969  26.883  1.00  0.00     0.054 A 
BRANCH  89  90
ATOM     90  S   UNL A   1      46.012  34.822  25.444  1.00  0.00     0.124 S 
ATOM     91  O   UNL A   1      45.953  36.218  25.869  1.00  0.00    -0.237 OA
ATOM     92  O   UNL A   1      47.352  34.248  25.351  1.00  0.00    -0.237 OA
ATOM     93  O   UNL A   1      45.103  34.455  24.363  1.00  0.00    -0.744 OA
ENDBRANCH  89  90
ENDBRANCH  70  84
BRANCH  71  94
ATOM     94  C   UNL A   1      44.585  36.733  36.359  1.00  0.00    -0.014 A 
ATOM     95  C   UNL A   1      44.252  37.928  35.689  1.00  0.00     0.010 A 
ATOM     96  C   UNL A   1      45.599  36.791  37.334  1.00  0.00     0.010 A 
ATOM     97  C   UNL A   1      44.929  39.123  35.939  1.00  0.00     0.020 A 
ATOM     98  C   UNL A   1      46.298  37.988  37.579  1.00  0.00     0.020 A 
ATOM     99  C   UNL A   1      45.977  39.137  36.854  1.00  0.00     0.054 A 
BRANCH  99 100
ATOM    100  S   UNL A   1      46.956  40.657  36.984  1.00  0.00     0.124 S 
ATOM    101  O   UNL A   1      46.974  40.881  38.428  1.00  0.00    -0.237 OA
ATOM    102  O   UNL A   1      48.235  40.259  36.400  1.00  0.00    -0.237 OA
ATOM    103  O   UNL A   1      46.194  41.632  36.209  1.00  0.00    -0.744 OA
ENDBRANCH  99 100
ENDBRANCH  71  94
BRANCH  83 104
ATOM    104  C   UNL A   1      45.080  30.295  35.458  1.00  0.00    -0.014 A 
ATOM    105  C   UNL A   1      46.220  29.514  35.731  1.00  0.00     0.010 A 
ATOM    106  C   UNL A   1      43.952  30.137  36.281  1.00  0.00     0.010 A 
ATOM    107  C   UNL A   1      46.253  28.630  36.811  1.00  0.00     0.020 A 
ATOM    108  C   UNL A   1      43.984  29.262  37.379  1.00  0.00     0.020 A 
ATOM    109  C   UNL A   1      45.142  28.526  37.646  1.00  0.00     0.054 A 
BRANCH 109 110
ATOM    110  S   UNL A   1      45.220  27.387  39.058  1.00  0.00     0.124 S 
ATOM    111  O   UNL A   1      46.496  26.698  38.861  1.00  0.00    -0.237 OA
ATOM    112  O   UNL A   1      45.182  28.300  40.196  1.00  0.00    -0.237 OA
ATOM    113  O   UNL A   1      44.042  26.537  38.896  1.00  0.00    -0.744 OA
ENDBRANCH 109 110
ENDBRANCH  83 104
ENDBRANCH  57  58
ENDBRANCH  50  52
ENDBRANCH  49  50
ENDBRANCH  48  49
ENDBRANCH  47  48
ENDBRANCH  46  47
ENDBRANCH  45  46
ENDBRANCH  44  45
ENDBRANCH  43  44
ENDBRANCH   1  43
TORSDOF 29
ENDMDL
MODEL 3
REMARK VINA RESULT:      -7.8      3.089      4.690
REMARK SMILES Cc1coc2cc3c(cc12)[C@@H](C)[C@H](CCC(=O)N[C@@H](Cc1c[nH]c2ccccc12)C(=O)OCCOCCOCCOCCOC(=O)c1ccc(-c2c4nc(c(-c5ccc(S(=O)(=O)[O-])cc5)c5ccc([nH]5)c(-c5ccc(S(=O)(=O)[O-])cc5)c5nc(c(-c6ccc(S(=O)(=O)[O-])cc6)c6ccc2[nH]6)C=C5)C=C4)cc1)C(=O)O3
REMARK SMILES IDX 37 1 36 2 35 3 34 4 33 5 32 6 30 7 31 8 19 9 18 10 16 11
REMARK SMILES IDX 17 12 15 14 14 15 13 16 1 17 2 18 3 19 10 20 4 21 5 22 9 23
REMARK SMILES IDX 6 24 8 25 7 26 11 27 109 28 12 29 107 30 108 31 20 32 21 33
REMARK SMILES IDX 22 34 29 35 23 36 24 37 28 38 25 40 27 41 26 42 38 43 39 44
REMARK SMILES IDX 40 45 41 46 42 47 43 48 44 49 45 50 46 51 47 52 48 53 106 54
REMARK SMILES IDX 49 55 105 56 50 57 51 58 52 59 99 60 53 61 104 62 98 63
REMARK SMILES IDX 100 64 54 65 103 66 97 67 96 68 55 70 85 71 66 72 84 73
REMARK SMILES IDX 67 74 70 75 83 76 101 77 68 78 69 79 82 81 102 82 71 83
REMARK SMILES IDX 56 84 57 85 65 86 58 87 64 88 59 89 60 90 61 91 62 92 63 93
REMARK SMILES IDX 86 94 87 95 95 96 88 97 94 98 89 99 90 100 91 101 92 102
REMARK SMILES IDX 93 103 72 104 73 105 81 106 74 107 80 108 75 109 76 110
REMARK SMILES IDX 77 111 78 112 79 113
REMARK H PARENT 18 13 23 39 100 69 70 80
REMARK Flexibility Score: inf
ROOT
ATOM      1  C   UNL A   1      35.812  32.932  28.767  1.00  0.00     0.188 C 
ENDROOT
BRANCH   1   2
ATOM      2  C   UNL A   1      35.810  31.636  27.958  1.00  0.00     0.188 C 
BRANCH   2   3
ATOM      3  O   UNL A   1      36.369  30.491  28.598  1.00  0.00    -0.376 OA
BRANCH   3   4
ATOM      4  C   UNL A   1      37.712  30.158  28.278  1.00  0.00     0.202 C 
BRANCH   4   5
ATOM      5  C   UNL A   1      38.830  30.487  29.275  1.00  0.00     0.261 C 
BRANCH   5   6
ATOM      6  O   UNL A   1      39.944  29.577  29.311  1.00  0.00    -0.462 OA
BRANCH   6   7
ATOM      7  C   UNL A   1      39.897  28.648  30.298  1.00  0.00     0.329 C 
ATOM      8  O   UNL A   1      38.867  28.246  30.838  1.00  0.00    -0.250 OA
BRANCH   7   9
ATOM      9  C   UNL A   1      41.373  28.099  30.795  1.00  0.00     0.196 C 
BRANCH   9  10
ATOM     10  N   UNL A   1      42.238  28.130  32.640  1.00  0.00    -0.342 N 
ATOM     11  C   UNL A   1      43.275  28.097  33.601  1.00  0.00     0.220 C 
ATOM     12  O   UNL A   1      42.950  28.275  34.776  1.00  0.00    -0.275 OA
ATOM     13  H   UNL A   1      41.448  28.229  33.217  1.00  0.00     0.164 HD
BRANCH  11  14
ATOM     14  C   UNL A   1      44.723  28.004  33.229  1.00  0.00     0.101 C 
BRANCH  14  15
ATOM     15  C   UNL A   1      44.794  27.584  31.803  1.00  0.00     0.026 C 
BRANCH  15  16
ATOM     16  C   UNL A   1      45.810  28.519  31.168  1.00  0.00     0.107 C 
ATOM     17  C   UNL A   1      51.228  25.338  26.354  1.00  0.00     0.048 C 
ATOM     18  C   UNL A   1      50.021  26.100  25.959  1.00  0.00    -0.005 A 
ATOM     19  C   UNL A   1      49.629  26.391  24.672  1.00  0.00     0.199 A 
ATOM     20  C   UNL A   1      49.065  26.730  26.833  1.00  0.00     0.024 A 
ATOM     21  O   UNL A   1      48.563  27.217  24.664  1.00  0.00    -0.464 OA
ATOM     22  C   UNL A   1      48.245  27.494  25.963  1.00  0.00     0.137 A 
ATOM     23  C   UNL A   1      48.900  26.693  28.265  1.00  0.00     0.020 A 
ATOM     24  C   UNL A   1      47.251  28.430  26.271  1.00  0.00     0.095 A 
ATOM     25  C   UNL A   1      47.951  27.554  28.773  1.00  0.00    -0.001 A 
ATOM     26  C   UNL A   1      47.196  28.572  27.629  1.00  0.00     0.138 A 
ATOM     27  C   UNL A   1      47.364  27.430  30.594  1.00  0.00     0.034 C 
ATOM     28  O   UNL A   1      45.716  29.452  28.184  1.00  0.00    -0.426 OA
ATOM     29  C   UNL A   1      48.408  27.395  31.718  1.00  0.00     0.014 C 
ATOM     30  C   UNL A   1      44.909  29.563  29.768  1.00  0.00     0.314 C 
ATOM     31  O   UNL A   1      43.808  30.107  29.861  1.00  0.00    -0.251 OA
ENDBRANCH  15  16
ENDBRANCH  14  15
ENDBRANCH  11  14
ENDBRANCH   9  10
BRANCH   9  32
ATOM     32  C   UNL A   1      41.592  27.064  29.427  1.00  0.00     0.074 C 
BRANCH  32  33
ATOM     33  C   UNL A   1      42.629  27.056  28.330  1.00  0.00    -0.020 A 
ATOM     34  C   UNL A   1      42.856  27.798  27.191  1.00  0.00     0.087 A 
ATOM     35  C   UNL A   1      43.724  26.110  28.390  1.00  0.00     0.003 A 
ATOM     36  N   UNL A   1      43.870  27.204  26.475  1.00  0.00    -0.361 N 
ATOM     37  C   UNL A   1      44.423  26.172  27.190  1.00  0.00     0.046 A 
ATOM     38  C   UNL A   1      44.167  25.202  29.375  1.00  0.00     0.010 A 
ATOM     39  H   UNL A   1      44.160  27.482  25.576  1.00  0.00     0.166 HD
ATOM     40  C   UNL A   1      45.497  25.324  26.892  1.00  0.00     0.026 A 
ATOM     41  C   UNL A   1      45.269  24.384  29.117  1.00  0.00     0.001 A 
ATOM     42  C   UNL A   1      45.915  24.435  27.889  1.00  0.00     0.002 A 
ENDBRANCH  32  33
ENDBRANCH   9  32
ENDBRANCH   7   9
ENDBRANCH   6   7
ENDBRANCH   5   6
ENDBRANCH   4   5
ENDBRANCH   3   4
ENDBRANCH   2   3
ENDBRANCH   1   2
BRANCH   1  43
ATOM     43  O   UNL A   1      35.164  33.982  28.055  1.00  0.00    -0.377 OA
BRANCH  43  44
ATOM     44  C   UNL A   1      33.795  34.223  28.351  1.00  0.00     0.188 C 
BRANCH  44  45
ATOM     45  C   UNL A   1      33.411  35.645  28.767  1.00  0.00     0.188 C 
BRANCH  45  46
ATOM     46  O   UNL A   1      32.525  35.759  29.877  1.00  0.00    -0.376 OA
BRANCH  46  47
ATOM     47  C   UNL A   1      33.118  35.989  31.157  1.00  0.00     0.202 C 
BRANCH  47  48
ATOM     48  C   UNL A   1      32.824  34.910  32.211  1.00  0.00     0.261 C 
BRANCH  48  49
ATOM     49  O   UNL A   1      34.035  34.569  32.902  1.00  0.00    -0.460 OA
BRANCH  49  50
ATOM     50  C   UNL A   1      34.637  33.407  32.545  1.00  0.00     0.338 C 
ATOM     51  O   UNL A   1      34.137  32.450  31.984  1.00  0.00    -0.246 OA
BRANCH  50  52
ATOM     52  C   UNL A   1      36.089  33.667  32.644  1.00  0.00     0.060 A 
ATOM     53  C   UNL A   1      37.015  32.803  32.052  1.00  0.00     0.016 A 
ATOM     54  C   UNL A   1      36.499  34.655  33.551  1.00  0.00     0.016 A 
ATOM     55  C   UNL A   1      38.350  32.898  32.419  1.00  0.00     0.010 A 
ATOM     56  C   UNL A   1      37.831  34.723  33.943  1.00  0.00     0.010 A 
ATOM     57  C   UNL A   1      38.755  33.837  33.383  1.00  0.00    -0.014 A 
BRANCH  57  58
ATOM     58  C   UNL A   1      40.192  33.981  33.611  1.00  0.00     0.031 A 
ATOM     59  C   UNL A   1      40.635  33.529  34.953  1.00  0.00     0.074 A 
ATOM     60  C   UNL A   1      41.120  34.319  32.698  1.00  0.00     0.049 A 
ATOM     61  N   UNL A   1      41.178  34.213  35.904  1.00  0.00    -0.248 NA
ATOM     62  C   UNL A   1      40.337  32.128  35.297  1.00  0.00     0.031 C 
ATOM     63  C   UNL A   1      40.941  34.353  31.250  1.00  0.00     0.029 A 
ATOM     64  N   UNL A   1      42.451  34.598  32.864  1.00  0.00    -0.354 N 
ATOM     65  C   UNL A   1      41.471  33.285  36.898  1.00  0.00     0.074 A 
ATOM     66  C   UNL A   1      40.783  32.068  36.549  1.00  0.00     0.031 C 
ATOM     67  C   UNL A   1      42.147  34.481  30.656  1.00  0.00     0.029 A 
ATOM     68  C   UNL A   1      43.174  34.615  31.678  1.00  0.00     0.049 A 
ATOM     69  H   UNL A   1      42.858  34.771  33.743  1.00  0.00     0.167 HD
ATOM     70  C   UNL A   1      42.441  33.483  37.828  1.00  0.00     0.031 A 
ATOM     71  C   UNL A   1      44.521  34.636  31.525  1.00  0.00     0.031 A 
ATOM     72  C   UNL A   1      42.852  34.855  37.921  1.00  0.00     0.049 A 
ATOM     73  C   UNL A   1      45.150  35.017  32.812  1.00  0.00     0.074 A 
ATOM     74  C   UNL A   1      42.226  36.042  38.239  1.00  0.00     0.029 A 
ATOM     75  N   UNL A   1      44.058  35.184  37.354  1.00  0.00    -0.354 N 
ATOM     76  N   UNL A   1      45.118  36.206  33.346  1.00  0.00    -0.248 NA
ATOM     77  C   UNL A   1      45.596  33.949  33.695  1.00  0.00     0.031 C 
ATOM     78  C   UNL A   1      42.928  37.050  37.524  1.00  0.00     0.029 A 
ATOM     79  C   UNL A   1      43.954  36.436  36.805  1.00  0.00     0.049 A 
ATOM     80  H   UNL A   1      44.862  34.617  37.343  1.00  0.00     0.167 HD
ATOM     81  C   UNL A   1      45.190  35.989  34.714  1.00  0.00     0.074 A 
ATOM     82  C   UNL A   1      45.585  34.596  34.860  1.00  0.00     0.031 C 
ATOM     83  C   UNL A   1      44.657  36.868  35.611  1.00  0.00     0.031 A 
BRANCH  70  84
ATOM     84  C   UNL A   1      43.248  32.350  38.414  1.00  0.00    -0.014 A 
ATOM     85  C   UNL A   1      43.975  31.445  37.610  1.00  0.00     0.010 A 
ATOM     86  C   UNL A   1      43.490  32.308  39.800  1.00  0.00     0.010 A 
ATOM     87  C   UNL A   1      44.853  30.508  38.153  1.00  0.00     0.020 A 
ATOM     88  C   UNL A   1      44.414  31.407  40.351  1.00  0.00     0.020 A 
ATOM     89  C   UNL A   1      45.080  30.503  39.523  1.00  0.00     0.054 A 
BRANCH  89  90
ATOM     90  S   UNL A   1      46.333  29.370  40.170  1.00  0.00     0.124 S 
ATOM     91  O   UNL A   1      46.131  28.193  39.330  1.00  0.00    -0.237 OA
ATOM     92  O   UNL A   1      47.573  30.106  39.935  1.00  0.00    -0.237 OA
ATOM     93  O   UNL A   1      45.958  29.214  41.572  1.00  0.00    -0.744 OA
ENDBRANCH  89  90
ENDBRANCH  70  84
BRANCH  71  94
ATOM     94  C   UNL A   1      45.304  34.010  30.424  1.00  0.00    -0.014 A 
ATOM     95  C   UNL A   1      46.699  34.206  30.358  1.00  0.00     0.010 A 
ATOM     96  C   UNL A   1      44.670  33.449  29.299  1.00  0.00     0.010 A 
ATOM     97  C   UNL A   1      47.430  33.902  29.209  1.00  0.00     0.020 A 
ATOM     98  C   UNL A   1      45.398  33.157  28.130  1.00  0.00     0.020 A 
ATOM     99  C   UNL A   1      46.768  33.417  28.085  1.00  0.00     0.054 A 
BRANCH  99 100
ATOM    100  S   UNL A   1      47.728  33.241  26.557  1.00  0.00     0.124 S 
ATOM    101  O   UNL A   1      47.045  34.173  25.664  1.00  0.00    -0.237 OA
ATOM    102  O   UNL A   1      49.067  33.649  26.977  1.00  0.00    -0.237 OA
ATOM    103  O   UNL A   1      47.586  31.828  26.216  1.00  0.00    -0.744 OA
ENDBRANCH  99 100
ENDBRANCH  71  94
BRANCH  83 104
ATOM    104  C   UNL A   1      44.578  38.331  35.251  1.00  0.00    -0.014 A 
ATOM    105  C   UNL A   1      45.523  39.181  35.858  1.00  0.00     0.010 A 
ATOM    106  C   UNL A   1      43.603  38.907  34.419  1.00  0.00     0.010 A 
ATOM    107  C   UNL A   1      45.523  40.557  35.618  1.00  0.00     0.020 A 
ATOM    108  C   UNL A   1      43.607  40.287  34.159  1.00  0.00     0.020 A 
ATOM    109  C   UNL A   1      44.580  41.101  34.748  1.00  0.00     0.054 A 
BRANCH 109 110
ATOM    110  S   UNL A   1      44.618  42.888  34.433  1.00  0.00     0.124 S 
ATOM    111  O   UNL A   1      45.796  43.334  35.179  1.00  0.00    -0.237 OA
ATOM    112  O   UNL A   1      44.750  42.946  32.981  1.00  0.00    -0.237 OA
ATOM    113  O   UNL A   1      43.346  43.372  34.967  1.00  0.00    -0.744 OA
ENDBRANCH 109 110
ENDBRANCH  83 104
ENDBRANCH  57  58
ENDBRANCH  50  52
ENDBRANCH  49  50
ENDBRANCH  48  49
ENDBRANCH  47  48
ENDBRANCH  46  47
ENDBRANCH  45  46
ENDBRANCH  44  45
ENDBRANCH  43  44
ENDBRANCH   1  43
TORSDOF 29
ENDMDL
