MODEL 1
REMARK VINA RESULT:      -8.3      0.000      0.000
REMARK SMILES CC(C)(C)[C@H](CCC(=O)OCCOCCOCCOCCOC(=O)c1ccc(-c2c3nc(c(-c4ccc(S(=O)(=O)[O-])cc4)c4ccc([nH]4)c(-c4ccc(S(=O)(=O)[O-])cc4)c4nc(c(-c5ccc(S(=O)(=O)[O-])cc5)c5ccc2[nH]5)C=C4)C=C3)cc1)CC[NH+]1CCOCC1
REMARK SMILES IDX 15 1 14 2 13 3 12 4 11 5 10 6 8 7 9 8 7 9 6 10 5 11 2 12
REMARK SMILES IDX 1 13 3 14 4 15 85 16 86 17 87 18 88 19 92 20 89 22 91 23
REMARK SMILES IDX 90 24 16 25 17 26 18 27 19 28 20 29 21 30 22 31 23 32 24 33
REMARK SMILES IDX 25 34 26 35 84 36 27 37 83 38 28 39 29 40 30 41 77 42 31 43
REMARK SMILES IDX 82 44 76 45 78 46 32 47 81 48 75 49 74 50 33 52 63 53 44 54
REMARK SMILES IDX 62 55 45 56 48 57 61 58 79 59 46 60 47 61 60 63 80 64 49 65
REMARK SMILES IDX 34 66 35 67 43 68 36 69 42 70 37 71 38 72 39 73 40 74 41 75
REMARK SMILES IDX 64 76 65 77 73 78 66 79 72 80 67 81 68 82 69 83 70 84 71 85
REMARK SMILES IDX 50 86 51 87 59 88 52 89 58 90 53 91 54 92 55 93 56 94 57 95
REMARK H PARENT 87 21 78 51 48 62
REMARK Flexibility Score: inf
ROOT
ATOM      1  C   UNL A   1      31.009  27.754  25.749  1.00  0.00     0.188 C 
ENDROOT
BRANCH   1   2
ATOM      2  C   UNL A   1      31.372  26.300  25.420  1.00  0.00     0.188 C 
BRANCH   2   3
ATOM      3  O   UNL A   1      32.287  26.073  24.341  1.00  0.00    -0.376 OA
BRANCH   3   4
ATOM      4  C   UNL A   1      33.061  24.872  24.358  1.00  0.00     0.202 C 
BRANCH   4   5
ATOM      5  C   UNL A   1      33.728  24.526  23.026  1.00  0.00     0.261 C 
BRANCH   5   6
ATOM      6  O   UNL A   1      32.898  23.616  22.279  1.00  0.00    -0.463 OA
BRANCH   6   7
ATOM      7  C   UNL A   1      31.972  22.899  22.947  1.00  0.00     0.305 C 
ATOM      8  O   UNL A   1      30.839  23.292  23.203  1.00  0.00    -0.252 OA
BRANCH   7   9
ATOM      9  C   UNL A   1      32.416  21.481  23.266  1.00  0.00     0.123 C 
BRANCH   9  10
ATOM     10  C   UNL A   1      32.367  20.891  24.691  1.00  0.00     0.016 C 
BRANCH  10  11
ATOM     11  C   UNL A   1      33.420  19.852  25.167  1.00  0.00     0.000 C 
BRANCH  11  12
ATOM     12  C   UNL A   1      33.225  18.361  24.665  1.00  0.00    -0.035 C 
ATOM     13  C   UNL A   1      32.298  18.258  23.436  1.00  0.00     0.011 C 
ATOM     14  C   UNL A   1      32.659  17.420  25.739  1.00  0.00     0.011 C 
ATOM     15  C   UNL A   1      34.610  17.795  24.270  1.00  0.00     0.011 C 
ENDBRANCH  11  12
BRANCH  11  16
ATOM     16  C   UNL A   1      34.865  20.369  24.859  1.00  0.00     0.065 C 
BRANCH  16  17
ATOM     17  C   UNL A   1      35.322  21.722  25.435  1.00  0.00     0.262 C 
BRANCH  17  18
ATOM     18  N   UNL A   1      36.375  22.527  24.821  1.00  0.00    -0.331 N 
ATOM     19  C   UNL A   1      37.646  21.808  24.658  1.00  0.00     0.291 C 
ATOM     20  C   UNL A   1      36.675  23.880  25.286  1.00  0.00     0.291 C 
ATOM     21  H   UNL A   1      35.885  22.687  23.941  1.00  0.00     0.348 HD
ATOM     22  C   UNL A   1      38.556  21.873  25.888  1.00  0.00     0.221 C 
ATOM     23  C   UNL A   1      37.606  23.941  26.500  1.00  0.00     0.221 C 
ATOM     24  O   UNL A   1      38.820  23.231  26.257  1.00  0.00    -0.370 OA
ENDBRANCH  17  18
ENDBRANCH  16  17
ENDBRANCH  11  16
ENDBRANCH  10  11
ENDBRANCH   9  10
ENDBRANCH   7   9
ENDBRANCH   6   7
ENDBRANCH   5   6
ENDBRANCH   4   5
ENDBRANCH   3   4
ENDBRANCH   2   3
ENDBRANCH   1   2
BRANCH   1  25
ATOM     25  O   UNL A   1      31.504  28.795  24.924  1.00  0.00    -0.377 OA
BRANCH  25  26
ATOM     26  C   UNL A   1      32.037  29.960  25.513  1.00  0.00     0.188 C 
BRANCH  26  27
ATOM     27  C   UNL A   1      33.034  29.616  26.629  1.00  0.00     0.188 C 
BRANCH  27  28
ATOM     28  O   UNL A   1      33.626  30.692  27.353  1.00  0.00    -0.376 OA
BRANCH  28  29
ATOM     29  C   UNL A   1      35.008  30.597  27.695  1.00  0.00     0.202 C 
BRANCH  29  30
ATOM     30  C   UNL A   1      35.592  31.461  28.832  1.00  0.00     0.261 C 
BRANCH  30  31
ATOM     31  O   UNL A   1      36.034  30.767  30.012  1.00  0.00    -0.460 OA
BRANCH  31  32
ATOM     32  C   UNL A   1      37.086  31.324  30.663  1.00  0.00     0.338 C 
ATOM     33  O   UNL A   1      37.055  32.217  31.490  1.00  0.00    -0.246 OA
BRANCH  32  34
ATOM     34  C   UNL A   1      38.342  30.683  30.233  1.00  0.00     0.060 A 
ATOM     35  C   UNL A   1      39.382  30.459  31.146  1.00  0.00     0.016 A 
ATOM     36  C   UNL A   1      38.525  30.408  28.879  1.00  0.00     0.016 A 
ATOM     37  C   UNL A   1      40.615  29.962  30.700  1.00  0.00     0.010 A 
ATOM     38  C   UNL A   1      39.749  29.891  28.440  1.00  0.00     0.010 A 
ATOM     39  C   UNL A   1      40.816  29.689  29.340  1.00  0.00    -0.014 A 
BRANCH  39  40
ATOM     40  C   UNL A   1      42.165  29.373  28.792  1.00  0.00     0.031 A 
ATOM     41  C   UNL A   1      42.461  27.940  28.436  1.00  0.00     0.074 A 
ATOM     42  C   UNL A   1      43.134  30.299  28.656  1.00  0.00     0.049 A 
ATOM     43  N   UNL A   1      43.591  27.392  28.071  1.00  0.00    -0.248 NA
ATOM     44  C   UNL A   1      41.329  27.001  28.507  1.00  0.00     0.031 C 
ATOM     45  C   UNL A   1      42.984  31.729  28.897  1.00  0.00     0.029 A 
ATOM     46  N   UNL A   1      44.463  30.160  28.319  1.00  0.00    -0.354 N 
ATOM     47  C   UNL A   1      43.302  26.049  27.862  1.00  0.00     0.074 A 
ATOM     48  C   UNL A   1      41.914  25.852  28.210  1.00  0.00     0.031 C 
ATOM     49  C   UNL A   1      44.183  32.327  28.779  1.00  0.00     0.029 A 
ATOM     50  C   UNL A   1      45.189  31.324  28.444  1.00  0.00     0.049 A 
ATOM     51  H   UNL A   1      44.856  29.310  28.018  1.00  0.00     0.167 HD
ATOM     52  C   UNL A   1      44.109  25.070  27.390  1.00  0.00     0.031 A 
ATOM     53  C   UNL A   1      46.514  31.554  28.323  1.00  0.00     0.031 A 
ATOM     54  C   UNL A   1      45.493  25.256  27.051  1.00  0.00     0.049 A 
ATOM     55  C   UNL A   1      47.425  30.423  27.917  1.00  0.00     0.074 A 
ATOM     56  C   UNL A   1      46.382  24.331  26.533  1.00  0.00     0.029 A 
ATOM     57  N   UNL A   1      46.193  26.443  27.206  1.00  0.00    -0.354 N 
ATOM     58  N   UNL A   1      47.126  29.170  27.666  1.00  0.00    -0.248 NA
ATOM     59  C   UNL A   1      48.850  30.744  27.742  1.00  0.00     0.031 C 
ATOM     60  C   UNL A   1      47.635  24.942  26.433  1.00  0.00     0.029 A 
ATOM     61  C   UNL A   1      47.511  26.266  26.824  1.00  0.00     0.049 A 
ATOM     62  H   UNL A   1      45.809  27.286  27.539  1.00  0.00     0.167 HD
ATOM     63  C   UNL A   1      48.311  28.571  27.251  1.00  0.00     0.074 A 
ATOM     64  C   UNL A   1      49.334  29.594  27.290  1.00  0.00     0.031 C 
ATOM     65  C   UNL A   1      48.524  27.291  26.856  1.00  0.00     0.031 A 
BRANCH  52  66
ATOM     66  C   UNL A   1      43.500  23.706  27.221  1.00  0.00    -0.014 A 
ATOM     67  C   UNL A   1      43.090  22.954  28.338  1.00  0.00     0.010 A 
ATOM     68  C   UNL A   1      43.322  23.173  25.932  1.00  0.00     0.010 A 
ATOM     69  C   UNL A   1      42.557  21.674  28.172  1.00  0.00     0.020 A 
ATOM     70  C   UNL A   1      42.759  21.906  25.759  1.00  0.00     0.020 A 
ATOM     71  C   UNL A   1      42.397  21.158  26.883  1.00  0.00     0.054 A 
BRANCH  71  72
ATOM     72  S   UNL A   1      41.687  19.501  26.695  1.00  0.00     0.124 S 
ATOM     73  O   UNL A   1      41.012  19.607  25.404  1.00  0.00    -0.237 OA
ATOM     74  O   UNL A   1      42.868  18.643  26.718  1.00  0.00    -0.237 OA
ATOM     75  O   UNL A   1      40.802  19.369  27.851  1.00  0.00    -0.744 OA
ENDBRANCH  71  72
ENDBRANCH  52  66
BRANCH  53  76
ATOM     76  C   UNL A   1      47.069  32.917  28.569  1.00  0.00    -0.014 A 
ATOM     77  C   UNL A   1      47.145  33.859  27.528  1.00  0.00     0.010 A 
ATOM     78  C   UNL A   1      47.548  33.274  29.844  1.00  0.00     0.010 A 
ATOM     79  C   UNL A   1      47.705  35.121  27.749  1.00  0.00     0.020 A 
ATOM     80  C   UNL A   1      48.089  34.544  30.075  1.00  0.00     0.020 A 
ATOM     81  C   UNL A   1      48.172  35.457  29.022  1.00  0.00     0.054 A 
BRANCH  81  82
ATOM     82  S   UNL A   1      48.851  37.120  29.292  1.00  0.00     0.124 S 
ATOM     83  O   UNL A   1      47.872  37.707  30.200  1.00  0.00    -0.237 OA
ATOM     84  O   UNL A   1      50.161  36.832  29.872  1.00  0.00    -0.237 OA
ATOM     85  O   UNL A   1      48.886  37.699  27.951  1.00  0.00    -0.744 OA
ENDBRANCH  81  82
ENDBRANCH  53  76
BRANCH  65  86
ATOM     86  C   UNL A   1      49.903  26.922  26.374  1.00  0.00    -0.014 A 
ATOM     87  C   UNL A   1      50.864  26.375  27.242  1.00  0.00     0.010 A 
ATOM     88  C   UNL A   1      50.214  27.056  25.007  1.00  0.00     0.010 A 
ATOM     89  C   UNL A   1      52.117  25.989  26.755  1.00  0.00     0.020 A 
ATOM     90  C   UNL A   1      51.453  26.643  24.512  1.00  0.00     0.020 A 
ATOM     91  C   UNL A   1      52.402  26.122  25.393  1.00  0.00     0.054 A 
BRANCH  91  92
ATOM     92  S   UNL A   1      54.013  25.558  24.778  1.00  0.00     0.124 S 
ATOM     93  O   UNL A   1      53.807  24.117  24.658  1.00  0.00    -0.237 OA
ATOM     94  O   UNL A   1      54.144  26.280  23.515  1.00  0.00    -0.237 OA
ATOM     95  O   UNL A   1      54.948  25.967  25.823  1.00  0.00    -0.744 OA
ENDBRANCH  91  92
ENDBRANCH  65  86
ENDBRANCH  39  40
ENDBRANCH  32  34
ENDBRANCH  31  32
ENDBRANCH  30  31
ENDBRANCH  29  30
ENDBRANCH  28  29
ENDBRANCH  27  28
ENDBRANCH  26  27
ENDBRANCH  25  26
ENDBRANCH   1  25
TORSDOF 29
ENDMDL
MODEL 2
REMARK VINA RESULT:      -8.0      3.429      5.525
REMARK SMILES CC(C)(C)[C@H](CCC(=O)OCCOCCOCCOCCOC(=O)c1ccc(-c2c3nc(c(-c4ccc(S(=O)(=O)[O-])cc4)c4ccc([nH]4)c(-c4ccc(S(=O)(=O)[O-])cc4)c4nc(c(-c5ccc(S(=O)(=O)[O-])cc5)c5ccc2[nH]5)C=C4)C=C3)cc1)CC[NH+]1CCOCC1
REMARK SMILES IDX 15 1 14 2 13 3 12 4 11 5 10 6 8 7 9 8 7 9 6 10 5 11 2 12
REMARK SMILES IDX 1 13 3 14 4 15 85 16 86 17 87 18 88 19 92 20 89 22 91 23
REMARK SMILES IDX 90 24 16 25 17 26 18 27 19 28 20 29 21 30 22 31 23 32 24 33
REMARK SMILES IDX 25 34 26 35 84 36 27 37 83 38 28 39 29 40 30 41 77 42 31 43
REMARK SMILES IDX 82 44 76 45 78 46 32 47 81 48 75 49 74 50 33 52 63 53 44 54
REMARK SMILES IDX 62 55 45 56 48 57 61 58 79 59 46 60 47 61 60 63 80 64 49 65
REMARK SMILES IDX 34 66 35 67 43 68 36 69 42 70 37 71 38 72 39 73 40 74 41 75
REMARK SMILES IDX 64 76 65 77 73 78 66 79 72 80 67 81 68 82 69 83 70 84 71 85
REMARK SMILES IDX 50 86 51 87 59 88 52 89 58 90 53 91 54 92 55 93 56 94 57 95
REMARK H PARENT 87 21 78 51 48 62
REMARK Flexibility Score: inf
ROOT
ATOM      1  C   UNL A   1      34.550  29.630  27.616  1.00  0.00     0.188 C 
ENDROOT
BRANCH   1   2
ATOM      2  C   UNL A   1      33.721  28.476  27.037  1.00  0.00     0.188 C 
BRANCH   2   3
ATOM      3  O   UNL A   1      33.369  28.543  25.650  1.00  0.00    -0.376 OA
BRANCH   3   4
ATOM      4  C   UNL A   1      33.359  27.328  24.900  1.00  0.00     0.202 C 
BRANCH   4   5
ATOM      5  C   UNL A   1      31.964  26.771  24.610  1.00  0.00     0.261 C 
BRANCH   5   6
ATOM      6  O   UNL A   1      31.974  25.334  24.710  1.00  0.00    -0.463 OA
BRANCH   6   7
ATOM      7  C   UNL A   1      31.677  24.773  25.899  1.00  0.00     0.305 C 
ATOM      8  O   UNL A   1      31.264  25.390  26.875  1.00  0.00    -0.252 OA
BRANCH   7   9
ATOM      9  C   UNL A   1      31.785  23.258  25.900  1.00  0.00     0.123 C 
BRANCH   9  10
ATOM     10  C   UNL A   1      33.121  22.515  26.110  1.00  0.00     0.016 C 
BRANCH  10  11
ATOM     11  C   UNL A   1      33.894  21.898  24.912  1.00  0.00     0.000 C 
BRANCH  11  12
ATOM     12  C   UNL A   1      35.098  22.747  24.329  1.00  0.00    -0.035 C 
ATOM     13  C   UNL A   1      36.414  21.946  24.249  1.00  0.00     0.011 C 
ATOM     14  C   UNL A   1      35.394  24.024  25.129  1.00  0.00     0.011 C 
ATOM     15  C   UNL A   1      34.725  23.202  22.897  1.00  0.00     0.011 C 
ENDBRANCH  11  12
BRANCH  11  16
ATOM     16  C   UNL A   1      34.344  20.438  25.255  1.00  0.00     0.065 C 
BRANCH  16  17
ATOM     17  C   UNL A   1      33.278  19.345  25.453  1.00  0.00     0.262 C 
BRANCH  17  18
ATOM     18  N   UNL A   1      33.067  18.264  24.494  1.00  0.00    -0.331 N 
ATOM     19  C   UNL A   1      32.152  17.220  24.975  1.00  0.00     0.291 C 
ATOM     20  C   UNL A   1      34.187  17.610  23.818  1.00  0.00     0.291 C 
ATOM     21  H   UNL A   1      32.664  18.849  23.762  1.00  0.00     0.348 HD
ATOM     22  C   UNL A   1      32.840  16.124  25.795  1.00  0.00     0.221 C 
ATOM     23  C   UNL A   1      34.854  16.497  24.631  1.00  0.00     0.221 C 
ATOM     24  O   UNL A   1      33.902  15.520  25.049  1.00  0.00    -0.370 OA
ENDBRANCH  17  18
ENDBRANCH  16  17
ENDBRANCH  11  16
ENDBRANCH  10  11
ENDBRANCH   9  10
ENDBRANCH   7   9
ENDBRANCH   6   7
ENDBRANCH   5   6
ENDBRANCH   4   5
ENDBRANCH   3   4
ENDBRANCH   2   3
ENDBRANCH   1   2
BRANCH   1  25
ATOM     25  O   UNL A   1      34.321  30.948  27.150  1.00  0.00    -0.377 OA
BRANCH  25  26
ATOM     26  C   UNL A   1      33.879  31.941  28.048  1.00  0.00     0.188 C 
BRANCH  26  27
ATOM     27  C   UNL A   1      34.907  32.184  29.163  1.00  0.00     0.188 C 
BRANCH  27  28
ATOM     28  O   UNL A   1      34.420  32.483  30.469  1.00  0.00    -0.376 OA
BRANCH  28  29
ATOM     29  C   UNL A   1      35.369  32.660  31.519  1.00  0.00     0.202 C 
BRANCH  29  30
ATOM     30  C   UNL A   1      35.680  31.504  32.493  1.00  0.00     0.261 C 
BRANCH  30  31
ATOM     31  O   UNL A   1      35.886  30.204  31.912  1.00  0.00    -0.460 OA
BRANCH  31  32
ATOM     32  C   UNL A   1      37.063  29.603  32.217  1.00  0.00     0.338 C 
ATOM     33  O   UNL A   1      37.227  28.587  32.868  1.00  0.00    -0.246 OA
BRANCH  32  34
ATOM     34  C   UNL A   1      38.184  30.360  31.630  1.00  0.00     0.060 A 
ATOM     35  C   UNL A   1      38.162  30.746  30.284  1.00  0.00     0.016 A 
ATOM     36  C   UNL A   1      39.319  30.585  32.407  1.00  0.00     0.016 A 
ATOM     37  C   UNL A   1      39.286  31.358  29.708  1.00  0.00     0.010 A 
ATOM     38  C   UNL A   1      40.431  31.215  31.837  1.00  0.00     0.010 A 
ATOM     39  C   UNL A   1      40.437  31.582  30.475  1.00  0.00    -0.014 A 
BRANCH  39  40
ATOM     40  C   UNL A   1      41.720  32.021  29.858  1.00  0.00     0.031 A 
ATOM     41  C   UNL A   1      42.581  30.974  29.203  1.00  0.00     0.074 A 
ATOM     42  C   UNL A   1      42.158  33.295  29.910  1.00  0.00     0.049 A 
ATOM     43  N   UNL A   1      43.790  31.077  28.717  1.00  0.00    -0.248 NA
ATOM     44  C   UNL A   1      41.996  29.627  29.087  1.00  0.00     0.031 C 
ATOM     45  C   UNL A   1      41.416  34.428  30.450  1.00  0.00     0.029 A 
ATOM     46  N   UNL A   1      43.367  33.840  29.536  1.00  0.00    -0.354 N 
ATOM     47  C   UNL A   1      44.105  29.815  28.232  1.00  0.00     0.074 A 
ATOM     48  C   UNL A   1      42.994  28.946  28.546  1.00  0.00     0.031 C 
ATOM     49  C   UNL A   1      42.207  35.516  30.448  1.00  0.00     0.029 A 
ATOM     50  C   UNL A   1      43.511  35.162  29.896  1.00  0.00     0.049 A 
ATOM     51  H   UNL A   1      44.061  33.334  29.056  1.00  0.00     0.167 HD
ATOM     52  C   UNL A   1      45.207  29.416  27.554  1.00  0.00     0.031 A 
ATOM     53  C   UNL A   1      44.576  35.988  29.812  1.00  0.00     0.031 A 
ATOM     54  C   UNL A   1      46.320  30.270  27.246  1.00  0.00     0.049 A 
ATOM     55  C   UNL A   1      45.844  35.492  29.164  1.00  0.00     0.074 A 
ATOM     56  C   UNL A   1      47.466  29.964  26.534  1.00  0.00     0.029 A 
ATOM     57  N   UNL A   1      46.435  31.594  27.641  1.00  0.00    -0.354 N 
ATOM     58  N   UNL A   1      46.106  34.311  28.657  1.00  0.00    -0.248 NA
ATOM     59  C   UNL A   1      46.952  36.453  29.045  1.00  0.00     0.031 C 
ATOM     60  C   UNL A   1      48.300  31.086  26.551  1.00  0.00     0.029 A 
ATOM     61  C   UNL A   1      47.645  32.111  27.214  1.00  0.00     0.049 A 
ATOM     62  H   UNL A   1      45.754  32.093  28.149  1.00  0.00     0.167 HD
ATOM     63  C   UNL A   1      47.382  34.404  28.111  1.00  0.00     0.074 A 
ATOM     64  C   UNL A   1      47.844  35.755  28.354  1.00  0.00     0.031 C 
ATOM     65  C   UNL A   1      48.097  33.459  27.451  1.00  0.00     0.031 A 
BRANCH  52  66
ATOM     66  C   UNL A   1      45.251  27.981  27.106  1.00  0.00    -0.014 A 
ATOM     67  C   UNL A   1      45.760  26.976  27.950  1.00  0.00     0.010 A 
ATOM     68  C   UNL A   1      44.766  27.629  25.834  1.00  0.00     0.010 A 
ATOM     69  C   UNL A   1      45.828  25.652  27.512  1.00  0.00     0.020 A 
ATOM     70  C   UNL A   1      44.803  26.300  25.404  1.00  0.00     0.020 A 
ATOM     71  C   UNL A   1      45.350  25.323  26.240  1.00  0.00     0.054 A 
BRANCH  71  72
ATOM     72  S   UNL A   1      45.435  23.595  25.703  1.00  0.00     0.124 S 
ATOM     73  O   UNL A   1      46.778  23.212  26.130  1.00  0.00    -0.237 OA
ATOM     74  O   UNL A   1      44.340  22.975  26.446  1.00  0.00    -0.237 OA
ATOM     75  O   UNL A   1      45.239  23.669  24.257  1.00  0.00    -0.744 OA
ENDBRANCH  71  72
ENDBRANCH  52  66
BRANCH  53  76
ATOM     76  C   UNL A   1      44.492  37.383  30.335  1.00  0.00    -0.014 A 
ATOM     77  C   UNL A   1      44.943  37.691  31.631  1.00  0.00     0.010 A 
ATOM     78  C   UNL A   1      43.940  38.410  29.546  1.00  0.00     0.010 A 
ATOM     79  C   UNL A   1      44.824  38.989  32.136  1.00  0.00     0.020 A 
ATOM     80  C   UNL A   1      43.840  39.716  30.040  1.00  0.00     0.020 A 
ATOM     81  C   UNL A   1      44.276  39.995  31.337  1.00  0.00     0.054 A 
BRANCH  81  82
ATOM     82  S   UNL A   1      44.177  41.682  32.002  1.00  0.00     0.124 S 
ATOM     83  O   UNL A   1      44.322  42.494  30.798  1.00  0.00    -0.237 OA
ATOM     84  O   UNL A   1      42.854  41.698  32.622  1.00  0.00    -0.237 OA
ATOM     85  O   UNL A   1      45.297  41.749  32.939  1.00  0.00    -0.744 OA
ENDBRANCH  81  82
ENDBRANCH  53  76
BRANCH  65  86
ATOM     86  C   UNL A   1      49.436  33.854  26.886  1.00  0.00    -0.014 A 
ATOM     87  C   UNL A   1      50.629  33.634  27.597  1.00  0.00     0.010 A 
ATOM     88  C   UNL A   1      49.505  34.386  25.584  1.00  0.00     0.010 A 
ATOM     89  C   UNL A   1      51.863  33.958  27.024  1.00  0.00     0.020 A 
ATOM     90  C   UNL A   1      50.738  34.683  24.998  1.00  0.00     0.020 A 
ATOM     91  C   UNL A   1      51.909  34.477  25.727  1.00  0.00     0.054 A 
BRANCH  91  92
ATOM     92  S   UNL A   1      53.526  34.833  24.986  1.00  0.00     0.124 S 
ATOM     93  O   UNL A   1      53.170  35.736  23.895  1.00  0.00    -0.237 OA
ATOM     94  O   UNL A   1      54.258  35.444  26.093  1.00  0.00    -0.237 OA
ATOM     95  O   UNL A   1      54.017  33.520  24.572  1.00  0.00    -0.744 OA
ENDBRANCH  91  92
ENDBRANCH  65  86
ENDBRANCH  39  40
ENDBRANCH  32  34
ENDBRANCH  31  32
ENDBRANCH  30  31
ENDBRANCH  29  30
ENDBRANCH  28  29
ENDBRANCH  27  28
ENDBRANCH  26  27
ENDBRANCH  25  26
ENDBRANCH   1  25
TORSDOF 29
ENDMDL
MODEL 3
REMARK VINA RESULT:      -7.0      7.222     12.624
REMARK SMILES CC(C)(C)[C@H](CCC(=O)OCCOCCOCCOCCOC(=O)c1ccc(-c2c3nc(c(-c4ccc(S(=O)(=O)[O-])cc4)c4ccc([nH]4)c(-c4ccc(S(=O)(=O)[O-])cc4)c4nc(c(-c5ccc(S(=O)(=O)[O-])cc5)c5ccc2[nH]5)C=C4)C=C3)cc1)CC[NH+]1CCOCC1
REMARK SMILES IDX 15 1 14 2 13 3 12 4 11 5 10 6 8 7 9 8 7 9 6 10 5 11 2 12
REMARK SMILES IDX 1 13 3 14 4 15 85 16 86 17 87 18 88 19 92 20 89 22 91 23
REMARK SMILES IDX 90 24 16 25 17 26 18 27 19 28 20 29 21 30 22 31 23 32 24 33
REMARK SMILES IDX 25 34 26 35 84 36 27 37 83 38 28 39 29 40 30 41 77 42 31 43
REMARK SMILES IDX 82 44 76 45 78 46 32 47 81 48 75 49 74 50 33 52 63 53 44 54
REMARK SMILES IDX 62 55 45 56 48 57 61 58 79 59 46 60 47 61 60 63 80 64 49 65
REMARK SMILES IDX 34 66 35 67 43 68 36 69 42 70 37 71 38 72 39 73 40 74 41 75
REMARK SMILES IDX 64 76 65 77 73 78 66 79 72 80 67 81 68 82 69 83 70 84 71 85
REMARK SMILES IDX 50 86 51 87 59 88 52 89 58 90 53 91 54 92 55 93 56 94 57 95
REMARK H PARENT 87 21 78 51 48 62
REMARK Flexibility Score: inf
ROOT
ATOM      1  C   UNL A   1      32.411  26.084  26.002  1.00  0.00     0.188 C 
ENDROOT
BRANCH   1   2
ATOM      2  C   UNL A   1      33.306  24.883  26.335  1.00  0.00     0.188 C 
BRANCH   2   3
ATOM      3  O   UNL A   1      34.257  24.470  25.346  1.00  0.00    -0.376 OA
BRANCH   3   4
ATOM      4  C   UNL A   1      35.367  23.678  25.771  1.00  0.00     0.202 C 
BRANCH   4   5
ATOM      5  C   UNL A   1      36.634  23.856  24.934  1.00  0.00     0.261 C 
BRANCH   5   6
ATOM      6  O   UNL A   1      37.389  22.630  24.910  1.00  0.00    -0.463 OA
BRANCH   6   7
ATOM      7  C   UNL A   1      38.309  22.427  25.875  1.00  0.00     0.305 C 
ATOM      8  O   UNL A   1      38.858  21.354  26.098  1.00  0.00    -0.252 OA
BRANCH   7   9
ATOM      9  C   UNL A   1      38.710  23.696  26.608  1.00  0.00     0.123 C 
BRANCH   9  10
ATOM     10  C   UNL A   1      39.915  23.761  27.570  1.00  0.00     0.016 C 
BRANCH  10  11
ATOM     11  C   UNL A   1      41.125  24.691  27.281  1.00  0.00     0.000 C 
BRANCH  11  12
ATOM     12  C   UNL A   1      40.895  26.244  27.491  1.00  0.00    -0.035 C 
ATOM     13  C   UNL A   1      39.445  26.587  27.892  1.00  0.00     0.011 C 
ATOM     14  C   UNL A   1      41.234  27.090  26.254  1.00  0.00     0.011 C 
ATOM     15  C   UNL A   1      41.832  26.727  28.624  1.00  0.00     0.011 C 
ENDBRANCH  11  12
BRANCH  11  16
ATOM     16  C   UNL A   1      42.386  24.194  28.064  1.00  0.00     0.065 C 
BRANCH  16  17
ATOM     17  C   UNL A   1      43.691  23.913  27.295  1.00  0.00     0.262 C 
BRANCH  17  18
ATOM     18  N   UNL A   1      43.715  23.598  25.869  1.00  0.00    -0.331 N 
ATOM     19  C   UNL A   1      42.648  22.678  25.451  1.00  0.00     0.291 C 
ATOM     20  C   UNL A   1      44.949  23.199  25.193  1.00  0.00     0.291 C 
ATOM     21  H   UNL A   1      43.573  24.555  25.547  1.00  0.00     0.348 HD
ATOM     22  C   UNL A   1      43.011  21.198  25.606  1.00  0.00     0.221 C 
ATOM     23  C   UNL A   1      45.293  21.713  25.328  1.00  0.00     0.221 C 
ATOM     24  O   UNL A   1      44.213  20.890  24.892  1.00  0.00    -0.370 OA
ENDBRANCH  17  18
ENDBRANCH  16  17
ENDBRANCH  11  16
ENDBRANCH  10  11
ENDBRANCH   9  10
ENDBRANCH   7   9
ENDBRANCH   6   7
ENDBRANCH   5   6
ENDBRANCH   4   5
ENDBRANCH   3   4
ENDBRANCH   2   3
ENDBRANCH   1   2
BRANCH   1  25
ATOM     25  O   UNL A   1      32.659  26.826  24.821  1.00  0.00    -0.377 OA
BRANCH  25  26
ATOM     26  C   UNL A   1      32.702  28.234  24.875  1.00  0.00     0.188 C 
BRANCH  26  27
ATOM     27  C   UNL A   1      33.759  28.723  25.875  1.00  0.00     0.188 C 
BRANCH  27  28
ATOM     28  O   UNL A   1      33.548  29.981  26.511  1.00  0.00    -0.376 OA
BRANCH  28  29
ATOM     29  C   UNL A   1      34.591  30.507  27.331  1.00  0.00     0.202 C 
BRANCH  29  30
ATOM     30  C   UNL A   1      34.440  31.894  27.991  1.00  0.00     0.261 C 
BRANCH  30  31
ATOM     31  O   UNL A   1      34.760  31.984  29.390  1.00  0.00    -0.460 OA
BRANCH  31  32
ATOM     32  C   UNL A   1      34.416  33.146  29.999  1.00  0.00     0.338 C 
ATOM     33  O   UNL A   1      33.574  33.948  29.638  1.00  0.00    -0.246 OA
BRANCH  32  34
ATOM     34  C   UNL A   1      35.218  33.333  31.222  1.00  0.00     0.060 A 
ATOM     35  C   UNL A   1      35.426  34.612  31.754  1.00  0.00     0.016 A 
ATOM     36  C   UNL A   1      35.863  32.228  31.776  1.00  0.00     0.016 A 
ATOM     37  C   UNL A   1      36.291  34.788  32.845  1.00  0.00     0.010 A 
ATOM     38  C   UNL A   1      36.707  32.403  32.877  1.00  0.00     0.010 A 
ATOM     39  C   UNL A   1      36.952  33.687  33.406  1.00  0.00    -0.014 A 
BRANCH  39  40
ATOM     40  C   UNL A   1      38.039  33.852  34.412  1.00  0.00     0.031 A 
ATOM     41  C   UNL A   1      39.438  34.083  33.906  1.00  0.00     0.074 A 
ATOM     42  C   UNL A   1      37.828  33.750  35.740  1.00  0.00     0.049 A 
ATOM     43  N   UNL A   1      40.564  34.124  34.568  1.00  0.00    -0.248 NA
ATOM     44  C   UNL A   1      39.581  34.290  32.455  1.00  0.00     0.031 C 
ATOM     45  C   UNL A   1      36.529  33.591  36.384  1.00  0.00     0.029 A 
ATOM     46  N   UNL A   1      38.722  33.721  36.788  1.00  0.00    -0.354 N 
ATOM     47  C   UNL A   1      41.546  34.370  33.617  1.00  0.00     0.074 A 
ATOM     48  C   UNL A   1      40.894  34.395  32.327  1.00  0.00     0.031 C 
ATOM     49  C   UNL A   1      36.711  33.403  37.704  1.00  0.00     0.029 A 
ATOM     50  C   UNL A   1      38.139  33.436  38.003  1.00  0.00     0.049 A 
ATOM     51  H   UNL A   1      39.685  33.888  36.678  1.00  0.00     0.167 HD
ATOM     52  C   UNL A   1      42.870  34.589  33.799  1.00  0.00     0.031 A 
ATOM     53  C   UNL A   1      38.691  33.209  39.214  1.00  0.00     0.031 A 
ATOM     54  C   UNL A   1      43.526  34.556  35.076  1.00  0.00     0.049 A 
ATOM     55  C   UNL A   1      40.184  33.334  39.379  1.00  0.00     0.074 A 
ATOM     56  C   UNL A   1      44.858  34.799  35.363  1.00  0.00     0.029 A 
ATOM     57  N   UNL A   1      42.906  34.250  36.277  1.00  0.00    -0.354 N 
ATOM     58  N   UNL A   1      41.094  33.625  38.478  1.00  0.00    -0.248 NA
ATOM     59  C   UNL A   1      40.725  33.135  40.733  1.00  0.00     0.031 C 
ATOM     60  C   UNL A   1      45.054  34.579  36.730  1.00  0.00     0.029 A 
ATOM     61  C   UNL A   1      43.833  34.267  37.305  1.00  0.00     0.049 A 
ATOM     62  H   UNL A   1      41.947  34.051  36.383  1.00  0.00     0.167 HD
ATOM     63  C   UNL A   1      42.301  33.699  39.166  1.00  0.00     0.074 A 
ATOM     64  C   UNL A   1      42.010  33.416  40.556  1.00  0.00     0.031 C 
ATOM     65  C   UNL A   1      43.536  33.994  38.689  1.00  0.00     0.031 A 
BRANCH  52  66
ATOM     66  C   UNL A   1      43.688  34.880  32.571  1.00  0.00    -0.014 A 
ATOM     67  C   UNL A   1      43.840  36.198  32.100  1.00  0.00     0.010 A 
ATOM     68  C   UNL A   1      44.325  33.830  31.888  1.00  0.00     0.010 A 
ATOM     69  C   UNL A   1      44.574  36.454  30.940  1.00  0.00     0.020 A 
ATOM     70  C   UNL A   1      45.086  34.085  30.745  1.00  0.00     0.020 A 
ATOM     71  C   UNL A   1      45.190  35.395  30.269  1.00  0.00     0.054 A 
BRANCH  71  72
ATOM     72  S   UNL A   1      46.151  35.758  28.775  1.00  0.00     0.124 S 
ATOM     73  O   UNL A   1      45.227  36.602  28.022  1.00  0.00    -0.237 OA
ATOM     74  O   UNL A   1      47.328  36.436  29.310  1.00  0.00    -0.237 OA
ATOM     75  O   UNL A   1      46.403  34.441  28.196  1.00  0.00    -0.744 OA
ENDBRANCH  71  72
ENDBRANCH  52  66
BRANCH  53  76
ATOM     76  C   UNL A   1      37.831  32.858  40.381  1.00  0.00    -0.014 A 
ATOM     77  C   UNL A   1      37.475  31.521  40.633  1.00  0.00     0.010 A 
ATOM     78  C   UNL A   1      37.343  33.863  41.237  1.00  0.00     0.010 A 
ATOM     79  C   UNL A   1      36.633  31.197  41.702  1.00  0.00     0.020 A 
ATOM     80  C   UNL A   1      36.518  33.541  42.322  1.00  0.00     0.020 A 
ATOM     81  C   UNL A   1      36.162  32.209  42.542  1.00  0.00     0.054 A 
BRANCH  81  82
ATOM     82  S   UNL A   1      35.109  31.755  43.950  1.00  0.00     0.124 S 
ATOM     83  O   UNL A   1      33.889  31.305  43.288  1.00  0.00    -0.237 OA
ATOM     84  O   UNL A   1      35.895  30.712  44.606  1.00  0.00    -0.237 OA
ATOM     85  O   UNL A   1      34.988  33.000  44.705  1.00  0.00    -0.744 OA
ENDBRANCH  81  82
ENDBRANCH  53  76
BRANCH  65  86
ATOM     86  C   UNL A   1      44.671  34.086  39.675  1.00  0.00    -0.014 A 
ATOM     87  C   UNL A   1      45.474  32.973  39.979  1.00  0.00     0.010 A 
ATOM     88  C   UNL A   1      44.984  35.333  40.250  1.00  0.00     0.010 A 
ATOM     89  C   UNL A   1      46.557  33.102  40.855  1.00  0.00     0.020 A 
ATOM     90  C   UNL A   1      46.082  35.471  41.103  1.00  0.00     0.020 A 
ATOM     91  C   UNL A   1      46.856  34.351  41.408  1.00  0.00     0.054 A 
BRANCH  91  92
ATOM     92  S   UNL A   1      48.300  34.502  42.495  1.00  0.00     0.124 S 
ATOM     93  O   UNL A   1      48.761  35.856  42.204  1.00  0.00    -0.237 OA
ATOM     94  O   UNL A   1      47.723  34.307  43.823  1.00  0.00    -0.237 OA
ATOM     95  O   UNL A   1      49.188  33.432  42.045  1.00  0.00    -0.744 OA
ENDBRANCH  91  92
ENDBRANCH  65  86
ENDBRANCH  39  40
ENDBRANCH  32  34
ENDBRANCH  31  32
ENDBRANCH  30  31
ENDBRANCH  29  30
ENDBRANCH  28  29
ENDBRANCH  27  28
ENDBRANCH  26  27
ENDBRANCH  25  26
ENDBRANCH   1  25
TORSDOF 29
ENDMDL
