MODEL 1
REMARK VINA RESULT:      -7.2      0.000      0.000
REMARK SMILES CN(CC(C)(C)O)S(=O)(=O)CCCC(=O)OCCOCCOCCOCCOC(=O)c1ccc(-c2c3nc(c(-c4ccc(S(=O)(=O)[O-])cc4)c4ccc([nH]4)c(-c4ccc(S(=O)(=O)[O-])cc4)c4nc(c(-c5ccc(S(=O)(=O)[O-])cc5)c5ccc2[nH]5)C=C4)C=C3)cc1
REMARK SMILES IDX 20 1 19 2 18 3 17 4 16 5 14 6 15 7 13 8 12 9 11 10 8 11 9 12
REMARK SMILES IDX 10 13 2 14 1 15 3 16 4 17 5 18 6 19 7 20 21 22 22 23 23 24
REMARK SMILES IDX 24 25 25 26 26 27 27 28 28 29 29 30 30 31 31 32 32 33 90 34
REMARK SMILES IDX 33 35 89 36 34 37 35 38 36 39 83 40 37 41 88 42 82 43 84 44
REMARK SMILES IDX 38 45 87 46 81 47 80 48 39 50 69 51 50 52 68 53 51 54 54 55
REMARK SMILES IDX 67 56 85 57 52 58 53 59 66 61 86 62 55 63 40 64 41 65 49 66
REMARK SMILES IDX 42 67 48 68 43 69 44 70 45 71 46 72 47 73 70 74 71 75 79 76
REMARK SMILES IDX 72 77 78 78 73 79 74 80 75 81 76 82 77 83 56 84 57 85 65 86
REMARK SMILES IDX 58 87 64 88 59 89 60 90 61 91 62 92 63 93
REMARK H PARENT 7 21 84 49 54 60
REMARK Flexibility Score: inf
ROOT
ATOM      1  C   UNL A   1      38.936  21.678  26.215  1.00  0.00     0.188 C 
ENDROOT
BRANCH   1   2
ATOM      2  O   UNL A   1      38.203  21.032  25.197  1.00  0.00    -0.376 OA
BRANCH   2   3
ATOM      3  C   UNL A   1      36.906  21.485  24.843  1.00  0.00     0.202 C 
BRANCH   3   4
ATOM      4  C   UNL A   1      35.600  20.745  25.187  1.00  0.00     0.261 C 
BRANCH   4   5
ATOM      5  O   UNL A   1      34.483  20.897  24.290  1.00  0.00    -0.463 OA
BRANCH   5   6
ATOM      6  C   UNL A   1      33.403  20.120  24.523  1.00  0.00     0.305 C 
ATOM      7  O   UNL A   1      33.393  18.904  24.352  1.00  0.00    -0.252 OA
BRANCH   6   8
ATOM      8  C   UNL A   1      32.181  20.839  25.070  1.00  0.00     0.124 C 
BRANCH   8   9
ATOM      9  C   UNL A   1      32.126  22.302  25.519  1.00  0.00     0.029 C 
BRANCH   9  10
ATOM     10  C   UNL A   1      31.252  23.303  24.783  1.00  0.00     0.155 C 
BRANCH  10  11
ATOM     11  S   UNL A   1      32.059  24.850  24.407  1.00  0.00     0.213 S 
ATOM     12  O   UNL A   1      31.746  25.190  23.040  1.00  0.00    -0.212 OA
ATOM     13  O   UNL A   1      33.443  24.726  24.821  1.00  0.00    -0.212 OA
BRANCH  11  14
ATOM     14  N   UNL A   1      31.310  25.942  25.437  1.00  0.00    -0.202 NA
ATOM     15  C   UNL A   1      29.853  25.792  25.597  1.00  0.00     0.124 C 
BRANCH  14  16
ATOM     16  C   UNL A   1      32.003  26.534  26.612  1.00  0.00     0.136 C 
BRANCH  16  17
ATOM     17  C   UNL A   1      32.591  27.959  26.545  1.00  0.00     0.073 C 
ATOM     18  C   UNL A   1      34.057  27.990  26.109  1.00  0.00     0.043 C 
ATOM     19  C   UNL A   1      31.770  28.743  25.503  1.00  0.00     0.043 C 
BRANCH  17  20
ATOM     20  O   UNL A   1      32.417  28.627  27.793  1.00  0.00    -0.389 OA
ATOM     21  H   UNL A   1      31.487  28.570  28.062  1.00  0.00     0.211 HD
ENDBRANCH  17  20
ENDBRANCH  16  17
ENDBRANCH  14  16
ENDBRANCH  11  14
ENDBRANCH  10  11
ENDBRANCH   9  10
ENDBRANCH   8   9
ENDBRANCH   6   8
ENDBRANCH   5   6
ENDBRANCH   4   5
ENDBRANCH   3   4
ENDBRANCH   2   3
ENDBRANCH   1   2
BRANCH   1  22
ATOM     22  C   UNL A   1      40.466  21.553  26.230  1.00  0.00     0.188 C 
BRANCH  22  23
ATOM     23  O   UNL A   1      41.019  20.413  26.859  1.00  0.00    -0.377 OA
BRANCH  23  24
ATOM     24  C   UNL A   1      41.655  19.414  26.068  1.00  0.00     0.188 C 
BRANCH  24  25
ATOM     25  C   UNL A   1      43.190  19.366  25.929  1.00  0.00     0.188 C 
BRANCH  25  26
ATOM     26  O   UNL A   1      43.681  19.604  24.621  1.00  0.00    -0.376 OA
BRANCH  26  27
ATOM     27  C   UNL A   1      44.986  20.137  24.457  1.00  0.00     0.202 C 
BRANCH  27  28
ATOM     28  C   UNL A   1      45.408  21.330  25.330  1.00  0.00     0.261 C 
BRANCH  28  29
ATOM     29  O   UNL A   1      45.116  22.636  24.821  1.00  0.00    -0.460 OA
BRANCH  29  30
ATOM     30  C   UNL A   1      43.894  23.153  25.067  1.00  0.00     0.338 C 
ATOM     31  O   UNL A   1      42.840  22.846  24.536  1.00  0.00    -0.246 OA
BRANCH  30  32
ATOM     32  C   UNL A   1      44.027  24.048  26.229  1.00  0.00     0.060 A 
ATOM     33  C   UNL A   1      43.376  23.729  27.430  1.00  0.00     0.016 A 
ATOM     34  C   UNL A   1      44.794  25.208  26.118  1.00  0.00     0.016 A 
ATOM     35  C   UNL A   1      43.453  24.601  28.515  1.00  0.00     0.010 A 
ATOM     36  C   UNL A   1      44.854  26.087  27.196  1.00  0.00     0.010 A 
ATOM     37  C   UNL A   1      44.151  25.808  28.381  1.00  0.00    -0.014 A 
BRANCH  37  38
ATOM     38  C   UNL A   1      43.968  26.901  29.364  1.00  0.00     0.031 A 
ATOM     39  C   UNL A   1      44.985  27.026  30.463  1.00  0.00     0.074 A 
ATOM     40  C   UNL A   1      42.902  27.715  29.323  1.00  0.00     0.049 A 
ATOM     41  N   UNL A   1      44.960  27.765  31.540  1.00  0.00    -0.248 NA
ATOM     42  C   UNL A   1      46.187  26.184  30.335  1.00  0.00     0.031 C 
ATOM     43  C   UNL A   1      41.880  27.723  28.279  1.00  0.00     0.029 A 
ATOM     44  N   UNL A   1      42.490  28.678  30.212  1.00  0.00    -0.354 N 
ATOM     45  C   UNL A   1      46.123  27.453  32.235  1.00  0.00     0.074 A 
ATOM     46  C   UNL A   1      46.820  26.445  31.468  1.00  0.00     0.031 C 
ATOM     47  C   UNL A   1      40.938  28.626  28.604  1.00  0.00     0.029 A 
ATOM     48  C   UNL A   1      41.267  29.219  29.901  1.00  0.00     0.049 A 
ATOM     49  H   UNL A   1      43.020  28.952  30.995  1.00  0.00     0.167 HD
ATOM     50  C   UNL A   1      46.564  27.956  33.411  1.00  0.00     0.031 A 
ATOM     51  C   UNL A   1      40.483  30.061  30.605  1.00  0.00     0.031 A 
ATOM     52  C   UNL A   1      45.844  28.937  34.178  1.00  0.00     0.049 A 
ATOM     53  C   UNL A   1      40.952  30.558  31.948  1.00  0.00     0.074 A 
ATOM     54  C   UNL A   1      46.206  29.528  35.376  1.00  0.00     0.029 A 
ATOM     55  N   UNL A   1      44.608  29.459  33.829  1.00  0.00    -0.354 N 
ATOM     56  N   UNL A   1      42.060  30.271  32.591  1.00  0.00    -0.248 NA
ATOM     57  C   UNL A   1      40.070  31.495  32.656  1.00  0.00     0.031 C 
ATOM     58  C   UNL A   1      45.156  30.354  35.784  1.00  0.00     0.029 A 
ATOM     59  C   UNL A   1      44.177  30.345  34.801  1.00  0.00     0.049 A 
ATOM     60  H   UNL A   1      44.110  29.233  33.010  1.00  0.00     0.167 HD
ATOM     61  C   UNL A   1      42.026  31.022  33.763  1.00  0.00     0.074 A 
ATOM     62  C   UNL A   1      40.787  31.774  33.739  1.00  0.00     0.031 C 
ATOM     63  C   UNL A   1      42.944  31.092  34.759  1.00  0.00     0.031 A 
BRANCH  50  64
ATOM     64  C   UNL A   1      47.850  27.395  33.964  1.00  0.00    -0.014 A 
ATOM     65  C   UNL A   1      47.884  26.172  34.659  1.00  0.00     0.010 A 
ATOM     66  C   UNL A   1      49.046  28.115  33.792  1.00  0.00     0.010 A 
ATOM     67  C   UNL A   1      49.076  25.714  35.228  1.00  0.00     0.020 A 
ATOM     68  C   UNL A   1      50.248  27.641  34.326  1.00  0.00     0.020 A 
ATOM     69  C   UNL A   1      50.248  26.456  35.063  1.00  0.00     0.054 A 
BRANCH  69  70
ATOM     70  S   UNL A   1      51.778  25.847  35.824  1.00  0.00     0.124 S 
ATOM     71  O   UNL A   1      51.814  26.605  37.072  1.00  0.00    -0.237 OA
ATOM     72  O   UNL A   1      51.516  24.417  35.965  1.00  0.00    -0.237 OA
ATOM     73  O   UNL A   1      52.813  26.196  34.854  1.00  0.00    -0.744 OA
ENDBRANCH  69  70
ENDBRANCH  50  64
BRANCH  51  74
ATOM     74  C   UNL A   1      39.164  30.467  30.046  1.00  0.00    -0.014 A 
ATOM     75  C   UNL A   1      38.054  29.610  30.141  1.00  0.00     0.010 A 
ATOM     76  C   UNL A   1      39.000  31.738  29.466  1.00  0.00     0.010 A 
ATOM     77  C   UNL A   1      36.802  30.023  29.679  1.00  0.00     0.020 A 
ATOM     78  C   UNL A   1      37.743  32.166  29.028  1.00  0.00     0.020 A 
ATOM     79  C   UNL A   1      36.650  31.305  29.139  1.00  0.00     0.054 A 
BRANCH  79  80
ATOM     80  S   UNL A   1      34.991  31.857  28.658  1.00  0.00     0.124 S 
ATOM     81  O   UNL A   1      34.341  30.600  28.302  1.00  0.00    -0.237 OA
ATOM     82  O   UNL A   1      34.512  32.496  29.882  1.00  0.00    -0.237 OA
ATOM     83  O   UNL A   1      35.243  32.772  27.548  1.00  0.00    -0.744 OA
ENDBRANCH  79  80
ENDBRANCH  51  74
BRANCH  63  84
ATOM     84  C   UNL A   1      42.691  32.059  35.888  1.00  0.00    -0.014 A 
ATOM     85  C   UNL A   1      43.017  33.423  35.782  1.00  0.00     0.010 A 
ATOM     86  C   UNL A   1      42.019  31.603  37.039  1.00  0.00     0.010 A 
ATOM     87  C   UNL A   1      42.686  34.309  36.813  1.00  0.00     0.020 A 
ATOM     88  C   UNL A   1      41.659  32.490  38.055  1.00  0.00     0.020 A 
ATOM     89  C   UNL A   1      42.002  33.838  37.939  1.00  0.00     0.054 A 
BRANCH  89  90
ATOM     90  S   UNL A   1      41.516  35.020  39.226  1.00  0.00     0.124 S 
ATOM     91  O   UNL A   1      40.840  34.159  40.192  1.00  0.00    -0.237 OA
ATOM     92  O   UNL A   1      42.801  35.564  39.660  1.00  0.00    -0.237 OA
ATOM     93  O   UNL A   1      40.652  35.966  38.523  1.00  0.00    -0.744 OA
ENDBRANCH  89  90
ENDBRANCH  63  84
ENDBRANCH  37  38
ENDBRANCH  30  32
ENDBRANCH  29  30
ENDBRANCH  28  29
ENDBRANCH  27  28
ENDBRANCH  26  27
ENDBRANCH  25  26
ENDBRANCH  24  25
ENDBRANCH  23  24
ENDBRANCH  22  23
ENDBRANCH   1  22
TORSDOF 30
ENDMDL
MODEL 2
REMARK VINA RESULT:      -7.1      3.391      7.577
REMARK SMILES CN(CC(C)(C)O)S(=O)(=O)CCCC(=O)OCCOCCOCCOCCOC(=O)c1ccc(-c2c3nc(c(-c4ccc(S(=O)(=O)[O-])cc4)c4ccc([nH]4)c(-c4ccc(S(=O)(=O)[O-])cc4)c4nc(c(-c5ccc(S(=O)(=O)[O-])cc5)c5ccc2[nH]5)C=C4)C=C3)cc1
REMARK SMILES IDX 20 1 19 2 18 3 17 4 16 5 14 6 15 7 13 8 12 9 11 10 8 11 9 12
REMARK SMILES IDX 10 13 2 14 1 15 3 16 4 17 5 18 6 19 7 20 21 22 22 23 23 24
REMARK SMILES IDX 24 25 25 26 26 27 27 28 28 29 29 30 30 31 31 32 32 33 90 34
REMARK SMILES IDX 33 35 89 36 34 37 35 38 36 39 83 40 37 41 88 42 82 43 84 44
REMARK SMILES IDX 38 45 87 46 81 47 80 48 39 50 69 51 50 52 68 53 51 54 54 55
REMARK SMILES IDX 67 56 85 57 52 58 53 59 66 61 86 62 55 63 40 64 41 65 49 66
REMARK SMILES IDX 42 67 48 68 43 69 44 70 45 71 46 72 47 73 70 74 71 75 79 76
REMARK SMILES IDX 72 77 78 78 73 79 74 80 75 81 76 82 77 83 56 84 57 85 65 86
REMARK SMILES IDX 58 87 64 88 59 89 60 90 61 91 62 92 63 93
REMARK H PARENT 7 21 84 49 54 60
REMARK Flexibility Score: inf
ROOT
ATOM      1  C   UNL A   1      38.951  21.682  26.265  1.00  0.00     0.188 C 
ENDROOT
BRANCH   1   2
ATOM      2  O   UNL A   1      38.183  21.121  25.222  1.00  0.00    -0.376 OA
BRANCH   2   3
ATOM      3  C   UNL A   1      36.899  21.636  24.915  1.00  0.00     0.202 C 
BRANCH   3   4
ATOM      4  C   UNL A   1      35.572  20.917  25.224  1.00  0.00     0.261 C 
BRANCH   4   5
ATOM      5  O   UNL A   1      34.437  21.204  24.385  1.00  0.00    -0.463 OA
BRANCH   5   6
ATOM      6  C   UNL A   1      33.347  20.424  24.545  1.00  0.00     0.305 C 
ATOM      7  O   UNL A   1      33.343  19.214  24.337  1.00  0.00    -0.252 OA
BRANCH   6   8
ATOM      8  C   UNL A   1      32.103  21.130  25.059  1.00  0.00     0.124 C 
BRANCH   8   9
ATOM      9  C   UNL A   1      32.002  22.610  25.439  1.00  0.00     0.029 C 
BRANCH   9  10
ATOM     10  C   UNL A   1      30.994  23.515  24.752  1.00  0.00     0.155 C 
BRANCH  10  11
ATOM     11  S   UNL A   1      31.712  24.933  23.939  1.00  0.00     0.213 S 
ATOM     12  O   UNL A   1      31.328  24.885  22.549  1.00  0.00    -0.212 OA
ATOM     13  O   UNL A   1      33.116  24.972  24.300  1.00  0.00    -0.212 OA
BRANCH  11  14
ATOM     14  N   UNL A   1      30.954  26.234  24.680  1.00  0.00    -0.202 NA
ATOM     15  C   UNL A   1      30.768  26.135  26.138  1.00  0.00     0.124 C 
BRANCH  14  16
ATOM     16  C   UNL A   1      31.072  27.624  24.164  1.00  0.00     0.136 C 
BRANCH  16  17
ATOM     17  C   UNL A   1      30.113  28.144  23.073  1.00  0.00     0.073 C 
ATOM     18  C   UNL A   1      28.664  27.698  23.275  1.00  0.00     0.043 C 
ATOM     19  C   UNL A   1      30.146  29.684  23.133  1.00  0.00     0.043 C 
BRANCH  17  20
ATOM     20  O   UNL A   1      30.584  27.772  21.780  1.00  0.00    -0.389 OA
ATOM     21  H   UNL A   1      31.540  27.611  21.819  1.00  0.00     0.211 HD
ENDBRANCH  17  20
ENDBRANCH  16  17
ENDBRANCH  14  16
ENDBRANCH  11  14
ENDBRANCH  10  11
ENDBRANCH   9  10
ENDBRANCH   8   9
ENDBRANCH   6   8
ENDBRANCH   5   6
ENDBRANCH   4   5
ENDBRANCH   3   4
ENDBRANCH   2   3
ENDBRANCH   1   2
BRANCH   1  22
ATOM     22  C   UNL A   1      40.480  21.535  26.230  1.00  0.00     0.188 C 
BRANCH  22  23
ATOM     23  O   UNL A   1      41.032  20.355  26.782  1.00  0.00    -0.377 OA
BRANCH  23  24
ATOM     24  C   UNL A   1      41.701  19.429  25.932  1.00  0.00     0.188 C 
BRANCH  24  25
ATOM     25  C   UNL A   1      43.240  19.391  25.851  1.00  0.00     0.188 C 
BRANCH  25  26
ATOM     26  O   UNL A   1      43.781  19.690  24.576  1.00  0.00    -0.376 OA
BRANCH  26  27
ATOM     27  C   UNL A   1      45.095  20.218  24.487  1.00  0.00     0.202 C 
BRANCH  27  28
ATOM     28  C   UNL A   1      45.467  21.416  25.374  1.00  0.00     0.261 C 
BRANCH  28  29
ATOM     29  O   UNL A   1      45.240  22.720  24.824  1.00  0.00    -0.460 OA
BRANCH  29  30
ATOM     30  C   UNL A   1      43.997  23.235  24.909  1.00  0.00     0.338 C 
ATOM     31  O   UNL A   1      42.999  22.866  24.311  1.00  0.00    -0.246 OA
BRANCH  30  32
ATOM     32  C   UNL A   1      44.011  24.228  25.997  1.00  0.00     0.060 A 
ATOM     33  C   UNL A   1      45.234  24.750  26.445  1.00  0.00     0.016 A 
ATOM     34  C   UNL A   1      42.807  24.633  26.573  1.00  0.00     0.016 A 
ATOM     35  C   UNL A   1      45.256  25.648  27.512  1.00  0.00     0.010 A 
ATOM     36  C   UNL A   1      42.833  25.516  27.649  1.00  0.00     0.010 A 
ATOM     37  C   UNL A   1      44.058  25.993  28.149  1.00  0.00    -0.014 A 
BRANCH  37  38
ATOM     38  C   UNL A   1      44.068  26.650  29.476  1.00  0.00     0.031 A 
ATOM     39  C   UNL A   1      43.868  28.139  29.518  1.00  0.00     0.074 A 
ATOM     40  C   UNL A   1      44.311  25.961  30.602  1.00  0.00     0.049 A 
ATOM     41  N   UNL A   1      44.015  28.970  30.515  1.00  0.00    -0.248 NA
ATOM     42  C   UNL A   1      43.465  28.775  28.252  1.00  0.00     0.031 C 
ATOM     43  C   UNL A   1      44.468  24.511  30.693  1.00  0.00     0.029 A 
ATOM     44  N   UNL A   1      44.499  26.406  31.888  1.00  0.00    -0.354 N 
ATOM     45  C   UNL A   1      43.756  30.231  29.989  1.00  0.00     0.074 A 
ATOM     46  C   UNL A   1      43.463  30.056  28.584  1.00  0.00     0.031 C 
ATOM     47  C   UNL A   1      44.763  24.188  31.964  1.00  0.00     0.029 A 
ATOM     48  C   UNL A   1      44.863  25.411  32.761  1.00  0.00     0.049 A 
ATOM     49  H   UNL A   1      44.385  27.346  32.156  1.00  0.00     0.167 HD
ATOM     50  C   UNL A   1      43.772  31.428  30.621  1.00  0.00     0.031 A 
ATOM     51  C   UNL A   1      45.274  25.485  34.044  1.00  0.00     0.031 A 
ATOM     52  C   UNL A   1      44.094  31.589  32.013  1.00  0.00     0.049 A 
ATOM     53  C   UNL A   1      45.357  26.832  34.715  1.00  0.00     0.074 A 
ATOM     54  C   UNL A   1      44.125  32.754  32.760  1.00  0.00     0.029 A 
ATOM     55  N   UNL A   1      44.458  30.556  32.864  1.00  0.00    -0.354 N 
ATOM     56  N   UNL A   1      45.095  28.019  34.218  1.00  0.00    -0.248 NA
ATOM     57  C   UNL A   1      45.783  26.849  36.122  1.00  0.00     0.031 C 
ATOM     58  C   UNL A   1      44.574  32.432  34.043  1.00  0.00     0.029 A 
ATOM     59  C   UNL A   1      44.743  31.057  34.121  1.00  0.00     0.049 A 
ATOM     60  H   UNL A   1      44.507  29.606  32.610  1.00  0.00     0.167 HD
ATOM     61  C   UNL A   1      45.289  28.920  35.261  1.00  0.00     0.074 A 
ATOM     62  C   UNL A   1      45.691  28.142  36.415  1.00  0.00     0.031 C 
ATOM     63  C   UNL A   1      45.135  30.268  35.264  1.00  0.00     0.031 A 
BRANCH  50  64
ATOM     64  C   UNL A   1      43.497  32.654  29.787  1.00  0.00    -0.014 A 
ATOM     65  C   UNL A   1      44.400  33.095  28.803  1.00  0.00     0.010 A 
ATOM     66  C   UNL A   1      42.314  33.384  30.002  1.00  0.00     0.010 A 
ATOM     67  C   UNL A   1      44.158  34.277  28.098  1.00  0.00     0.020 A 
ATOM     68  C   UNL A   1      42.049  34.546  29.273  1.00  0.00     0.020 A 
ATOM     69  C   UNL A   1      42.987  34.999  28.343  1.00  0.00     0.054 A 
BRANCH  69  70
ATOM     70  S   UNL A   1      42.704  36.537  27.426  1.00  0.00     0.124 S 
ATOM     71  O   UNL A   1      43.731  37.413  27.985  1.00  0.00    -0.237 OA
ATOM     72  O   UNL A   1      42.916  36.126  26.040  1.00  0.00    -0.237 OA
ATOM     73  O   UNL A   1      41.329  36.897  27.763  1.00  0.00    -0.744 OA
ENDBRANCH  69  70
ENDBRANCH  50  64
BRANCH  51  74
ATOM     74  C   UNL A   1      45.653  24.238  34.761  1.00  0.00    -0.014 A 
ATOM     75  C   UNL A   1      44.664  23.366  35.250  1.00  0.00     0.010 A 
ATOM     76  C   UNL A   1      47.008  23.887  34.909  1.00  0.00     0.010 A 
ATOM     77  C   UNL A   1      45.024  22.162  35.861  1.00  0.00     0.020 A 
ATOM     78  C   UNL A   1      47.371  22.670  35.494  1.00  0.00     0.020 A 
ATOM     79  C   UNL A   1      46.374  21.814  35.965  1.00  0.00     0.054 A 
BRANCH  79  80
ATOM     80  S   UNL A   1      46.805  20.192  36.653  1.00  0.00     0.124 S 
ATOM     81  O   UNL A   1      47.261  20.539  37.995  1.00  0.00    -0.237 OA
ATOM     82  O   UNL A   1      45.532  19.477  36.579  1.00  0.00    -0.237 OA
ATOM     83  O   UNL A   1      47.837  19.698  35.745  1.00  0.00    -0.744 OA
ENDBRANCH  79  80
ENDBRANCH  51  74
BRANCH  63  84
ATOM     84  C   UNL A   1      45.333  31.000  36.566  1.00  0.00    -0.014 A 
ATOM     85  C   UNL A   1      44.302  31.123  37.513  1.00  0.00     0.010 A 
ATOM     86  C   UNL A   1      46.616  31.487  36.886  1.00  0.00     0.010 A 
ATOM     87  C   UNL A   1      44.546  31.730  38.749  1.00  0.00     0.020 A 
ATOM     88  C   UNL A   1      46.872  32.065  38.131  1.00  0.00     0.020 A 
ATOM     89  C   UNL A   1      45.832  32.189  39.053  1.00  0.00     0.054 A 
BRANCH  89  90
ATOM     90  S   UNL A   1      46.143  32.902  40.691  1.00  0.00     0.124 S 
ATOM     91  O   UNL A   1      47.282  33.778  40.433  1.00  0.00    -0.237 OA
ATOM     92  O   UNL A   1      44.883  33.581  40.987  1.00  0.00    -0.237 OA
ATOM     93  O   UNL A   1      46.428  31.740  41.529  1.00  0.00    -0.744 OA
ENDBRANCH  89  90
ENDBRANCH  63  84
ENDBRANCH  37  38
ENDBRANCH  30  32
ENDBRANCH  29  30
ENDBRANCH  28  29
ENDBRANCH  27  28
ENDBRANCH  26  27
ENDBRANCH  25  26
ENDBRANCH  24  25
ENDBRANCH  23  24
ENDBRANCH  22  23
ENDBRANCH   1  22
TORSDOF 30
ENDMDL
MODEL 3
REMARK VINA RESULT:      -6.9      6.958     15.040
REMARK SMILES CN(CC(C)(C)O)S(=O)(=O)CCCC(=O)OCCOCCOCCOCCOC(=O)c1ccc(-c2c3nc(c(-c4ccc(S(=O)(=O)[O-])cc4)c4ccc([nH]4)c(-c4ccc(S(=O)(=O)[O-])cc4)c4nc(c(-c5ccc(S(=O)(=O)[O-])cc5)c5ccc2[nH]5)C=C4)C=C3)cc1
REMARK SMILES IDX 20 1 19 2 18 3 17 4 16 5 14 6 15 7 13 8 12 9 11 10 8 11 9 12
REMARK SMILES IDX 10 13 2 14 1 15 3 16 4 17 5 18 6 19 7 20 21 22 22 23 23 24
REMARK SMILES IDX 24 25 25 26 26 27 27 28 28 29 29 30 30 31 31 32 32 33 90 34
REMARK SMILES IDX 33 35 89 36 34 37 35 38 36 39 83 40 37 41 88 42 82 43 84 44
REMARK SMILES IDX 38 45 87 46 81 47 80 48 39 50 69 51 50 52 68 53 51 54 54 55
REMARK SMILES IDX 67 56 85 57 52 58 53 59 66 61 86 62 55 63 40 64 41 65 49 66
REMARK SMILES IDX 42 67 48 68 43 69 44 70 45 71 46 72 47 73 70 74 71 75 79 76
REMARK SMILES IDX 72 77 78 78 73 79 74 80 75 81 76 82 77 83 56 84 57 85 65 86
REMARK SMILES IDX 58 87 64 88 59 89 60 90 61 91 62 92 63 93
REMARK H PARENT 7 21 84 49 54 60
REMARK Flexibility Score: inf
ROOT
ATOM      1  C   UNL A   1      47.104  38.560  26.088  1.00  0.00     0.188 C 
ENDROOT
BRANCH   1   2
ATOM      2  O   UNL A   1      47.390  37.296  25.530  1.00  0.00    -0.376 OA
BRANCH   2   3
ATOM      3  C   UNL A   1      46.929  36.110  26.155  1.00  0.00     0.202 C 
BRANCH   3   4
ATOM      4  C   UNL A   1      46.018  35.066  25.483  1.00  0.00     0.261 C 
BRANCH   4   5
ATOM      5  O   UNL A   1      44.936  34.515  26.258  1.00  0.00    -0.463 OA
BRANCH   5   6
ATOM      6  C   UNL A   1      43.704  35.017  26.029  1.00  0.00     0.305 C 
ATOM      7  O   UNL A   1      43.017  34.712  25.058  1.00  0.00    -0.252 OA
BRANCH   6   8
ATOM      8  C   UNL A   1      43.173  35.967  27.090  1.00  0.00     0.124 C 
BRANCH   8   9
ATOM      9  C   UNL A   1      42.318  37.212  26.835  1.00  0.00     0.029 C 
BRANCH   9  10
ATOM     10  C   UNL A   1      42.865  38.597  27.132  1.00  0.00     0.155 C 
BRANCH  10  11
ATOM     11  S   UNL A   1      41.739  39.930  26.759  1.00  0.00     0.213 S 
ATOM     12  O   UNL A   1      41.304  40.504  28.010  1.00  0.00    -0.212 OA
ATOM     13  O   UNL A   1      40.758  39.417  25.822  1.00  0.00    -0.212 OA
BRANCH  11  14
ATOM     14  N   UNL A   1      42.699  41.038  25.944  1.00  0.00    -0.202 NA
ATOM     15  C   UNL A   1      42.090  41.689  24.771  1.00  0.00     0.124 C 
BRANCH  14  16
ATOM     16  C   UNL A   1      43.739  41.850  26.631  1.00  0.00     0.136 C 
BRANCH  16  17
ATOM     17  C   UNL A   1      44.930  42.435  25.845  1.00  0.00     0.073 C 
ATOM     18  C   UNL A   1      45.473  41.489  24.774  1.00  0.00     0.043 C 
ATOM     19  C   UNL A   1      44.429  43.711  25.139  1.00  0.00     0.043 C 
BRANCH  17  20
ATOM     20  O   UNL A   1      45.964  42.839  26.739  1.00  0.00    -0.389 OA
ATOM     21  H   UNL A   1      46.261  43.733  26.507  1.00  0.00     0.211 HD
ENDBRANCH  17  20
ENDBRANCH  16  17
ENDBRANCH  14  16
ENDBRANCH  11  14
ENDBRANCH  10  11
ENDBRANCH   9  10
ENDBRANCH   8   9
ENDBRANCH   6   8
ENDBRANCH   5   6
ENDBRANCH   4   5
ENDBRANCH   3   4
ENDBRANCH   2   3
ENDBRANCH   1   2
BRANCH   1  22
ATOM     22  C   UNL A   1      46.279  38.638  27.382  1.00  0.00     0.188 C 
BRANCH  22  23
ATOM     23  O   UNL A   1      46.952  39.045  28.558  1.00  0.00    -0.377 OA
BRANCH  23  24
ATOM     24  C   UNL A   1      46.495  40.194  29.265  1.00  0.00     0.188 C 
BRANCH  24  25
ATOM     25  C   UNL A   1      45.041  40.294  29.766  1.00  0.00     0.188 C 
BRANCH  25  26
ATOM     26  O   UNL A   1      44.764  39.567  30.951  1.00  0.00    -0.376 OA
BRANCH  26  27
ATOM     27  C   UNL A   1      44.556  38.166  30.871  1.00  0.00     0.202 C 
BRANCH  27  28
ATOM     28  C   UNL A   1      45.474  37.240  31.684  1.00  0.00     0.261 C 
BRANCH  28  29
ATOM     29  O   UNL A   1      46.781  36.997  31.149  1.00  0.00    -0.460 OA
BRANCH  29  30
ATOM     30  C   UNL A   1      47.569  36.105  31.783  1.00  0.00     0.338 C 
ATOM     31  O   UNL A   1      48.169  36.262  32.833  1.00  0.00    -0.246 OA
BRANCH  30  32
ATOM     32  C   UNL A   1      47.442  34.825  31.065  1.00  0.00     0.060 A 
ATOM     33  C   UNL A   1      47.182  34.824  29.687  1.00  0.00     0.016 A 
ATOM     34  C   UNL A   1      47.576  33.628  31.768  1.00  0.00     0.016 A 
ATOM     35  C   UNL A   1      47.005  33.615  29.014  1.00  0.00     0.010 A 
ATOM     36  C   UNL A   1      47.382  32.422  31.099  1.00  0.00     0.010 A 
ATOM     37  C   UNL A   1      47.054  32.413  29.731  1.00  0.00    -0.014 A 
BRANCH  37  38
ATOM     38  C   UNL A   1      46.535  31.158  29.141  1.00  0.00     0.031 A 
ATOM     39  C   UNL A   1      45.075  30.854  29.323  1.00  0.00     0.074 A 
ATOM     40  C   UNL A   1      47.344  30.284  28.520  1.00  0.00     0.049 A 
ATOM     41  N   UNL A   1      44.416  29.754  29.071  1.00  0.00    -0.248 NA
ATOM     42  C   UNL A   1      44.251  31.938  29.886  1.00  0.00     0.031 C 
ATOM     43  C   UNL A   1      48.762  30.492  28.238  1.00  0.00     0.029 A 
ATOM     44  N   UNL A   1      47.081  29.024  28.041  1.00  0.00    -0.354 N 
ATOM     45  C   UNL A   1      43.109  30.002  29.475  1.00  0.00     0.074 A 
ATOM     46  C   UNL A   1      43.074  31.346  30.006  1.00  0.00     0.031 C 
ATOM     47  C   UNL A   1      49.255  29.382  27.663  1.00  0.00     0.029 A 
ATOM     48  C   UNL A   1      48.199  28.371  27.585  1.00  0.00     0.049 A 
ATOM     49  H   UNL A   1      46.180  28.628  28.027  1.00  0.00     0.167 HD
ATOM     50  C   UNL A   1      42.038  29.177  29.418  1.00  0.00     0.031 A 
ATOM     51  C   UNL A   1      48.361  27.091  27.192  1.00  0.00     0.031 A 
ATOM     52  C   UNL A   1      42.095  27.831  28.915  1.00  0.00     0.049 A 
ATOM     53  C   UNL A   1      47.175  26.161  27.201  1.00  0.00     0.074 A 
ATOM     54  C   UNL A   1      41.068  26.913  28.795  1.00  0.00     0.029 A 
ATOM     55  N   UNL A   1      43.248  27.206  28.462  1.00  0.00    -0.354 N 
ATOM     56  N   UNL A   1      45.939  26.405  27.569  1.00  0.00    -0.248 NA
ATOM     57  C   UNL A   1      47.404  24.786  26.736  1.00  0.00     0.031 C 
ATOM     58  C   UNL A   1      41.613  25.711  28.336  1.00  0.00     0.029 A 
ATOM     59  C   UNL A   1      42.964  25.904  28.089  1.00  0.00     0.049 A 
ATOM     60  H   UNL A   1      44.137  27.627  28.414  1.00  0.00     0.167 HD
ATOM     61  C   UNL A   1      45.234  25.226  27.345  1.00  0.00     0.074 A 
ATOM     62  C   UNL A   1      46.182  24.270  26.810  1.00  0.00     0.031 C 
ATOM     63  C   UNL A   1      43.919  24.966  27.551  1.00  0.00     0.031 A 
BRANCH  50  64
ATOM     64  C   UNL A   1      40.737  29.694  29.978  1.00  0.00    -0.014 A 
ATOM     65  C   UNL A   1      39.774  30.312  29.160  1.00  0.00     0.010 A 
ATOM     66  C   UNL A   1      40.480  29.567  31.355  1.00  0.00     0.010 A 
ATOM     67  C   UNL A   1      38.612  30.851  29.717  1.00  0.00     0.020 A 
ATOM     68  C   UNL A   1      39.301  30.070  31.912  1.00  0.00     0.020 A 
ATOM     69  C   UNL A   1      38.386  30.732  31.092  1.00  0.00     0.054 A 
BRANCH  69  70
ATOM     70  S   UNL A   1      36.877  31.453  31.792  1.00  0.00     0.124 S 
ATOM     71  O   UNL A   1      37.404  32.210  32.925  1.00  0.00    -0.237 OA
ATOM     72  O   UNL A   1      36.365  32.257  30.685  1.00  0.00    -0.237 OA
ATOM     73  O   UNL A   1      36.066  30.291  32.144  1.00  0.00    -0.744 OA
ENDBRANCH  69  70
ENDBRANCH  50  64
BRANCH  51  74
ATOM     74  C   UNL A   1      49.710  26.621  26.775  1.00  0.00    -0.014 A 
ATOM     75  C   UNL A   1      50.653  26.212  27.735  1.00  0.00     0.010 A 
ATOM     76  C   UNL A   1      50.040  26.528  25.410  1.00  0.00     0.010 A 
ATOM     77  C   UNL A   1      51.893  25.706  27.336  1.00  0.00     0.020 A 
ATOM     78  C   UNL A   1      51.268  25.996  25.006  1.00  0.00     0.020 A 
ATOM     79  C   UNL A   1      52.187  25.586  25.974  1.00  0.00     0.054 A 
BRANCH  79  80
ATOM     80  S   UNL A   1      53.754  24.815  25.486  1.00  0.00     0.124 S 
ATOM     81  O   UNL A   1      54.213  25.701  24.420  1.00  0.00    -0.237 OA
ATOM     82  O   UNL A   1      54.522  24.865  26.728  1.00  0.00    -0.237 OA
ATOM     83  O   UNL A   1      53.359  23.474  25.064  1.00  0.00    -0.744 OA
ENDBRANCH  79  80
ENDBRANCH  51  74
BRANCH  63  84
ATOM     84  C   UNL A   1      43.392  23.614  27.140  1.00  0.00    -0.014 A 
ATOM     85  C   UNL A   1      43.113  23.303  25.798  1.00  0.00     0.010 A 
ATOM     86  C   UNL A   1      43.273  22.604  28.115  1.00  0.00     0.010 A 
ATOM     87  C   UNL A   1      42.712  22.011  25.441  1.00  0.00     0.020 A 
ATOM     88  C   UNL A   1      42.904  21.306  27.759  1.00  0.00     0.020 A 
ATOM     89  C   UNL A   1      42.619  21.019  26.423  1.00  0.00     0.054 A 
BRANCH  89  90
ATOM     90  S   UNL A   1      42.172  19.333  25.925  1.00  0.00     0.124 S 
ATOM     91  O   UNL A   1      43.033  19.119  24.765  1.00  0.00    -0.237 OA
ATOM     92  O   UNL A   1      42.509  18.550  27.111  1.00  0.00    -0.237 OA
ATOM     93  O   UNL A   1      40.743  19.424  25.632  1.00  0.00    -0.744 OA
ENDBRANCH  89  90
ENDBRANCH  63  84
ENDBRANCH  37  38
ENDBRANCH  30  32
ENDBRANCH  29  30
ENDBRANCH  28  29
ENDBRANCH  27  28
ENDBRANCH  26  27
ENDBRANCH  25  26
ENDBRANCH  24  25
ENDBRANCH  23  24
ENDBRANCH  22  23
ENDBRANCH   1  22
TORSDOF 30
ENDMDL
