MODEL 1
REMARK VINA RESULT:      -9.8      0.000      0.000
REMARK SMILES COC(=O)c1ccc(-c2ccc(C(=O)OCCOCCOCCOCCOC(=O)c3ccc(-c4c5nc(c(-c6ccc(S(=O)(=O)[O-])cc6)c6ccc([nH]6)c(-c6ccc(S(=O)(=O)[O-])cc6)c6nc(c(-c7ccc(S(=O)(=O)[O-])cc7)c7ccc4[nH]7)C=C6)C=C5)cc3)cc2O)cc1F
REMARK SMILES IDX 21 1 20 2 19 3 18 4 17 5 16 6 15 7 13 8 14 9 12 10 9 11
REMARK SMILES IDX 10 12 91 13 11 14 90 15 8 16 5 17 6 18 94 19 7 20 93 21
REMARK SMILES IDX 95 22 3 23 4 24 2 25 1 26 92 27 22 29 23 30 24 31 25 32
REMARK SMILES IDX 26 33 27 34 28 35 29 36 30 37 31 38 89 39 32 40 88 41 33 42
REMARK SMILES IDX 34 43 35 44 82 45 36 46 87 47 81 48 83 49 37 50 86 51 80 52
REMARK SMILES IDX 79 53 38 55 68 56 49 57 67 58 50 59 53 60 66 61 84 62 51 63
REMARK SMILES IDX 52 64 65 66 85 67 54 68 39 69 40 70 48 71 41 72 47 73 42 74
REMARK SMILES IDX 43 75 44 76 45 77 46 78 69 79 70 80 78 81 71 82 77 83 72 84
REMARK SMILES IDX 73 85 74 86 75 87 76 88 55 89 56 90 64 91 57 92 63 93 58 94
REMARK SMILES IDX 59 95 60 96 61 97 62 98
REMARK H PARENT 92 28 83 54 53 65
REMARK Flexibility Score: inf
ROOT
ATOM      1  O   UNL A   1      36.085  24.456  25.461  1.00  0.00    -0.377 OA
ENDROOT
BRANCH   1   2
ATOM      2  C   UNL A   1      34.748  24.584  25.005  1.00  0.00     0.188 C 
BRANCH   2   3
ATOM      3  C   UNL A   1      33.987  25.863  25.406  1.00  0.00     0.188 C 
BRANCH   3   4
ATOM      4  O   UNL A   1      34.159  26.936  24.499  1.00  0.00    -0.376 OA
BRANCH   4   5
ATOM      5  C   UNL A   1      33.058  27.742  24.124  1.00  0.00     0.202 C 
BRANCH   5   6
ATOM      6  C   UNL A   1      31.623  27.401  24.557  1.00  0.00     0.261 C 
BRANCH   6   7
ATOM      7  O   UNL A   1      30.791  26.761  23.588  1.00  0.00    -0.460 OA
BRANCH   7   8
ATOM      8  C   UNL A   1      29.967  25.789  24.029  1.00  0.00     0.338 C 
ATOM      9  O   UNL A   1      28.759  25.857  24.164  1.00  0.00    -0.246 OA
BRANCH   8  10
ATOM     10  C   UNL A   1      30.752  24.534  24.119  1.00  0.00     0.063 A 
ATOM     11  C   UNL A   1      32.175  22.115  24.168  1.00  0.00     0.024 A 
ATOM     12  C   UNL A   1      32.170  22.913  23.013  1.00  0.00     0.013 A 
ATOM     13  C   UNL A   1      31.544  22.611  25.327  1.00  0.00     0.124 A 
ATOM     14  C   UNL A   1      31.449  24.107  22.983  1.00  0.00     0.016 A 
ATOM     15  C   UNL A   1      30.839  23.813  25.314  1.00  0.00     0.062 A 
BRANCH  11  16
ATOM     16  C   UNL A   1      32.661  20.731  24.090  1.00  0.00    -0.012 A 
ATOM     17  C   UNL A   1      33.542  18.075  23.776  1.00  0.00     0.095 A 
ATOM     18  C   UNL A   1      34.105  18.894  24.765  1.00  0.00     0.019 A 
ATOM     19  C   UNL A   1      32.536  18.581  22.959  1.00  0.00     0.138 A 
ATOM     20  C   UNL A   1      33.673  20.221  24.914  1.00  0.00     0.010 A 
ATOM     21  C   UNL A   1      32.103  19.891  23.111  1.00  0.00     0.049 A 
ATOM     22  F   UNL A   1      31.940  17.827  22.025  1.00  0.00    -0.206 F 
BRANCH  17  23
ATOM     23  C   UNL A   1      34.005  16.680  23.648  1.00  0.00     0.340 C 
ATOM     24  O   UNL A   1      34.326  16.173  22.585  1.00  0.00    -0.246 OA
BRANCH  23  25
ATOM     25  O   UNL A   1      33.949  16.056  24.849  1.00  0.00    -0.465 OA
ATOM     26  C   UNL A   1      32.635  15.690  25.265  1.00  0.00     0.282 C 
ENDBRANCH  23  25
ENDBRANCH  17  23
ENDBRANCH  11  16
BRANCH  13  27
ATOM     27  O   UNL A   1      31.597  21.869  26.477  1.00  0.00    -0.507 OA
ATOM     28  H   UNL A   1      30.827  21.757  26.998  1.00  0.00     0.293 HD
ENDBRANCH  13  27
ENDBRANCH   8  10
ENDBRANCH   7   8
ENDBRANCH   6   7
ENDBRANCH   5   6
ENDBRANCH   4   5
ENDBRANCH   3   4
ENDBRANCH   2   3
ENDBRANCH   1   2
BRANCH   1  29
ATOM     29  C   UNL A   1      36.930  23.444  24.910  1.00  0.00     0.188 C 
BRANCH  29  30
ATOM     30  C   UNL A   1      37.052  22.024  25.520  1.00  0.00     0.188 C 
BRANCH  30  31
ATOM     31  O   UNL A   1      38.378  21.538  25.649  1.00  0.00    -0.376 OA
BRANCH  31  32
ATOM     32  C   UNL A   1      38.632  20.196  25.279  1.00  0.00     0.202 C 
BRANCH  32  33
ATOM     33  C   UNL A   1      39.777  19.484  26.010  1.00  0.00     0.261 C 
BRANCH  33  34
ATOM     34  O   UNL A   1      41.028  19.418  25.310  1.00  0.00    -0.460 OA
BRANCH  34  35
ATOM     35  C   UNL A   1      42.143  19.236  26.057  1.00  0.00     0.338 C 
ATOM     36  O   UNL A   1      42.662  18.184  26.353  1.00  0.00    -0.246 OA
BRANCH  35  37
ATOM     37  C   UNL A   1      42.731  20.574  26.294  1.00  0.00     0.060 A 
ATOM     38  C   UNL A   1      42.644  21.144  27.571  1.00  0.00     0.016 A 
ATOM     39  C   UNL A   1      43.382  21.248  25.259  1.00  0.00     0.016 A 
ATOM     40  C   UNL A   1      43.185  22.409  27.807  1.00  0.00     0.010 A 
ATOM     41  C   UNL A   1      43.905  22.522  25.493  1.00  0.00     0.010 A 
ATOM     42  C   UNL A   1      43.782  23.121  26.759  1.00  0.00    -0.014 A 
BRANCH  42  43
ATOM     43  C   UNL A   1      44.108  24.559  26.925  1.00  0.00     0.031 A 
ATOM     44  C   UNL A   1      45.542  24.986  26.760  1.00  0.00     0.074 A 
ATOM     45  C   UNL A   1      43.158  25.467  27.212  1.00  0.00     0.049 A 
ATOM     46  N   UNL A   1      46.080  26.165  26.928  1.00  0.00    -0.248 NA
ATOM     47  C   UNL A   1      46.496  23.940  26.355  1.00  0.00     0.031 C 
ATOM     48  C   UNL A   1      41.730  25.187  27.348  1.00  0.00     0.029 A 
ATOM     49  N   UNL A   1      43.261  26.815  27.454  1.00  0.00    -0.354 N 
ATOM     50  C   UNL A   1      47.435  26.002  26.660  1.00  0.00     0.074 A 
ATOM     51  C   UNL A   1      47.641  24.605  26.348  1.00  0.00     0.031 C 
ATOM     52  C   UNL A   1      41.090  26.328  27.659  1.00  0.00     0.029 A 
ATOM     53  C   UNL A   1      42.067  27.410  27.785  1.00  0.00     0.049 A 
ATOM     54  H   UNL A   1      44.111  27.308  27.395  1.00  0.00     0.167 HD
ATOM     55  C   UNL A   1      48.418  26.933  26.668  1.00  0.00     0.031 A 
ATOM     56  C   UNL A   1      41.799  28.674  28.172  1.00  0.00     0.031 A 
ATOM     57  C   UNL A   1      48.211  28.317  26.997  1.00  0.00     0.049 A 
ATOM     58  C   UNL A   1      42.926  29.673  28.263  1.00  0.00     0.074 A 
ATOM     59  C   UNL A   1      49.141  29.342  27.024  1.00  0.00     0.029 A 
ATOM     60  N   UNL A   1      46.993  28.872  27.362  1.00  0.00    -0.354 N 
ATOM     61  N   UNL A   1      44.199  29.510  27.984  1.00  0.00    -0.248 NA
ATOM     62  C   UNL A   1      42.580  31.028  28.714  1.00  0.00     0.031 C 
ATOM     63  C   UNL A   1      48.499  30.501  27.470  1.00  0.00     0.029 A 
ATOM     64  C   UNL A   1      47.154  30.217  27.648  1.00  0.00     0.049 A 
ATOM     65  H   UNL A   1      46.141  28.381  27.411  1.00  0.00     0.167 HD
ATOM     66  C   UNL A   1      44.796  30.750  28.194  1.00  0.00     0.074 A 
ATOM     67  C   UNL A   1      43.744  31.655  28.608  1.00  0.00     0.031 C 
ATOM     68  C   UNL A   1      46.097  31.108  28.054  1.00  0.00     0.031 A 
BRANCH  55  69
ATOM     69  C   UNL A   1      49.816  26.474  26.348  1.00  0.00    -0.014 A 
ATOM     70  C   UNL A   1      50.548  25.676  27.246  1.00  0.00     0.010 A 
ATOM     71  C   UNL A   1      50.389  26.810  25.107  1.00  0.00     0.010 A 
ATOM     72  C   UNL A   1      51.838  25.247  26.921  1.00  0.00     0.020 A 
ATOM     73  C   UNL A   1      51.667  26.357  24.767  1.00  0.00     0.020 A 
ATOM     74  C   UNL A   1      52.388  25.589  25.682  1.00  0.00     0.054 A 
BRANCH  74  75
ATOM     75  S   UNL A   1      54.049  24.986  25.274  1.00  0.00     0.124 S 
ATOM     76  O   UNL A   1      54.833  25.468  26.409  1.00  0.00    -0.237 OA
ATOM     77  O   UNL A   1      53.856  23.539  25.215  1.00  0.00    -0.237 OA
ATOM     78  O   UNL A   1      54.347  25.625  23.996  1.00  0.00    -0.744 OA
ENDBRANCH  74  75
ENDBRANCH  55  69
BRANCH  56  79
ATOM     79  C   UNL A   1      40.408  29.069  28.534  1.00  0.00    -0.014 A 
ATOM     80  C   UNL A   1      39.986  29.077  29.875  1.00  0.00     0.010 A 
ATOM     81  C   UNL A   1      39.487  29.420  27.529  1.00  0.00     0.010 A 
ATOM     82  C   UNL A   1      38.667  29.406  30.203  1.00  0.00     0.020 A 
ATOM     83  C   UNL A   1      38.176  29.781  27.855  1.00  0.00     0.020 A 
ATOM     84  C   UNL A   1      37.771  29.760  29.190  1.00  0.00     0.054 A 
BRANCH  84  85
ATOM     85  S   UNL A   1      36.078  30.229  29.644  1.00  0.00     0.124 S 
ATOM     86  O   UNL A   1      35.978  29.723  31.009  1.00  0.00    -0.237 OA
ATOM     87  O   UNL A   1      36.108  31.683  29.506  1.00  0.00    -0.237 OA
ATOM     88  O   UNL A   1      35.254  29.534  28.657  1.00  0.00    -0.744 OA
ENDBRANCH  84  85
ENDBRANCH  56  79
BRANCH  68  89
ATOM     89  C   UNL A   1      46.458  32.551  28.303  1.00  0.00    -0.014 A 
ATOM     90  C   UNL A   1      46.934  32.985  29.553  1.00  0.00     0.010 A 
ATOM     91  C   UNL A   1      46.383  33.475  27.242  1.00  0.00     0.010 A 
ATOM     92  C   UNL A   1      47.299  34.320  29.745  1.00  0.00     0.020 A 
ATOM     93  C   UNL A   1      46.779  34.802  27.421  1.00  0.00     0.020 A 
ATOM     94  C   UNL A   1      47.222  35.220  28.677  1.00  0.00     0.054 A 
BRANCH  94  95
ATOM     95  S   UNL A   1      47.749  36.935  28.941  1.00  0.00     0.124 S 
ATOM     96  O   UNL A   1      48.434  37.239  27.688  1.00  0.00    -0.237 OA
ATOM     97  O   UNL A   1      46.482  37.631  29.150  1.00  0.00    -0.237 OA
ATOM     98  O   UNL A   1      48.612  36.858  30.118  1.00  0.00    -0.744 OA
ENDBRANCH  94  95
ENDBRANCH  68  89
ENDBRANCH  42  43
ENDBRANCH  35  37
ENDBRANCH  34  35
ENDBRANCH  33  34
ENDBRANCH  32  33
ENDBRANCH  31  32
ENDBRANCH  30  31
ENDBRANCH  29  30
ENDBRANCH   1  29
TORSDOF 27
ENDMDL
MODEL 2
REMARK VINA RESULT:      -9.5      1.383      2.076
REMARK SMILES COC(=O)c1ccc(-c2ccc(C(=O)OCCOCCOCCOCCOC(=O)c3ccc(-c4c5nc(c(-c6ccc(S(=O)(=O)[O-])cc6)c6ccc([nH]6)c(-c6ccc(S(=O)(=O)[O-])cc6)c6nc(c(-c7ccc(S(=O)(=O)[O-])cc7)c7ccc4[nH]7)C=C6)C=C5)cc3)cc2O)cc1F
REMARK SMILES IDX 21 1 20 2 19 3 18 4 17 5 16 6 15 7 13 8 14 9 12 10 9 11
REMARK SMILES IDX 10 12 91 13 11 14 90 15 8 16 5 17 6 18 94 19 7 20 93 21
REMARK SMILES IDX 95 22 3 23 4 24 2 25 1 26 92 27 22 29 23 30 24 31 25 32
REMARK SMILES IDX 26 33 27 34 28 35 29 36 30 37 31 38 89 39 32 40 88 41 33 42
REMARK SMILES IDX 34 43 35 44 82 45 36 46 87 47 81 48 83 49 37 50 86 51 80 52
REMARK SMILES IDX 79 53 38 55 68 56 49 57 67 58 50 59 53 60 66 61 84 62 51 63
REMARK SMILES IDX 52 64 65 66 85 67 54 68 39 69 40 70 48 71 41 72 47 73 42 74
REMARK SMILES IDX 43 75 44 76 45 77 46 78 69 79 70 80 78 81 71 82 77 83 72 84
REMARK SMILES IDX 73 85 74 86 75 87 76 88 55 89 56 90 64 91 57 92 63 93 58 94
REMARK SMILES IDX 59 95 60 96 61 97 62 98
REMARK H PARENT 92 28 83 54 53 65
REMARK Flexibility Score: inf
ROOT
ATOM      1  O   UNL A   1      35.150  24.779  25.244  1.00  0.00    -0.377 OA
ENDROOT
BRANCH   1   2
ATOM      2  C   UNL A   1      33.899  24.506  25.856  1.00  0.00     0.188 C 
BRANCH   2   3
ATOM      3  C   UNL A   1      32.915  25.684  26.003  1.00  0.00     0.188 C 
BRANCH   3   4
ATOM      4  O   UNL A   1      33.531  26.894  26.402  1.00  0.00    -0.376 OA
BRANCH   4   5
ATOM      5  C   UNL A   1      33.575  28.000  25.521  1.00  0.00     0.202 C 
BRANCH   5   6
ATOM      6  C   UNL A   1      32.379  28.373  24.630  1.00  0.00     0.261 C 
BRANCH   6   7
ATOM      7  O   UNL A   1      32.475  28.031  23.246  1.00  0.00    -0.460 OA
BRANCH   7   8
ATOM      8  C   UNL A   1      31.390  27.471  22.673  1.00  0.00     0.338 C 
ATOM      9  O   UNL A   1      30.494  28.046  22.083  1.00  0.00    -0.246 OA
BRANCH   8  10
ATOM     10  C   UNL A   1      31.575  26.000  22.688  1.00  0.00     0.063 A 
ATOM     11  C   UNL A   1      31.878  23.214  22.851  1.00  0.00     0.024 A 
ATOM     12  C   UNL A   1      30.670  23.821  23.230  1.00  0.00     0.013 A 
ATOM     13  C   UNL A   1      32.885  24.024  22.287  1.00  0.00     0.124 A 
ATOM     14  C   UNL A   1      30.525  25.207  23.165  1.00  0.00     0.016 A 
ATOM     15  C   UNL A   1      32.742  25.407  22.198  1.00  0.00     0.062 A 
BRANCH  11  16
ATOM     16  C   UNL A   1      32.133  21.815  23.218  1.00  0.00    -0.012 A 
ATOM     17  C   UNL A   1      32.594  19.176  24.086  1.00  0.00     0.095 A 
ATOM     18  C   UNL A   1      32.160  19.423  22.776  1.00  0.00     0.019 A 
ATOM     19  C   UNL A   1      32.807  20.245  24.950  1.00  0.00     0.138 A 
ATOM     20  C   UNL A   1      31.921  20.738  22.347  1.00  0.00     0.010 A 
ATOM     21  C   UNL A   1      32.576  21.546  24.525  1.00  0.00     0.049 A 
ATOM     22  F   UNL A   1      33.257  20.065  26.199  1.00  0.00    -0.206 F 
BRANCH  17  23
ATOM     23  C   UNL A   1      32.851  17.786  24.508  1.00  0.00     0.340 C 
ATOM     24  O   UNL A   1      32.164  17.193  25.324  1.00  0.00    -0.246 OA
BRANCH  23  25
ATOM     25  O   UNL A   1      33.978  17.318  23.918  1.00  0.00    -0.465 OA
ATOM     26  C   UNL A   1      35.125  17.300  24.764  1.00  0.00     0.282 C 
ENDBRANCH  23  25
ENDBRANCH  17  23
ENDBRANCH  11  16
BRANCH  13  27
ATOM     27  O   UNL A   1      34.044  23.433  21.857  1.00  0.00    -0.507 OA
ATOM     28  H   UNL A   1      34.873  23.784  22.115  1.00  0.00     0.293 HD
ENDBRANCH  13  27
ENDBRANCH   8  10
ENDBRANCH   7   8
ENDBRANCH   6   7
ENDBRANCH   5   6
ENDBRANCH   4   5
ENDBRANCH   3   4
ENDBRANCH   2   3
ENDBRANCH   1   2
BRANCH   1  29
ATOM     29  C   UNL A   1      35.941  23.704  24.736  1.00  0.00     0.188 C 
BRANCH  29  30
ATOM     30  C   UNL A   1      36.529  22.590  25.639  1.00  0.00     0.188 C 
BRANCH  30  31
ATOM     31  O   UNL A   1      37.836  22.165  25.294  1.00  0.00    -0.376 OA
BRANCH  31  32
ATOM     32  C   UNL A   1      38.076  20.774  25.192  1.00  0.00     0.202 C 
BRANCH  32  33
ATOM     33  C   UNL A   1      39.245  20.214  26.012  1.00  0.00     0.261 C 
BRANCH  33  34
ATOM     34  O   UNL A   1      40.544  20.313  25.409  1.00  0.00    -0.460 OA
BRANCH  34  35
ATOM     35  C   UNL A   1      41.613  20.059  26.202  1.00  0.00     0.338 C 
ATOM     36  O   UNL A   1      42.032  18.975  26.540  1.00  0.00    -0.246 OA
BRANCH  35  37
ATOM     37  C   UNL A   1      42.298  21.350  26.435  1.00  0.00     0.060 A 
ATOM     38  C   UNL A   1      42.634  21.722  27.743  1.00  0.00     0.016 A 
ATOM     39  C   UNL A   1      42.624  22.176  25.357  1.00  0.00     0.016 A 
ATOM     40  C   UNL A   1      43.272  22.941  27.979  1.00  0.00     0.010 A 
ATOM     41  C   UNL A   1      43.244  23.404  25.597  1.00  0.00     0.010 A 
ATOM     42  C   UNL A   1      43.544  23.806  26.911  1.00  0.00    -0.014 A 
BRANCH  42  43
ATOM     43  C   UNL A   1      43.962  25.205  27.173  1.00  0.00     0.031 A 
ATOM     44  C   UNL A   1      45.381  25.593  26.855  1.00  0.00     0.074 A 
ATOM     45  C   UNL A   1      43.108  26.112  27.678  1.00  0.00     0.049 A 
ATOM     46  N   UNL A   1      45.997  26.726  27.064  1.00  0.00    -0.248 NA
ATOM     47  C   UNL A   1      46.218  24.560  26.220  1.00  0.00     0.031 C 
ATOM     48  C   UNL A   1      41.697  25.873  27.980  1.00  0.00     0.029 A 
ATOM     49  N   UNL A   1      43.311  27.422  28.036  1.00  0.00    -0.354 N 
ATOM     50  C   UNL A   1      47.294  26.541  26.596  1.00  0.00     0.074 A 
ATOM     51  C   UNL A   1      47.384  25.179  26.122  1.00  0.00     0.031 C 
ATOM     52  C   UNL A   1      41.165  26.999  28.489  1.00  0.00     0.029 A 
ATOM     53  C   UNL A   1      42.205  28.023  28.586  1.00  0.00     0.049 A 
ATOM     54  H   UNL A   1      44.170  27.887  27.909  1.00  0.00     0.167 HD
ATOM     55  C   UNL A   1      48.317  27.428  26.562  1.00  0.00     0.031 A 
ATOM     56  C   UNL A   1      42.056  29.248  29.131  1.00  0.00     0.031 A 
ATOM     57  C   UNL A   1      48.227  28.777  27.052  1.00  0.00     0.049 A 
ATOM     58  C   UNL A   1      43.236  30.189  29.164  1.00  0.00     0.074 A 
ATOM     59  C   UNL A   1      49.204  29.757  27.052  1.00  0.00     0.029 A 
ATOM     60  N   UNL A   1      47.099  29.335  27.636  1.00  0.00    -0.354 N 
ATOM     61  N   UNL A   1      44.450  30.009  28.697  1.00  0.00    -0.248 NA
ATOM     62  C   UNL A   1      43.023  31.501  29.792  1.00  0.00     0.031 C 
ATOM     63  C   UNL A   1      48.688  30.886  27.697  1.00  0.00     0.029 A 
ATOM     64  C   UNL A   1      47.366  30.636  28.029  1.00  0.00     0.049 A 
ATOM     65  H   UNL A   1      46.238  28.875  27.753  1.00  0.00     0.167 HD
ATOM     66  C   UNL A   1      45.133  31.196  28.946  1.00  0.00     0.074 A 
ATOM     67  C   UNL A   1      44.194  32.091  29.589  1.00  0.00     0.031 C 
ATOM     68  C   UNL A   1      46.420  31.518  28.664  1.00  0.00     0.031 A 
BRANCH  55  69
ATOM     69  C   UNL A   1      49.634  26.954  26.008  1.00  0.00    -0.014 A 
ATOM     70  C   UNL A   1      49.942  27.085  24.641  1.00  0.00     0.010 A 
ATOM     71  C   UNL A   1      50.598  26.412  26.878  1.00  0.00     0.010 A 
ATOM     72  C   UNL A   1      51.178  26.655  24.151  1.00  0.00     0.020 A 
ATOM     73  C   UNL A   1      51.847  26.010  26.396  1.00  0.00     0.020 A 
ATOM     74  C   UNL A   1      52.123  26.122  25.033  1.00  0.00     0.054 A 
BRANCH  74  75
ATOM     75  S   UNL A   1      53.733  25.607  24.373  1.00  0.00     0.124 S 
ATOM     76  O   UNL A   1      53.769  24.192  24.737  1.00  0.00    -0.237 OA
ATOM     77  O   UNL A   1      53.594  25.884  22.946  1.00  0.00    -0.237 OA
ATOM     78  O   UNL A   1      54.687  26.455  25.081  1.00  0.00    -0.744 OA
ENDBRANCH  74  75
ENDBRANCH  55  69
BRANCH  56  79
ATOM     79  C   UNL A   1      40.748  29.655  29.719  1.00  0.00    -0.014 A 
ATOM     80  C   UNL A   1      39.716  30.156  28.905  1.00  0.00     0.010 A 
ATOM     81  C   UNL A   1      40.535  29.561  31.107  1.00  0.00     0.010 A 
ATOM     82  C   UNL A   1      38.507  30.576  29.468  1.00  0.00     0.020 A 
ATOM     83  C   UNL A   1      39.316  29.949  31.671  1.00  0.00     0.020 A 
ATOM     84  C   UNL A   1      38.314  30.466  30.849  1.00  0.00     0.054 A 
BRANCH  84  85
ATOM     85  S   UNL A   1      36.720  30.974  31.552  1.00  0.00     0.124 S 
ATOM     86  O   UNL A   1      36.134  31.738  30.455  1.00  0.00    -0.237 OA
ATOM     87  O   UNL A   1      36.083  29.692  31.844  1.00  0.00    -0.237 OA
ATOM     88  O   UNL A   1      37.098  31.755  32.728  1.00  0.00    -0.744 OA
ENDBRANCH  84  85
ENDBRANCH  56  79
BRANCH  68  89
ATOM     89  C   UNL A   1      46.885  32.912  29.003  1.00  0.00    -0.014 A 
ATOM     90  C   UNL A   1      46.510  34.022  28.226  1.00  0.00     0.010 A 
ATOM     91  C   UNL A   1      47.657  33.119  30.163  1.00  0.00     0.010 A 
ATOM     92  C   UNL A   1      46.923  35.308  28.585  1.00  0.00     0.020 A 
ATOM     93  C   UNL A   1      48.043  34.406  30.543  1.00  0.00     0.020 A 
ATOM     94  C   UNL A   1      47.685  35.493  29.744  1.00  0.00     0.054 A 
BRANCH  94  95
ATOM     95  S   UNL A   1      48.165  37.177  30.214  1.00  0.00     0.124 S 
ATOM     96  O   UNL A   1      48.411  37.035  31.646  1.00  0.00    -0.237 OA
ATOM     97  O   UNL A   1      49.351  37.413  29.393  1.00  0.00    -0.237 OA
ATOM     98  O   UNL A   1      46.999  37.984  29.859  1.00  0.00    -0.744 OA
ENDBRANCH  94  95
ENDBRANCH  68  89
ENDBRANCH  42  43
ENDBRANCH  35  37
ENDBRANCH  34  35
ENDBRANCH  33  34
ENDBRANCH  32  33
ENDBRANCH  31  32
ENDBRANCH  30  31
ENDBRANCH  29  30
ENDBRANCH   1  29
TORSDOF 27
ENDMDL
MODEL 3
REMARK VINA RESULT:      -9.3      6.406     11.366
REMARK SMILES COC(=O)c1ccc(-c2ccc(C(=O)OCCOCCOCCOCCOC(=O)c3ccc(-c4c5nc(c(-c6ccc(S(=O)(=O)[O-])cc6)c6ccc([nH]6)c(-c6ccc(S(=O)(=O)[O-])cc6)c6nc(c(-c7ccc(S(=O)(=O)[O-])cc7)c7ccc4[nH]7)C=C6)C=C5)cc3)cc2O)cc1F
REMARK SMILES IDX 21 1 20 2 19 3 18 4 17 5 16 6 15 7 13 8 14 9 12 10 9 11
REMARK SMILES IDX 10 12 91 13 11 14 90 15 8 16 5 17 6 18 94 19 7 20 93 21
REMARK SMILES IDX 95 22 3 23 4 24 2 25 1 26 92 27 22 29 23 30 24 31 25 32
REMARK SMILES IDX 26 33 27 34 28 35 29 36 30 37 31 38 89 39 32 40 88 41 33 42
REMARK SMILES IDX 34 43 35 44 82 45 36 46 87 47 81 48 83 49 37 50 86 51 80 52
REMARK SMILES IDX 79 53 38 55 68 56 49 57 67 58 50 59 53 60 66 61 84 62 51 63
REMARK SMILES IDX 52 64 65 66 85 67 54 68 39 69 40 70 48 71 41 72 47 73 42 74
REMARK SMILES IDX 43 75 44 76 45 77 46 78 69 79 70 80 78 81 71 82 77 83 72 84
REMARK SMILES IDX 73 85 74 86 75 87 76 88 55 89 56 90 64 91 57 92 63 93 58 94
REMARK SMILES IDX 59 95 60 96 61 97 62 98
REMARK H PARENT 92 28 83 54 53 65
REMARK Flexibility Score: inf
ROOT
ATOM      1  O   UNL A   1      38.862  24.729  26.440  1.00  0.00    -0.377 OA
ENDROOT
BRANCH   1   2
ATOM      2  C   UNL A   1      37.674  23.953  26.442  1.00  0.00     0.188 C 
BRANCH   2   3
ATOM      3  C   UNL A   1      37.637  22.718  25.520  1.00  0.00     0.188 C 
BRANCH   3   4
ATOM      4  O   UNL A   1      36.334  22.363  25.097  1.00  0.00    -0.376 OA
BRANCH   4   5
ATOM      5  C   UNL A   1      36.023  21.018  24.787  1.00  0.00     0.202 C 
BRANCH   5   6
ATOM      6  C   UNL A   1      34.585  20.481  24.869  1.00  0.00     0.261 C 
BRANCH   6   7
ATOM      7  O   UNL A   1      33.531  21.432  24.704  1.00  0.00    -0.460 OA
BRANCH   7   8
ATOM      8  C   UNL A   1      33.023  21.988  25.822  1.00  0.00     0.338 C 
ATOM      9  O   UNL A   1      33.383  21.790  26.969  1.00  0.00    -0.246 OA
BRANCH   8  10
ATOM     10  C   UNL A   1      32.085  23.060  25.412  1.00  0.00     0.063 A 
ATOM     11  C   UNL A   1      30.385  25.106  24.513  1.00  0.00     0.024 A 
ATOM     12  C   UNL A   1      30.682  24.013  23.684  1.00  0.00     0.013 A 
ATOM     13  C   UNL A   1      30.871  25.092  25.837  1.00  0.00     0.124 A 
ATOM     14  C   UNL A   1      31.540  23.004  24.124  1.00  0.00     0.016 A 
ATOM     15  C   UNL A   1      31.712  24.079  26.293  1.00  0.00     0.062 A 
BRANCH  11  16
ATOM     16  C   UNL A   1      29.752  26.300  23.940  1.00  0.00    -0.012 A 
ATOM     17  C   UNL A   1      28.673  28.604  22.732  1.00  0.00     0.095 A 
ATOM     18  C   UNL A   1      27.831  27.677  23.363  1.00  0.00     0.019 A 
ATOM     19  C   UNL A   1      30.046  28.384  22.719  1.00  0.00     0.138 A 
ATOM     20  C   UNL A   1      28.369  26.524  23.955  1.00  0.00     0.010 A 
ATOM     21  C   UNL A   1      30.579  27.247  23.310  1.00  0.00     0.049 A 
ATOM     22  F   UNL A   1      30.896  29.259  22.163  1.00  0.00    -0.206 F 
BRANCH  17  23
ATOM     23  C   UNL A   1      28.084  29.815  22.129  1.00  0.00     0.340 C 
ATOM     24  O   UNL A   1      28.294  30.162  20.977  1.00  0.00    -0.246 OA
BRANCH  23  25
ATOM     25  O   UNL A   1      27.358  30.492  23.050  1.00  0.00    -0.465 OA
ATOM     26  C   UNL A   1      28.105  31.432  23.818  1.00  0.00     0.282 C 
ENDBRANCH  23  25
ENDBRANCH  17  23
ENDBRANCH  11  16
BRANCH  13  27
ATOM     27  O   UNL A   1      30.536  26.124  26.674  1.00  0.00    -0.507 OA
ATOM     28  H   UNL A   1      31.207  26.650  27.062  1.00  0.00     0.293 HD
ENDBRANCH  13  27
ENDBRANCH   8  10
ENDBRANCH   7   8
ENDBRANCH   6   7
ENDBRANCH   5   6
ENDBRANCH   4   5
ENDBRANCH   3   4
ENDBRANCH   2   3
ENDBRANCH   1   2
BRANCH   1  29
ATOM     29  C   UNL A   1      39.841  24.533  27.462  1.00  0.00     0.188 C 
BRANCH  29  30
ATOM     30  C   UNL A   1      40.955  23.459  27.367  1.00  0.00     0.188 C 
BRANCH  30  31
ATOM     31  O   UNL A   1      41.679  23.451  26.149  1.00  0.00    -0.376 OA
BRANCH  31  32
ATOM     32  C   UNL A   1      42.936  22.801  26.128  1.00  0.00     0.202 C 
BRANCH  32  33
ATOM     33  C   UNL A   1      44.174  23.698  26.003  1.00  0.00     0.261 C 
BRANCH  33  34
ATOM     34  O   UNL A   1      44.360  24.664  27.047  1.00  0.00    -0.460 OA
BRANCH  34  35
ATOM     35  C   UNL A   1      44.387  25.969  26.682  1.00  0.00     0.338 C 
ATOM     36  O   UNL A   1      44.725  26.422  25.613  1.00  0.00    -0.246 OA
BRANCH  35  37
ATOM     37  C   UNL A   1      43.747  26.739  27.772  1.00  0.00     0.060 A 
ATOM     38  C   UNL A   1      43.928  28.127  27.829  1.00  0.00     0.016 A 
ATOM     39  C   UNL A   1      42.956  26.088  28.721  1.00  0.00     0.016 A 
ATOM     40  C   UNL A   1      43.338  28.866  28.856  1.00  0.00     0.010 A 
ATOM     41  C   UNL A   1      42.383  26.826  29.760  1.00  0.00     0.010 A 
ATOM     42  C   UNL A   1      42.597  28.213  29.849  1.00  0.00    -0.014 A 
BRANCH  42  43
ATOM     43  C   UNL A   1      42.204  28.937  31.083  1.00  0.00     0.031 A 
ATOM     44  C   UNL A   1      40.976  29.806  31.035  1.00  0.00     0.074 A 
ATOM     45  C   UNL A   1      42.914  28.829  32.220  1.00  0.00     0.049 A 
ATOM     46  N   UNL A   1      40.478  30.589  31.956  1.00  0.00    -0.248 NA
ATOM     47  C   UNL A   1      40.209  29.792  29.778  1.00  0.00     0.031 C 
ATOM     48  C   UNL A   1      44.092  27.982  32.407  1.00  0.00     0.029 A 
ATOM     49  N   UNL A   1      42.749  29.448  33.434  1.00  0.00    -0.354 N 
ATOM     50  C   UNL A   1      39.348  31.168  31.388  1.00  0.00     0.074 A 
ATOM     51  C   UNL A   1      39.252  30.670  30.034  1.00  0.00     0.031 C 
ATOM     52  C   UNL A   1      44.550  28.144  33.661  1.00  0.00     0.029 A 
ATOM     53  C   UNL A   1      43.724  29.136  34.351  1.00  0.00     0.049 A 
ATOM     54  H   UNL A   1      42.002  30.060  33.629  1.00  0.00     0.167 HD
ATOM     55  C   UNL A   1      38.468  32.033  31.945  1.00  0.00     0.031 A 
ATOM     56  C   UNL A   1      43.941  29.615  35.593  1.00  0.00     0.031 A 
ATOM     57  C   UNL A   1      38.579  32.539  33.286  1.00  0.00     0.049 A 
ATOM     58  C   UNL A   1      42.998  30.647  36.160  1.00  0.00     0.074 A 
ATOM     59  C   UNL A   1      37.732  33.412  33.947  1.00  0.00     0.029 A 
ATOM     60  N   UNL A   1      39.601  32.226  34.170  1.00  0.00    -0.354 N 
ATOM     61  N   UNL A   1      41.921  31.168  35.620  1.00  0.00    -0.248 NA
ATOM     62  C   UNL A   1      43.297  31.152  37.508  1.00  0.00     0.031 C 
ATOM     63  C   UNL A   1      38.279  33.678  35.206  1.00  0.00     0.029 A 
ATOM     64  C   UNL A   1      39.424  32.913  35.358  1.00  0.00     0.049 A 
ATOM     65  H   UNL A   1      40.342  31.607  33.980  1.00  0.00     0.167 HD
ATOM     66  C   UNL A   1      41.397  32.035  36.575  1.00  0.00     0.074 A 
ATOM     67  C   UNL A   1      42.266  31.957  37.731  1.00  0.00     0.031 C 
ATOM     68  C   UNL A   1      40.295  32.822  36.504  1.00  0.00     0.031 A 
BRANCH  55  69
ATOM     69  C   UNL A   1      37.327  32.516  31.089  1.00  0.00    -0.014 A 
ATOM     70  C   UNL A   1      37.458  33.652  30.269  1.00  0.00     0.010 A 
ATOM     71  C   UNL A   1      36.120  31.794  31.070  1.00  0.00     0.010 A 
ATOM     72  C   UNL A   1      36.392  34.073  29.470  1.00  0.00     0.020 A 
ATOM     73  C   UNL A   1      35.062  32.195  30.248  1.00  0.00     0.020 A 
ATOM     74  C   UNL A   1      35.202  33.340  29.463  1.00  0.00     0.054 A 
BRANCH  74  75
ATOM     75  S   UNL A   1      33.850  33.890  28.386  1.00  0.00     0.124 S 
ATOM     76  O   UNL A   1      33.555  32.676  27.627  1.00  0.00    -0.237 OA
ATOM     77  O   UNL A   1      32.825  34.294  29.345  1.00  0.00    -0.237 OA
ATOM     78  O   UNL A   1      34.441  34.979  27.613  1.00  0.00    -0.744 OA
ENDBRANCH  74  75
ENDBRANCH  55  69
BRANCH  56  79
ATOM     79  C   UNL A   1      45.116  29.149  36.383  1.00  0.00    -0.014 A 
ATOM     80  C   UNL A   1      45.015  28.035  37.236  1.00  0.00     0.010 A 
ATOM     81  C   UNL A   1      46.343  29.834  36.301  1.00  0.00     0.010 A 
ATOM     82  C   UNL A   1      46.109  27.630  38.007  1.00  0.00     0.020 A 
ATOM     83  C   UNL A   1      47.449  29.412  37.045  1.00  0.00     0.020 A 
ATOM     84  C   UNL A   1      47.321  28.320  37.903  1.00  0.00     0.054 A 
BRANCH  84  85
ATOM     85  S   UNL A   1      48.740  27.747  38.878  1.00  0.00     0.124 S 
ATOM     86  O   UNL A   1      48.724  26.310  38.623  1.00  0.00    -0.237 OA
ATOM     87  O   UNL A   1      49.850  28.485  38.280  1.00  0.00    -0.237 OA
ATOM     88  O   UNL A   1      48.401  28.145  40.243  1.00  0.00    -0.744 OA
ENDBRANCH  84  85
ENDBRANCH  56  79
BRANCH  68  89
ATOM     89  C   UNL A   1      39.930  33.631  37.723  1.00  0.00    -0.014 A 
ATOM     90  C   UNL A   1      38.871  33.252  38.567  1.00  0.00     0.010 A 
ATOM     91  C   UNL A   1      40.708  34.754  38.065  1.00  0.00     0.010 A 
ATOM     92  C   UNL A   1      38.579  33.999  39.713  1.00  0.00     0.020 A 
ATOM     93  C   UNL A   1      40.440  35.482  39.226  1.00  0.00     0.020 A 
ATOM     94  C   UNL A   1      39.367  35.108  40.037  1.00  0.00     0.054 A 
BRANCH  94  95
ATOM     95  S   UNL A   1      38.998  36.028  41.554  1.00  0.00     0.124 S 
ATOM     96  O   UNL A   1      40.138  35.690  42.401  1.00  0.00    -0.237 OA
ATOM     97  O   UNL A   1      38.950  37.411  41.086  1.00  0.00    -0.237 OA
ATOM     98  O   UNL A   1      37.715  35.480  41.991  1.00  0.00    -0.744 OA
ENDBRANCH  94  95
ENDBRANCH  68  89
ENDBRANCH  42  43
ENDBRANCH  35  37
ENDBRANCH  34  35
ENDBRANCH  33  34
ENDBRANCH  32  33
ENDBRANCH  31  32
ENDBRANCH  30  31
ENDBRANCH  29  30
ENDBRANCH   1  29
TORSDOF 27
ENDMDL
