MODEL 1
REMARK VINA RESULT:      -5.7      0.000      0.000
REMARK SMILES O=C(OCCOCCOCCOCCOC(=O)[C@@H]1CCCC[C@H]1C(=O)Nc1ccc(NC(=O)c2ccco2)cc1)c1ccc(-c2c3nc(c(-c4ccc(S(=O)(=O)[O-])cc4)c4ccc([nH]4)c(-c4ccc(S(=O)(=O)[O-])cc4)c4nc(c(-c5ccc(S(=O)(=O)[O-])cc5)c5ccc2[nH]5)C=C4)C=C3)cc1
REMARK SMILES IDX 10 1 9 2 8 3 7 4 6 5 5 6 4 7 3 8 2 9 1 10 41 11 42 12 100 13
REMARK SMILES IDX 43 14 99 15 44 16 45 17 46 18 93 19 47 20 98 21 92 22 94 23
REMARK SMILES IDX 48 24 97 25 91 26 90 27 49 29 79 30 60 31 78 32 61 33 64 34
REMARK SMILES IDX 77 35 95 36 62 37 63 38 76 40 96 41 65 42 50 43 51 44 59 45
REMARK SMILES IDX 52 46 58 47 53 48 54 49 55 50 56 51 57 52 80 53 81 54 89 55
REMARK SMILES IDX 82 56 88 57 83 58 84 59 85 60 86 61 87 62 66 63 67 64 75 65
REMARK SMILES IDX 68 66 74 67 69 68 70 69 71 70 72 71 73 72 11 73 12 74 13 75
REMARK SMILES IDX 14 76 15 77 16 78 17 79 18 80 19 81 23 82 20 83 22 84 21 85
REMARK SMILES IDX 24 86 25 87 26 88 27 90 28 91 40 92 29 93 39 94 30 95 31 96
REMARK SMILES IDX 32 97 33 99 34 100 35 101 38 102 36 103 37 104
REMARK H PARENT 94 28 64 39 26 89 31 98
REMARK Flexibility Score: inf
ROOT
ATOM      1  C   UNL A   1      43.498  27.280  26.665  1.00  0.00     0.188 C 
ENDROOT
BRANCH   1   2
ATOM      2  O   UNL A   1      44.039  25.970  26.480  1.00  0.00    -0.377 OA
BRANCH   2   3
ATOM      3  C   UNL A   1      44.411  25.649  25.137  1.00  0.00     0.188 C 
BRANCH   3   4
ATOM      4  C   UNL A   1      44.784  24.174  24.996  1.00  0.00     0.188 C 
BRANCH   4   5
ATOM      5  O   UNL A   1      46.154  24.028  25.371  1.00  0.00    -0.376 OA
BRANCH   5   6
ATOM      6  C   UNL A   1      46.980  25.145  25.055  1.00  0.00     0.202 C 
BRANCH   6   7
ATOM      7  C   UNL A   1      48.034  25.375  26.138  1.00  0.00     0.261 C 
BRANCH   7   8
ATOM      8  O   UNL A   1      47.995  26.732  26.608  1.00  0.00    -0.460 OA
BRANCH   8   9
ATOM      9  C   UNL A   1      48.610  27.264  27.694  1.00  0.00     0.338 C 
ATOM     10  O   UNL A   1      49.399  26.547  28.312  1.00  0.00    -0.246 OA
BRANCH   9  11
ATOM     11  C   UNL A   1      48.441  28.678  28.175  1.00  0.00     0.060 A 
ATOM     12  C   UNL A   1      48.812  29.181  29.426  1.00  0.00     0.016 A 
ATOM     13  C   UNL A   1      47.912  29.591  27.242  1.00  0.00     0.016 A 
ATOM     14  C   UNL A   1      48.628  30.521  29.762  1.00  0.00     0.010 A 
ATOM     15  C   UNL A   1      47.727  30.939  27.566  1.00  0.00     0.010 A 
ATOM     16  C   UNL A   1      48.066  31.399  28.842  1.00  0.00    -0.014 A 
BRANCH  16  17
ATOM     17  C   UNL A   1      47.690  32.751  29.290  1.00  0.00     0.031 A 
ATOM     18  C   UNL A   1      48.644  33.871  29.006  1.00  0.00     0.074 A 
ATOM     19  C   UNL A   1      46.489  32.972  29.855  1.00  0.00     0.049 A 
ATOM     20  N   UNL A   1      48.584  35.121  29.376  1.00  0.00    -0.248 NA
ATOM     21  C   UNL A   1      49.820  33.540  28.179  1.00  0.00     0.031 C 
ATOM     22  C   UNL A   1      45.449  31.961  30.052  1.00  0.00     0.029 A 
ATOM     23  N   UNL A   1      45.940  34.121  30.358  1.00  0.00    -0.354 N 
ATOM     24  C   UNL A   1      49.729  35.715  28.861  1.00  0.00     0.074 A 
ATOM     25  C   UNL A   1      50.456  34.701  28.133  1.00  0.00     0.031 C 
ATOM     26  C   UNL A   1      44.386  32.536  30.642  1.00  0.00     0.029 A 
ATOM     27  C   UNL A   1      44.697  33.936  30.917  1.00  0.00     0.049 A 
ATOM     28  H   UNL A   1      46.390  34.995  30.321  1.00  0.00     0.167 HD
ATOM     29  C   UNL A   1      50.146  36.993  29.010  1.00  0.00     0.031 A 
ATOM     30  C   UNL A   1      43.931  34.794  31.619  1.00  0.00     0.031 A 
ATOM     31  C   UNL A   1      49.414  37.974  29.759  1.00  0.00     0.049 A 
ATOM     32  C   UNL A   1      44.465  36.184  31.860  1.00  0.00     0.074 A 
ATOM     33  C   UNL A   1      49.754  39.285  30.031  1.00  0.00     0.029 A 
ATOM     34  N   UNL A   1      48.189  37.735  30.366  1.00  0.00    -0.354 N 
ATOM     35  N   UNL A   1      45.569  36.730  31.404  1.00  0.00    -0.248 NA
ATOM     36  C   UNL A   1      43.672  37.060  32.733  1.00  0.00     0.031 C 
ATOM     37  C   UNL A   1      48.753  39.826  30.845  1.00  0.00     0.029 A 
ATOM     38  C   UNL A   1      47.771  38.864  31.043  1.00  0.00     0.049 A 
ATOM     39  H   UNL A   1      47.691  36.887  30.320  1.00  0.00     0.167 HD
ATOM     40  C   UNL A   1      45.607  38.011  31.941  1.00  0.00     0.074 A 
ATOM     41  C   UNL A   1      44.401  38.169  32.730  1.00  0.00     0.031 C 
ATOM     42  C   UNL A   1      46.558  38.969  31.813  1.00  0.00     0.031 A 
BRANCH  29  43
ATOM     43  C   UNL A   1      51.486  37.348  28.436  1.00  0.00    -0.014 A 
ATOM     44  C   UNL A   1      51.617  37.883  27.142  1.00  0.00     0.010 A 
ATOM     45  C   UNL A   1      52.643  37.117  29.203  1.00  0.00     0.010 A 
ATOM     46  C   UNL A   1      52.883  38.145  26.612  1.00  0.00     0.020 A 
ATOM     47  C   UNL A   1      53.910  37.393  28.683  1.00  0.00     0.020 A 
ATOM     48  C   UNL A   1      54.023  37.890  27.384  1.00  0.00     0.054 A 
BRANCH  48  49
ATOM     49  S   UNL A   1      55.656  38.231  26.672  1.00  0.00     0.124 S 
ATOM     50  O   UNL A   1      56.043  39.449  27.379  1.00  0.00    -0.237 OA
ATOM     51  O   UNL A   1      56.417  37.034  27.022  1.00  0.00    -0.237 OA
ATOM     52  O   UNL A   1      55.385  38.398  25.246  1.00  0.00    -0.744 OA
ENDBRANCH  48  49
ENDBRANCH  29  43
BRANCH  30  53
ATOM     53  C   UNL A   1      42.650  34.340  32.231  1.00  0.00    -0.014 A 
ATOM     54  C   UNL A   1      41.426  34.483  31.555  1.00  0.00     0.010 A 
ATOM     55  C   UNL A   1      42.649  33.775  33.521  1.00  0.00     0.010 A 
ATOM     56  C   UNL A   1      40.228  34.087  32.163  1.00  0.00     0.020 A 
ATOM     57  C   UNL A   1      41.460  33.354  34.122  1.00  0.00     0.020 A 
ATOM     58  C   UNL A   1      40.252  33.529  33.445  1.00  0.00     0.054 A 
BRANCH  58  59
ATOM     59  S   UNL A   1      38.696  32.993  34.212  1.00  0.00     0.124 S 
ATOM     60  O   UNL A   1      37.773  33.029  33.082  1.00  0.00    -0.237 OA
ATOM     61  O   UNL A   1      39.028  31.663  34.716  1.00  0.00    -0.237 OA
ATOM     62  O   UNL A   1      38.463  33.999  35.245  1.00  0.00    -0.744 OA
ENDBRANCH  58  59
ENDBRANCH  30  53
BRANCH  42  63
ATOM     63  C   UNL A   1      46.331  40.262  32.540  1.00  0.00    -0.014 A 
ATOM     64  C   UNL A   1      46.837  40.445  33.839  1.00  0.00     0.010 A 
ATOM     65  C   UNL A   1      45.705  41.333  31.880  1.00  0.00     0.010 A 
ATOM     66  C   UNL A   1      46.717  41.684  34.468  1.00  0.00     0.020 A 
ATOM     67  C   UNL A   1      45.601  42.579  32.500  1.00  0.00     0.020 A 
ATOM     68  C   UNL A   1      46.105  42.745  33.792  1.00  0.00     0.054 A 
BRANCH  68  69
ATOM     69  S   UNL A   1      46.044  44.371  34.593  1.00  0.00     0.124 S 
ATOM     70  O   UNL A   1      45.042  45.066  33.790  1.00  0.00    -0.237 OA
ATOM     71  O   UNL A   1      45.641  44.045  35.959  1.00  0.00    -0.237 OA
ATOM     72  O   UNL A   1      47.410  44.872  34.457  1.00  0.00    -0.744 OA
ENDBRANCH  68  69
ENDBRANCH  42  63
ENDBRANCH  16  17
ENDBRANCH   9  11
ENDBRANCH   8   9
ENDBRANCH   7   8
ENDBRANCH   6   7
ENDBRANCH   5   6
ENDBRANCH   4   5
ENDBRANCH   3   4
ENDBRANCH   2   3
ENDBRANCH   1   2
BRANCH   1  73
ATOM     73  C   UNL A   1      44.489  28.434  26.655  1.00  0.00     0.188 C 
BRANCH  73  74
ATOM     74  O   UNL A   1      43.937  29.651  26.157  1.00  0.00    -0.376 OA
BRANCH  74  75
ATOM     75  C   UNL A   1      43.843  30.720  27.095  1.00  0.00     0.202 C 
BRANCH  75  76
ATOM     76  C   UNL A   1      44.576  31.959  26.565  1.00  0.00     0.261 C 
BRANCH  76  77
ATOM     77  O   UNL A   1      44.001  32.521  25.356  1.00  0.00    -0.463 OA
BRANCH  77  78
ATOM     78  C   UNL A   1      44.242  33.841  25.139  1.00  0.00     0.309 C 
ATOM     79  O   UNL A   1      44.527  34.321  24.047  1.00  0.00    -0.252 OA
BRANCH  78  80
ATOM     80  C   UNL A   1      44.260  34.691  26.414  1.00  0.00     0.111 C 
ATOM     81  C   UNL A   1      42.820  35.164  26.702  1.00  0.00     0.016 C 
ATOM     82  C   UNL A   1      45.253  35.862  26.536  1.00  0.00     0.093 C 
ATOM     83  C   UNL A   1      42.722  35.783  28.093  1.00  0.00     0.001 C 
ATOM     84  C   UNL A   1      45.118  36.545  27.917  1.00  0.00     0.014 C 
ATOM     85  C   UNL A   1      43.684  36.953  28.239  1.00  0.00     0.001 C 
BRANCH  82  86
ATOM     86  C   UNL A   1      46.766  35.794  26.257  1.00  0.00     0.228 C 
ATOM     87  O   UNL A   1      47.232  34.674  25.970  1.00  0.00    -0.274 OA
ATOM     88  N   UNL A   1      47.649  36.797  26.043  1.00  0.00    -0.326 N 
ATOM     89  H   UNL A   1      48.566  36.473  25.894  1.00  0.00     0.169 HD
BRANCH  88  90
ATOM     90  C   UNL A   1      47.552  38.184  25.986  1.00  0.00     0.041 A 
ATOM     91  C   UNL A   1      47.246  38.756  24.755  1.00  0.00     0.028 A 
ATOM     92  C   UNL A   1      47.767  39.029  27.053  1.00  0.00     0.028 A 
ATOM     93  C   UNL A   1      46.911  40.110  24.677  1.00  0.00     0.028 A 
ATOM     94  C   UNL A   1      47.392  40.371  26.996  1.00  0.00     0.028 A 
ATOM     95  C   UNL A   1      46.849  40.893  25.826  1.00  0.00     0.041 A 
BRANCH  95  96
ATOM     96  N   UNL A   1      46.259  42.162  25.921  1.00  0.00    -0.319 N 
ATOM     97  C   UNL A   1      44.983  42.576  26.263  1.00  0.00     0.291 C 
ATOM     98  H   UNL A   1      46.871  42.901  25.702  1.00  0.00     0.170 HD
ATOM     99  O   UNL A   1      44.770  43.784  26.288  1.00  0.00    -0.265 OA
BRANCH  97 100
ATOM    100  C   UNL A   1      43.982  41.601  26.623  1.00  0.00     0.191 A 
ATOM    101  C   UNL A   1      43.149  40.791  25.872  1.00  0.00     0.056 A 
ATOM    102  O   UNL A   1      43.726  41.412  27.953  1.00  0.00    -0.459 OA
ATOM    103  C   UNL A   1      42.307  40.116  26.793  1.00  0.00     0.043 A 
ATOM    104  C   UNL A   1      42.704  40.526  28.044  1.00  0.00     0.196 A 
ENDBRANCH  97 100
ENDBRANCH  95  96
ENDBRANCH  88  90
ENDBRANCH  82  86
ENDBRANCH  78  80
ENDBRANCH  77  78
ENDBRANCH  76  77
ENDBRANCH  75  76
ENDBRANCH  74  75
ENDBRANCH  73  74
ENDBRANCH   1  73
TORSDOF 27
ENDMDL
MODEL 2
REMARK VINA RESULT:      -5.6      7.069     12.210
REMARK SMILES O=C(OCCOCCOCCOCCOC(=O)[C@@H]1CCCC[C@H]1C(=O)Nc1ccc(NC(=O)c2ccco2)cc1)c1ccc(-c2c3nc(c(-c4ccc(S(=O)(=O)[O-])cc4)c4ccc([nH]4)c(-c4ccc(S(=O)(=O)[O-])cc4)c4nc(c(-c5ccc(S(=O)(=O)[O-])cc5)c5ccc2[nH]5)C=C4)C=C3)cc1
REMARK SMILES IDX 10 1 9 2 8 3 7 4 6 5 5 6 4 7 3 8 2 9 1 10 41 11 42 12 100 13
REMARK SMILES IDX 43 14 99 15 44 16 45 17 46 18 93 19 47 20 98 21 92 22 94 23
REMARK SMILES IDX 48 24 97 25 91 26 90 27 49 29 79 30 60 31 78 32 61 33 64 34
REMARK SMILES IDX 77 35 95 36 62 37 63 38 76 40 96 41 65 42 50 43 51 44 59 45
REMARK SMILES IDX 52 46 58 47 53 48 54 49 55 50 56 51 57 52 80 53 81 54 89 55
REMARK SMILES IDX 82 56 88 57 83 58 84 59 85 60 86 61 87 62 66 63 67 64 75 65
REMARK SMILES IDX 68 66 74 67 69 68 70 69 71 70 72 71 73 72 11 73 12 74 13 75
REMARK SMILES IDX 14 76 15 77 16 78 17 79 18 80 19 81 23 82 20 83 22 84 21 85
REMARK SMILES IDX 24 86 25 87 26 88 27 90 28 91 40 92 29 93 39 94 30 95 31 96
REMARK SMILES IDX 32 97 33 99 34 100 35 101 38 102 36 103 37 104
REMARK H PARENT 94 28 64 39 26 89 31 98
REMARK Flexibility Score: inf
ROOT
ATOM      1  C   UNL A   1      41.489  22.254  26.157  1.00  0.00     0.188 C 
ENDROOT
BRANCH   1   2
ATOM      2  O   UNL A   1      42.300  23.391  25.855  1.00  0.00    -0.377 OA
BRANCH   2   3
ATOM      3  C   UNL A   1      41.629  24.652  25.916  1.00  0.00     0.188 C 
BRANCH   3   4
ATOM      4  C   UNL A   1      42.366  25.636  26.822  1.00  0.00     0.188 C 
BRANCH   4   5
ATOM      5  O   UNL A   1      43.154  24.882  27.743  1.00  0.00    -0.376 OA
BRANCH   5   6
ATOM      6  C   UNL A   1      42.458  24.451  28.908  1.00  0.00     0.202 C 
BRANCH   6   7
ATOM      7  C   UNL A   1      43.257  23.392  29.668  1.00  0.00     0.261 C 
BRANCH   7   8
ATOM      8  O   UNL A   1      43.516  23.818  31.016  1.00  0.00    -0.460 OA
BRANCH   8   9
ATOM      9  C   UNL A   1      44.682  24.263  31.548  1.00  0.00     0.338 C 
ATOM     10  O   UNL A   1      45.009  23.826  32.652  1.00  0.00    -0.246 OA
BRANCH   9  11
ATOM     11  C   UNL A   1      45.631  25.213  30.873  1.00  0.00     0.060 A 
ATOM     12  C   UNL A   1      46.320  26.270  31.476  1.00  0.00     0.016 A 
ATOM     13  C   UNL A   1      45.889  24.967  29.510  1.00  0.00     0.016 A 
ATOM     14  C   UNL A   1      47.197  27.080  30.757  1.00  0.00     0.010 A 
ATOM     15  C   UNL A   1      46.770  25.771  28.779  1.00  0.00     0.010 A 
ATOM     16  C   UNL A   1      47.408  26.847  29.403  1.00  0.00    -0.014 A 
BRANCH  16  17
ATOM     17  C   UNL A   1      48.169  27.839  28.623  1.00  0.00     0.031 A 
ATOM     18  C   UNL A   1      49.518  27.436  28.108  1.00  0.00     0.074 A 
ATOM     19  C   UNL A   1      47.622  29.029  28.316  1.00  0.00     0.049 A 
ATOM     20  N   UNL A   1      50.411  28.152  27.482  1.00  0.00    -0.248 NA
ATOM     21  C   UNL A   1      49.907  26.029  28.317  1.00  0.00     0.031 C 
ATOM     22  C   UNL A   1      46.266  29.452  28.668  1.00  0.00     0.029 A 
ATOM     23  N   UNL A   1      48.139  30.096  27.630  1.00  0.00    -0.354 N 
ATOM     24  C   UNL A   1      51.481  27.296  27.255  1.00  0.00     0.074 A 
ATOM     25  C   UNL A   1      51.122  26.002  27.787  1.00  0.00     0.031 C 
ATOM     26  C   UNL A   1      46.060  30.696  28.199  1.00  0.00     0.029 A 
ATOM     27  C   UNL A   1      47.289  31.175  27.572  1.00  0.00     0.049 A 
ATOM     28  H   UNL A   1      49.033  30.091  27.219  1.00  0.00     0.167 HD
ATOM     29  C   UNL A   1      52.669  27.580  26.676  1.00  0.00     0.031 A 
ATOM     30  C   UNL A   1      47.508  32.422  27.111  1.00  0.00     0.031 A 
ATOM     31  C   UNL A   1      53.006  28.882  26.177  1.00  0.00     0.049 A 
ATOM     32  C   UNL A   1      48.876  32.743  26.564  1.00  0.00     0.074 A 
ATOM     33  C   UNL A   1      54.194  29.314  25.619  1.00  0.00     0.029 A 
ATOM     34  N   UNL A   1      52.143  29.969  26.191  1.00  0.00    -0.354 N 
ATOM     35  N   UNL A   1      49.900  31.939  26.388  1.00  0.00    -0.248 NA
ATOM     36  C   UNL A   1      49.131  34.139  26.184  1.00  0.00     0.031 C 
ATOM     37  C   UNL A   1      54.064  30.678  25.338  1.00  0.00     0.029 A 
ATOM     38  C   UNL A   1      52.781  31.083  25.683  1.00  0.00     0.049 A 
ATOM     39  H   UNL A   1      51.214  29.948  26.514  1.00  0.00     0.167 HD
ATOM     40  C   UNL A   1      50.923  32.733  25.885  1.00  0.00     0.074 A 
ATOM     41  C   UNL A   1      50.386  34.074  25.756  1.00  0.00     0.031 C 
ATOM     42  C   UNL A   1      52.199  32.397  25.573  1.00  0.00     0.031 A 
BRANCH  29  43
ATOM     43  C   UNL A   1      53.699  26.489  26.655  1.00  0.00    -0.014 A 
ATOM     44  C   UNL A   1      54.604  26.307  27.715  1.00  0.00     0.010 A 
ATOM     45  C   UNL A   1      53.776  25.642  25.533  1.00  0.00     0.010 A 
ATOM     46  C   UNL A   1      55.592  25.322  27.637  1.00  0.00     0.020 A 
ATOM     47  C   UNL A   1      54.752  24.645  25.460  1.00  0.00     0.020 A 
ATOM     48  C   UNL A   1      55.665  24.502  26.505  1.00  0.00     0.054 A 
BRANCH  48  49
ATOM     49  S   UNL A   1      56.961  23.235  26.423  1.00  0.00     0.124 S 
ATOM     50  O   UNL A   1      57.333  23.277  25.011  1.00  0.00    -0.237 OA
ATOM     51  O   UNL A   1      57.967  23.743  27.353  1.00  0.00    -0.237 OA
ATOM     52  O   UNL A   1      56.280  22.016  26.852  1.00  0.00    -0.744 OA
ENDBRANCH  48  49
ENDBRANCH  29  43
BRANCH  30  53
ATOM     53  C   UNL A   1      46.462  33.475  27.246  1.00  0.00    -0.014 A 
ATOM     54  C   UNL A   1      46.385  34.286  28.392  1.00  0.00     0.010 A 
ATOM     55  C   UNL A   1      45.513  33.658  26.222  1.00  0.00     0.010 A 
ATOM     56  C   UNL A   1      45.370  35.243  28.518  1.00  0.00     0.020 A 
ATOM     57  C   UNL A   1      44.515  34.630  26.331  1.00  0.00     0.020 A 
ATOM     58  C   UNL A   1      44.439  35.407  27.488  1.00  0.00     0.054 A 
BRANCH  58  59
ATOM     59  S   UNL A   1      43.146  36.671  27.650  1.00  0.00     0.124 S 
ATOM     60  O   UNL A   1      42.350  36.150  28.757  1.00  0.00    -0.237 OA
ATOM     61  O   UNL A   1      43.913  37.881  27.936  1.00  0.00    -0.237 OA
ATOM     62  O   UNL A   1      42.491  36.655  26.343  1.00  0.00    -0.744 OA
ENDBRANCH  58  59
ENDBRANCH  30  53
BRANCH  42  63
ATOM     63  C   UNL A   1      53.093  33.491  25.068  1.00  0.00    -0.014 A 
ATOM     64  C   UNL A   1      53.984  34.140  25.940  1.00  0.00     0.010 A 
ATOM     65  C   UNL A   1      53.118  33.793  23.696  1.00  0.00     0.010 A 
ATOM     66  C   UNL A   1      54.888  35.080  25.445  1.00  0.00     0.020 A 
ATOM     67  C   UNL A   1      54.034  34.719  23.195  1.00  0.00     0.020 A 
ATOM     68  C   UNL A   1      54.910  35.359  24.075  1.00  0.00     0.054 A 
BRANCH  68  69
ATOM     69  S   UNL A   1      56.156  36.515  23.439  1.00  0.00     0.124 S 
ATOM     70  O   UNL A   1      56.766  35.741  22.362  1.00  0.00    -0.237 OA
ATOM     71  O   UNL A   1      55.350  37.658  23.015  1.00  0.00    -0.237 OA
ATOM     72  O   UNL A   1      57.016  36.762  24.595  1.00  0.00    -0.744 OA
ENDBRANCH  68  69
ENDBRANCH  42  63
ENDBRANCH  16  17
ENDBRANCH   9  11
ENDBRANCH   8   9
ENDBRANCH   7   8
ENDBRANCH   6   7
ENDBRANCH   5   6
ENDBRANCH   4   5
ENDBRANCH   3   4
ENDBRANCH   2   3
ENDBRANCH   1   2
BRANCH   1  73
ATOM     73  C   UNL A   1      40.039  22.529  26.523  1.00  0.00     0.188 C 
BRANCH  73  74
ATOM     74  O   UNL A   1      39.173  21.420  26.289  1.00  0.00    -0.376 OA
BRANCH  74  75
ATOM     75  C   UNL A   1      38.174  21.610  25.292  1.00  0.00     0.202 C 
BRANCH  75  76
ATOM     76  C   UNL A   1      37.431  22.931  25.528  1.00  0.00     0.261 C 
BRANCH  76  77
ATOM     77  O   UNL A   1      36.410  23.226  24.537  1.00  0.00    -0.463 OA
BRANCH  77  78
ATOM     78  C   UNL A   1      35.385  24.015  24.956  1.00  0.00     0.309 C 
ATOM     79  O   UNL A   1      35.529  25.108  25.493  1.00  0.00    -0.252 OA
BRANCH  78  80
ATOM     80  C   UNL A   1      34.003  23.366  24.823  1.00  0.00     0.111 C 
ATOM     81  C   UNL A   1      33.947  22.145  25.764  1.00  0.00     0.016 C 
ATOM     82  C   UNL A   1      33.461  23.004  23.427  1.00  0.00     0.093 C 
ATOM     83  C   UNL A   1      32.520  21.618  25.883  1.00  0.00     0.001 C 
ATOM     84  C   UNL A   1      32.040  22.403  23.537  1.00  0.00     0.014 C 
ATOM     85  C   UNL A   1      31.963  21.239  24.519  1.00  0.00     0.001 C 
BRANCH  82  86
ATOM     86  C   UNL A   1      33.419  23.941  22.206  1.00  0.00     0.228 C 
ATOM     87  O   UNL A   1      33.300  23.400  21.089  1.00  0.00    -0.274 OA
ATOM     88  N   UNL A   1      33.256  25.284  22.156  1.00  0.00    -0.326 N 
ATOM     89  H   UNL A   1      33.274  25.636  21.237  1.00  0.00     0.169 HD
BRANCH  88  90
ATOM     90  C   UNL A   1      33.069  26.279  23.111  1.00  0.00     0.041 A 
ATOM     91  C   UNL A   1      33.817  27.445  22.979  1.00  0.00     0.028 A 
ATOM     92  C   UNL A   1      32.221  26.177  24.192  1.00  0.00     0.028 A 
ATOM     93  C   UNL A   1      33.514  28.562  23.760  1.00  0.00     0.028 A 
ATOM     94  C   UNL A   1      31.880  27.298  24.947  1.00  0.00     0.028 A 
ATOM     95  C   UNL A   1      32.448  28.534  24.654  1.00  0.00     0.041 A 
BRANCH  95  96
ATOM     96  N   UNL A   1      31.870  29.653  25.273  1.00  0.00    -0.319 N 
ATOM     97  C   UNL A   1      32.290  30.467  26.310  1.00  0.00     0.291 C 
ATOM     98  H   UNL A   1      30.997  29.908  24.896  1.00  0.00     0.170 HD
ATOM     99  O   UNL A   1      31.567  31.410  26.615  1.00  0.00    -0.265 OA
BRANCH  97 100
ATOM    100  C   UNL A   1      33.560  30.222  26.950  1.00  0.00     0.191 A 
ATOM    101  C   UNL A   1      34.209  29.061  27.330  1.00  0.00     0.056 A 
ATOM    102  O   UNL A   1      34.310  31.306  27.314  1.00  0.00    -0.459 OA
ATOM    103  C   UNL A   1      35.388  29.463  28.009  1.00  0.00     0.043 A 
ATOM    104  C   UNL A   1      35.404  30.838  27.965  1.00  0.00     0.196 A 
ENDBRANCH  97 100
ENDBRANCH  95  96
ENDBRANCH  88  90
ENDBRANCH  82  86
ENDBRANCH  78  80
ENDBRANCH  77  78
ENDBRANCH  76  77
ENDBRANCH  75  76
ENDBRANCH  74  75
ENDBRANCH  73  74
ENDBRANCH   1  73
TORSDOF 27
ENDMDL
MODEL 3
REMARK VINA RESULT:      -5.5      5.342     10.573
REMARK SMILES O=C(OCCOCCOCCOCCOC(=O)[C@@H]1CCCC[C@H]1C(=O)Nc1ccc(NC(=O)c2ccco2)cc1)c1ccc(-c2c3nc(c(-c4ccc(S(=O)(=O)[O-])cc4)c4ccc([nH]4)c(-c4ccc(S(=O)(=O)[O-])cc4)c4nc(c(-c5ccc(S(=O)(=O)[O-])cc5)c5ccc2[nH]5)C=C4)C=C3)cc1
REMARK SMILES IDX 10 1 9 2 8 3 7 4 6 5 5 6 4 7 3 8 2 9 1 10 41 11 42 12 100 13
REMARK SMILES IDX 43 14 99 15 44 16 45 17 46 18 93 19 47 20 98 21 92 22 94 23
REMARK SMILES IDX 48 24 97 25 91 26 90 27 49 29 79 30 60 31 78 32 61 33 64 34
REMARK SMILES IDX 77 35 95 36 62 37 63 38 76 40 96 41 65 42 50 43 51 44 59 45
REMARK SMILES IDX 52 46 58 47 53 48 54 49 55 50 56 51 57 52 80 53 81 54 89 55
REMARK SMILES IDX 82 56 88 57 83 58 84 59 85 60 86 61 87 62 66 63 67 64 75 65
REMARK SMILES IDX 68 66 74 67 69 68 70 69 71 70 72 71 73 72 11 73 12 74 13 75
REMARK SMILES IDX 14 76 15 77 16 78 17 79 18 80 19 81 23 82 20 83 22 84 21 85
REMARK SMILES IDX 24 86 25 87 26 88 27 90 28 91 40 92 29 93 39 94 30 95 31 96
REMARK SMILES IDX 32 97 33 99 34 100 35 101 38 102 36 103 37 104
REMARK H PARENT 94 28 64 39 26 89 31 98
REMARK Flexibility Score: inf
ROOT
ATOM      1  C   UNL A   1      49.260  27.299  26.234  1.00  0.00     0.188 C 
ENDROOT
BRANCH   1   2
ATOM      2  O   UNL A   1      48.962  26.679  27.486  1.00  0.00    -0.377 OA
BRANCH   2   3
ATOM      3  C   UNL A   1      49.040  25.251  27.493  1.00  0.00     0.188 C 
BRANCH   3   4
ATOM      4  C   UNL A   1      47.698  24.614  27.142  1.00  0.00     0.188 C 
BRANCH   4   5
ATOM      5  O   UNL A   1      46.700  25.635  27.186  1.00  0.00    -0.376 OA
BRANCH   5   6
ATOM      6  C   UNL A   1      45.398  25.211  26.794  1.00  0.00     0.202 C 
BRANCH   6   7
ATOM      7  C   UNL A   1      45.038  25.748  25.409  1.00  0.00     0.261 C 
BRANCH   7   8
ATOM      8  O   UNL A   1      43.631  26.024  25.318  1.00  0.00    -0.460 OA
BRANCH   8   9
ATOM      9  C   UNL A   1      42.978  27.173  25.624  1.00  0.00     0.338 C 
ATOM     10  O   UNL A   1      42.568  27.863  24.690  1.00  0.00    -0.246 OA
BRANCH   9  11
ATOM     11  C   UNL A   1      42.672  27.647  27.018  1.00  0.00     0.060 A 
ATOM     12  C   UNL A   1      42.018  26.920  28.019  1.00  0.00     0.016 A 
ATOM     13  C   UNL A   1      43.149  28.928  27.356  1.00  0.00     0.016 A 
ATOM     14  C   UNL A   1      41.804  27.450  29.290  1.00  0.00     0.010 A 
ATOM     15  C   UNL A   1      42.944  29.468  28.630  1.00  0.00     0.010 A 
ATOM     16  C   UNL A   1      42.247  28.733  29.593  1.00  0.00    -0.014 A 
BRANCH  16  17
ATOM     17  C   UNL A   1      41.826  29.346  30.864  1.00  0.00     0.031 A 
ATOM     18  C   UNL A   1      40.543  30.123  30.873  1.00  0.00     0.074 A 
ATOM     19  C   UNL A   1      42.531  29.134  31.990  1.00  0.00     0.049 A 
ATOM     20  N   UNL A   1      40.010  30.826  31.833  1.00  0.00    -0.248 NA
ATOM     21  C   UNL A   1      39.747  30.089  29.632  1.00  0.00     0.031 C 
ATOM     22  C   UNL A   1      43.720  28.287  32.096  1.00  0.00     0.029 A 
ATOM     23  N   UNL A   1      42.343  29.609  33.261  1.00  0.00    -0.354 N 
ATOM     24  C   UNL A   1      38.837  31.349  31.303  1.00  0.00     0.074 A 
ATOM     25  C   UNL A   1      38.721  30.867  29.946  1.00  0.00     0.031 C 
ATOM     26  C   UNL A   1      44.160  28.308  33.367  1.00  0.00     0.029 A 
ATOM     27  C   UNL A   1      43.321  29.216  34.144  1.00  0.00     0.049 A 
ATOM     28  H   UNL A   1      41.581  30.177  33.517  1.00  0.00     0.167 HD
ATOM     29  C   UNL A   1      37.952  32.182  31.895  1.00  0.00     0.031 A 
ATOM     30  C   UNL A   1      43.537  29.597  35.418  1.00  0.00     0.031 A 
ATOM     31  C   UNL A   1      38.106  32.663  33.238  1.00  0.00     0.049 A 
ATOM     32  C   UNL A   1      42.594  30.608  36.022  1.00  0.00     0.074 A 
ATOM     33  C   UNL A   1      37.312  33.553  33.935  1.00  0.00     0.029 A 
ATOM     34  N   UNL A   1      39.144  32.294  34.084  1.00  0.00    -0.354 N 
ATOM     35  N   UNL A   1      41.507  31.131  35.503  1.00  0.00    -0.248 NA
ATOM     36  C   UNL A   1      42.920  31.103  37.367  1.00  0.00     0.031 C 
ATOM     37  C   UNL A   1      37.897  33.758  35.189  1.00  0.00     0.029 A 
ATOM     38  C   UNL A   1      39.032  32.964  35.286  1.00  0.00     0.049 A 
ATOM     39  H   UNL A   1      39.853  31.650  33.859  1.00  0.00     0.167 HD
ATOM     40  C   UNL A   1      41.024  32.023  36.452  1.00  0.00     0.074 A 
ATOM     41  C   UNL A   1      41.920  31.946  37.590  1.00  0.00     0.031 C 
ATOM     42  C   UNL A   1      39.951  32.848  36.390  1.00  0.00     0.031 A 
BRANCH  29  43
ATOM     43  C   UNL A   1      36.817  32.686  31.053  1.00  0.00    -0.014 A 
ATOM     44  C   UNL A   1      35.556  32.064  31.066  1.00  0.00     0.010 A 
ATOM     45  C   UNL A   1      37.027  33.794  30.212  1.00  0.00     0.010 A 
ATOM     46  C   UNL A   1      34.537  32.519  30.225  1.00  0.00     0.020 A 
ATOM     47  C   UNL A   1      36.006  34.262  29.382  1.00  0.00     0.020 A 
ATOM     48  C   UNL A   1      34.773  33.610  29.380  1.00  0.00     0.054 A 
BRANCH  48  49
ATOM     49  S   UNL A   1      33.437  34.178  28.291  1.00  0.00     0.124 S 
ATOM     50  O   UNL A   1      34.158  35.040  27.357  1.00  0.00    -0.237 OA
ATOM     51  O   UNL A   1      32.929  32.930  27.727  1.00  0.00    -0.237 OA
ATOM     52  O   UNL A   1      32.522  34.868  29.196  1.00  0.00    -0.744 OA
ENDBRANCH  48  49
ENDBRANCH  29  43
BRANCH  30  53
ATOM     53  C   UNL A   1      44.737  29.118  36.160  1.00  0.00    -0.014 A 
ATOM     54  C   UNL A   1      44.692  27.956  36.950  1.00  0.00     0.010 A 
ATOM     55  C   UNL A   1      45.940  29.846  36.095  1.00  0.00     0.010 A 
ATOM     56  C   UNL A   1      45.819  27.544  37.673  1.00  0.00     0.020 A 
ATOM     57  C   UNL A   1      47.075  29.424  36.792  1.00  0.00     0.020 A 
ATOM     58  C   UNL A   1      47.003  28.283  37.591  1.00  0.00     0.054 A 
BRANCH  58  59
ATOM     59  S   UNL A   1      48.466  27.723  38.509  1.00  0.00     0.124 S 
ATOM     60  O   UNL A   1      49.075  28.988  38.908  1.00  0.00    -0.237 OA
ATOM     61  O   UNL A   1      47.884  26.933  39.591  1.00  0.00    -0.237 OA
ATOM     62  O   UNL A   1      49.213  26.951  37.519  1.00  0.00    -0.744 OA
ENDBRANCH  58  59
ENDBRANCH  30  53
BRANCH  42  63
ATOM     63  C   UNL A   1      39.691  33.728  37.578  1.00  0.00    -0.014 A 
ATOM     64  C   UNL A   1      38.909  33.263  38.649  1.00  0.00     0.010 A 
ATOM     65  C   UNL A   1      40.322  34.980  37.669  1.00  0.00     0.010 A 
ATOM     66  C   UNL A   1      38.760  34.042  39.797  1.00  0.00     0.020 A 
ATOM     67  C   UNL A   1      40.190  35.753  38.823  1.00  0.00     0.020 A 
ATOM     68  C   UNL A   1      39.406  35.280  39.878  1.00  0.00     0.054 A 
BRANCH  68  69
ATOM     69  S   UNL A   1      39.275  36.234  41.415  1.00  0.00     0.124 S 
ATOM     70  O   UNL A   1      40.585  36.014  42.020  1.00  0.00    -0.237 OA
ATOM     71  O   UNL A   1      39.024  37.591  40.933  1.00  0.00    -0.237 OA
ATOM     72  O   UNL A   1      38.153  35.610  42.112  1.00  0.00    -0.744 OA
ENDBRANCH  68  69
ENDBRANCH  42  63
ENDBRANCH  16  17
ENDBRANCH   9  11
ENDBRANCH   8   9
ENDBRANCH   7   8
ENDBRANCH   6   7
ENDBRANCH   5   6
ENDBRANCH   4   5
ENDBRANCH   3   4
ENDBRANCH   2   3
ENDBRANCH   1   2
BRANCH   1  73
ATOM     73  C   UNL A   1      50.382  28.325  26.231  1.00  0.00     0.188 C 
BRANCH  73  74
ATOM     74  O   UNL A   1      49.945  29.645  26.549  1.00  0.00    -0.376 OA
BRANCH  74  75
ATOM     75  C   UNL A   1      48.572  29.777  26.906  1.00  0.00     0.202 C 
BRANCH  75  76
ATOM     76  C   UNL A   1      48.216  31.254  27.117  1.00  0.00     0.261 C 
BRANCH  76  77
ATOM     77  O   UNL A   1      47.112  31.476  28.034  1.00  0.00    -0.463 OA
BRANCH  77  78
ATOM     78  C   UNL A   1      47.083  32.688  28.650  1.00  0.00     0.309 C 
ATOM     79  O   UNL A   1      46.412  33.641  28.268  1.00  0.00    -0.252 OA
BRANCH  78  80
ATOM     80  C   UNL A   1      48.075  32.824  29.810  1.00  0.00     0.111 C 
ATOM     81  C   UNL A   1      49.227  33.745  29.359  1.00  0.00     0.016 C 
ATOM     82  C   UNL A   1      48.625  31.558  30.495  1.00  0.00     0.093 C 
ATOM     83  C   UNL A   1      50.102  34.137  30.546  1.00  0.00     0.001 C 
ATOM     84  C   UNL A   1      49.570  31.939  31.658  1.00  0.00     0.014 C 
ATOM     85  C   UNL A   1      50.671  32.906  31.235  1.00  0.00     0.001 C 
BRANCH  82  86
ATOM     86  C   UNL A   1      47.784  30.378  31.017  1.00  0.00     0.228 C 
ATOM     87  O   UNL A   1      48.366  29.280  31.122  1.00  0.00    -0.274 OA
ATOM     88  N   UNL A   1      46.566  30.383  31.607  1.00  0.00    -0.326 N 
ATOM     89  H   UNL A   1      46.252  29.480  31.840  1.00  0.00     0.169 HD
BRANCH  88  90
ATOM     90  C   UNL A   1      45.658  31.377  31.958  1.00  0.00     0.041 A 
ATOM     91  C   UNL A   1      44.766  31.807  30.980  1.00  0.00     0.028 A 
ATOM     92  C   UNL A   1      45.601  31.986  33.192  1.00  0.00     0.028 A 
ATOM     93  C   UNL A   1      43.690  32.627  31.326  1.00  0.00     0.028 A 
ATOM     94  C   UNL A   1      44.508  32.769  33.560  1.00  0.00     0.028 A 
ATOM     95  C   UNL A   1      43.480  32.999  32.652  1.00  0.00     0.041 A 
BRANCH  95  96
ATOM     96  N   UNL A   1      42.304  33.566  33.165  1.00  0.00    -0.319 N 
ATOM     97  C   UNL A   1      41.926  34.875  33.406  1.00  0.00     0.291 C 
ATOM     98  H   UNL A   1      41.613  32.905  33.397  1.00  0.00     0.170 HD
ATOM     99  O   UNL A   1      40.794  35.065  33.839  1.00  0.00    -0.265 OA
BRANCH  97 100
ATOM    100  C   UNL A   1      42.833  35.955  33.099  1.00  0.00     0.191 A 
ATOM    101  C   UNL A   1      43.552  36.281  31.963  1.00  0.00     0.056 A 
ATOM    102  O   UNL A   1      43.114  36.854  34.091  1.00  0.00    -0.459 OA
ATOM    103  C   UNL A   1      44.351  37.403  32.300  1.00  0.00     0.043 A 
ATOM    104  C   UNL A   1      44.041  37.715  33.604  1.00  0.00     0.196 A 
ENDBRANCH  97 100
ENDBRANCH  95  96
ENDBRANCH  88  90
ENDBRANCH  82  86
ENDBRANCH  78  80
ENDBRANCH  77  78
ENDBRANCH  76  77
ENDBRANCH  75  76
ENDBRANCH  74  75
ENDBRANCH  73  74
ENDBRANCH   1  73
TORSDOF 27
ENDMDL
