MODEL 1
REMARK VINA RESULT:      -8.8      0.000      0.000
REMARK SMILES C[C@@H](Sc1nc(-c2ccc3c(c2)OCO3)ccc1C#N)C(=O)OCCOCCOCCOCCOC(=O)c1ccc(-c2c3nc(c(-c4ccc(S(=O)(=O)[O-])cc4)c4ccc([nH]4)c(-c4ccc(S(=O)(=O)[O-])cc4)c4nc(c(-c5ccc(S(=O)(=O)[O-])cc5)c5ccc2[nH]5)C=C4)C=C3)cc1
REMARK SMILES IDX 29 1 28 2 27 3 26 4 25 5 24 6 23 7 21 8 22 9 2 10 1 11 3 12
REMARK SMILES IDX 4 13 5 14 18 15 6 16 17 17 16 18 19 19 20 20 7 21 8 22 12 23
REMARK SMILES IDX 9 24 11 25 10 26 13 27 15 28 14 29 30 30 31 31 32 32 33 33
REMARK SMILES IDX 34 34 35 35 36 36 37 37 38 38 39 39 97 40 40 41 96 42 41 43
REMARK SMILES IDX 42 44 43 45 90 46 44 47 95 48 89 49 91 50 45 51 94 52 88 53
REMARK SMILES IDX 87 54 46 56 76 57 57 58 75 59 58 60 61 61 74 62 92 63 59 64
REMARK SMILES IDX 60 65 73 67 93 68 62 69 47 70 48 71 56 72 49 73 55 74 50 75
REMARK SMILES IDX 51 76 52 77 53 78 54 79 77 80 78 81 86 82 79 83 85 84 80 85
REMARK SMILES IDX 81 86 82 87 83 88 84 89 63 90 64 91 72 92 65 93 71 94 66 95
REMARK SMILES IDX 67 96 68 97 69 98 70 99
REMARK H PARENT 91 55 61 66
REMARK Flexibility Score: inf
ROOT
ATOM      1  O   UNL A   1      35.179  32.281  28.450  1.00  0.00    -0.377 OA
ENDROOT
BRANCH   1   2
ATOM      2  C   UNL A   1      34.999  31.237  27.517  1.00  0.00     0.188 C 
BRANCH   2   3
ATOM      3  C   UNL A   1      33.546  30.808  27.317  1.00  0.00     0.188 C 
BRANCH   3   4
ATOM      4  O   UNL A   1      33.221  29.439  27.198  1.00  0.00    -0.376 OA
BRANCH   4   5
ATOM      5  C   UNL A   1      33.367  28.742  25.967  1.00  0.00     0.202 C 
BRANCH   5   6
ATOM      6  C   UNL A   1      33.776  27.261  25.834  1.00  0.00     0.261 C 
BRANCH   6   7
ATOM      7  O   UNL A   1      32.978  26.284  26.521  1.00  0.00    -0.462 OA
BRANCH   7   8
ATOM      8  C   UNL A   1      33.190  24.983  26.191  1.00  0.00     0.319 C 
ATOM      9  O   UNL A   1      34.305  24.491  26.037  1.00  0.00    -0.251 OA
BRANCH   8  10
ATOM     10  C   UNL A   1      31.912  24.148  26.090  1.00  0.00     0.160 C 
ATOM     11  C   UNL A   1      31.559  23.280  27.278  1.00  0.00     0.032 C 
BRANCH  10  12
ATOM     12  S   UNL A   1      30.463  25.221  25.786  1.00  0.00    -0.090 SA
BRANCH  12  13
ATOM     13  C   UNL A   1      30.892  25.904  24.196  1.00  0.00     0.115 A 
ATOM     14  N   UNL A   1      30.638  27.233  24.143  1.00  0.00    -0.240 NA
ATOM     15  C   UNL A   1      31.355  25.206  23.075  1.00  0.00     0.084 A 
ATOM     16  C   UNL A   1      30.811  27.879  22.971  1.00  0.00     0.072 A 
ATOM     17  C   UNL A   1      31.682  25.932  21.923  1.00  0.00     0.024 A 
ATOM     18  C   UNL A   1      31.397  27.285  21.863  1.00  0.00     0.030 A 
BRANCH  15  19
ATOM     19  C   UNL A   1      31.469  23.788  22.970  1.00  0.00     0.102 C 
ATOM     20  N   UNL A   1      31.514  22.625  22.993  1.00  0.00    -0.192 NA
ENDBRANCH  15  19
BRANCH  16  21
ATOM     21  C   UNL A   1      30.127  29.162  22.859  1.00  0.00     0.004 A 
ATOM     22  C   UNL A   1      30.069  30.000  24.005  1.00  0.00     0.014 A 
ATOM     23  C   UNL A   1      29.565  29.602  21.654  1.00  0.00     0.061 A 
ATOM     24  C   UNL A   1      29.434  31.239  23.970  1.00  0.00     0.051 A 
ATOM     25  C   UNL A   1      28.929  30.824  21.653  1.00  0.00     0.166 A 
ATOM     26  C   UNL A   1      28.861  31.615  22.779  1.00  0.00     0.165 A 
ATOM     27  O   UNL A   1      28.298  31.390  20.589  1.00  0.00    -0.454 OA
ATOM     28  O   UNL A   1      28.180  32.772  22.565  1.00  0.00    -0.454 OA
ATOM     29  C   UNL A   1      27.792  32.601  21.187  1.00  0.00     0.468 C 
ENDBRANCH  16  21
ENDBRANCH  12  13
ENDBRANCH  10  12
ENDBRANCH   8  10
ENDBRANCH   7   8
ENDBRANCH   6   7
ENDBRANCH   5   6
ENDBRANCH   4   5
ENDBRANCH   3   4
ENDBRANCH   2   3
ENDBRANCH   1   2
BRANCH   1  30
ATOM     30  C   UNL A   1      34.880  33.620  28.075  1.00  0.00     0.188 C 
BRANCH  30  31
ATOM     31  C   UNL A   1      33.432  34.141  28.180  1.00  0.00     0.188 C 
BRANCH  31  32
ATOM     32  O   UNL A   1      33.155  34.958  29.301  1.00  0.00    -0.376 OA
BRANCH  32  33
ATOM     33  C   UNL A   1      34.066  35.027  30.386  1.00  0.00     0.202 C 
BRANCH  33  34
ATOM     34  C   UNL A   1      33.725  34.423  31.761  1.00  0.00     0.261 C 
BRANCH  34  35
ATOM     35  O   UNL A   1      34.249  33.124  32.063  1.00  0.00    -0.460 OA
BRANCH  35  36
ATOM     36  C   UNL A   1      35.094  33.007  33.108  1.00  0.00     0.338 C 
ATOM     37  O   UNL A   1      34.850  33.254  34.273  1.00  0.00    -0.246 OA
BRANCH  36  38
ATOM     38  C   UNL A   1      36.315  32.327  32.620  1.00  0.00     0.060 A 
ATOM     39  C   UNL A   1      37.161  31.696  33.543  1.00  0.00     0.016 A 
ATOM     40  C   UNL A   1      36.628  32.320  31.259  1.00  0.00     0.016 A 
ATOM     41  C   UNL A   1      38.341  31.091  33.114  1.00  0.00     0.010 A 
ATOM     42  C   UNL A   1      37.825  31.738  30.835  1.00  0.00     0.010 A 
ATOM     43  C   UNL A   1      38.705  31.155  31.766  1.00  0.00    -0.014 A 
BRANCH  43  44
ATOM     44  C   UNL A   1      40.084  30.797  31.356  1.00  0.00     0.031 A 
ATOM     45  C   UNL A   1      41.181  31.798  31.597  1.00  0.00     0.074 A 
ATOM     46  C   UNL A   1      40.363  29.608  30.793  1.00  0.00     0.049 A 
ATOM     47  N   UNL A   1      42.441  31.748  31.250  1.00  0.00    -0.248 NA
ATOM     48  C   UNL A   1      40.802  33.024  32.320  1.00  0.00     0.031 C 
ATOM     49  C   UNL A   1      39.398  28.535  30.560  1.00  0.00     0.029 A 
ATOM     50  N   UNL A   1      41.544  29.114  30.297  1.00  0.00    -0.354 N 
ATOM     51  C   UNL A   1      42.998  32.944  31.688  1.00  0.00     0.074 A 
ATOM     52  C   UNL A   1      41.935  33.708  32.304  1.00  0.00     0.031 C 
ATOM     53  C   UNL A   1      40.023  27.515  29.947  1.00  0.00     0.029 A 
ATOM     54  C   UNL A   1      41.417  27.881  29.703  1.00  0.00     0.049 A 
ATOM     55  H   UNL A   1      42.400  29.596  30.363  1.00  0.00     0.167 HD
ATOM     56  C   UNL A   1      44.280  33.368  31.584  1.00  0.00     0.031 A 
ATOM     57  C   UNL A   1      42.312  27.150  29.008  1.00  0.00     0.031 A 
ATOM     58  C   UNL A   1      45.326  32.608  30.953  1.00  0.00     0.049 A 
ATOM     59  C   UNL A   1      43.715  27.676  28.831  1.00  0.00     0.074 A 
ATOM     60  C   UNL A   1      46.663  32.936  30.814  1.00  0.00     0.029 A 
ATOM     61  N   UNL A   1      45.151  31.376  30.339  1.00  0.00    -0.354 N 
ATOM     62  N   UNL A   1      44.239  28.795  29.276  1.00  0.00    -0.248 NA
ATOM     63  C   UNL A   1      44.649  26.839  28.065  1.00  0.00     0.031 C 
ATOM     64  C   UNL A   1      47.278  31.944  30.048  1.00  0.00     0.029 A 
ATOM     65  C   UNL A   1      46.347  30.949  29.786  1.00  0.00     0.049 A 
ATOM     66  H   UNL A   1      44.303  30.878  30.303  1.00  0.00     0.167 HD
ATOM     67  C   UNL A   1      45.572  28.778  28.872  1.00  0.00     0.074 A 
ATOM     68  C   UNL A   1      45.774  27.535  28.158  1.00  0.00     0.031 C 
ATOM     69  C   UNL A   1      46.538  29.707  29.077  1.00  0.00     0.031 A 
BRANCH  56  70
ATOM     70  C   UNL A   1      44.607  34.742  32.114  1.00  0.00    -0.014 A 
ATOM     71  C   UNL A   1      44.458  35.894  31.321  1.00  0.00     0.010 A 
ATOM     72  C   UNL A   1      45.046  34.882  33.443  1.00  0.00     0.010 A 
ATOM     73  C   UNL A   1      44.787  37.153  31.832  1.00  0.00     0.020 A 
ATOM     74  C   UNL A   1      45.341  36.142  33.971  1.00  0.00     0.020 A 
ATOM     75  C   UNL A   1      45.227  37.268  33.155  1.00  0.00     0.054 A 
BRANCH  75  76
ATOM     76  S   UNL A   1      45.631  38.916  33.795  1.00  0.00     0.124 S 
ATOM     77  O   UNL A   1      47.024  38.748  34.202  1.00  0.00    -0.237 OA
ATOM     78  O   UNL A   1      45.416  39.771  32.631  1.00  0.00    -0.237 OA
ATOM     79  O   UNL A   1      44.683  39.106  34.890  1.00  0.00    -0.744 OA
ENDBRANCH  75  76
ENDBRANCH  56  70
BRANCH  57  80
ATOM     80  C   UNL A   1      41.897  25.857  28.394  1.00  0.00    -0.014 A 
ATOM     81  C   UNL A   1      42.218  24.631  29.000  1.00  0.00     0.010 A 
ATOM     82  C   UNL A   1      41.161  25.852  27.193  1.00  0.00     0.010 A 
ATOM     83  C   UNL A   1      41.823  23.425  28.414  1.00  0.00     0.020 A 
ATOM     84  C   UNL A   1      40.734  24.649  26.622  1.00  0.00     0.020 A 
ATOM     85  C   UNL A   1      41.075  23.442  27.232  1.00  0.00     0.054 A 
BRANCH  85  86
ATOM     86  S   UNL A   1      40.520  21.866  26.528  1.00  0.00     0.124 S 
ATOM     87  O   UNL A   1      41.476  21.662  25.444  1.00  0.00    -0.237 OA
ATOM     88  O   UNL A   1      40.645  20.956  27.663  1.00  0.00    -0.237 OA
ATOM     89  O   UNL A   1      39.148  22.142  26.107  1.00  0.00    -0.744 OA
ENDBRANCH  85  86
ENDBRANCH  57  80
BRANCH  69  90
ATOM     90  C   UNL A   1      47.927  29.404  28.570  1.00  0.00    -0.014 A 
ATOM     91  C   UNL A   1      48.464  30.066  27.452  1.00  0.00     0.010 A 
ATOM     92  C   UNL A   1      48.735  28.495  29.278  1.00  0.00     0.010 A 
ATOM     93  C   UNL A   1      49.775  29.805  27.039  1.00  0.00     0.020 A 
ATOM     94  C   UNL A   1      50.056  28.259  28.891  1.00  0.00     0.020 A 
ATOM     95  C   UNL A   1      50.564  28.909  27.766  1.00  0.00     0.054 A 
BRANCH  95  96
ATOM     96  S   UNL A   1      52.281  28.638  27.245  1.00  0.00     0.124 S 
ATOM     97  O   UNL A   1      52.800  30.001  27.181  1.00  0.00    -0.237 OA
ATOM     98  O   UNL A   1      52.814  27.811  28.324  1.00  0.00    -0.237 OA
ATOM     99  O   UNL A   1      52.151  27.961  25.956  1.00  0.00    -0.744 OA
ENDBRANCH  95  96
ENDBRANCH  69  90
ENDBRANCH  43  44
ENDBRANCH  36  38
ENDBRANCH  35  36
ENDBRANCH  34  35
ENDBRANCH  33  34
ENDBRANCH  32  33
ENDBRANCH  31  32
ENDBRANCH  30  31
ENDBRANCH   1  30
TORSDOF 27
ENDMDL
MODEL 2
REMARK VINA RESULT:      -8.7      3.109      5.730
REMARK SMILES C[C@@H](Sc1nc(-c2ccc3c(c2)OCO3)ccc1C#N)C(=O)OCCOCCOCCOCCOC(=O)c1ccc(-c2c3nc(c(-c4ccc(S(=O)(=O)[O-])cc4)c4ccc([nH]4)c(-c4ccc(S(=O)(=O)[O-])cc4)c4nc(c(-c5ccc(S(=O)(=O)[O-])cc5)c5ccc2[nH]5)C=C4)C=C3)cc1
REMARK SMILES IDX 29 1 28 2 27 3 26 4 25 5 24 6 23 7 21 8 22 9 2 10 1 11 3 12
REMARK SMILES IDX 4 13 5 14 18 15 6 16 17 17 16 18 19 19 20 20 7 21 8 22 12 23
REMARK SMILES IDX 9 24 11 25 10 26 13 27 15 28 14 29 30 30 31 31 32 32 33 33
REMARK SMILES IDX 34 34 35 35 36 36 37 37 38 38 39 39 97 40 40 41 96 42 41 43
REMARK SMILES IDX 42 44 43 45 90 46 44 47 95 48 89 49 91 50 45 51 94 52 88 53
REMARK SMILES IDX 87 54 46 56 76 57 57 58 75 59 58 60 61 61 74 62 92 63 59 64
REMARK SMILES IDX 60 65 73 67 93 68 62 69 47 70 48 71 56 72 49 73 55 74 50 75
REMARK SMILES IDX 51 76 52 77 53 78 54 79 77 80 78 81 86 82 79 83 85 84 80 85
REMARK SMILES IDX 81 86 82 87 83 88 84 89 63 90 64 91 72 92 65 93 71 94 66 95
REMARK SMILES IDX 67 96 68 97 69 98 70 99
REMARK H PARENT 91 55 61 66
REMARK Flexibility Score: inf
ROOT
ATOM      1  O   UNL A   1      35.222  32.378  28.418  1.00  0.00    -0.377 OA
ENDROOT
BRANCH   1   2
ATOM      2  C   UNL A   1      34.395  31.234  28.387  1.00  0.00     0.188 C 
BRANCH   2   3
ATOM      3  C   UNL A   1      33.986  30.784  26.986  1.00  0.00     0.188 C 
BRANCH   3   4
ATOM      4  O   UNL A   1      33.041  29.747  26.821  1.00  0.00    -0.376 OA
BRANCH   4   5
ATOM      5  C   UNL A   1      33.443  28.399  26.609  1.00  0.00     0.202 C 
BRANCH   5   6
ATOM      6  C   UNL A   1      32.513  27.174  26.715  1.00  0.00     0.261 C 
BRANCH   6   7
ATOM      7  O   UNL A   1      31.838  26.743  25.522  1.00  0.00    -0.462 OA
BRANCH   7   8
ATOM      8  C   UNL A   1      31.823  25.406  25.279  1.00  0.00     0.319 C 
ATOM      9  O   UNL A   1      31.689  24.555  26.155  1.00  0.00    -0.251 OA
BRANCH   8  10
ATOM     10  C   UNL A   1      31.923  25.039  23.797  1.00  0.00     0.160 C 
ATOM     11  C   UNL A   1      31.205  25.938  22.814  1.00  0.00     0.032 C 
BRANCH  10  12
ATOM     12  S   UNL A   1      33.670  24.981  23.262  1.00  0.00    -0.090 SA
BRANCH  12  13
ATOM     13  C   UNL A   1      34.201  23.472  24.049  1.00  0.00     0.115 A 
ATOM     14  N   UNL A   1      35.297  23.674  24.818  1.00  0.00    -0.240 NA
ATOM     15  C   UNL A   1      33.659  22.194  23.876  1.00  0.00     0.084 A 
ATOM     16  C   UNL A   1      35.886  22.608  25.400  1.00  0.00     0.072 A 
ATOM     17  C   UNL A   1      34.190  21.134  24.622  1.00  0.00     0.024 A 
ATOM     18  C   UNL A   1      35.325  21.339  25.386  1.00  0.00     0.030 A 
BRANCH  15  19
ATOM     19  C   UNL A   1      32.635  21.847  22.945  1.00  0.00     0.102 C 
ATOM     20  N   UNL A   1      31.725  21.630  22.251  1.00  0.00    -0.192 NA
ENDBRANCH  15  19
BRANCH  16  21
ATOM     21  C   UNL A   1      37.262  22.815  25.833  1.00  0.00     0.004 A 
ATOM     22  C   UNL A   1      38.167  21.722  25.756  1.00  0.00     0.014 A 
ATOM     23  C   UNL A   1      37.721  24.060  26.282  1.00  0.00     0.061 A 
ATOM     24  C   UNL A   1      39.497  21.848  26.151  1.00  0.00     0.051 A 
ATOM     25  C   UNL A   1      39.037  24.152  26.681  1.00  0.00     0.166 A 
ATOM     26  C   UNL A   1      39.895  23.076  26.622  1.00  0.00     0.165 A 
ATOM     27  O   UNL A   1      39.640  25.265  27.176  1.00  0.00    -0.454 OA
ATOM     28  O   UNL A   1      41.142  23.378  27.074  1.00  0.00    -0.454 OA
ATOM     29  C   UNL A   1      40.958  24.755  27.461  1.00  0.00     0.468 C 
ENDBRANCH  16  21
ENDBRANCH  12  13
ENDBRANCH  10  12
ENDBRANCH   8  10
ENDBRANCH   7   8
ENDBRANCH   6   7
ENDBRANCH   5   6
ENDBRANCH   4   5
ENDBRANCH   3   4
ENDBRANCH   2   3
ENDBRANCH   1   2
BRANCH   1  30
ATOM     30  C   UNL A   1      34.694  33.638  28.025  1.00  0.00     0.188 C 
BRANCH  30  31
ATOM     31  C   UNL A   1      33.316  34.090  28.550  1.00  0.00     0.188 C 
BRANCH  31  32
ATOM     32  O   UNL A   1      33.282  34.511  29.900  1.00  0.00    -0.376 OA
BRANCH  32  33
ATOM     33  C   UNL A   1      34.415  34.341  30.737  1.00  0.00     0.202 C 
BRANCH  33  34
ATOM     34  C   UNL A   1      34.450  33.256  31.830  1.00  0.00     0.261 C 
BRANCH  34  35
ATOM     35  O   UNL A   1      35.431  32.218  31.702  1.00  0.00    -0.460 OA
BRANCH  35  36
ATOM     36  C   UNL A   1      36.365  32.106  32.668  1.00  0.00     0.338 C 
ATOM     37  O   UNL A   1      36.168  31.958  33.859  1.00  0.00    -0.246 OA
BRANCH  36  38
ATOM     38  C   UNL A   1      37.682  31.985  32.003  1.00  0.00     0.060 A 
ATOM     39  C   UNL A   1      38.806  31.649  32.769  1.00  0.00     0.016 A 
ATOM     40  C   UNL A   1      37.807  32.212  30.631  1.00  0.00     0.016 A 
ATOM     41  C   UNL A   1      40.065  31.576  32.176  1.00  0.00     0.010 A 
ATOM     42  C   UNL A   1      39.074  32.167  30.043  1.00  0.00     0.010 A 
ATOM     43  C   UNL A   1      40.213  31.887  30.821  1.00  0.00    -0.014 A 
BRANCH  43  44
ATOM     44  C   UNL A   1      41.566  32.116  30.260  1.00  0.00     0.031 A 
ATOM     45  C   UNL A   1      42.144  33.503  30.338  1.00  0.00     0.074 A 
ATOM     46  C   UNL A   1      42.274  31.118  29.703  1.00  0.00     0.049 A 
ATOM     47  N   UNL A   1      43.263  33.965  29.845  1.00  0.00    -0.248 NA
ATOM     48  C   UNL A   1      41.346  34.505  31.065  1.00  0.00     0.031 C 
ATOM     49  C   UNL A   1      41.847  29.722  29.619  1.00  0.00     0.029 A 
ATOM     50  N   UNL A   1      43.500  31.134  29.084  1.00  0.00    -0.354 N 
ATOM     51  C   UNL A   1      43.291  35.315  30.178  1.00  0.00     0.074 A 
ATOM     52  C   UNL A   1      42.067  35.602  30.893  1.00  0.00     0.031 C 
ATOM     53  C   UNL A   1      42.789  29.019  28.966  1.00  0.00     0.029 A 
ATOM     54  C   UNL A   1      43.859  29.922  28.546  1.00  0.00     0.049 A 
ATOM     55  H   UNL A   1      44.067  31.937  29.033  1.00  0.00     0.167 HD
ATOM     56  C   UNL A   1      44.250  36.233  29.909  1.00  0.00     0.031 A 
ATOM     57  C   UNL A   1      44.911  29.587  27.771  1.00  0.00     0.031 A 
ATOM     58  C   UNL A   1      45.455  35.941  29.180  1.00  0.00     0.049 A 
ATOM     59  C   UNL A   1      45.928  30.643  27.413  1.00  0.00     0.074 A 
ATOM     60  C   UNL A   1      46.501  36.793  28.873  1.00  0.00     0.029 A 
ATOM     61  N   UNL A   1      45.770  34.707  28.628  1.00  0.00    -0.354 N 
ATOM     62  N   UNL A   1      45.959  31.909  27.759  1.00  0.00    -0.248 NA
ATOM     63  C   UNL A   1      47.053  30.224  26.566  1.00  0.00     0.031 C 
ATOM     64  C   UNL A   1      47.407  36.099  28.068  1.00  0.00     0.029 A 
ATOM     65  C   UNL A   1      46.974  34.787  27.949  1.00  0.00     0.049 A 
ATOM     66  H   UNL A   1      45.219  33.896  28.708  1.00  0.00     0.167 HD
ATOM     67  C   UNL A   1      47.124  32.428  27.199  1.00  0.00     0.074 A 
ATOM     68  C   UNL A   1      47.773  31.336  26.503  1.00  0.00     0.031 C 
ATOM     69  C   UNL A   1      47.613  33.691  27.260  1.00  0.00     0.031 A 
BRANCH  56  70
ATOM     70  C   UNL A   1      44.003  37.652  30.355  1.00  0.00    -0.014 A 
ATOM     71  C   UNL A   1      44.382  38.102  31.633  1.00  0.00     0.010 A 
ATOM     72  C   UNL A   1      43.406  38.562  29.462  1.00  0.00     0.010 A 
ATOM     73  C   UNL A   1      44.124  39.419  32.025  1.00  0.00     0.020 A 
ATOM     74  C   UNL A   1      43.180  39.889  29.837  1.00  0.00     0.020 A 
ATOM     75  C   UNL A   1      43.524  40.304  31.123  1.00  0.00     0.054 A 
BRANCH  75  76
ATOM     76  S   UNL A   1      43.217  42.010  31.655  1.00  0.00     0.124 S 
ATOM     77  O   UNL A   1      42.035  42.362  30.871  1.00  0.00    -0.237 OA
ATOM     78  O   UNL A   1      42.995  41.860  33.091  1.00  0.00    -0.237 OA
ATOM     79  O   UNL A   1      44.441  42.716  31.286  1.00  0.00    -0.744 OA
ENDBRANCH  75  76
ENDBRANCH  56  70
BRANCH  57  80
ATOM     80  C   UNL A   1      45.035  28.197  27.250  1.00  0.00    -0.014 A 
ATOM     81  C   UNL A   1      45.710  27.206  27.983  1.00  0.00     0.010 A 
ATOM     82  C   UNL A   1      44.463  27.855  26.009  1.00  0.00     0.010 A 
ATOM     83  C   UNL A   1      45.820  25.905  27.483  1.00  0.00     0.020 A 
ATOM     84  C   UNL A   1      44.541  26.548  25.522  1.00  0.00     0.020 A 
ATOM     85  C   UNL A   1      45.227  25.582  26.258  1.00  0.00     0.054 A 
BRANCH  85  86
ATOM     86  S   UNL A   1      45.329  23.872  25.663  1.00  0.00     0.124 S 
ATOM     87  O   UNL A   1      45.639  24.058  24.249  1.00  0.00    -0.237 OA
ATOM     88  O   UNL A   1      46.407  23.322  26.480  1.00  0.00    -0.237 OA
ATOM     89  O   UNL A   1      44.002  23.330  25.947  1.00  0.00    -0.744 OA
ENDBRANCH  85  86
ENDBRANCH  57  80
BRANCH  69  90
ATOM     90  C   UNL A   1      48.941  33.967  26.599  1.00  0.00    -0.014 A 
ATOM     91  C   UNL A   1      49.028  34.655  25.376  1.00  0.00     0.010 A 
ATOM     92  C   UNL A   1      50.128  33.598  27.260  1.00  0.00     0.010 A 
ATOM     93  C   UNL A   1      50.276  34.945  24.816  1.00  0.00     0.020 A 
ATOM     94  C   UNL A   1      51.377  33.918  26.722  1.00  0.00     0.020 A 
ATOM     95  C   UNL A   1      51.442  34.582  25.497  1.00  0.00     0.054 A 
BRANCH  95  96
ATOM     96  S   UNL A   1      53.047  35.027  24.778  1.00  0.00     0.124 S 
ATOM     97  O   UNL A   1      53.426  33.797  24.088  1.00  0.00    -0.237 OA
ATOM     98  O   UNL A   1      52.707  36.154  23.913  1.00  0.00    -0.237 OA
ATOM     99  O   UNL A   1      53.867  35.367  25.939  1.00  0.00    -0.744 OA
ENDBRANCH  95  96
ENDBRANCH  69  90
ENDBRANCH  43  44
ENDBRANCH  36  38
ENDBRANCH  35  36
ENDBRANCH  34  35
ENDBRANCH  33  34
ENDBRANCH  32  33
ENDBRANCH  31  32
ENDBRANCH  30  31
ENDBRANCH   1  30
TORSDOF 27
ENDMDL
MODEL 3
REMARK VINA RESULT:      -8.4      3.527      5.932
REMARK SMILES C[C@@H](Sc1nc(-c2ccc3c(c2)OCO3)ccc1C#N)C(=O)OCCOCCOCCOCCOC(=O)c1ccc(-c2c3nc(c(-c4ccc(S(=O)(=O)[O-])cc4)c4ccc([nH]4)c(-c4ccc(S(=O)(=O)[O-])cc4)c4nc(c(-c5ccc(S(=O)(=O)[O-])cc5)c5ccc2[nH]5)C=C4)C=C3)cc1
REMARK SMILES IDX 29 1 28 2 27 3 26 4 25 5 24 6 23 7 21 8 22 9 2 10 1 11 3 12
REMARK SMILES IDX 4 13 5 14 18 15 6 16 17 17 16 18 19 19 20 20 7 21 8 22 12 23
REMARK SMILES IDX 9 24 11 25 10 26 13 27 15 28 14 29 30 30 31 31 32 32 33 33
REMARK SMILES IDX 34 34 35 35 36 36 37 37 38 38 39 39 97 40 40 41 96 42 41 43
REMARK SMILES IDX 42 44 43 45 90 46 44 47 95 48 89 49 91 50 45 51 94 52 88 53
REMARK SMILES IDX 87 54 46 56 76 57 57 58 75 59 58 60 61 61 74 62 92 63 59 64
REMARK SMILES IDX 60 65 73 67 93 68 62 69 47 70 48 71 56 72 49 73 55 74 50 75
REMARK SMILES IDX 51 76 52 77 53 78 54 79 77 80 78 81 86 82 79 83 85 84 80 85
REMARK SMILES IDX 81 86 82 87 83 88 84 89 63 90 64 91 72 92 65 93 71 94 66 95
REMARK SMILES IDX 67 96 68 97 69 98 70 99
REMARK H PARENT 91 55 61 66
REMARK Flexibility Score: inf
ROOT
ATOM      1  O   UNL A   1      34.527  31.665  28.363  1.00  0.00    -0.377 OA
ENDROOT
BRANCH   1   2
ATOM      2  C   UNL A   1      34.036  30.721  27.435  1.00  0.00     0.188 C 
BRANCH   2   3
ATOM      3  C   UNL A   1      32.566  30.900  27.064  1.00  0.00     0.188 C 
BRANCH   3   4
ATOM      4  O   UNL A   1      31.901  29.917  26.298  1.00  0.00    -0.376 OA
BRANCH   4   5
ATOM      5  C   UNL A   1      32.355  29.550  25.001  1.00  0.00     0.202 C 
BRANCH   5   6
ATOM      6  C   UNL A   1      32.798  28.132  24.589  1.00  0.00     0.261 C 
BRANCH   6   7
ATOM      7  O   UNL A   1      31.772  27.149  24.370  1.00  0.00    -0.462 OA
BRANCH   7   8
ATOM      8  C   UNL A   1      31.859  26.005  25.098  1.00  0.00     0.319 C 
ATOM      9  O   UNL A   1      31.900  25.979  26.325  1.00  0.00    -0.251 OA
BRANCH   8  10
ATOM     10  C   UNL A   1      31.834  24.727  24.257  1.00  0.00     0.160 C 
ATOM     11  C   UNL A   1      30.710  24.583  23.255  1.00  0.00     0.032 C 
BRANCH  10  12
ATOM     12  S   UNL A   1      33.391  24.542  23.317  1.00  0.00    -0.090 SA
BRANCH  12  13
ATOM     13  C   UNL A   1      34.077  23.097  24.105  1.00  0.00     0.115 A 
ATOM     14  N   UNL A   1      35.146  23.413  24.873  1.00  0.00    -0.240 NA
ATOM     15  C   UNL A   1      33.671  21.769  23.933  1.00  0.00     0.084 A 
ATOM     16  C   UNL A   1      35.843  22.415  25.456  1.00  0.00     0.072 A 
ATOM     17  C   UNL A   1      34.310  20.772  24.680  1.00  0.00     0.024 A 
ATOM     18  C   UNL A   1      35.418  21.094  25.443  1.00  0.00     0.030 A 
BRANCH  15  19
ATOM     19  C   UNL A   1      32.689  21.316  23.003  1.00  0.00     0.102 C 
ATOM     20  N   UNL A   1      31.812  21.024  22.295  1.00  0.00    -0.192 NA
ENDBRANCH  15  19
BRANCH  16  21
ATOM     21  C   UNL A   1      37.190  22.765  25.889  1.00  0.00     0.004 A 
ATOM     22  C   UNL A   1      38.201  21.767  25.830  1.00  0.00     0.014 A 
ATOM     23  C   UNL A   1      37.521  24.056  26.319  1.00  0.00     0.061 A 
ATOM     24  C   UNL A   1      39.510  22.032  26.225  1.00  0.00     0.051 A 
ATOM     25  C   UNL A   1      38.820  24.285  26.719  1.00  0.00     0.166 A 
ATOM     26  C   UNL A   1      39.782  23.300  26.678  1.00  0.00     0.165 A 
ATOM     27  O   UNL A   1      39.307  25.460  27.198  1.00  0.00    -0.454 OA
ATOM     28  O   UNL A   1      40.990  23.732  27.128  1.00  0.00    -0.454 OA
ATOM     29  C   UNL A   1      40.669  25.089  27.493  1.00  0.00     0.468 C 
ENDBRANCH  16  21
ENDBRANCH  12  13
ENDBRANCH  10  12
ENDBRANCH   8  10
ENDBRANCH   7   8
ENDBRANCH   6   7
ENDBRANCH   5   6
ENDBRANCH   4   5
ENDBRANCH   3   4
ENDBRANCH   2   3
ENDBRANCH   1   2
BRANCH   1  30
ATOM     30  C   UNL A   1      34.529  33.047  28.026  1.00  0.00     0.188 C 
BRANCH  30  31
ATOM     31  C   UNL A   1      33.383  33.957  28.511  1.00  0.00     0.188 C 
BRANCH  31  32
ATOM     32  O   UNL A   1      33.682  34.782  29.621  1.00  0.00    -0.376 OA
BRANCH  32  33
ATOM     33  C   UNL A   1      34.717  34.427  30.524  1.00  0.00     0.202 C 
BRANCH  33  34
ATOM     34  C   UNL A   1      34.490  34.431  32.047  1.00  0.00     0.261 C 
BRANCH  34  35
ATOM     35  O   UNL A   1      34.738  33.210  32.757  1.00  0.00    -0.460 OA
BRANCH  35  36
ATOM     36  C   UNL A   1      35.476  33.272  33.885  1.00  0.00     0.338 C 
ATOM     37  O   UNL A   1      35.073  33.502  35.009  1.00  0.00    -0.246 OA
BRANCH  36  38
ATOM     38  C   UNL A   1      36.841  32.804  33.550  1.00  0.00     0.060 A 
ATOM     39  C   UNL A   1      37.918  33.214  34.348  1.00  0.00     0.016 A 
ATOM     40  C   UNL A   1      37.056  31.973  32.449  1.00  0.00     0.016 A 
ATOM     41  C   UNL A   1      39.218  32.827  34.026  1.00  0.00     0.010 A 
ATOM     42  C   UNL A   1      38.362  31.610  32.111  1.00  0.00     0.010 A 
ATOM     43  C   UNL A   1      39.451  32.067  32.876  1.00  0.00    -0.014 A 
BRANCH  43  44
ATOM     44  C   UNL A   1      40.833  31.918  32.358  1.00  0.00     0.031 A 
ATOM     45  C   UNL A   1      41.376  32.992  31.457  1.00  0.00     0.074 A 
ATOM     46  C   UNL A   1      41.595  30.859  32.687  1.00  0.00     0.049 A 
ATOM     47  N   UNL A   1      42.515  33.042  30.816  1.00  0.00    -0.248 NA
ATOM     48  C   UNL A   1      40.512  34.167  31.243  1.00  0.00     0.031 C 
ATOM     49  C   UNL A   1      41.202  29.783  33.595  1.00  0.00     0.029 A 
ATOM     50  N   UNL A   1      42.857  30.510  32.275  1.00  0.00    -0.354 N 
ATOM     51  C   UNL A   1      42.494  34.236  30.105  1.00  0.00     0.074 A 
ATOM     52  C   UNL A   1      41.221  34.869  30.373  1.00  0.00     0.031 C 
ATOM     53  C   UNL A   1      42.198  28.882  33.655  1.00  0.00     0.029 A 
ATOM     54  C   UNL A   1      43.275  29.293  32.755  1.00  0.00     0.049 A 
ATOM     55  H   UNL A   1      43.410  31.079  31.691  1.00  0.00     0.167 HD
ATOM     56  C   UNL A   1      43.449  34.757  29.299  1.00  0.00     0.031 A 
ATOM     57  C   UNL A   1      44.381  28.574  32.473  1.00  0.00     0.031 A 
ATOM     58  C   UNL A   1      44.704  34.110  29.023  1.00  0.00     0.049 A 
ATOM     59  C   UNL A   1      45.397  29.134  31.508  1.00  0.00     0.074 A 
ATOM     60  C   UNL A   1      45.750  34.563  28.238  1.00  0.00     0.029 A 
ATOM     61  N   UNL A   1      45.078  32.865  29.509  1.00  0.00    -0.354 N 
ATOM     62  N   UNL A   1      45.380  30.278  30.865  1.00  0.00    -0.248 NA
ATOM     63  C   UNL A   1      46.582  28.309  31.237  1.00  0.00     0.031 C 
ATOM     64  C   UNL A   1      46.720  33.559  28.184  1.00  0.00     0.029 A 
ATOM     65  C   UNL A   1      46.322  32.517  29.008  1.00  0.00     0.049 A 
ATOM     66  H   UNL A   1      44.540  32.312  30.119  1.00  0.00     0.167 HD
ATOM     67  C   UNL A   1      46.568  30.323  30.139  1.00  0.00     0.074 A 
ATOM     68  C   UNL A   1      47.282  29.098  30.433  1.00  0.00     0.031 C 
ATOM     69  C   UNL A   1      47.025  31.293  29.309  1.00  0.00     0.031 A 
BRANCH  56  70
ATOM     70  C   UNL A   1      43.146  36.064  28.609  1.00  0.00    -0.014 A 
ATOM     71  C   UNL A   1      42.361  36.119  27.443  1.00  0.00     0.010 A 
ATOM     72  C   UNL A   1      43.634  37.263  29.159  1.00  0.00     0.010 A 
ATOM     73  C   UNL A   1      42.112  37.343  26.815  1.00  0.00     0.020 A 
ATOM     74  C   UNL A   1      43.356  38.493  28.556  1.00  0.00     0.020 A 
ATOM     75  C   UNL A   1      42.612  38.522  27.376  1.00  0.00     0.054 A 
BRANCH  75  76
ATOM     76  S   UNL A   1      42.259  40.097  26.547  1.00  0.00     0.124 S 
ATOM     77  O   UNL A   1      40.981  39.816  25.898  1.00  0.00    -0.237 OA
ATOM     78  O   UNL A   1      42.202  41.037  27.664  1.00  0.00    -0.237 OA
ATOM     79  O   UNL A   1      43.391  40.275  25.642  1.00  0.00    -0.744 OA
ENDBRANCH  75  76
ENDBRANCH  56  70
BRANCH  57  80
ATOM     80  C   UNL A   1      44.566  27.228  33.085  1.00  0.00    -0.014 A 
ATOM     81  C   UNL A   1      45.090  27.087  34.381  1.00  0.00     0.010 A 
ATOM     82  C   UNL A   1      44.205  26.072  32.366  1.00  0.00     0.010 A 
ATOM     83  C   UNL A   1      45.259  25.819  34.943  1.00  0.00     0.020 A 
ATOM     84  C   UNL A   1      44.341  24.804  32.938  1.00  0.00     0.020 A 
ATOM     85  C   UNL A   1      44.876  24.684  34.220  1.00  0.00     0.054 A 
BRANCH  85  86
ATOM     86  S   UNL A   1      45.046  23.055  34.999  1.00  0.00     0.124 S 
ATOM     87  O   UNL A   1      45.834  23.365  36.187  1.00  0.00    -0.237 OA
ATOM     88  O   UNL A   1      43.656  22.678  35.241  1.00  0.00    -0.237 OA
ATOM     89  O   UNL A   1      45.733  22.260  33.983  1.00  0.00    -0.744 OA
ENDBRANCH  85  86
ENDBRANCH  57  80
BRANCH  69  90
ATOM     90  C   UNL A   1      48.387  31.105  28.687  1.00  0.00    -0.014 A 
ATOM     91  C   UNL A   1      48.556  30.414  27.474  1.00  0.00     0.010 A 
ATOM     92  C   UNL A   1      49.509  31.703  29.293  1.00  0.00     0.010 A 
ATOM     93  C   UNL A   1      49.823  30.305  26.893  1.00  0.00     0.020 A 
ATOM     94  C   UNL A   1      50.770  31.627  28.698  1.00  0.00     0.020 A 
ATOM     95  C   UNL A   1      50.921  30.919  27.506  1.00  0.00     0.054 A 
BRANCH  95  96
ATOM     96  S   UNL A   1      52.542  30.814  26.697  1.00  0.00     0.124 S 
ATOM     97  O   UNL A   1      52.455  29.533  26.002  1.00  0.00    -0.237 OA
ATOM     98  O   UNL A   1      52.546  31.996  25.839  1.00  0.00    -0.237 OA
ATOM     99  O   UNL A   1      53.489  30.856  27.809  1.00  0.00    -0.744 OA
ENDBRANCH  95  96
ENDBRANCH  69  90
ENDBRANCH  43  44
ENDBRANCH  36  38
ENDBRANCH  35  36
ENDBRANCH  34  35
ENDBRANCH  33  34
ENDBRANCH  32  33
ENDBRANCH  31  32
ENDBRANCH  30  31
ENDBRANCH   1  30
TORSDOF 27
ENDMDL
