MODEL 1
REMARK VINA RESULT:     -10.3      0.000      0.000
REMARK SMILES CC(C)c1ccc(-c2cnc([C@@H]3[NH2+][C@H](C(=O)OCCOCCOCCOCCOC(=O)c4ccc(-c5c6nc(c(-c7ccc(S(=O)(=O)[O-])cc7)c7ccc([nH]7)c(-c7ccc(S(=O)(=O)[O-])cc7)c7nc(c(-c8ccc(S(=O)(=O)[O-])cc8)c8ccc5[nH]8)C=C7)C=C6)cc4)C(C)(C)S3)s2)cc1
REMARK SMILES IDX 23 1 22 2 21 3 20 4 19 5 18 6 17 7 15 8 16 9 14 10 12 11
REMARK SMILES IDX 13 12 95 13 92 16 93 17 94 18 11 19 8 20 9 21 96 22 10 23
REMARK SMILES IDX 7 24 4 25 5 26 98 27 6 28 97 29 2 30 1 31 3 32 24 33 25 34
REMARK SMILES IDX 26 35 27 36 28 37 29 38 30 39 31 40 32 41 33 42 91 43 34 44
REMARK SMILES IDX 90 45 35 46 36 47 37 48 84 49 38 50 89 51 83 52 85 53 39 54
REMARK SMILES IDX 88 55 82 56 81 57 40 59 70 60 51 61 69 62 52 63 55 64 68 65
REMARK SMILES IDX 86 66 53 67 54 68 67 70 87 71 56 72 41 73 42 74 50 75 43 76
REMARK SMILES IDX 49 77 44 78 45 79 46 80 47 81 48 82 71 83 72 84 80 85 73 86
REMARK SMILES IDX 79 87 74 88 75 89 76 90 77 91 78 92 57 93 58 94 66 95 59 96
REMARK SMILES IDX 65 97 60 98 61 99 62 100 63 101 64 102
REMARK H PARENT 13 14 13 15 85 58 55 69
REMARK Flexibility Score: inf
ROOT
ATOM      1  O   UNL A   1      38.192  22.369  26.030  1.00  0.00    -0.377 OA
ENDROOT
BRANCH   1   2
ATOM      2  C   UNL A   1      37.638  21.223  25.413  1.00  0.00     0.188 C 
BRANCH   2   3
ATOM      3  C   UNL A   1      36.332  21.459  24.691  1.00  0.00     0.188 C 
BRANCH   3   4
ATOM      4  O   UNL A   1      36.291  22.480  23.712  1.00  0.00    -0.376 OA
BRANCH   4   5
ATOM      5  C   UNL A   1      35.241  23.441  23.835  1.00  0.00     0.202 C 
BRANCH   5   6
ATOM      6  C   UNL A   1      34.535  24.002  22.578  1.00  0.00     0.261 C 
BRANCH   6   7
ATOM      7  O   UNL A   1      34.136  25.396  22.630  1.00  0.00    -0.459 OA
BRANCH   7   8
ATOM      8  C   UNL A   1      33.184  25.740  21.723  1.00  0.00     0.366 C 
ATOM      9  O   UNL A   1      33.138  25.254  20.590  1.00  0.00    -0.245 OA
BRANCH   8  10
ATOM     10  C   UNL A   1      32.159  26.841  22.147  1.00  0.00     0.310 C 
ATOM     11  C   UNL A   1      30.976  26.028  24.118  1.00  0.00     0.304 C 
ATOM     12  N   UNL A   1      30.901  26.170  22.648  1.00  0.00    -0.317 N 
ATOM     13  S   UNL A   1      32.013  27.391  24.743  1.00  0.00    -0.079 SA
ATOM     14  H   UNL A   1      30.091  26.738  22.400  1.00  0.00     0.348 HD
ATOM     15  H   UNL A   1      30.813  25.248  22.220  1.00  0.00     0.348 HD
ATOM     16  C   UNL A   1      32.416  28.046  23.082  1.00  0.00     0.079 C 
ATOM     17  C   UNL A   1      31.370  29.168  22.835  1.00  0.00     0.030 C 
ATOM     18  C   UNL A   1      33.781  28.731  22.993  1.00  0.00     0.030 C 
BRANCH  11  19
ATOM     19  C   UNL A   1      31.470  24.667  24.592  1.00  0.00     0.162 A 
ATOM     20  C   UNL A   1      31.948  22.288  24.884  1.00  0.00     0.055 A 
ATOM     21  C   UNL A   1      32.326  23.113  25.921  1.00  0.00     0.132 A 
ATOM     22  S   UNL A   1      31.211  23.226  23.653  1.00  0.00    -0.112 S 
ATOM     23  N   UNL A   1      32.110  24.456  25.725  1.00  0.00    -0.242 NA
BRANCH  20  24
ATOM     24  C   UNL A   1      32.208  20.857  24.773  1.00  0.00    -0.007 A 
ATOM     25  C   UNL A   1      33.070  18.178  24.380  1.00  0.00    -0.045 A 
ATOM     26  C   UNL A   1      32.659  18.979  23.301  1.00  0.00     0.004 A 
ATOM     27  C   UNL A   1      33.043  18.751  25.662  1.00  0.00     0.004 A 
ATOM     28  C   UNL A   1      32.225  20.291  23.496  1.00  0.00     0.010 A 
ATOM     29  C   UNL A   1      32.619  20.078  25.858  1.00  0.00     0.010 A 
BRANCH  25  30
ATOM     30  C   UNL A   1      33.557  16.763  24.087  1.00  0.00     0.013 C 
ATOM     31  C   UNL A   1      34.279  16.568  22.749  1.00  0.00     0.012 C 
ATOM     32  C   UNL A   1      34.464  16.250  25.216  1.00  0.00     0.012 C 
ENDBRANCH  25  30
ENDBRANCH  20  24
ENDBRANCH  11  19
ENDBRANCH   8  10
ENDBRANCH   7   8
ENDBRANCH   6   7
ENDBRANCH   5   6
ENDBRANCH   4   5
ENDBRANCH   3   4
ENDBRANCH   2   3
ENDBRANCH   1   2
BRANCH   1  33
ATOM     33  C   UNL A   1      39.526  22.280  26.514  1.00  0.00     0.188 C 
BRANCH  33  34
ATOM     34  C   UNL A   1      40.316  21.014  26.177  1.00  0.00     0.188 C 
BRANCH  34  35
ATOM     35  O   UNL A   1      41.748  21.040  26.247  1.00  0.00    -0.376 OA
BRANCH  35  36
ATOM     36  C   UNL A   1      42.412  21.874  27.192  1.00  0.00     0.202 C 
BRANCH  36  37
ATOM     37  C   UNL A   1      43.654  22.580  26.654  1.00  0.00     0.261 C 
BRANCH  37  38
ATOM     38  O   UNL A   1      43.757  23.916  27.159  1.00  0.00    -0.460 OA
BRANCH  38  39
ATOM     39  C   UNL A   1      43.153  24.850  26.391  1.00  0.00     0.338 C 
ATOM     40  O   UNL A   1      43.072  24.869  25.171  1.00  0.00    -0.246 OA
BRANCH  39  41
ATOM     41  C   UNL A   1      42.438  25.799  27.258  1.00  0.00     0.060 A 
ATOM     42  C   UNL A   1      42.919  27.112  27.333  1.00  0.00     0.016 A 
ATOM     43  C   UNL A   1      41.348  25.390  28.032  1.00  0.00     0.016 A 
ATOM     44  C   UNL A   1      42.359  28.003  28.233  1.00  0.00     0.010 A 
ATOM     45  C   UNL A   1      40.802  26.278  28.956  1.00  0.00     0.010 A 
ATOM     46  C   UNL A   1      41.348  27.564  29.093  1.00  0.00    -0.014 A 
BRANCH  46  47
ATOM     47  C   UNL A   1      41.055  28.384  30.284  1.00  0.00     0.031 A 
ATOM     48  C   UNL A   1      41.956  28.241  31.480  1.00  0.00     0.074 A 
ATOM     49  C   UNL A   1      40.077  29.301  30.252  1.00  0.00     0.049 A 
ATOM     50  N   UNL A   1      41.946  28.902  32.606  1.00  0.00    -0.248 NA
ATOM     51  C   UNL A   1      43.014  27.219  31.390  1.00  0.00     0.031 C 
ATOM     52  C   UNL A   1      39.195  29.555  29.113  1.00  0.00     0.029 A 
ATOM     53  N   UNL A   1      39.678  30.203  31.200  1.00  0.00    -0.354 N 
ATOM     54  C   UNL A   1      42.991  28.375  33.359  1.00  0.00     0.074 A 
ATOM     55  C   UNL A   1      43.587  27.315  32.579  1.00  0.00     0.031 C 
ATOM     56  C   UNL A   1      38.361  30.561  29.427  1.00  0.00     0.029 A 
ATOM     57  C   UNL A   1      38.633  30.995  30.795  1.00  0.00     0.049 A 
ATOM     58  H   UNL A   1      40.100  30.277  32.087  1.00  0.00     0.167 HD
ATOM     59  C   UNL A   1      43.418  28.751  34.586  1.00  0.00     0.031 A 
ATOM     60  C   UNL A   1      37.971  31.957  31.464  1.00  0.00     0.031 A 
ATOM     61  C   UNL A   1      42.795  29.794  35.359  1.00  0.00     0.049 A 
ATOM     62  C   UNL A   1      38.416  32.305  32.858  1.00  0.00     0.074 A 
ATOM     63  C   UNL A   1      43.135  30.257  36.617  1.00  0.00     0.029 A 
ATOM     64  N   UNL A   1      41.694  30.531  34.945  1.00  0.00    -0.354 N 
ATOM     65  N   UNL A   1      39.409  31.806  33.559  1.00  0.00    -0.248 NA
ATOM     66  C   UNL A   1      37.662  33.360  33.544  1.00  0.00     0.031 C 
ATOM     67  C   UNL A   1      42.199  31.228  36.989  1.00  0.00     0.029 A 
ATOM     68  C   UNL A   1      41.324  31.426  35.933  1.00  0.00     0.049 A 
ATOM     69  H   UNL A   1      41.243  30.432  34.075  1.00  0.00     0.167 HD
ATOM     70  C   UNL A   1      39.416  32.509  34.760  1.00  0.00     0.074 A 
ATOM     71  C   UNL A   1      38.344  33.481  34.674  1.00  0.00     0.031 C 
ATOM     72  C   UNL A   1      40.235  32.368  35.834  1.00  0.00     0.031 A 
BRANCH  59  73
ATOM     73  C   UNL A   1      44.577  27.991  35.181  1.00  0.00    -0.014 A 
ATOM     74  C   UNL A   1      44.381  26.825  35.944  1.00  0.00     0.010 A 
ATOM     75  C   UNL A   1      45.889  28.451  34.966  1.00  0.00     0.010 A 
ATOM     76  C   UNL A   1      45.471  26.160  36.516  1.00  0.00     0.020 A 
ATOM     77  C   UNL A   1      46.983  27.771  35.508  1.00  0.00     0.020 A 
ATOM     78  C   UNL A   1      46.765  26.639  36.295  1.00  0.00     0.054 A 
BRANCH  78  79
ATOM     79  S   UNL A   1      48.160  25.750  37.036  1.00  0.00     0.124 S 
ATOM     80  O   UNL A   1      47.969  26.019  38.460  1.00  0.00    -0.237 OA
ATOM     81  O   UNL A   1      47.918  24.371  36.620  1.00  0.00    -0.237 OA
ATOM     82  O   UNL A   1      49.334  26.380  36.437  1.00  0.00    -0.744 OA
ENDBRANCH  78  79
ENDBRANCH  59  73
BRANCH  60  83
ATOM     83  C   UNL A   1      36.826  32.652  30.817  1.00  0.00    -0.014 A 
ATOM     84  C   UNL A   1      35.501  32.355  31.183  1.00  0.00     0.010 A 
ATOM     85  C   UNL A   1      37.060  33.633  29.836  1.00  0.00     0.010 A 
ATOM     86  C   UNL A   1      34.433  33.017  30.570  1.00  0.00     0.020 A 
ATOM     87  C   UNL A   1      35.996  34.320  29.244  1.00  0.00     0.020 A 
ATOM     88  C   UNL A   1      34.688  33.999  29.608  1.00  0.00     0.054 A 
BRANCH  88  89
ATOM     89  S   UNL A   1      33.288  34.885  28.870  1.00  0.00     0.124 S 
ATOM     90  O   UNL A   1      32.776  33.905  27.918  1.00  0.00    -0.237 OA
ATOM     91  O   UNL A   1      32.438  35.147  30.029  1.00  0.00    -0.237 OA
ATOM     92  O   UNL A   1      33.906  36.069  28.279  1.00  0.00    -0.744 OA
ENDBRANCH  88  89
ENDBRANCH  60  83
BRANCH  72  93
ATOM     93  C   UNL A   1      40.015  33.317  36.985  1.00  0.00    -0.014 A 
ATOM     94  C   UNL A   1      39.069  33.046  37.990  1.00  0.00     0.010 A 
ATOM     95  C   UNL A   1      40.772  34.501  37.059  1.00  0.00     0.010 A 
ATOM     96  C   UNL A   1      38.832  33.976  39.005  1.00  0.00     0.020 A 
ATOM     97  C   UNL A   1      40.566  35.414  38.094  1.00  0.00     0.020 A 
ATOM     98  C   UNL A   1      39.577  35.159  39.045  1.00  0.00     0.054 A 
BRANCH  98  99
ATOM     99  S   UNL A   1      39.239  36.359  40.362  1.00  0.00     0.124 S 
ATOM    100  O   UNL A   1      38.676  37.480  39.613  1.00  0.00    -0.237 OA
ATOM    101  O   UNL A   1      38.300  35.640  41.218  1.00  0.00    -0.237 OA
ATOM    102  O   UNL A   1      40.552  36.602  40.954  1.00  0.00    -0.744 OA
ENDBRANCH  98  99
ENDBRANCH  72  93
ENDBRANCH  46  47
ENDBRANCH  39  41
ENDBRANCH  38  39
ENDBRANCH  37  38
ENDBRANCH  36  37
ENDBRANCH  35  36
ENDBRANCH  34  35
ENDBRANCH  33  34
ENDBRANCH   1  33
TORSDOF 26
ENDMDL
MODEL 2
REMARK VINA RESULT:      -9.8      0.831      7.723
REMARK SMILES CC(C)c1ccc(-c2cnc([C@@H]3[NH2+][C@H](C(=O)OCCOCCOCCOCCOC(=O)c4ccc(-c5c6nc(c(-c7ccc(S(=O)(=O)[O-])cc7)c7ccc([nH]7)c(-c7ccc(S(=O)(=O)[O-])cc7)c7nc(c(-c8ccc(S(=O)(=O)[O-])cc8)c8ccc5[nH]8)C=C7)C=C6)cc4)C(C)(C)S3)s2)cc1
REMARK SMILES IDX 23 1 22 2 21 3 20 4 19 5 18 6 17 7 15 8 16 9 14 10 12 11
REMARK SMILES IDX 13 12 95 13 92 16 93 17 94 18 11 19 8 20 9 21 96 22 10 23
REMARK SMILES IDX 7 24 4 25 5 26 98 27 6 28 97 29 2 30 1 31 3 32 24 33 25 34
REMARK SMILES IDX 26 35 27 36 28 37 29 38 30 39 31 40 32 41 33 42 91 43 34 44
REMARK SMILES IDX 90 45 35 46 36 47 37 48 84 49 38 50 89 51 83 52 85 53 39 54
REMARK SMILES IDX 88 55 82 56 81 57 40 59 70 60 51 61 69 62 52 63 55 64 68 65
REMARK SMILES IDX 86 66 53 67 54 68 67 70 87 71 56 72 41 73 42 74 50 75 43 76
REMARK SMILES IDX 49 77 44 78 45 79 46 80 47 81 48 82 71 83 72 84 80 85 73 86
REMARK SMILES IDX 79 87 74 88 75 89 76 90 77 91 78 92 57 93 58 94 66 95 59 96
REMARK SMILES IDX 65 97 60 98 61 99 62 100 63 101 64 102
REMARK H PARENT 13 14 13 15 85 58 55 69
REMARK Flexibility Score: inf
ROOT
ATOM      1  O   UNL A   1      38.230  22.596  26.011  1.00  0.00    -0.377 OA
ENDROOT
BRANCH   1   2
ATOM      2  C   UNL A   1      37.670  21.480  25.346  1.00  0.00     0.188 C 
BRANCH   2   3
ATOM      3  C   UNL A   1      36.367  21.754  24.632  1.00  0.00     0.188 C 
BRANCH   3   4
ATOM      4  O   UNL A   1      36.258  22.952  23.888  1.00  0.00    -0.376 OA
BRANCH   4   5
ATOM      5  C   UNL A   1      35.032  23.674  24.016  1.00  0.00     0.202 C 
BRANCH   5   6
ATOM      6  C   UNL A   1      34.688  24.822  23.037  1.00  0.00     0.261 C 
BRANCH   6   7
ATOM      7  O   UNL A   1      33.716  25.795  23.502  1.00  0.00    -0.459 OA
BRANCH   7   8
ATOM      8  C   UNL A   1      32.995  26.383  22.510  1.00  0.00     0.366 C 
ATOM      9  O   UNL A   1      33.283  26.260  21.317  1.00  0.00    -0.245 OA
BRANCH   8  10
ATOM     10  C   UNL A   1      31.797  27.289  22.940  1.00  0.00     0.310 C 
ATOM     11  C   UNL A   1      30.471  26.038  24.560  1.00  0.00     0.304 C 
ATOM     12  N   UNL A   1      30.575  26.421  23.136  1.00  0.00    -0.317 N 
ATOM     13  S   UNL A   1      31.242  27.369  25.538  1.00  0.00    -0.079 SA
ATOM     14  H   UNL A   1      29.742  26.940  22.860  1.00  0.00     0.348 HD
ATOM     15  H   UNL A   1      30.657  25.582  22.562  1.00  0.00     0.348 HD
ATOM     16  C   UNL A   1      31.779  28.335  24.079  1.00  0.00     0.079 C 
ATOM     17  C   UNL A   1      30.646  29.375  23.854  1.00  0.00     0.030 C 
ATOM     18  C   UNL A   1      33.050  29.156  24.305  1.00  0.00     0.030 C 
BRANCH  11  19
ATOM     19  C   UNL A   1      31.061  24.671  24.887  1.00  0.00     0.162 A 
ATOM     20  C   UNL A   1      31.805  22.343  24.863  1.00  0.00     0.055 A 
ATOM     21  C   UNL A   1      31.884  22.992  26.076  1.00  0.00     0.132 A 
ATOM     22  S   UNL A   1      31.166  23.415  23.688  1.00  0.00    -0.112 S 
ATOM     23  N   UNL A   1      31.521  24.318  26.070  1.00  0.00    -0.242 NA
BRANCH  20  24
ATOM     24  C   UNL A   1      32.275  20.995  24.567  1.00  0.00    -0.007 A 
ATOM     25  C   UNL A   1      32.847  18.239  24.179  1.00  0.00    -0.045 A 
ATOM     26  C   UNL A   1      32.937  18.831  25.449  1.00  0.00     0.004 A 
ATOM     27  C   UNL A   1      32.460  19.058  23.106  1.00  0.00     0.004 A 
ATOM     28  C   UNL A   1      32.667  20.187  25.638  1.00  0.00     0.010 A 
ATOM     29  C   UNL A   1      32.174  20.422  23.297  1.00  0.00     0.010 A 
BRANCH  25  30
ATOM     30  C   UNL A   1      33.131  16.745  24.053  1.00  0.00     0.013 C 
ATOM     31  C   UNL A   1      34.317  16.363  23.160  1.00  0.00     0.012 C 
ATOM     32  C   UNL A   1      33.329  16.106  25.436  1.00  0.00     0.012 C 
ENDBRANCH  25  30
ENDBRANCH  20  24
ENDBRANCH  11  19
ENDBRANCH   8  10
ENDBRANCH   7   8
ENDBRANCH   6   7
ENDBRANCH   5   6
ENDBRANCH   4   5
ENDBRANCH   3   4
ENDBRANCH   2   3
ENDBRANCH   1   2
BRANCH   1  33
ATOM     33  C   UNL A   1      39.480  22.418  26.667  1.00  0.00     0.188 C 
BRANCH  33  34
ATOM     34  C   UNL A   1      40.290  21.169  26.312  1.00  0.00     0.188 C 
BRANCH  34  35
ATOM     35  O   UNL A   1      41.695  21.140  26.597  1.00  0.00    -0.376 OA
BRANCH  35  36
ATOM     36  C   UNL A   1      42.253  22.007  27.581  1.00  0.00     0.202 C 
BRANCH  36  37
ATOM     37  C   UNL A   1      43.644  22.536  27.245  1.00  0.00     0.261 C 
BRANCH  37  38
ATOM     38  O   UNL A   1      43.861  23.833  27.813  1.00  0.00    -0.460 OA
BRANCH  38  39
ATOM     39  C   UNL A   1      43.525  24.860  27.002  1.00  0.00     0.338 C 
ATOM     40  O   UNL A   1      43.571  24.888  25.780  1.00  0.00    -0.246 OA
BRANCH  39  41
ATOM     41  C   UNL A   1      42.918  25.932  27.807  1.00  0.00     0.060 A 
ATOM     42  C   UNL A   1      43.591  27.158  27.881  1.00  0.00     0.016 A 
ATOM     43  C   UNL A   1      41.739  25.716  28.526  1.00  0.00     0.016 A 
ATOM     44  C   UNL A   1      43.127  28.151  28.729  1.00  0.00     0.010 A 
ATOM     45  C   UNL A   1      41.287  26.703  29.399  1.00  0.00     0.010 A 
ATOM     46  C   UNL A   1      42.016  27.895  29.540  1.00  0.00    -0.014 A 
BRANCH  46  47
ATOM     47  C   UNL A   1      41.789  28.785  30.695  1.00  0.00     0.031 A 
ATOM     48  C   UNL A   1      40.611  29.719  30.647  1.00  0.00     0.074 A 
ATOM     49  C   UNL A   1      42.556  28.682  31.790  1.00  0.00     0.049 A 
ATOM     50  N   UNL A   1      40.167  30.536  31.564  1.00  0.00    -0.248 NA
ATOM     51  C   UNL A   1      39.825  29.726  29.401  1.00  0.00     0.031 C 
ATOM     52  C   UNL A   1      43.680  27.760  31.951  1.00  0.00     0.029 A 
ATOM     53  N   UNL A   1      42.488  29.347  32.984  1.00  0.00    -0.354 N 
ATOM     54  C   UNL A   1      39.054  31.156  31.005  1.00  0.00     0.074 A 
ATOM     55  C   UNL A   1      38.915  30.651  29.659  1.00  0.00     0.031 C 
ATOM     56  C   UNL A   1      44.191  27.911  33.184  1.00  0.00     0.029 A 
ATOM     57  C   UNL A   1      43.450  28.958  33.881  1.00  0.00     0.049 A 
ATOM     58  H   UNL A   1      41.813  30.037  33.180  1.00  0.00     0.167 HD
ATOM     59  C   UNL A   1      38.220  32.058  31.571  1.00  0.00     0.031 A 
ATOM     60  C   UNL A   1      43.702  29.409  35.124  1.00  0.00     0.031 A 
ATOM     61  C   UNL A   1      38.389  32.568  32.906  1.00  0.00     0.049 A 
ATOM     62  C   UNL A   1      42.805  30.470  35.704  1.00  0.00     0.074 A 
ATOM     63  C   UNL A   1      37.612  33.490  33.583  1.00  0.00     0.029 A 
ATOM     64  N   UNL A   1      39.417  32.203  33.765  1.00  0.00    -0.354 N 
ATOM     65  N   UNL A   1      41.751  31.045  35.171  1.00  0.00    -0.248 NA
ATOM     66  C   UNL A   1      43.122  30.927  37.062  1.00  0.00     0.031 C 
ATOM     67  C   UNL A   1      38.208  33.730  34.826  1.00  0.00     0.029 A 
ATOM     68  C   UNL A   1      39.311  32.900  34.955  1.00  0.00     0.049 A 
ATOM     69  H   UNL A   1      40.118  31.543  33.558  1.00  0.00     0.167 HD
ATOM     70  C   UNL A   1      41.262  31.913  36.141  1.00  0.00     0.074 A 
ATOM     71  C   UNL A   1      42.122  31.765  37.299  1.00  0.00     0.031 C 
ATOM     72  C   UNL A   1      40.196  32.753  36.085  1.00  0.00     0.031 A 
BRANCH  59  73
ATOM     73  C   UNL A   1      37.088  32.583  30.724  1.00  0.00    -0.014 A 
ATOM     74  C   UNL A   1      37.267  33.664  29.840  1.00  0.00     0.010 A 
ATOM     75  C   UNL A   1      35.820  31.979  30.811  1.00  0.00     0.010 A 
ATOM     76  C   UNL A   1      36.191  34.156  29.093  1.00  0.00     0.020 A 
ATOM     77  C   UNL A   1      34.751  32.446  30.042  1.00  0.00     0.020 A 
ATOM     78  C   UNL A   1      34.939  33.544  29.201  1.00  0.00     0.054 A 
BRANCH  78  79
ATOM     79  S   UNL A   1      33.566  34.193  28.211  1.00  0.00     0.124 S 
ATOM     80  O   UNL A   1      32.774  34.898  29.217  1.00  0.00    -0.237 OA
ATOM     81  O   UNL A   1      34.246  35.043  27.238  1.00  0.00    -0.237 OA
ATOM     82  O   UNL A   1      32.940  32.995  27.656  1.00  0.00    -0.744 OA
ENDBRANCH  78  79
ENDBRANCH  59  73
BRANCH  60  83
ATOM     83  C   UNL A   1      44.848  28.855  35.894  1.00  0.00    -0.014 A 
ATOM     84  C   UNL A   1      44.683  27.735  36.727  1.00  0.00     0.010 A 
ATOM     85  C   UNL A   1      46.122  29.442  35.782  1.00  0.00     0.010 A 
ATOM     86  C   UNL A   1      45.768  27.221  37.444  1.00  0.00     0.020 A 
ATOM     87  C   UNL A   1      47.216  28.912  36.471  1.00  0.00     0.020 A 
ATOM     88  C   UNL A   1      47.029  27.810  37.306  1.00  0.00     0.054 A 
BRANCH  88  89
ATOM     89  S   UNL A   1      48.432  27.089  38.201  1.00  0.00     0.124 S 
ATOM     90  O   UNL A   1      49.423  26.936  37.140  1.00  0.00    -0.237 OA
ATOM     91  O   UNL A   1      48.726  28.112  39.200  1.00  0.00    -0.237 OA
ATOM     92  O   UNL A   1      47.891  25.842  38.737  1.00  0.00    -0.744 OA
ENDBRANCH  88  89
ENDBRANCH  60  83
BRANCH  72  93
ATOM     93  C   UNL A   1      39.890  33.548  37.330  1.00  0.00    -0.014 A 
ATOM     94  C   UNL A   1      39.160  32.991  38.396  1.00  0.00     0.010 A 
ATOM     95  C   UNL A   1      40.343  34.876  37.431  1.00  0.00     0.010 A 
ATOM     96  C   UNL A   1      38.827  33.771  39.506  1.00  0.00     0.020 A 
ATOM     97  C   UNL A   1      40.046  35.646  38.556  1.00  0.00     0.020 A 
ATOM     98  C   UNL A   1      39.265  35.097  39.575  1.00  0.00     0.054 A 
BRANCH  98  99
ATOM     99  S   UNL A   1      38.804  36.095  41.016  1.00  0.00     0.124 S 
ATOM    100  O   UNL A   1      40.031  36.069  41.808  1.00  0.00    -0.237 OA
ATOM    101  O   UNL A   1      38.468  37.385  40.419  1.00  0.00    -0.237 OA
ATOM    102  O   UNL A   1      37.675  35.369  41.593  1.00  0.00    -0.744 OA
ENDBRANCH  98  99
ENDBRANCH  72  93
ENDBRANCH  46  47
ENDBRANCH  39  41
ENDBRANCH  38  39
ENDBRANCH  37  38
ENDBRANCH  36  37
ENDBRANCH  35  36
ENDBRANCH  34  35
ENDBRANCH  33  34
ENDBRANCH   1  33
TORSDOF 26
ENDMDL
MODEL 3
REMARK VINA RESULT:      -8.5      5.448     11.451
REMARK SMILES CC(C)c1ccc(-c2cnc([C@@H]3[NH2+][C@H](C(=O)OCCOCCOCCOCCOC(=O)c4ccc(-c5c6nc(c(-c7ccc(S(=O)(=O)[O-])cc7)c7ccc([nH]7)c(-c7ccc(S(=O)(=O)[O-])cc7)c7nc(c(-c8ccc(S(=O)(=O)[O-])cc8)c8ccc5[nH]8)C=C7)C=C6)cc4)C(C)(C)S3)s2)cc1
REMARK SMILES IDX 23 1 22 2 21 3 20 4 19 5 18 6 17 7 15 8 16 9 14 10 12 11
REMARK SMILES IDX 13 12 95 13 92 16 93 17 94 18 11 19 8 20 9 21 96 22 10 23
REMARK SMILES IDX 7 24 4 25 5 26 98 27 6 28 97 29 2 30 1 31 3 32 24 33 25 34
REMARK SMILES IDX 26 35 27 36 28 37 29 38 30 39 31 40 32 41 33 42 91 43 34 44
REMARK SMILES IDX 90 45 35 46 36 47 37 48 84 49 38 50 89 51 83 52 85 53 39 54
REMARK SMILES IDX 88 55 82 56 81 57 40 59 70 60 51 61 69 62 52 63 55 64 68 65
REMARK SMILES IDX 86 66 53 67 54 68 67 70 87 71 56 72 41 73 42 74 50 75 43 76
REMARK SMILES IDX 49 77 44 78 45 79 46 80 47 81 48 82 71 83 72 84 80 85 73 86
REMARK SMILES IDX 79 87 74 88 75 89 76 90 77 91 78 92 57 93 58 94 66 95 59 96
REMARK SMILES IDX 65 97 60 98 61 99 62 100 63 101 64 102
REMARK H PARENT 13 14 13 15 85 58 55 69
REMARK Flexibility Score: inf
ROOT
ATOM      1  O   UNL A   1      34.648  24.962  25.006  1.00  0.00    -0.377 OA
ENDROOT
BRANCH   1   2
ATOM      2  C   UNL A   1      33.292  25.339  25.154  1.00  0.00     0.188 C 
BRANCH   2   3
ATOM      3  C   UNL A   1      33.069  26.804  25.444  1.00  0.00     0.188 C 
BRANCH   3   4
ATOM      4  O   UNL A   1      33.930  27.436  26.373  1.00  0.00    -0.376 OA
BRANCH   4   5
ATOM      5  C   UNL A   1      33.376  28.519  27.122  1.00  0.00     0.202 C 
BRANCH   5   6
ATOM      6  C   UNL A   1      34.275  29.679  27.610  1.00  0.00     0.261 C 
BRANCH   6   7
ATOM      7  O   UNL A   1      33.639  30.977  27.738  1.00  0.00    -0.459 OA
BRANCH   7   8
ATOM      8  C   UNL A   1      34.494  31.992  28.037  1.00  0.00     0.366 C 
ATOM      9  O   UNL A   1      35.475  32.261  27.340  1.00  0.00    -0.245 OA
BRANCH   8  10
ATOM     10  C   UNL A   1      34.222  32.790  29.352  1.00  0.00     0.310 C 
ATOM     11  C   UNL A   1      35.896  32.107  30.989  1.00  0.00     0.304 C 
ATOM     12  N   UNL A   1      34.505  31.892  30.534  1.00  0.00    -0.317 N 
ATOM     13  S   UNL A   1      36.343  33.824  30.574  1.00  0.00    -0.079 SA
ATOM     14  H   UNL A   1      33.860  32.114  31.293  1.00  0.00     0.348 HD
ATOM     15  H   UNL A   1      34.382  30.918  30.260  1.00  0.00     0.348 HD
ATOM     16  C   UNL A   1      34.764  34.190  29.725  1.00  0.00     0.079 C 
ATOM     17  C   UNL A   1      33.874  34.853  30.813  1.00  0.00     0.030 C 
ATOM     18  C   UNL A   1      34.880  35.224  28.604  1.00  0.00     0.030 C 
BRANCH  11  19
ATOM     19  C   UNL A   1      36.899  31.102  30.433  1.00  0.00     0.162 A 
ATOM     20  C   UNL A   1      38.685  29.961  29.216  1.00  0.00     0.055 A 
ATOM     21  C   UNL A   1      37.843  29.156  29.952  1.00  0.00     0.132 A 
ATOM     22  S   UNL A   1      38.190  31.595  29.376  1.00  0.00    -0.112 S 
ATOM     23  N   UNL A   1      36.879  29.809  30.683  1.00  0.00    -0.242 NA
BRANCH  20  24
ATOM     24  C   UNL A   1      39.875  29.537  28.488  1.00  0.00    -0.007 A 
ATOM     25  C   UNL A   1      42.248  28.440  27.374  1.00  0.00    -0.045 A 
ATOM     26  C   UNL A   1      42.286  29.251  28.521  1.00  0.00     0.004 A 
ATOM     27  C   UNL A   1      40.993  28.188  26.798  1.00  0.00     0.004 A 
ATOM     28  C   UNL A   1      41.122  29.799  29.061  1.00  0.00     0.010 A 
ATOM     29  C   UNL A   1      39.816  28.729  27.350  1.00  0.00     0.010 A 
BRANCH  25  30
ATOM     30  C   UNL A   1      43.558  27.855  26.856  1.00  0.00     0.013 C 
ATOM     31  C   UNL A   1      43.666  27.702  25.334  1.00  0.00     0.012 C 
ATOM     32  C   UNL A   1      44.760  28.669  27.357  1.00  0.00     0.012 C 
ENDBRANCH  25  30
ENDBRANCH  20  24
ENDBRANCH  11  19
ENDBRANCH   8  10
ENDBRANCH   7   8
ENDBRANCH   6   7
ENDBRANCH   5   6
ENDBRANCH   4   5
ENDBRANCH   3   4
ENDBRANCH   2   3
ENDBRANCH   1   2
BRANCH   1  33
ATOM     33  C   UNL A   1      34.943  23.877  24.134  1.00  0.00     0.188 C 
BRANCH  33  34
ATOM     34  C   UNL A   1      36.211  23.069  24.418  1.00  0.00     0.188 C 
BRANCH  34  35
ATOM     35  O   UNL A   1      37.292  23.686  25.131  1.00  0.00    -0.376 OA
BRANCH  35  36
ATOM     36  C   UNL A   1      37.931  23.005  26.208  1.00  0.00     0.202 C 
BRANCH  36  37
ATOM     37  C   UNL A   1      38.913  21.919  25.778  1.00  0.00     0.261 C 
BRANCH  37  38
ATOM     38  O   UNL A   1      39.989  21.786  26.714  1.00  0.00    -0.460 OA
BRANCH  38  39
ATOM     39  C   UNL A   1      41.103  21.216  26.204  1.00  0.00     0.338 C 
ATOM     40  O   UNL A   1      41.192  20.141  25.629  1.00  0.00    -0.246 OA
BRANCH  39  41
ATOM     41  C   UNL A   1      42.218  22.171  26.295  1.00  0.00     0.060 A 
ATOM     42  C   UNL A   1      43.491  21.669  26.596  1.00  0.00     0.016 A 
ATOM     43  C   UNL A   1      42.006  23.545  26.148  1.00  0.00     0.016 A 
ATOM     44  C   UNL A   1      44.543  22.541  26.819  1.00  0.00     0.010 A 
ATOM     45  C   UNL A   1      43.057  24.424  26.399  1.00  0.00     0.010 A 
ATOM     46  C   UNL A   1      44.308  23.920  26.791  1.00  0.00    -0.014 A 
BRANCH  46  47
ATOM     47  C   UNL A   1      45.314  24.801  27.413  1.00  0.00     0.031 A 
ATOM     48  C   UNL A   1      46.403  25.359  26.539  1.00  0.00     0.074 A 
ATOM     49  C   UNL A   1      45.191  25.169  28.697  1.00  0.00     0.049 A 
ATOM     50  N   UNL A   1      47.350  26.208  26.838  1.00  0.00    -0.248 NA
ATOM     51  C   UNL A   1      46.423  24.903  25.138  1.00  0.00     0.031 C 
ATOM     52  C   UNL A   1      44.131  24.730  29.604  1.00  0.00     0.029 A 
ATOM     53  N   UNL A   1      45.956  26.016  29.452  1.00  0.00    -0.354 N 
ATOM     54  C   UNL A   1      48.078  26.384  25.665  1.00  0.00     0.074 A 
ATOM     55  C   UNL A   1      47.489  25.527  24.663  1.00  0.00     0.031 C 
ATOM     56  C   UNL A   1      44.308  25.324  30.796  1.00  0.00     0.029 A 
ATOM     57  C   UNL A   1      45.507  26.156  30.741  1.00  0.00     0.049 A 
ATOM     58  H   UNL A   1      46.752  26.481  29.104  1.00  0.00     0.167 HD
ATOM     59  C   UNL A   1      49.137  27.197  25.445  1.00  0.00     0.031 A 
ATOM     60  C   UNL A   1      46.017  26.872  31.759  1.00  0.00     0.031 A 
ATOM     61  C   UNL A   1      49.726  28.027  26.464  1.00  0.00     0.049 A 
ATOM     62  C   UNL A   1      47.243  27.710  31.510  1.00  0.00     0.074 A 
ATOM     63  C   UNL A   1      50.805  28.886  26.360  1.00  0.00     0.029 A 
ATOM     64  N   UNL A   1      49.286  28.092  27.779  1.00  0.00    -0.354 N 
ATOM     65  N   UNL A   1      47.919  27.876  30.397  1.00  0.00    -0.248 NA
ATOM     66  C   UNL A   1      47.760  28.473  32.652  1.00  0.00     0.031 C 
ATOM     67  C   UNL A   1      51.057  29.419  27.629  1.00  0.00     0.029 A 
ATOM     68  C   UNL A   1      50.088  28.955  28.505  1.00  0.00     0.049 A 
ATOM     69  H   UNL A   1      48.516  27.597  28.142  1.00  0.00     0.167 HD
ATOM     70  C   UNL A   1      48.927  28.786  30.699  1.00  0.00     0.074 A 
ATOM     71  C   UNL A   1      48.751  29.149  32.092  1.00  0.00     0.031 C 
ATOM     72  C   UNL A   1      49.907  29.281  29.899  1.00  0.00     0.031 A 
BRANCH  59  73
ATOM     73  C   UNL A   1      49.749  27.182  24.068  1.00  0.00    -0.014 A 
ATOM     74  C   UNL A   1      51.070  26.744  23.852  1.00  0.00     0.010 A 
ATOM     75  C   UNL A   1      48.986  27.609  22.966  1.00  0.00     0.010 A 
ATOM     76  C   UNL A   1      51.627  26.776  22.570  1.00  0.00     0.020 A 
ATOM     77  C   UNL A   1      49.529  27.611  21.678  1.00  0.00     0.020 A 
ATOM     78  C   UNL A   1      50.853  27.211  21.491  1.00  0.00     0.054 A 
BRANCH  78  79
ATOM     79  S   UNL A   1      51.595  27.227  19.837  1.00  0.00     0.124 S 
ATOM     80  O   UNL A   1      50.639  26.434  19.068  1.00  0.00    -0.237 OA
ATOM     81  O   UNL A   1      51.631  28.652  19.516  1.00  0.00    -0.237 OA
ATOM     82  O   UNL A   1      52.902  26.604  20.035  1.00  0.00    -0.744 OA
ENDBRANCH  78  79
ENDBRANCH  59  73
BRANCH  60  83
ATOM     83  C   UNL A   1      45.367  26.825  33.096  1.00  0.00    -0.014 A 
ATOM     84  C   UNL A   1      44.292  27.676  33.406  1.00  0.00     0.010 A 
ATOM     85  C   UNL A   1      45.815  25.909  34.066  1.00  0.00     0.010 A 
ATOM     86  C   UNL A   1      43.687  27.620  34.666  1.00  0.00     0.020 A 
ATOM     87  C   UNL A   1      45.193  25.828  35.314  1.00  0.00     0.020 A 
ATOM     88  C   UNL A   1      44.138  26.692  35.609  1.00  0.00     0.054 A 
BRANCH  88  89
ATOM     89  S   UNL A   1      43.298  26.600  37.214  1.00  0.00     0.124 S 
ATOM     90  O   UNL A   1      44.250  27.268  38.094  1.00  0.00    -0.237 OA
ATOM     91  O   UNL A   1      42.054  27.322  36.959  1.00  0.00    -0.237 OA
ATOM     92  O   UNL A   1      43.142  25.164  37.436  1.00  0.00    -0.744 OA
ENDBRANCH  88  89
ENDBRANCH  60  83
BRANCH  72  93
ATOM     93  C   UNL A   1      50.839  30.296  30.513  1.00  0.00    -0.014 A 
ATOM     94  C   UNL A   1      50.619  31.678  30.367  1.00  0.00     0.010 A 
ATOM     95  C   UNL A   1      51.953  29.854  31.249  1.00  0.00     0.010 A 
ATOM     96  C   UNL A   1      51.537  32.596  30.883  1.00  0.00     0.020 A 
ATOM     97  C   UNL A   1      52.851  30.770  31.800  1.00  0.00     0.020 A 
ATOM     98  C   UNL A   1      52.653  32.135  31.589  1.00  0.00     0.054 A 
BRANCH  98  99
ATOM     99  S   UNL A   1      53.839  33.345  32.233  1.00  0.00     0.124 S 
ATOM    100  O   UNL A   1      53.342  33.567  33.588  1.00  0.00    -0.237 OA
ATOM    101  O   UNL A   1      55.110  32.630  32.139  1.00  0.00    -0.237 OA
ATOM    102  O   UNL A   1      53.702  34.481  31.324  1.00  0.00    -0.744 OA
ENDBRANCH  98  99
ENDBRANCH  72  93
ENDBRANCH  46  47
ENDBRANCH  39  41
ENDBRANCH  38  39
ENDBRANCH  37  38
ENDBRANCH  36  37
ENDBRANCH  35  36
ENDBRANCH  34  35
ENDBRANCH  33  34
ENDBRANCH   1  33
TORSDOF 26
ENDMDL
