MODEL 1
REMARK VINA RESULT:      -9.1      0.000      0.000
REMARK SMILES C[N@@H+]1CCN(C(=O)c2cc(-n3cccn3)ccc2Cl)C[C@H]1C(=O)OCCOCCOCCOCCOC(=O)c1ccc(-c2c3nc(c(-c4ccc(S(=O)(=O)[O-])cc4)c4ccc([nH]4)c(-c4ccc(S(=O)(=O)[O-])cc4)c4nc(c(-c5ccc(S(=O)(=O)[O-])cc5)c5ccc2[nH]5)C=C4)C=C3)cc1
REMARK SMILES IDX 30 1 29 2 28 3 27 4 26 5 25 6 24 7 22 8 23 9 21 10 1 11 2 12
REMARK SMILES IDX 3 13 4 15 20 16 5 17 6 18 7 19 8 20 9 21 18 22 10 23 17 24
REMARK SMILES IDX 19 25 16 26 11 27 12 28 15 29 13 30 14 31 31 32 32 33 33 34
REMARK SMILES IDX 34 35 35 36 36 37 37 38 38 39 39 40 40 41 98 42 41 43 97 44
REMARK SMILES IDX 42 45 43 46 44 47 91 48 45 49 96 50 90 51 92 52 46 53 95 54
REMARK SMILES IDX 89 55 88 56 47 58 77 59 58 60 76 61 59 62 62 63 75 64 93 65
REMARK SMILES IDX 60 66 61 67 74 69 94 70 63 71 48 72 49 73 57 74 50 75 56 76
REMARK SMILES IDX 51 77 52 78 53 79 54 80 55 81 78 82 79 83 87 84 80 85 86 86
REMARK SMILES IDX 81 87 82 88 83 89 84 90 85 91 64 92 65 93 73 94 66 95 72 96
REMARK SMILES IDX 67 97 68 98 69 99 70 100 71 101
REMARK H PARENT 2 14 92 57 62 68
REMARK Flexibility Score: inf
ROOT
ATOM      1  O   UNL A   1      40.060  22.649  26.137  1.00  0.00    -0.377 OA
ENDROOT
BRANCH   1   2
ATOM      2  C   UNL A   1      39.326  23.546  26.961  1.00  0.00     0.188 C 
BRANCH   2   3
ATOM      3  C   UNL A   1      38.164  24.137  26.175  1.00  0.00     0.188 C 
BRANCH   3   4
ATOM      4  O   UNL A   1      37.161  23.210  25.752  1.00  0.00    -0.376 OA
BRANCH   4   5
ATOM      5  C   UNL A   1      35.843  23.346  26.282  1.00  0.00     0.202 C 
BRANCH   5   6
ATOM      6  C   UNL A   1      35.039  22.060  26.539  1.00  0.00     0.261 C 
BRANCH   6   7
ATOM      7  O   UNL A   1      34.346  21.489  25.407  1.00  0.00    -0.459 OA
BRANCH   7   8
ATOM      8  C   UNL A   1      33.001  21.595  25.467  1.00  0.00     0.366 C 
ATOM      9  O   UNL A   1      32.300  20.845  26.155  1.00  0.00    -0.245 OA
BRANCH   8  10
ATOM     10  C   UNL A   1      32.321  22.631  24.587  1.00  0.00     0.314 C 
ATOM     11  C   UNL A   1      32.289  21.538  22.370  1.00  0.00     0.333 C 
ATOM     12  N   UNL A   1      31.519  22.273  23.369  1.00  0.00    -0.323 N 
ATOM     13  C   UNL A   1      31.049  23.554  22.746  1.00  0.00     0.284 C 
ATOM     14  H   UNL A   1      30.752  21.670  23.664  1.00  0.00     0.348 HD
ATOM     15  C   UNL A   1      30.252  24.468  23.708  1.00  0.00     0.181 C 
ATOM     16  C   UNL A   1      31.387  23.367  25.567  1.00  0.00     0.197 C 
ATOM     17  N   UNL A   1      30.952  24.629  24.980  1.00  0.00    -0.326 N 
BRANCH  17  18
ATOM     18  C   UNL A   1      31.266  25.883  25.474  1.00  0.00     0.255 C 
ATOM     19  O   UNL A   1      31.345  26.162  26.667  1.00  0.00    -0.269 OA
BRANCH  18  20
ATOM     20  C   UNL A   1      31.544  26.959  24.504  1.00  0.00     0.060 A 
ATOM     21  C   UNL A   1      30.517  27.872  24.231  1.00  0.00     0.043 A 
ATOM     22  C   UNL A   1      32.776  27.054  23.848  1.00  0.00     0.053 A 
ATOM     23  C   UNL A   1      30.712  28.858  23.255  1.00  0.00     0.065 A 
ATOM     24  C   UNL A   1      32.985  28.080  22.922  1.00  0.00     0.023 A 
ATOM     25  Cl  UNL A   1      34.069  25.946  24.126  1.00  0.00    -0.083 Cl
ATOM     26  C   UNL A   1      31.952  28.968  22.609  1.00  0.00     0.030 A 
BRANCH  23  27
ATOM     27  N   UNL A   1      29.640  29.719  22.908  1.00  0.00    -0.241 N 
ATOM     28  C   UNL A   1      29.159  30.789  23.633  1.00  0.00     0.115 A 
ATOM     29  N   UNL A   1      28.974  29.579  21.736  1.00  0.00    -0.177 NA
ATOM     30  C   UNL A   1      28.130  31.336  22.908  1.00  0.00     0.042 A 
ATOM     31  C   UNL A   1      28.038  30.528  21.765  1.00  0.00     0.135 A 
ENDBRANCH  23  27
ENDBRANCH  18  20
ENDBRANCH  17  18
ENDBRANCH   8  10
ENDBRANCH   7   8
ENDBRANCH   6   7
ENDBRANCH   5   6
ENDBRANCH   4   5
ENDBRANCH   3   4
ENDBRANCH   2   3
ENDBRANCH   1   2
BRANCH   1  32
ATOM     32  C   UNL A   1      39.931  21.243  26.341  1.00  0.00     0.188 C 
BRANCH  32  33
ATOM     33  C   UNL A   1      41.209  20.455  26.603  1.00  0.00     0.188 C 
BRANCH  33  34
ATOM     34  O   UNL A   1      42.249  20.586  25.627  1.00  0.00    -0.376 OA
BRANCH  34  35
ATOM     35  C   UNL A   1      43.502  21.148  26.017  1.00  0.00     0.202 C 
BRANCH  35  36
ATOM     36  C   UNL A   1      43.417  22.526  26.642  1.00  0.00     0.261 C 
BRANCH  36  37
ATOM     37  O   UNL A   1      44.597  22.778  27.393  1.00  0.00    -0.460 OA
BRANCH  37  38
ATOM     38  C   UNL A   1      45.618  23.294  26.675  1.00  0.00     0.338 C 
ATOM     39  O   UNL A   1      46.424  22.686  25.997  1.00  0.00    -0.246 OA
BRANCH  38  40
ATOM     40  C   UNL A   1      45.707  24.728  26.970  1.00  0.00     0.060 A 
ATOM     41  C   UNL A   1      45.868  25.037  28.318  1.00  0.00     0.016 A 
ATOM     42  C   UNL A   1      45.288  25.680  26.025  1.00  0.00     0.016 A 
ATOM     43  C   UNL A   1      45.329  26.215  28.767  1.00  0.00     0.010 A 
ATOM     44  C   UNL A   1      44.745  26.861  26.479  1.00  0.00     0.010 A 
ATOM     45  C   UNL A   1      44.679  27.055  27.853  1.00  0.00    -0.014 A 
BRANCH  45  46
ATOM     46  C   UNL A   1      43.898  28.123  28.430  1.00  0.00     0.031 A 
ATOM     47  C   UNL A   1      44.656  29.353  28.682  1.00  0.00     0.074 A 
ATOM     48  C   UNL A   1      42.606  27.995  28.769  1.00  0.00     0.049 A 
ATOM     49  N   UNL A   1      45.085  29.787  29.817  1.00  0.00    -0.248 NA
ATOM     50  C   UNL A   1      45.110  30.107  27.509  1.00  0.00     0.031 C 
ATOM     51  C   UNL A   1      41.646  26.974  28.347  1.00  0.00     0.029 A 
ATOM     52  N   UNL A   1      41.860  28.847  29.522  1.00  0.00    -0.354 N 
ATOM     53  C   UNL A   1      45.715  30.986  29.529  1.00  0.00     0.074 A 
ATOM     54  C   UNL A   1      45.842  31.055  28.092  1.00  0.00     0.031 C 
ATOM     55  C   UNL A   1      40.400  27.391  28.667  1.00  0.00     0.029 A 
ATOM     56  C   UNL A   1      40.498  28.623  29.436  1.00  0.00     0.049 A 
ATOM     57  H   UNL A   1      42.253  29.558  30.077  1.00  0.00     0.167 HD
ATOM     58  C   UNL A   1      45.890  31.950  30.469  1.00  0.00     0.031 A 
ATOM     59  C   UNL A   1      39.532  29.454  29.890  1.00  0.00     0.031 A 
ATOM     60  C   UNL A   1      45.665  31.474  31.806  1.00  0.00     0.049 A 
ATOM     61  C   UNL A   1      40.130  30.325  30.934  1.00  0.00     0.074 A 
ATOM     62  C   UNL A   1      46.267  30.542  32.626  1.00  0.00     0.029 A 
ATOM     63  N   UNL A   1      44.439  31.749  32.365  1.00  0.00    -0.354 N 
ATOM     64  N   UNL A   1      40.540  29.891  32.093  1.00  0.00    -0.248 NA
ATOM     65  C   UNL A   1      40.612  31.649  30.567  1.00  0.00     0.031 C 
ATOM     66  C   UNL A   1      45.222  30.009  33.432  1.00  0.00     0.029 A 
ATOM     67  C   UNL A   1      44.031  30.646  33.074  1.00  0.00     0.049 A 
ATOM     68  H   UNL A   1      43.940  32.592  32.273  1.00  0.00     0.167 HD
ATOM     69  C   UNL A   1      41.629  30.687  32.416  1.00  0.00     0.074 A 
ATOM     70  C   UNL A   1      41.539  31.828  31.513  1.00  0.00     0.031 C 
ATOM     71  C   UNL A   1      42.649  30.215  33.192  1.00  0.00     0.031 A 
BRANCH  58  72
ATOM     72  C   UNL A   1      45.889  33.408  30.118  1.00  0.00    -0.014 A 
ATOM     73  C   UNL A   1      47.091  34.033  29.747  1.00  0.00     0.010 A 
ATOM     74  C   UNL A   1      44.779  34.237  30.391  1.00  0.00     0.010 A 
ATOM     75  C   UNL A   1      47.181  35.429  29.678  1.00  0.00     0.020 A 
ATOM     76  C   UNL A   1      44.844  35.623  30.279  1.00  0.00     0.020 A 
ATOM     77  C   UNL A   1      46.058  36.212  29.956  1.00  0.00     0.054 A 
BRANCH  77  78
ATOM     78  S   UNL A   1      46.208  38.014  29.966  1.00  0.00     0.124 S 
ATOM     79  O   UNL A   1      46.916  38.260  28.715  1.00  0.00    -0.237 OA
ATOM     80  O   UNL A   1      44.812  38.443  30.003  1.00  0.00    -0.237 OA
ATOM     81  O   UNL A   1      46.968  38.286  31.184  1.00  0.00    -0.744 OA
ENDBRANCH  77  78
ENDBRANCH  58  72
BRANCH  59  82
ATOM     82  C   UNL A   1      38.250  29.758  29.214  1.00  0.00    -0.014 A 
ATOM     83  C   UNL A   1      38.181  29.870  27.815  1.00  0.00     0.010 A 
ATOM     84  C   UNL A   1      37.035  29.669  29.928  1.00  0.00     0.010 A 
ATOM     85  C   UNL A   1      36.945  29.826  27.151  1.00  0.00     0.020 A 
ATOM     86  C   UNL A   1      35.801  29.640  29.275  1.00  0.00     0.020 A 
ATOM     87  C   UNL A   1      35.764  29.691  27.886  1.00  0.00     0.054 A 
BRANCH  87  88
ATOM     88  S   UNL A   1      34.191  29.446  27.014  1.00  0.00     0.124 S 
ATOM     89  O   UNL A   1      34.625  28.850  25.754  1.00  0.00    -0.237 OA
ATOM     90  O   UNL A   1      33.464  28.559  27.917  1.00  0.00    -0.237 OA
ATOM     91  O   UNL A   1      33.644  30.798  26.906  1.00  0.00    -0.744 OA
ENDBRANCH  87  88
ENDBRANCH  59  82
BRANCH  71  92
ATOM     92  C   UNL A   1      42.391  28.987  34.038  1.00  0.00    -0.014 A 
ATOM     93  C   UNL A   1      42.760  27.684  33.652  1.00  0.00     0.010 A 
ATOM     94  C   UNL A   1      41.862  29.178  35.328  1.00  0.00     0.010 A 
ATOM     95  C   UNL A   1      42.575  26.599  34.522  1.00  0.00     0.020 A 
ATOM     96  C   UNL A   1      41.693  28.104  36.207  1.00  0.00     0.020 A 
ATOM     97  C   UNL A   1      42.041  26.817  35.795  1.00  0.00     0.054 A 
BRANCH  97  98
ATOM     98  S   UNL A   1      41.854  25.414  36.932  1.00  0.00     0.124 S 
ATOM     99  O   UNL A   1      43.144  25.388  37.616  1.00  0.00    -0.237 OA
ATOM    100  O   UNL A   1      40.713  25.812  37.754  1.00  0.00    -0.237 OA
ATOM    101  O   UNL A   1      41.601  24.279  36.045  1.00  0.00    -0.744 OA
ENDBRANCH  97  98
ENDBRANCH  71  92
ENDBRANCH  45  46
ENDBRANCH  38  40
ENDBRANCH  37  38
ENDBRANCH  36  37
ENDBRANCH  35  36
ENDBRANCH  34  35
ENDBRANCH  33  34
ENDBRANCH  32  33
ENDBRANCH   1  32
TORSDOF 26
ENDMDL
MODEL 2
REMARK VINA RESULT:      -8.8      2.429      7.484
REMARK SMILES C[N@@H+]1CCN(C(=O)c2cc(-n3cccn3)ccc2Cl)C[C@H]1C(=O)OCCOCCOCCOCCOC(=O)c1ccc(-c2c3nc(c(-c4ccc(S(=O)(=O)[O-])cc4)c4ccc([nH]4)c(-c4ccc(S(=O)(=O)[O-])cc4)c4nc(c(-c5ccc(S(=O)(=O)[O-])cc5)c5ccc2[nH]5)C=C4)C=C3)cc1
REMARK SMILES IDX 30 1 29 2 28 3 27 4 26 5 25 6 24 7 22 8 23 9 21 10 1 11 2 12
REMARK SMILES IDX 3 13 4 15 20 16 5 17 6 18 7 19 8 20 9 21 18 22 10 23 17 24
REMARK SMILES IDX 19 25 16 26 11 27 12 28 15 29 13 30 14 31 31 32 32 33 33 34
REMARK SMILES IDX 34 35 35 36 36 37 37 38 38 39 39 40 40 41 98 42 41 43 97 44
REMARK SMILES IDX 42 45 43 46 44 47 91 48 45 49 96 50 90 51 92 52 46 53 95 54
REMARK SMILES IDX 89 55 88 56 47 58 77 59 58 60 76 61 59 62 62 63 75 64 93 65
REMARK SMILES IDX 60 66 61 67 74 69 94 70 63 71 48 72 49 73 57 74 50 75 56 76
REMARK SMILES IDX 51 77 52 78 53 79 54 80 55 81 78 82 79 83 87 84 80 85 86 86
REMARK SMILES IDX 81 87 82 88 83 89 84 90 85 91 64 92 65 93 73 94 66 95 72 96
REMARK SMILES IDX 67 97 68 98 69 99 70 100 71 101
REMARK H PARENT 2 14 92 57 62 68
REMARK Flexibility Score: inf
ROOT
ATOM      1  O   UNL A   1      40.895  23.457  26.510  1.00  0.00    -0.377 OA
ENDROOT
BRANCH   1   2
ATOM      2  C   UNL A   1      39.742  23.474  27.341  1.00  0.00     0.188 C 
BRANCH   2   3
ATOM      3  C   UNL A   1      38.567  24.075  26.582  1.00  0.00     0.188 C 
BRANCH   3   4
ATOM      4  O   UNL A   1      38.050  23.288  25.506  1.00  0.00    -0.376 OA
BRANCH   4   5
ATOM      5  C   UNL A   1      37.638  21.950  25.781  1.00  0.00     0.202 C 
BRANCH   5   6
ATOM      6  C   UNL A   1      36.177  21.574  25.475  1.00  0.00     0.261 C 
BRANCH   6   7
ATOM      7  O   UNL A   1      35.164  22.524  25.870  1.00  0.00    -0.459 OA
BRANCH   7   8
ATOM      8  C   UNL A   1      34.033  22.470  25.135  1.00  0.00     0.366 C 
ATOM      9  O   UNL A   1      33.879  21.676  24.200  1.00  0.00    -0.245 OA
BRANCH   8  10
ATOM     10  C   UNL A   1      32.939  23.484  25.423  1.00  0.00     0.314 C 
ATOM     11  C   UNL A   1      30.953  22.062  25.807  1.00  0.00     0.333 C 
ATOM     12  N   UNL A   1      31.750  23.185  26.291  1.00  0.00    -0.323 N 
ATOM     13  C   UNL A   1      30.879  24.406  26.300  1.00  0.00     0.284 C 
ATOM     14  H   UNL A   1      32.094  22.936  27.218  1.00  0.00     0.348 HD
ATOM     15  C   UNL A   1      31.606  25.696  26.749  1.00  0.00     0.181 C 
ATOM     16  C   UNL A   1      33.705  24.659  26.061  1.00  0.00     0.197 C 
ATOM     17  N   UNL A   1      32.875  25.857  26.043  1.00  0.00    -0.326 N 
BRANCH  17  18
ATOM     18  C   UNL A   1      33.160  27.008  25.329  1.00  0.00     0.255 C 
ATOM     19  O   UNL A   1      34.032  27.817  25.631  1.00  0.00    -0.269 OA
BRANCH  18  20
ATOM     20  C   UNL A   1      32.374  27.277  24.110  1.00  0.00     0.060 A 
ATOM     21  C   UNL A   1      31.331  28.208  24.198  1.00  0.00     0.043 A 
ATOM     22  C   UNL A   1      32.632  26.607  22.909  1.00  0.00     0.053 A 
ATOM     23  C   UNL A   1      30.509  28.431  23.085  1.00  0.00     0.065 A 
ATOM     24  C   UNL A   1      31.848  26.882  21.786  1.00  0.00     0.023 A 
ATOM     25  Cl  UNL A   1      33.887  25.434  22.747  1.00  0.00    -0.083 Cl
ATOM     26  C   UNL A   1      30.776  27.775  21.875  1.00  0.00     0.030 A 
BRANCH  23  27
ATOM     27  N   UNL A   1      29.393  29.299  23.203  1.00  0.00    -0.241 N 
ATOM     28  C   UNL A   1      29.392  30.601  23.657  1.00  0.00     0.115 A 
ATOM     29  N   UNL A   1      28.154  28.909  22.818  1.00  0.00    -0.177 NA
ATOM     30  C   UNL A   1      28.097  31.051  23.585  1.00  0.00     0.042 A 
ATOM     31  C   UNL A   1      27.372  29.954  23.094  1.00  0.00     0.135 A 
ENDBRANCH  23  27
ENDBRANCH  18  20
ENDBRANCH  17  18
ENDBRANCH   8  10
ENDBRANCH   7   8
ENDBRANCH   6   7
ENDBRANCH   5   6
ENDBRANCH   4   5
ENDBRANCH   3   4
ENDBRANCH   2   3
ENDBRANCH   1   2
BRANCH   1  32
ATOM     32  C   UNL A   1      41.390  22.212  26.019  1.00  0.00     0.188 C 
BRANCH  32  33
ATOM     33  C   UNL A   1      42.887  22.110  25.754  1.00  0.00     0.188 C 
BRANCH  33  34
ATOM     34  O   UNL A   1      43.349  22.639  24.506  1.00  0.00    -0.376 OA
BRANCH  34  35
ATOM     35  C   UNL A   1      44.372  23.636  24.508  1.00  0.00     0.202 C 
BRANCH  35  36
ATOM     36  C   UNL A   1      44.391  24.528  25.733  1.00  0.00     0.261 C 
BRANCH  36  37
ATOM     37  O   UNL A   1      44.342  25.889  25.328  1.00  0.00    -0.460 OA
BRANCH  37  38
ATOM     38  C   UNL A   1      43.109  26.440  25.366  1.00  0.00     0.338 C 
ATOM     39  O   UNL A   1      42.092  26.008  24.858  1.00  0.00    -0.246 OA
BRANCH  38  40
ATOM     40  C   UNL A   1      43.217  27.759  25.996  1.00  0.00     0.060 A 
ATOM     41  C   UNL A   1      44.318  27.919  26.833  1.00  0.00     0.016 A 
ATOM     42  C   UNL A   1      42.110  28.624  26.038  1.00  0.00     0.016 A 
ATOM     43  C   UNL A   1      44.183  28.761  27.907  1.00  0.00     0.010 A 
ATOM     44  C   UNL A   1      41.974  29.466  27.118  1.00  0.00     0.010 A 
ATOM     45  C   UNL A   1      42.968  29.435  28.089  1.00  0.00    -0.014 A 
BRANCH  45  46
ATOM     46  C   UNL A   1      42.793  30.073  29.371  1.00  0.00     0.031 A 
ATOM     47  C   UNL A   1      42.656  29.140  30.495  1.00  0.00     0.074 A 
ATOM     48  C   UNL A   1      42.700  31.403  29.530  1.00  0.00     0.049 A 
ATOM     49  N   UNL A   1      41.574  28.820  31.117  1.00  0.00    -0.248 NA
ATOM     50  C   UNL A   1      43.846  28.366  30.865  1.00  0.00     0.031 C 
ATOM     51  C   UNL A   1      43.083  32.464  28.598  1.00  0.00     0.029 A 
ATOM     52  N   UNL A   1      42.304  32.078  30.642  1.00  0.00    -0.354 N 
ATOM     53  C   UNL A   1      41.973  27.930  32.100  1.00  0.00     0.074 A 
ATOM     54  C   UNL A   1      43.339  27.566  31.802  1.00  0.00     0.031 C 
ATOM     55  C   UNL A   1      43.112  33.640  29.267  1.00  0.00     0.029 A 
ATOM     56  C   UNL A   1      42.611  33.426  30.617  1.00  0.00     0.049 A 
ATOM     57  H   UNL A   1      41.842  31.647  31.397  1.00  0.00     0.167 HD
ATOM     58  C   UNL A   1      41.239  27.722  33.222  1.00  0.00     0.031 A 
ATOM     59  C   UNL A   1      42.542  34.271  31.671  1.00  0.00     0.031 A 
ATOM     60  C   UNL A   1      39.904  28.245  33.122  1.00  0.00     0.049 A 
ATOM     61  C   UNL A   1      41.604  33.688  32.664  1.00  0.00     0.074 A 
ATOM     62  C   UNL A   1      38.806  27.975  32.332  1.00  0.00     0.029 A 
ATOM     63  N   UNL A   1      39.671  29.467  33.708  1.00  0.00    -0.354 N 
ATOM     64  N   UNL A   1      40.322  33.560  32.464  1.00  0.00    -0.248 NA
ATOM     65  C   UNL A   1      42.134  32.904  33.771  1.00  0.00     0.031 C 
ATOM     66  C   UNL A   1      38.131  29.220  32.176  1.00  0.00     0.029 A 
ATOM     67  C   UNL A   1      38.844  30.190  32.884  1.00  0.00     0.049 A 
ATOM     68  H   UNL A   1      40.033  29.771  34.571  1.00  0.00     0.167 HD
ATOM     69  C   UNL A   1      39.961  32.402  33.136  1.00  0.00     0.074 A 
ATOM     70  C   UNL A   1      41.081  32.123  34.026  1.00  0.00     0.031 C 
ATOM     71  C   UNL A   1      38.916  31.630  32.713  1.00  0.00     0.031 A 
BRANCH  58  72
ATOM     72  C   UNL A   1      41.878  27.382  34.536  1.00  0.00    -0.014 A 
ATOM     73  C   UNL A   1      42.511  28.390  35.281  1.00  0.00     0.010 A 
ATOM     74  C   UNL A   1      42.090  26.044  34.934  1.00  0.00     0.010 A 
ATOM     75  C   UNL A   1      43.342  28.067  36.361  1.00  0.00     0.020 A 
ATOM     76  C   UNL A   1      42.874  25.715  36.035  1.00  0.00     0.020 A 
ATOM     77  C   UNL A   1      43.524  26.730  36.722  1.00  0.00     0.054 A 
BRANCH  77  78
ATOM     78  S   UNL A   1      44.678  26.314  38.051  1.00  0.00     0.124 S 
ATOM     79  O   UNL A   1      45.958  26.692  37.462  1.00  0.00    -0.237 OA
ATOM     80  O   UNL A   1      44.208  27.156  39.147  1.00  0.00    -0.237 OA
ATOM     81  O   UNL A   1      44.473  24.880  38.244  1.00  0.00    -0.744 OA
ENDBRANCH  77  78
ENDBRANCH  58  72
BRANCH  59  82
ATOM     82  C   UNL A   1      43.508  35.345  31.999  1.00  0.00    -0.014 A 
ATOM     83  C   UNL A   1      43.622  36.484  31.184  1.00  0.00     0.010 A 
ATOM     84  C   UNL A   1      44.127  35.377  33.267  1.00  0.00     0.010 A 
ATOM     85  C   UNL A   1      44.274  37.637  31.650  1.00  0.00     0.020 A 
ATOM     86  C   UNL A   1      44.790  36.515  33.732  1.00  0.00     0.020 A 
ATOM     87  C   UNL A   1      44.837  37.650  32.929  1.00  0.00     0.054 A 
BRANCH  87  88
ATOM     88  S   UNL A   1      45.511  39.199  33.594  1.00  0.00     0.124 S 
ATOM     89  O   UNL A   1      44.303  39.977  33.852  1.00  0.00    -0.237 OA
ATOM     90  O   UNL A   1      46.237  38.745  34.777  1.00  0.00    -0.237 OA
ATOM     91  O   UNL A   1      46.354  39.701  32.510  1.00  0.00    -0.744 OA
ENDBRANCH  87  88
ENDBRANCH  59  82
BRANCH  71  92
ATOM     92  C   UNL A   1      37.903  32.255  31.778  1.00  0.00    -0.014 A 
ATOM     93  C   UNL A   1      37.742  31.870  30.434  1.00  0.00     0.010 A 
ATOM     94  C   UNL A   1      36.996  33.184  32.321  1.00  0.00     0.010 A 
ATOM     95  C   UNL A   1      36.723  32.425  29.646  1.00  0.00     0.020 A 
ATOM     96  C   UNL A   1      35.965  33.726  31.546  1.00  0.00     0.020 A 
ATOM     97  C   UNL A   1      35.840  33.351  30.208  1.00  0.00     0.054 A 
BRANCH  97  98
ATOM     98  S   UNL A   1      34.492  34.023  29.195  1.00  0.00     0.124 S 
ATOM     99  O   UNL A   1      35.111  35.197  28.585  1.00  0.00    -0.237 OA
ATOM    100  O   UNL A   1      34.192  32.923  28.282  1.00  0.00    -0.237 OA
ATOM    101  O   UNL A   1      33.439  34.314  30.168  1.00  0.00    -0.744 OA
ENDBRANCH  97  98
ENDBRANCH  71  92
ENDBRANCH  45  46
ENDBRANCH  38  40
ENDBRANCH  37  38
ENDBRANCH  36  37
ENDBRANCH  35  36
ENDBRANCH  34  35
ENDBRANCH  33  34
ENDBRANCH  32  33
ENDBRANCH   1  32
TORSDOF 26
ENDMDL
MODEL 3
REMARK VINA RESULT:      -8.6      2.128      2.724
REMARK SMILES C[N@@H+]1CCN(C(=O)c2cc(-n3cccn3)ccc2Cl)C[C@H]1C(=O)OCCOCCOCCOCCOC(=O)c1ccc(-c2c3nc(c(-c4ccc(S(=O)(=O)[O-])cc4)c4ccc([nH]4)c(-c4ccc(S(=O)(=O)[O-])cc4)c4nc(c(-c5ccc(S(=O)(=O)[O-])cc5)c5ccc2[nH]5)C=C4)C=C3)cc1
REMARK SMILES IDX 30 1 29 2 28 3 27 4 26 5 25 6 24 7 22 8 23 9 21 10 1 11 2 12
REMARK SMILES IDX 3 13 4 15 20 16 5 17 6 18 7 19 8 20 9 21 18 22 10 23 17 24
REMARK SMILES IDX 19 25 16 26 11 27 12 28 15 29 13 30 14 31 31 32 32 33 33 34
REMARK SMILES IDX 34 35 35 36 36 37 37 38 38 39 39 40 40 41 98 42 41 43 97 44
REMARK SMILES IDX 42 45 43 46 44 47 91 48 45 49 96 50 90 51 92 52 46 53 95 54
REMARK SMILES IDX 89 55 88 56 47 58 77 59 58 60 76 61 59 62 62 63 75 64 93 65
REMARK SMILES IDX 60 66 61 67 74 69 94 70 63 71 48 72 49 73 57 74 50 75 56 76
REMARK SMILES IDX 51 77 52 78 53 79 54 80 55 81 78 82 79 83 87 84 80 85 86 86
REMARK SMILES IDX 81 87 82 88 83 89 84 90 85 91 64 92 65 93 73 94 66 95 72 96
REMARK SMILES IDX 67 97 68 98 69 99 70 100 71 101
REMARK H PARENT 2 14 92 57 62 68
REMARK Flexibility Score: inf
ROOT
ATOM      1  O   UNL A   1      41.556  23.458  26.970  1.00  0.00    -0.377 OA
ENDROOT
BRANCH   1   2
ATOM      2  C   UNL A   1      40.401  23.382  27.796  1.00  0.00     0.188 C 
BRANCH   2   3
ATOM      3  C   UNL A   1      39.490  24.570  27.520  1.00  0.00     0.188 C 
BRANCH   3   4
ATOM      4  O   UNL A   1      38.559  24.408  26.446  1.00  0.00    -0.376 OA
BRANCH   4   5
ATOM      5  C   UNL A   1      38.222  23.084  26.035  1.00  0.00     0.202 C 
BRANCH   5   6
ATOM      6  C   UNL A   1      36.827  22.858  25.427  1.00  0.00     0.261 C 
BRANCH   6   7
ATOM      7  O   UNL A   1      35.719  22.784  26.351  1.00  0.00    -0.459 OA
BRANCH   7   8
ATOM      8  C   UNL A   1      34.703  21.996  25.939  1.00  0.00     0.366 C 
ATOM      9  O   UNL A   1      34.831  20.781  25.750  1.00  0.00    -0.245 OA
BRANCH   8  10
ATOM     10  C   UNL A   1      33.369  22.650  25.620  1.00  0.00     0.314 C 
ATOM     11  C   UNL A   1      32.019  20.765  24.762  1.00  0.00     0.333 C 
ATOM     12  N   UNL A   1      32.061  21.912  25.664  1.00  0.00    -0.323 N 
ATOM     13  C   UNL A   1      30.986  22.872  25.248  1.00  0.00     0.284 C 
ATOM     14  H   UNL A   1      31.933  21.558  26.611  1.00  0.00     0.348 HD
ATOM     15  C   UNL A   1      30.940  24.170  26.090  1.00  0.00     0.181 C 
ATOM     16  C   UNL A   1      33.291  23.807  26.635  1.00  0.00     0.197 C 
ATOM     17  N   UNL A   1      32.270  24.761  26.219  1.00  0.00    -0.326 N 
BRANCH  17  18
ATOM     18  C   UNL A   1      32.515  26.070  25.843  1.00  0.00     0.255 C 
ATOM     19  O   UNL A   1      33.120  26.889  26.527  1.00  0.00    -0.269 OA
BRANCH  18  20
ATOM     20  C   UNL A   1      32.030  26.512  24.522  1.00  0.00     0.060 A 
ATOM     21  C   UNL A   1      30.900  27.338  24.484  1.00  0.00     0.043 A 
ATOM     22  C   UNL A   1      32.652  26.099  23.338  1.00  0.00     0.053 A 
ATOM     23  C   UNL A   1      30.359  27.712  23.246  1.00  0.00     0.065 A 
ATOM     24  C   UNL A   1      32.145  26.528  22.108  1.00  0.00     0.023 A 
ATOM     25  Cl  UNL A   1      34.032  25.064  23.321  1.00  0.00    -0.083 Cl
ATOM     26  C   UNL A   1      30.990  27.315  22.058  1.00  0.00     0.030 A 
BRANCH  23  27
ATOM     27  N   UNL A   1      29.158  28.465  23.207  1.00  0.00    -0.241 N 
ATOM     28  C   UNL A   1      29.034  29.836  23.126  1.00  0.00     0.115 A 
ATOM     29  N   UNL A   1      27.946  27.859  23.208  1.00  0.00    -0.177 NA
ATOM     30  C   UNL A   1      27.691  30.118  23.101  1.00  0.00     0.042 A 
ATOM     31  C   UNL A   1      27.069  28.864  23.190  1.00  0.00     0.135 A 
ENDBRANCH  23  27
ENDBRANCH  18  20
ENDBRANCH  17  18
ENDBRANCH   8  10
ENDBRANCH   7   8
ENDBRANCH   6   7
ENDBRANCH   5   6
ENDBRANCH   4   5
ENDBRANCH   3   4
ENDBRANCH   2   3
ENDBRANCH   1   2
BRANCH   1  32
ATOM     32  C   UNL A   1      41.881  22.365  26.112  1.00  0.00     0.188 C 
BRANCH  32  33
ATOM     33  C   UNL A   1      43.241  21.705  26.306  1.00  0.00     0.188 C 
BRANCH  33  34
ATOM     34  O   UNL A   1      44.184  21.868  25.240  1.00  0.00    -0.376 OA
BRANCH  34  35
ATOM     35  C   UNL A   1      45.284  22.761  25.416  1.00  0.00     0.202 C 
BRANCH  35  36
ATOM     36  C   UNL A   1      45.029  23.908  26.373  1.00  0.00     0.261 C 
BRANCH  36  37
ATOM     37  O   UNL A   1      45.110  25.139  25.668  1.00  0.00    -0.460 OA
BRANCH  37  38
ATOM     38  C   UNL A   1      43.921  25.621  25.244  1.00  0.00     0.338 C 
ATOM     39  O   UNL A   1      43.084  25.040  24.579  1.00  0.00    -0.246 OA
BRANCH  38  40
ATOM     40  C   UNL A   1      43.857  27.046  25.583  1.00  0.00     0.060 A 
ATOM     41  C   UNL A   1      44.835  27.479  26.474  1.00  0.00     0.016 A 
ATOM     42  C   UNL A   1      42.694  27.791  25.325  1.00  0.00     0.016 A 
ATOM     43  C   UNL A   1      44.512  28.507  27.321  1.00  0.00     0.010 A 
ATOM     44  C   UNL A   1      42.369  28.821  26.178  1.00  0.00     0.010 A 
ATOM     45  C   UNL A   1      43.239  29.086  27.229  1.00  0.00    -0.014 A 
BRANCH  45  46
ATOM     46  C   UNL A   1      42.866  29.955  28.319  1.00  0.00     0.031 A 
ATOM     47  C   UNL A   1      43.826  31.032  28.586  1.00  0.00     0.074 A 
ATOM     48  C   UNL A   1      41.772  29.769  29.073  1.00  0.00     0.049 A 
ATOM     49  N   UNL A   1      44.682  31.095  29.547  1.00  0.00    -0.248 NA
ATOM     50  C   UNL A   1      43.938  32.088  27.574  1.00  0.00     0.031 C 
ATOM     51  C   UNL A   1      40.594  28.947  28.788  1.00  0.00     0.029 A 
ATOM     52  N   UNL A   1      41.463  30.377  30.249  1.00  0.00    -0.354 N 
ATOM     53  C   UNL A   1      45.329  32.307  29.373  1.00  0.00     0.074 A 
ATOM     54  C   UNL A   1      44.950  32.798  28.069  1.00  0.00     0.031 C 
ATOM     55  C   UNL A   1      39.610  29.285  29.653  1.00  0.00     0.029 A 
ATOM     56  C   UNL A   1      40.141  30.228  30.626  1.00  0.00     0.049 A 
ATOM     57  H   UNL A   1      42.120  30.879  30.783  1.00  0.00     0.167 HD
ATOM     58  C   UNL A   1      45.954  32.941  30.398  1.00  0.00     0.031 A 
ATOM     59  C   UNL A   1      39.520  30.913  31.614  1.00  0.00     0.031 A 
ATOM     60  C   UNL A   1      46.151  32.095  31.542  1.00  0.00     0.049 A 
ATOM     61  C   UNL A   1      40.560  31.415  32.547  1.00  0.00     0.074 A 
ATOM     62  C   UNL A   1      46.869  30.944  31.794  1.00  0.00     0.029 A 
ATOM     63  N   UNL A   1      45.250  32.225  32.573  1.00  0.00    -0.354 N 
ATOM     64  N   UNL A   1      41.289  30.644  33.306  1.00  0.00    -0.248 NA
ATOM     65  C   UNL A   1      41.060  32.774  32.393  1.00  0.00     0.031 C 
ATOM     66  C   UNL A   1      46.111  30.224  32.762  1.00  0.00     0.029 A 
ATOM     67  C   UNL A   1      44.970  30.972  33.061  1.00  0.00     0.049 A 
ATOM     68  H   UNL A   1      44.871  33.070  32.904  1.00  0.00     0.167 HD
ATOM     69  C   UNL A   1      42.520  31.276  33.394  1.00  0.00     0.074 A 
ATOM     70  C   UNL A   1      42.276  32.636  32.930  1.00  0.00     0.031 C 
ATOM     71  C   UNL A   1      43.673  30.565  33.572  1.00  0.00     0.031 A 
BRANCH  58  72
ATOM     72  C   UNL A   1      46.031  34.437  30.475  1.00  0.00    -0.014 A 
ATOM     73  C   UNL A   1      44.911  35.167  30.907  1.00  0.00     0.010 A 
ATOM     74  C   UNL A   1      47.096  35.157  29.892  1.00  0.00     0.010 A 
ATOM     75  C   UNL A   1      44.853  36.556  30.735  1.00  0.00     0.020 A 
ATOM     76  C   UNL A   1      47.069  36.543  29.761  1.00  0.00     0.020 A 
ATOM     77  C   UNL A   1      45.930  37.230  30.154  1.00  0.00     0.054 A 
BRANCH  77  78
ATOM     78  S   UNL A   1      45.806  39.007  29.841  1.00  0.00     0.124 S 
ATOM     79  O   UNL A   1      46.952  39.519  30.585  1.00  0.00    -0.237 OA
ATOM     80  O   UNL A   1      45.910  39.076  28.386  1.00  0.00    -0.237 OA
ATOM     81  O   UNL A   1      44.496  39.358  30.384  1.00  0.00    -0.744 OA
ENDBRANCH  77  78
ENDBRANCH  58  72
BRANCH  59  82
ATOM     82  C   UNL A   1      38.137  31.441  31.578  1.00  0.00    -0.014 A 
ATOM     83  C   UNL A   1      37.228  31.151  32.609  1.00  0.00     0.010 A 
ATOM     84  C   UNL A   1      37.793  32.461  30.664  1.00  0.00     0.010 A 
ATOM     85  C   UNL A   1      36.049  31.898  32.759  1.00  0.00     0.020 A 
ATOM     86  C   UNL A   1      36.614  33.198  30.797  1.00  0.00     0.020 A 
ATOM     87  C   UNL A   1      35.761  32.931  31.862  1.00  0.00     0.054 A 
BRANCH  87  88
ATOM     88  S   UNL A   1      34.335  34.011  32.171  1.00  0.00     0.124 S 
ATOM     89  O   UNL A   1      33.739  34.123  30.843  1.00  0.00    -0.237 OA
ATOM     90  O   UNL A   1      33.565  33.246  33.148  1.00  0.00    -0.237 OA
ATOM     91  O   UNL A   1      34.938  35.239  32.687  1.00  0.00    -0.744 OA
ENDBRANCH  87  88
ENDBRANCH  59  82
BRANCH  71  92
ATOM     92  C   UNL A   1      43.562  29.148  34.093  1.00  0.00    -0.014 A 
ATOM     93  C   UNL A   1      43.386  28.829  35.452  1.00  0.00     0.010 A 
ATOM     94  C   UNL A   1      43.514  28.105  33.149  1.00  0.00     0.010 A 
ATOM     95  C   UNL A   1      43.199  27.500  35.858  1.00  0.00     0.020 A 
ATOM     96  C   UNL A   1      43.308  26.780  33.546  1.00  0.00     0.020 A 
ATOM     97  C   UNL A   1      43.162  26.482  34.901  1.00  0.00     0.054 A 
BRANCH  97  98
ATOM     98  S   UNL A   1      42.866  24.772  35.432  1.00  0.00     0.124 S 
ATOM     99  O   UNL A   1      43.708  24.660  36.621  1.00  0.00    -0.237 OA
ATOM    100  O   UNL A   1      41.426  24.751  35.675  1.00  0.00    -0.237 OA
ATOM    101  O   UNL A   1      43.304  23.972  34.288  1.00  0.00    -0.744 OA
ENDBRANCH  97  98
ENDBRANCH  71  92
ENDBRANCH  45  46
ENDBRANCH  38  40
ENDBRANCH  37  38
ENDBRANCH  36  37
ENDBRANCH  35  36
ENDBRANCH  34  35
ENDBRANCH  33  34
ENDBRANCH  32  33
ENDBRANCH   1  32
TORSDOF 26
ENDMDL
