MODEL 1
REMARK VINA RESULT:      -9.1      0.000      0.000
REMARK SMILES Cc1cc(Br)c(C)c([C@@H]2[NH2+][C@H](C(=O)OCCOCCOCCOCCOC(=O)c3ccc(-c4c5nc(c(-c6ccc(S(=O)(=O)[O-])cc6)c6ccc([nH]6)c(-c6ccc(S(=O)(=O)[O-])cc6)c6nc(c(-c7ccc(S(=O)(=O)[O-])cc7)c7ccc4[nH]7)C=C6)C=C5)cc3)CS2)c1O
REMARK SMILES IDX 21 1 20 2 19 3 18 4 17 5 16 6 15 7 14 8 12 9 13 10 11 11
REMARK SMILES IDX 9 12 10 13 90 14 89 17 8 18 1 19 2 20 3 21 91 22 4 23 5 24
REMARK SMILES IDX 6 25 7 26 92 27 22 29 23 30 24 31 25 32 26 33 27 34 28 35
REMARK SMILES IDX 29 36 30 37 88 38 31 39 87 40 32 41 33 42 34 43 81 44 35 45
REMARK SMILES IDX 86 46 80 47 82 48 36 49 85 50 79 51 78 52 37 54 67 55 48 56
REMARK SMILES IDX 66 57 49 58 52 59 65 60 83 61 50 62 51 63 64 65 84 66 53 67
REMARK SMILES IDX 38 68 39 69 47 70 40 71 46 72 41 73 42 74 43 75 44 76 45 77
REMARK SMILES IDX 68 78 69 79 77 80 70 81 76 82 71 83 72 84 73 85 74 86 75 87
REMARK SMILES IDX 54 88 55 89 63 90 56 91 62 92 57 93 58 94 59 95 60 96 61 97
REMARK H PARENT 10 15 10 16 92 28 82 53 52 64
REMARK Flexibility Score: inf
ROOT
ATOM      1  C   UNL A   1      41.175  21.944  26.845  1.00  0.00     0.188 C 
ENDROOT
BRANCH   1   2
ATOM      2  O   UNL A   1      40.167  22.095  25.861  1.00  0.00    -0.377 OA
BRANCH   2   3
ATOM      3  C   UNL A   1      38.843  22.015  26.357  1.00  0.00     0.188 C 
BRANCH   3   4
ATOM      4  C   UNL A   1      37.687  22.453  25.436  1.00  0.00     0.188 C 
BRANCH   4   5
ATOM      5  O   UNL A   1      36.571  21.592  25.192  1.00  0.00    -0.376 OA
BRANCH   5   6
ATOM      6  C   UNL A   1      35.286  21.926  25.689  1.00  0.00     0.202 C 
BRANCH   6   7
ATOM      7  C   UNL A   1      34.881  23.398  25.737  1.00  0.00     0.261 C 
BRANCH   7   8
ATOM      8  O   UNL A   1      34.112  23.765  24.588  1.00  0.00    -0.459 OA
BRANCH   8   9
ATOM      9  C   UNL A   1      32.777  23.917  24.735  1.00  0.00     0.365 C 
ATOM     10  O   UNL A   1      32.208  23.951  25.823  1.00  0.00    -0.245 OA
BRANCH   9  11
ATOM     11  C   UNL A   1      32.007  24.063  23.412  1.00  0.00     0.304 C 
ATOM     12  C   UNL A   1      31.213  26.209  22.593  1.00  0.00     0.278 C 
ATOM     13  N   UNL A   1      30.881  25.036  23.415  1.00  0.00    -0.319 N 
ATOM     14  S   UNL A   1      32.421  25.736  21.351  1.00  0.00    -0.087 SA
ATOM     15  H   UNL A   1      30.048  24.585  23.037  1.00  0.00     0.348 HD
ATOM     16  H   UNL A   1      30.712  25.341  24.373  1.00  0.00     0.348 HD
ATOM     17  C   UNL A   1      32.985  24.289  22.267  1.00  0.00     0.153 C 
BRANCH  12  18
ATOM     18  C   UNL A   1      31.469  27.476  23.408  1.00  0.00     0.066 A 
ATOM     19  C   UNL A   1      34.014  28.820  26.020  1.00  0.00     0.048 C 
ATOM     20  C   UNL A   1      32.862  28.696  25.060  1.00  0.00    -0.008 A 
ATOM     21  C   UNL A   1      31.910  29.711  25.083  1.00  0.00     0.023 A 
ATOM     22  C   UNL A   1      32.648  27.613  24.193  1.00  0.00     0.128 A 
ATOM     23  C   UNL A   1      30.777  29.655  24.274  1.00  0.00     0.021 A 
ATOM     24  Br  UNL A   1      29.668  31.200  24.276  1.00  0.00    -0.051 Br
ATOM     25  C   UNL A   1      30.500  28.528  23.472  1.00  0.00    -0.023 A 
ATOM     26  C   UNL A   1      29.177  28.518  22.738  1.00  0.00     0.046 C 
BRANCH  22  27
ATOM     27  O   UNL A   1      33.599  26.633  24.085  1.00  0.00    -0.507 OA
ATOM     28  H   UNL A   1      33.364  25.737  24.212  1.00  0.00     0.293 HD
ENDBRANCH  22  27
ENDBRANCH  12  18
ENDBRANCH   9  11
ENDBRANCH   8   9
ENDBRANCH   7   8
ENDBRANCH   6   7
ENDBRANCH   5   6
ENDBRANCH   4   5
ENDBRANCH   3   4
ENDBRANCH   2   3
ENDBRANCH   1   2
BRANCH   1  29
ATOM     29  C   UNL A   1      42.495  21.475  26.226  1.00  0.00     0.188 C 
BRANCH  29  30
ATOM     30  O   UNL A   1      42.792  22.141  25.003  1.00  0.00    -0.376 OA
BRANCH  30  31
ATOM     31  C   UNL A   1      43.966  22.951  24.986  1.00  0.00     0.202 C 
BRANCH  31  32
ATOM     32  C   UNL A   1      44.172  23.994  26.102  1.00  0.00     0.261 C 
BRANCH  32  33
ATOM     33  O   UNL A   1      43.753  25.345  25.833  1.00  0.00    -0.460 OA
BRANCH  33  34
ATOM     34  C   UNL A   1      42.443  25.659  25.908  1.00  0.00     0.338 C 
ATOM     35  O   UNL A   1      41.545  25.248  25.196  1.00  0.00    -0.246 OA
BRANCH  34  36
ATOM     36  C   UNL A   1      42.246  26.459  27.140  1.00  0.00     0.060 A 
ATOM     37  C   UNL A   1      43.065  27.555  27.410  1.00  0.00     0.016 A 
ATOM     38  C   UNL A   1      41.245  26.088  28.050  1.00  0.00     0.016 A 
ATOM     39  C   UNL A   1      42.857  28.296  28.576  1.00  0.00     0.010 A 
ATOM     40  C   UNL A   1      41.053  26.822  29.228  1.00  0.00     0.010 A 
ATOM     41  C   UNL A   1      41.846  27.947  29.494  1.00  0.00    -0.014 A 
BRANCH  41  42
ATOM     42  C   UNL A   1      41.499  28.892  30.594  1.00  0.00     0.031 A 
ATOM     43  C   UNL A   1      40.372  29.881  30.516  1.00  0.00     0.074 A 
ATOM     44  C   UNL A   1      42.243  28.825  31.714  1.00  0.00     0.049 A 
ATOM     45  N   UNL A   1      39.855  30.612  31.473  1.00  0.00    -0.248 NA
ATOM     46  C   UNL A   1      39.738  30.083  29.208  1.00  0.00     0.031 C 
ATOM     47  C   UNL A   1      43.384  27.926  31.900  1.00  0.00     0.029 A 
ATOM     48  N   UNL A   1      42.149  29.498  32.905  1.00  0.00    -0.354 N 
ATOM     49  C   UNL A   1      38.798  31.311  30.901  1.00  0.00     0.074 A 
ATOM     50  C   UNL A   1      38.775  30.952  29.498  1.00  0.00     0.031 C 
ATOM     51  C   UNL A   1      43.854  28.069  33.146  1.00  0.00     0.029 A 
ATOM     52  C   UNL A   1      43.081  29.099  33.833  1.00  0.00     0.049 A 
ATOM     53  H   UNL A   1      41.479  30.199  33.078  1.00  0.00     0.167 HD
ATOM     54  C   UNL A   1      37.932  32.168  31.496  1.00  0.00     0.031 A 
ATOM     55  C   UNL A   1      43.299  29.505  35.098  1.00  0.00     0.031 A 
ATOM     56  C   UNL A   1      38.030  32.591  32.873  1.00  0.00     0.049 A 
ATOM     57  C   UNL A   1      42.386  30.526  35.708  1.00  0.00     0.074 A 
ATOM     58  C   UNL A   1      37.195  33.452  33.566  1.00  0.00     0.029 A 
ATOM     59  N   UNL A   1      39.036  32.222  33.755  1.00  0.00    -0.354 N 
ATOM     60  N   UNL A   1      41.325  31.093  35.184  1.00  0.00    -0.248 NA
ATOM     61  C   UNL A   1      42.684  30.955  37.080  1.00  0.00     0.031 C 
ATOM     62  C   UNL A   1      37.747  33.679  34.829  1.00  0.00     0.029 A 
ATOM     63  C   UNL A   1      38.875  32.885  34.962  1.00  0.00     0.049 A 
ATOM     64  H   UNL A   1      39.758  31.584  33.553  1.00  0.00     0.167 HD
ATOM     65  C   UNL A   1      40.822  31.936  36.167  1.00  0.00     0.074 A 
ATOM     66  C   UNL A   1      41.681  31.791  37.324  1.00  0.00     0.031 C 
ATOM     67  C   UNL A   1      39.743  32.756  36.108  1.00  0.00     0.031 A 
BRANCH  54  68
ATOM     68  C   UNL A   1      36.788  32.732  30.684  1.00  0.00    -0.014 A 
ATOM     69  C   UNL A   1      36.987  33.873  29.884  1.00  0.00     0.010 A 
ATOM     70  C   UNL A   1      35.481  32.239  30.852  1.00  0.00     0.010 A 
ATOM     71  C   UNL A   1      35.901  34.533  29.299  1.00  0.00     0.020 A 
ATOM     72  C   UNL A   1      34.393  32.883  30.248  1.00  0.00     0.020 A 
ATOM     73  C   UNL A   1      34.608  34.040  29.495  1.00  0.00     0.054 A 
BRANCH  73  74
ATOM     74  S   UNL A   1      33.210  34.938  28.765  1.00  0.00     0.124 S 
ATOM     75  O   UNL A   1      32.581  33.916  27.934  1.00  0.00    -0.237 OA
ATOM     76  O   UNL A   1      32.450  35.350  29.945  1.00  0.00    -0.237 OA
ATOM     77  O   UNL A   1      33.847  36.033  28.036  1.00  0.00    -0.744 OA
ENDBRANCH  73  74
ENDBRANCH  54  68
BRANCH  55  78
ATOM     78  C   UNL A   1      44.416  28.884  35.860  1.00  0.00    -0.014 A 
ATOM     79  C   UNL A   1      44.150  27.879  36.809  1.00  0.00     0.010 A 
ATOM     80  C   UNL A   1      45.724  29.383  35.739  1.00  0.00     0.010 A 
ATOM     81  C   UNL A   1      45.152  27.438  37.675  1.00  0.00     0.020 A 
ATOM     82  C   UNL A   1      46.738  28.918  36.581  1.00  0.00     0.020 A 
ATOM     83  C   UNL A   1      46.437  27.974  37.566  1.00  0.00     0.054 A 
BRANCH  83  84
ATOM     84  S   UNL A   1      47.702  27.444  38.752  1.00  0.00     0.124 S 
ATOM     85  O   UNL A   1      46.911  26.679  39.711  1.00  0.00    -0.237 OA
ATOM     86  O   UNL A   1      48.611  26.660  37.919  1.00  0.00    -0.237 OA
ATOM     87  O   UNL A   1      48.249  28.702  39.254  1.00  0.00    -0.744 OA
ENDBRANCH  83  84
ENDBRANCH  55  78
BRANCH  67  88
ATOM     88  C   UNL A   1      39.419  33.594  37.320  1.00  0.00    -0.014 A 
ATOM     89  C   UNL A   1      40.002  34.866  37.468  1.00  0.00     0.010 A 
ATOM     90  C   UNL A   1      38.644  33.070  38.371  1.00  0.00     0.010 A 
ATOM     91  C   UNL A   1      39.855  35.581  38.659  1.00  0.00     0.020 A 
ATOM     92  C   UNL A   1      38.468  33.798  39.552  1.00  0.00     0.020 A 
ATOM     93  C   UNL A   1      39.098  35.036  39.700  1.00  0.00     0.054 A 
BRANCH  93  94
ATOM     94  S   UNL A   1      38.957  35.958  41.255  1.00  0.00     0.124 S 
ATOM     95  O   UNL A   1      40.230  35.662  41.905  1.00  0.00    -0.237 OA
ATOM     96  O   UNL A   1      38.789  37.335  40.798  1.00  0.00    -0.237 OA
ATOM     97  O   UNL A   1      37.780  35.375  41.894  1.00  0.00    -0.744 OA
ENDBRANCH  93  94
ENDBRANCH  67  88
ENDBRANCH  41  42
ENDBRANCH  34  36
ENDBRANCH  33  34
ENDBRANCH  32  33
ENDBRANCH  31  32
ENDBRANCH  30  31
ENDBRANCH  29  30
ENDBRANCH   1  29
TORSDOF 25
ENDMDL
MODEL 2
REMARK VINA RESULT:      -8.6      6.022     12.137
REMARK SMILES Cc1cc(Br)c(C)c([C@@H]2[NH2+][C@H](C(=O)OCCOCCOCCOCCOC(=O)c3ccc(-c4c5nc(c(-c6ccc(S(=O)(=O)[O-])cc6)c6ccc([nH]6)c(-c6ccc(S(=O)(=O)[O-])cc6)c6nc(c(-c7ccc(S(=O)(=O)[O-])cc7)c7ccc4[nH]7)C=C6)C=C5)cc3)CS2)c1O
REMARK SMILES IDX 21 1 20 2 19 3 18 4 17 5 16 6 15 7 14 8 12 9 13 10 11 11
REMARK SMILES IDX 9 12 10 13 90 14 89 17 8 18 1 19 2 20 3 21 91 22 4 23 5 24
REMARK SMILES IDX 6 25 7 26 92 27 22 29 23 30 24 31 25 32 26 33 27 34 28 35
REMARK SMILES IDX 29 36 30 37 88 38 31 39 87 40 32 41 33 42 34 43 81 44 35 45
REMARK SMILES IDX 86 46 80 47 82 48 36 49 85 50 79 51 78 52 37 54 67 55 48 56
REMARK SMILES IDX 66 57 49 58 52 59 65 60 83 61 50 62 51 63 64 65 84 66 53 67
REMARK SMILES IDX 38 68 39 69 47 70 40 71 46 72 41 73 42 74 43 75 44 76 45 77
REMARK SMILES IDX 68 78 69 79 77 80 70 81 76 82 71 83 72 84 73 85 74 86 75 87
REMARK SMILES IDX 54 88 55 89 63 90 56 91 62 92 57 93 58 94 59 95 60 96 61 97
REMARK H PARENT 10 15 10 16 92 28 82 53 52 64
REMARK Flexibility Score: inf
ROOT
ATOM      1  C   UNL A   1      35.577  33.422  28.799  1.00  0.00     0.188 C 
ENDROOT
BRANCH   1   2
ATOM      2  O   UNL A   1      34.441  32.614  29.054  1.00  0.00    -0.377 OA
BRANCH   2   3
ATOM      3  C   UNL A   1      33.789  32.132  27.894  1.00  0.00     0.188 C 
BRANCH   3   4
ATOM      4  C   UNL A   1      34.287  30.815  27.266  1.00  0.00     0.188 C 
BRANCH   4   5
ATOM      5  O   UNL A   1      33.603  29.581  27.503  1.00  0.00    -0.376 OA
BRANCH   5   6
ATOM      6  C   UNL A   1      33.229  28.748  26.418  1.00  0.00     0.202 C 
BRANCH   6   7
ATOM      7  C   UNL A   1      31.942  27.932  26.534  1.00  0.00     0.261 C 
BRANCH   7   8
ATOM      8  O   UNL A   1      31.129  28.073  25.365  1.00  0.00    -0.459 OA
BRANCH   8   9
ATOM      9  C   UNL A   1      31.098  27.051  24.481  1.00  0.00     0.365 C 
ATOM     10  O   UNL A   1      30.309  26.111  24.549  1.00  0.00    -0.245 OA
BRANCH   9  11
ATOM     11  C   UNL A   1      32.133  27.161  23.350  1.00  0.00     0.304 C 
ATOM     12  C   UNL A   1      33.547  25.297  22.688  1.00  0.00     0.278 C 
ATOM     13  N   UNL A   1      33.427  26.462  23.577  1.00  0.00    -0.319 N 
ATOM     14  S   UNL A   1      32.541  25.567  21.225  1.00  0.00    -0.087 SA
ATOM     15  H   UNL A   1      34.194  27.108  23.390  1.00  0.00     0.348 HD
ATOM     16  H   UNL A   1      33.464  26.143  24.545  1.00  0.00     0.348 HD
ATOM     17  C   UNL A   1      31.487  26.795  22.020  1.00  0.00     0.153 C 
BRANCH  12  18
ATOM     18  C   UNL A   1      33.429  23.957  23.412  1.00  0.00     0.066 A 
ATOM     19  C   UNL A   1      32.166  20.348  22.716  1.00  0.00     0.048 C 
ATOM     20  C   UNL A   1      32.752  21.570  23.369  1.00  0.00    -0.008 A 
ATOM     21  C   UNL A   1      33.007  21.494  24.735  1.00  0.00     0.023 A 
ATOM     22  C   UNL A   1      33.006  22.788  22.719  1.00  0.00     0.128 A 
ATOM     23  C   UNL A   1      33.495  22.592  25.439  1.00  0.00     0.021 A 
ATOM     24  Br  UNL A   1      33.972  22.282  27.254  1.00  0.00    -0.051 Br
ATOM     25  C   UNL A   1      33.660  23.849  24.820  1.00  0.00    -0.023 A 
ATOM     26  C   UNL A   1      34.068  25.003  25.710  1.00  0.00     0.046 C 
BRANCH  22  27
ATOM     27  O   UNL A   1      32.841  22.879  21.362  1.00  0.00    -0.507 OA
ATOM     28  H   UNL A   1      32.244  22.307  20.924  1.00  0.00     0.293 HD
ENDBRANCH  22  27
ENDBRANCH  12  18
ENDBRANCH   9  11
ENDBRANCH   8   9
ENDBRANCH   7   8
ENDBRANCH   6   7
ENDBRANCH   5   6
ENDBRANCH   4   5
ENDBRANCH   3   4
ENDBRANCH   2   3
ENDBRANCH   1   2
BRANCH   1  29
ATOM     29  C   UNL A   1      36.183  33.960  30.098  1.00  0.00     0.188 C 
BRANCH  29  30
ATOM     30  O   UNL A   1      36.495  32.926  31.026  1.00  0.00    -0.376 OA
BRANCH  30  31
ATOM     31  C   UNL A   1      37.629  32.116  30.723  1.00  0.00     0.202 C 
BRANCH  31  32
ATOM     32  C   UNL A   1      38.105  31.079  31.759  1.00  0.00     0.261 C 
BRANCH  32  33
ATOM     33  O   UNL A   1      37.646  29.724  31.602  1.00  0.00    -0.460 OA
BRANCH  33  34
ATOM     34  C   UNL A   1      37.436  29.236  30.361  1.00  0.00     0.338 C 
ATOM     35  O   UNL A   1      36.373  29.148  29.774  1.00  0.00    -0.246 OA
BRANCH  34  36
ATOM     36  C   UNL A   1      38.763  28.993  29.749  1.00  0.00     0.060 A 
ATOM     37  C   UNL A   1      39.030  29.415  28.447  1.00  0.00     0.016 A 
ATOM     38  C   UNL A   1      39.745  28.306  30.480  1.00  0.00     0.016 A 
ATOM     39  C   UNL A   1      40.291  29.177  27.893  1.00  0.00     0.010 A 
ATOM     40  C   UNL A   1      41.001  28.053  29.913  1.00  0.00     0.010 A 
ATOM     41  C   UNL A   1      41.293  28.503  28.618  1.00  0.00    -0.014 A 
BRANCH  41  42
ATOM     42  C   UNL A   1      42.688  28.482  28.091  1.00  0.00     0.031 A 
ATOM     43  C   UNL A   1      43.642  29.635  28.215  1.00  0.00     0.074 A 
ATOM     44  C   UNL A   1      43.096  27.349  27.487  1.00  0.00     0.049 A 
ATOM     45  N   UNL A   1      44.930  29.663  27.973  1.00  0.00    -0.248 NA
ATOM     46  C   UNL A   1      43.095  30.920  28.667  1.00  0.00     0.031 C 
ATOM     47  C   UNL A   1      42.252  26.170  27.280  1.00  0.00     0.029 A 
ATOM     48  N   UNL A   1      44.309  26.990  26.959  1.00  0.00    -0.354 N 
ATOM     49  C   UNL A   1      45.359  30.944  28.302  1.00  0.00     0.074 A 
ATOM     50  C   UNL A   1      44.184  31.681  28.717  1.00  0.00     0.031 C 
ATOM     51  C   UNL A   1      42.985  25.203  26.713  1.00  0.00     0.029 A 
ATOM     52  C   UNL A   1      44.335  25.706  26.474  1.00  0.00     0.049 A 
ATOM     53  H   UNL A   1      45.086  27.595  26.931  1.00  0.00     0.167 HD
ATOM     54  C   UNL A   1      46.617  31.450  28.259  1.00  0.00     0.031 A 
ATOM     55  C   UNL A   1      45.326  24.996  25.902  1.00  0.00     0.031 A 
ATOM     56  C   UNL A   1      47.760  30.732  27.748  1.00  0.00     0.049 A 
ATOM     57  C   UNL A   1      46.689  25.610  25.777  1.00  0.00     0.074 A 
ATOM     58  C   UNL A   1      49.076  31.161  27.670  1.00  0.00     0.029 A 
ATOM     59  N   UNL A   1      47.727  29.461  27.193  1.00  0.00    -0.354 N 
ATOM     60  N   UNL A   1      47.099  26.784  26.194  1.00  0.00    -0.248 NA
ATOM     61  C   UNL A   1      47.726  24.805  25.120  1.00  0.00     0.031 C 
ATOM     62  C   UNL A   1      49.813  30.193  26.984  1.00  0.00     0.029 A 
ATOM     63  C   UNL A   1      48.983  29.117  26.718  1.00  0.00     0.049 A 
ATOM     64  H   UNL A   1      46.928  28.887  27.144  1.00  0.00     0.167 HD
ATOM     65  C   UNL A   1      48.447  26.853  25.862  1.00  0.00     0.074 A 
ATOM     66  C   UNL A   1      48.787  25.597  25.227  1.00  0.00     0.031 C 
ATOM     67  C   UNL A   1      49.317  27.872  26.067  1.00  0.00     0.031 A 
BRANCH  54  68
ATOM     68  C   UNL A   1      46.857  32.853  28.768  1.00  0.00    -0.014 A 
ATOM     69  C   UNL A   1      47.061  33.080  30.142  1.00  0.00     0.010 A 
ATOM     70  C   UNL A   1      46.706  33.959  27.912  1.00  0.00     0.010 A 
ATOM     71  C   UNL A   1      47.070  34.380  30.659  1.00  0.00     0.020 A 
ATOM     72  C   UNL A   1      46.739  35.264  28.422  1.00  0.00     0.020 A 
ATOM     73  C   UNL A   1      46.897  35.465  29.795  1.00  0.00     0.054 A 
BRANCH  73  74
ATOM     74  S   UNL A   1      46.867  37.140  30.492  1.00  0.00     0.124 S 
ATOM     75  O   UNL A   1      47.332  37.953  29.373  1.00  0.00    -0.237 OA
ATOM     76  O   UNL A   1      45.459  37.306  30.852  1.00  0.00    -0.237 OA
ATOM     77  O   UNL A   1      47.782  37.057  31.628  1.00  0.00    -0.744 OA
ENDBRANCH  73  74
ENDBRANCH  54  68
BRANCH  55  78
ATOM     78  C   UNL A   1      45.038  23.606  25.456  1.00  0.00    -0.014 A 
ATOM     79  C   UNL A   1      45.079  22.546  26.381  1.00  0.00     0.010 A 
ATOM     80  C   UNL A   1      44.855  23.319  24.093  1.00  0.00     0.010 A 
ATOM     81  C   UNL A   1      45.019  21.221  25.944  1.00  0.00     0.020 A 
ATOM     82  C   UNL A   1      44.758  21.995  23.656  1.00  0.00     0.020 A 
ATOM     83  C   UNL A   1      44.877  20.955  24.581  1.00  0.00     0.054 A 
BRANCH  83  84
ATOM     84  S   UNL A   1      44.880  19.227  24.030  1.00  0.00     0.124 S 
ATOM     85  O   UNL A   1      43.950  18.611  24.971  1.00  0.00    -0.237 OA
ATOM     86  O   UNL A   1      44.405  19.331  22.652  1.00  0.00    -0.237 OA
ATOM     87  O   UNL A   1      46.277  18.825  24.176  1.00  0.00    -0.744 OA
ENDBRANCH  83  84
ENDBRANCH  55  78
BRANCH  67  88
ATOM     88  C   UNL A   1      50.737  27.703  25.586  1.00  0.00    -0.014 A 
ATOM     89  C   UNL A   1      51.725  27.231  26.471  1.00  0.00     0.010 A 
ATOM     90  C   UNL A   1      51.119  28.134  24.303  1.00  0.00     0.010 A 
ATOM     91  C   UNL A   1      53.072  27.234  26.101  1.00  0.00     0.020 A 
ATOM     92  C   UNL A   1      52.463  28.107  23.917  1.00  0.00     0.020 A 
ATOM     93  C   UNL A   1      53.434  27.685  24.828  1.00  0.00     0.054 A 
BRANCH  93  94
ATOM     94  S   UNL A   1      55.191  27.724  24.382  1.00  0.00     0.124 S 
ATOM     95  O   UNL A   1      55.268  26.702  23.342  1.00  0.00    -0.237 OA
ATOM     96  O   UNL A   1      55.376  29.100  23.926  1.00  0.00    -0.237 OA
ATOM     97  O   UNL A   1      55.871  27.395  25.632  1.00  0.00    -0.744 OA
ENDBRANCH  93  94
ENDBRANCH  67  88
ENDBRANCH  41  42
ENDBRANCH  34  36
ENDBRANCH  33  34
ENDBRANCH  32  33
ENDBRANCH  31  32
ENDBRANCH  30  31
ENDBRANCH  29  30
ENDBRANCH   1  29
TORSDOF 25
ENDMDL
MODEL 3
REMARK VINA RESULT:      -8.4      6.551     11.235
REMARK SMILES Cc1cc(Br)c(C)c([C@@H]2[NH2+][C@H](C(=O)OCCOCCOCCOCCOC(=O)c3ccc(-c4c5nc(c(-c6ccc(S(=O)(=O)[O-])cc6)c6ccc([nH]6)c(-c6ccc(S(=O)(=O)[O-])cc6)c6nc(c(-c7ccc(S(=O)(=O)[O-])cc7)c7ccc4[nH]7)C=C6)C=C5)cc3)CS2)c1O
REMARK SMILES IDX 21 1 20 2 19 3 18 4 17 5 16 6 15 7 14 8 12 9 13 10 11 11
REMARK SMILES IDX 9 12 10 13 90 14 89 17 8 18 1 19 2 20 3 21 91 22 4 23 5 24
REMARK SMILES IDX 6 25 7 26 92 27 22 29 23 30 24 31 25 32 26 33 27 34 28 35
REMARK SMILES IDX 29 36 30 37 88 38 31 39 87 40 32 41 33 42 34 43 81 44 35 45
REMARK SMILES IDX 86 46 80 47 82 48 36 49 85 50 79 51 78 52 37 54 67 55 48 56
REMARK SMILES IDX 66 57 49 58 52 59 65 60 83 61 50 62 51 63 64 65 84 66 53 67
REMARK SMILES IDX 38 68 39 69 47 70 40 71 46 72 41 73 42 74 43 75 44 76 45 77
REMARK SMILES IDX 68 78 69 79 77 80 70 81 76 82 71 83 72 84 73 85 74 86 75 87
REMARK SMILES IDX 54 88 55 89 63 90 56 91 62 92 57 93 58 94 59 95 60 96 61 97
REMARK H PARENT 10 15 10 16 92 28 82 53 52 64
REMARK Flexibility Score: inf
ROOT
ATOM      1  C   UNL A   1      34.886  31.163  28.373  1.00  0.00     0.188 C 
ENDROOT
BRANCH   1   2
ATOM      2  O   UNL A   1      34.355  30.488  27.246  1.00  0.00    -0.377 OA
BRANCH   2   3
ATOM      3  C   UNL A   1      32.949  30.585  27.110  1.00  0.00     0.188 C 
BRANCH   3   4
ATOM      4  C   UNL A   1      32.262  29.773  25.994  1.00  0.00     0.188 C 
BRANCH   4   5
ATOM      5  O   UNL A   1      31.753  28.460  26.244  1.00  0.00    -0.376 OA
BRANCH   5   6
ATOM      6  C   UNL A   1      32.557  27.492  26.896  1.00  0.00     0.202 C 
BRANCH   6   7
ATOM      7  C   UNL A   1      32.642  26.089  26.297  1.00  0.00     0.261 C 
BRANCH   7   8
ATOM      8  O   UNL A   1      31.510  25.296  26.666  1.00  0.00    -0.459 OA
BRANCH   8   9
ATOM      9  C   UNL A   1      31.677  23.960  26.785  1.00  0.00     0.365 C 
ATOM     10  O   UNL A   1      32.120  23.413  27.793  1.00  0.00    -0.245 OA
BRANCH   9  11
ATOM     11  C   UNL A   1      31.248  23.155  25.548  1.00  0.00     0.304 C 
ATOM     12  C   UNL A   1      30.840  24.194  23.389  1.00  0.00     0.278 C 
ATOM     13  N   UNL A   1      30.234  23.797  24.668  1.00  0.00    -0.319 N 
ATOM     14  S   UNL A   1      32.260  23.146  23.059  1.00  0.00    -0.087 SA
ATOM     15  H   UNL A   1      29.477  23.137  24.492  1.00  0.00     0.348 HD
ATOM     16  H   UNL A   1      29.873  24.629  25.135  1.00  0.00     0.348 HD
ATOM     17  C   UNL A   1      32.479  22.680  24.787  1.00  0.00     0.153 C 
BRANCH  12  18
ATOM     18  C   UNL A   1      31.001  25.706  23.230  1.00  0.00     0.066 A 
ATOM     19  C   UNL A   1      28.780  28.890  23.042  1.00  0.00     0.048 C 
ATOM     20  C   UNL A   1      29.955  27.951  23.077  1.00  0.00    -0.008 A 
ATOM     21  C   UNL A   1      31.200  28.487  22.759  1.00  0.00     0.023 A 
ATOM     22  C   UNL A   1      29.881  26.575  23.348  1.00  0.00     0.128 A 
ATOM     23  C   UNL A   1      32.337  27.685  22.707  1.00  0.00     0.021 A 
ATOM     24  Br  UNL A   1      33.990  28.588  22.447  1.00  0.00    -0.051 Br
ATOM     25  C   UNL A   1      32.261  26.287  22.880  1.00  0.00    -0.023 A 
ATOM     26  C   UNL A   1      33.537  25.499  22.670  1.00  0.00     0.046 C 
BRANCH  22  27
ATOM     27  O   UNL A   1      28.689  26.026  23.740  1.00  0.00    -0.507 OA
ATOM     28  H   UNL A   1      28.021  25.856  23.107  1.00  0.00     0.293 HD
ENDBRANCH  22  27
ENDBRANCH  12  18
ENDBRANCH   9  11
ENDBRANCH   8   9
ENDBRANCH   7   8
ENDBRANCH   6   7
ENDBRANCH   5   6
ENDBRANCH   4   5
ENDBRANCH   3   4
ENDBRANCH   2   3
ENDBRANCH   1   2
BRANCH   1  29
ATOM     29  C   UNL A   1      34.158  32.486  28.627  1.00  0.00     0.188 C 
BRANCH  29  30
ATOM     30  O   UNL A   1      34.840  33.316  29.561  1.00  0.00    -0.376 OA
BRANCH  30  31
ATOM     31  C   UNL A   1      34.644  33.020  30.942  1.00  0.00     0.202 C 
BRANCH  31  32
ATOM     32  C   UNL A   1      35.871  32.716  31.824  1.00  0.00     0.261 C 
BRANCH  32  33
ATOM     33  O   UNL A   1      35.945  31.414  32.433  1.00  0.00    -0.460 OA
BRANCH  33  34
ATOM     34  C   UNL A   1      36.636  30.433  31.817  1.00  0.00     0.338 C 
ATOM     35  O   UNL A   1      36.218  29.344  31.467  1.00  0.00    -0.246 OA
BRANCH  34  36
ATOM     36  C   UNL A   1      37.966  30.981  31.462  1.00  0.00     0.060 A 
ATOM     37  C   UNL A   1      38.983  31.044  32.415  1.00  0.00     0.016 A 
ATOM     38  C   UNL A   1      38.190  31.463  30.163  1.00  0.00     0.016 A 
ATOM     39  C   UNL A   1      40.230  31.561  32.055  1.00  0.00     0.010 A 
ATOM     40  C   UNL A   1      39.436  31.998  29.813  1.00  0.00     0.010 A 
ATOM     41  C   UNL A   1      40.477  32.036  30.751  1.00  0.00    -0.014 A 
BRANCH  41  42
ATOM     42  C   UNL A   1      41.874  32.352  30.340  1.00  0.00     0.031 A 
ATOM     43  C   UNL A   1      42.799  31.356  29.700  1.00  0.00     0.074 A 
ATOM     44  C   UNL A   1      42.303  33.611  30.552  1.00  0.00     0.049 A 
ATOM     45  N   UNL A   1      43.958  31.566  29.126  1.00  0.00    -0.248 NA
ATOM     46  C   UNL A   1      42.381  29.950  29.697  1.00  0.00     0.031 C 
ATOM     47  C   UNL A   1      41.509  34.661  31.192  1.00  0.00     0.029 A 
ATOM     48  N   UNL A   1      43.488  34.228  30.241  1.00  0.00    -0.354 N 
ATOM     49  C   UNL A   1      44.378  30.334  28.638  1.00  0.00     0.074 A 
ATOM     50  C   UNL A   1      43.370  29.368  29.025  1.00  0.00     0.031 C 
ATOM     51  C   UNL A   1      42.208  35.803  31.185  1.00  0.00     0.029 A 
ATOM     52  C   UNL A   1      43.515  35.559  30.583  1.00  0.00     0.049 A 
ATOM     53  H   UNL A   1      44.244  33.763  29.816  1.00  0.00     0.167 HD
ATOM     54  C   UNL A   1      45.500  30.042  27.934  1.00  0.00     0.031 A 
ATOM     55  C   UNL A   1      44.476  36.490  30.432  1.00  0.00     0.031 A 
ATOM     56  C   UNL A   1      46.543  30.997  27.643  1.00  0.00     0.049 A 
ATOM     57  C   UNL A   1      45.751  36.122  29.733  1.00  0.00     0.074 A 
ATOM     58  C   UNL A   1      47.714  30.795  26.930  1.00  0.00     0.029 A 
ATOM     59  N   UNL A   1      46.567  32.315  28.075  1.00  0.00    -0.354 N 
ATOM     60  N   UNL A   1      46.082  34.979  29.183  1.00  0.00    -0.248 NA
ATOM     61  C   UNL A   1      46.776  37.167  29.620  1.00  0.00     0.031 C 
ATOM     62  C   UNL A   1      48.486  31.956  27.015  1.00  0.00     0.029 A 
ATOM     63  C   UNL A   1      47.757  32.917  27.697  1.00  0.00     0.049 A 
ATOM     64  H   UNL A   1      45.845  32.758  28.577  1.00  0.00     0.167 HD
ATOM     65  C   UNL A   1      47.349  35.170  28.647  1.00  0.00     0.074 A 
ATOM     66  C   UNL A   1      47.717  36.544  28.921  1.00  0.00     0.031 C 
ATOM     67  C   UNL A   1      48.132  34.280  27.988  1.00  0.00     0.031 A 
BRANCH  54  68
ATOM     68  C   UNL A   1      45.693  28.634  27.417  1.00  0.00    -0.014 A 
ATOM     69  C   UNL A   1      46.450  27.708  28.159  1.00  0.00     0.010 A 
ATOM     70  C   UNL A   1      45.275  28.286  26.120  1.00  0.00     0.010 A 
ATOM     71  C   UNL A   1      46.819  26.478  27.603  1.00  0.00     0.020 A 
ATOM     72  C   UNL A   1      45.623  27.046  25.568  1.00  0.00     0.020 A 
ATOM     73  C   UNL A   1      46.413  26.160  26.304  1.00  0.00     0.054 A 
BRANCH  73  74
ATOM     74  S   UNL A   1      46.941  24.579  25.586  1.00  0.00     0.124 S 
ATOM     75  O   UNL A   1      45.715  23.789  25.634  1.00  0.00    -0.237 OA
ATOM     76  O   UNL A   1      47.387  24.974  24.251  1.00  0.00    -0.237 OA
ATOM     77  O   UNL A   1      48.008  24.135  26.481  1.00  0.00    -0.744 OA
ENDBRANCH  73  74
ENDBRANCH  54  68
BRANCH  55  78
ATOM     78  C   UNL A   1      44.211  37.869  30.927  1.00  0.00    -0.014 A 
ATOM     79  C   UNL A   1      44.180  38.127  32.310  1.00  0.00     0.010 A 
ATOM     80  C   UNL A   1      43.858  38.891  30.030  1.00  0.00     0.010 A 
ATOM     81  C   UNL A   1      43.729  39.358  32.792  1.00  0.00     0.020 A 
ATOM     82  C   UNL A   1      43.440  40.137  30.508  1.00  0.00     0.020 A 
ATOM     83  C   UNL A   1      43.345  40.349  31.886  1.00  0.00     0.054 A 
BRANCH  83  84
ATOM     84  S   UNL A   1      42.689  41.910  32.535  1.00  0.00     0.124 S 
ATOM     85  O   UNL A   1      41.895  42.392  31.408  1.00  0.00    -0.237 OA
ATOM     86  O   UNL A   1      41.924  41.473  33.701  1.00  0.00    -0.237 OA
ATOM     87  O   UNL A   1      43.889  42.687  32.834  1.00  0.00    -0.744 OA
ENDBRANCH  83  84
ENDBRANCH  55  78
BRANCH  67  88
ATOM     88  C   UNL A   1      49.492  34.738  27.521  1.00  0.00    -0.014 A 
ATOM     89  C   UNL A   1      50.593  34.669  28.396  1.00  0.00     0.010 A 
ATOM     90  C   UNL A   1      49.653  35.356  26.268  1.00  0.00     0.010 A 
ATOM     91  C   UNL A   1      51.816  35.247  28.047  1.00  0.00     0.020 A 
ATOM     92  C   UNL A   1      50.885  35.907  25.902  1.00  0.00     0.020 A 
ATOM     93  C   UNL A   1      51.950  35.875  26.805  1.00  0.00     0.054 A 
BRANCH  93  94
ATOM     94  S   UNL A   1      53.531  36.659  26.388  1.00  0.00     0.124 S 
ATOM     95  O   UNL A   1      53.803  36.118  25.060  1.00  0.00    -0.237 OA
ATOM     96  O   UNL A   1      53.205  38.083  26.433  1.00  0.00    -0.237 OA
ATOM     97  O   UNL A   1      54.431  36.202  27.444  1.00  0.00    -0.744 OA
ENDBRANCH  93  94
ENDBRANCH  67  88
ENDBRANCH  41  42
ENDBRANCH  34  36
ENDBRANCH  33  34
ENDBRANCH  32  33
ENDBRANCH  31  32
ENDBRANCH  30  31
ENDBRANCH  29  30
ENDBRANCH   1  29
TORSDOF 25
ENDMDL
