MODEL 1
REMARK VINA RESULT:      -9.6      0.000      0.000
REMARK SMILES O=C(OCCOCCOCCOCCOC(=O)c1ccc(-c2c3nc(c(-c4ccc(S(=O)(=O)[O-])cc4)c4ccc([nH]4)c(-c4ccc(S(=O)(=O)[O-])cc4)c4nc(c(-c5ccc(S(=O)(=O)[O-])cc5)c5ccc2[nH]5)C=C4)C=C3)cc1)C1=Cc2cc(Cl)c(Cl)cc2O[C@@H]1C(F)(F)F
REMARK SMILES IDX 10 1 9 2 8 3 7 4 6 5 5 6 4 7 3 8 2 9 1 10 78 11 79 12 89 13
REMARK SMILES IDX 80 14 88 15 81 16 87 17 82 18 86 19 83 20 84 21 85 22 90 23
REMARK SMILES IDX 91 24 92 25 93 26 11 27 12 28 13 29 14 30 15 31 16 32 17 33
REMARK SMILES IDX 18 34 19 35 77 36 20 37 76 38 21 39 22 40 23 41 70 42 24 43
REMARK SMILES IDX 75 44 69 45 71 46 25 47 74 48 68 49 67 50 26 52 56 53 37 54
REMARK SMILES IDX 55 55 38 56 41 57 54 58 72 59 39 60 40 61 53 63 73 64 42 65
REMARK SMILES IDX 27 66 28 67 36 68 29 69 35 70 30 71 31 72 32 73 33 74 34 75
REMARK SMILES IDX 57 76 58 77 66 78 59 79 65 80 60 81 61 82 62 83 63 84 64 85
REMARK SMILES IDX 43 86 44 87 52 88 45 89 51 90 46 91 47 92 48 93 49 94 50 95
REMARK H PARENT 71 51 41 62
REMARK Flexibility Score: inf
ROOT
ATOM      1  C   UNL A   1      34.493  34.334  30.929  1.00  0.00     0.188 C 
ENDROOT
BRANCH   1   2
ATOM      2  O   UNL A   1      34.005  34.914  29.726  1.00  0.00    -0.377 OA
BRANCH   2   3
ATOM      3  C   UNL A   1      33.717  33.992  28.683  1.00  0.00     0.188 C 
BRANCH   3   4
ATOM      4  C   UNL A   1      34.821  32.958  28.524  1.00  0.00     0.188 C 
BRANCH   4   5
ATOM      5  O   UNL A   1      34.345  31.620  28.516  1.00  0.00    -0.376 OA
BRANCH   5   6
ATOM      6  C   UNL A   1      33.211  31.308  27.718  1.00  0.00     0.202 C 
BRANCH   6   7
ATOM      7  C   UNL A   1      33.328  30.019  26.901  1.00  0.00     0.261 C 
BRANCH   7   8
ATOM      8  O   UNL A   1      32.054  29.610  26.368  1.00  0.00    -0.460 OA
BRANCH   8   9
ATOM      9  C   UNL A   1      31.927  28.313  26.014  1.00  0.00     0.338 C 
ATOM     10  O   UNL A   1      32.088  27.390  26.797  1.00  0.00    -0.246 OA
BRANCH   9  11
ATOM     11  C   UNL A   1      31.729  28.111  24.555  1.00  0.00     0.087 C 
ATOM     12  C   UNL A   1      32.850  27.656  23.969  1.00  0.00     0.027 C 
ATOM     13  C   UNL A   1      30.363  27.680  24.077  1.00  0.00     0.316 C 
ATOM     14  C   UNL A   1      32.748  26.243  23.586  1.00  0.00     0.019 A 
ATOM     15  O   UNL A   1      30.324  26.364  23.463  1.00  0.00    -0.475 OA
ATOM     16  C   UNL A   1      33.908  25.470  23.501  1.00  0.00     0.034 A 
ATOM     17  C   UNL A   1      31.493  25.650  23.429  1.00  0.00     0.129 A 
ATOM     18  C   UNL A   1      33.811  24.086  23.334  1.00  0.00     0.060 A 
ATOM     19  C   UNL A   1      31.392  24.270  23.262  1.00  0.00     0.069 A 
ATOM     20  Cl  UNL A   1      35.281  23.184  23.267  1.00  0.00    -0.083 Cl
ATOM     21  C   UNL A   1      32.550  23.482  23.247  1.00  0.00     0.063 A 
ATOM     22  Cl  UNL A   1      32.353  21.768  23.164  1.00  0.00    -0.083 Cl
BRANCH  13  23
ATOM     23  C   UNL A   1      29.723  28.743  23.179  1.00  0.00     0.430 C 
ATOM     24  F   UNL A   1      29.827  28.415  21.870  1.00  0.00    -0.167 F 
ATOM     25  F   UNL A   1      28.397  28.871  23.439  1.00  0.00    -0.167 F 
ATOM     26  F   UNL A   1      30.282  29.963  23.344  1.00  0.00    -0.167 F 
ENDBRANCH  13  23
ENDBRANCH   9  11
ENDBRANCH   8   9
ENDBRANCH   7   8
ENDBRANCH   6   7
ENDBRANCH   5   6
ENDBRANCH   4   5
ENDBRANCH   3   4
ENDBRANCH   2   3
ENDBRANCH   1   2
BRANCH   1  27
ATOM     27  C   UNL A   1      34.681  35.292  32.130  1.00  0.00     0.188 C 
BRANCH  27  28
ATOM     28  O   UNL A   1      35.875  35.356  32.902  1.00  0.00    -0.376 OA
BRANCH  28  29
ATOM     29  C   UNL A   1      36.436  34.173  33.434  1.00  0.00     0.202 C 
BRANCH  29  30
ATOM     30  C   UNL A   1      37.635  33.598  32.666  1.00  0.00     0.261 C 
BRANCH  30  31
ATOM     31  O   UNL A   1      37.855  32.194  32.876  1.00  0.00    -0.460 OA
BRANCH  31  32
ATOM     32  C   UNL A   1      37.421  31.368  31.885  1.00  0.00     0.338 C 
ATOM     33  O   UNL A   1      36.273  31.174  31.551  1.00  0.00    -0.246 OA
BRANCH  32  34
ATOM     34  C   UNL A   1      38.598  30.874  31.111  1.00  0.00     0.060 A 
ATOM     35  C   UNL A   1      39.687  30.360  31.831  1.00  0.00     0.016 A 
ATOM     36  C   UNL A   1      38.617  30.846  29.713  1.00  0.00     0.016 A 
ATOM     37  C   UNL A   1      40.794  29.825  31.165  1.00  0.00     0.010 A 
ATOM     38  C   UNL A   1      39.737  30.332  29.045  1.00  0.00     0.010 A 
ATOM     39  C   UNL A   1      40.842  29.841  29.765  1.00  0.00    -0.014 A 
BRANCH  39  40
ATOM     40  C   UNL A   1      42.120  29.578  29.052  1.00  0.00     0.031 A 
ATOM     41  C   UNL A   1      42.333  28.191  28.503  1.00  0.00     0.074 A 
ATOM     42  C   UNL A   1      43.083  30.509  28.914  1.00  0.00     0.049 A 
ATOM     43  N   UNL A   1      43.406  27.664  27.974  1.00  0.00    -0.248 NA
ATOM     44  C   UNL A   1      41.180  27.275  28.568  1.00  0.00     0.031 C 
ATOM     45  C   UNL A   1      42.989  31.903  29.342  1.00  0.00     0.029 A 
ATOM     46  N   UNL A   1      44.350  30.405  28.390  1.00  0.00    -0.354 N 
ATOM     47  C   UNL A   1      43.067  26.350  27.673  1.00  0.00     0.074 A 
ATOM     48  C   UNL A   1      41.692  26.158  28.075  1.00  0.00     0.031 C 
ATOM     49  C   UNL A   1      44.162  32.516  29.094  1.00  0.00     0.029 A 
ATOM     50  C   UNL A   1      45.104  31.549  28.529  1.00  0.00     0.049 A 
ATOM     51  H   UNL A   1      44.687  29.590  27.953  1.00  0.00     0.167 HD
ATOM     52  C   UNL A   1      43.836  25.383  27.121  1.00  0.00     0.031 A 
ATOM     53  C   UNL A   1      46.412  31.775  28.276  1.00  0.00     0.031 A 
ATOM     54  C   UNL A   1      45.202  25.569  26.718  1.00  0.00     0.049 A 
ATOM     55  C   UNL A   1      47.271  30.653  27.736  1.00  0.00     0.074 A 
ATOM     56  C   UNL A   1      46.045  24.657  26.108  1.00  0.00     0.029 A 
ATOM     57  N   UNL A   1      45.928  26.734  26.897  1.00  0.00    -0.354 N 
ATOM     58  N   UNL A   1      46.924  29.430  27.412  1.00  0.00    -0.248 NA
ATOM     59  C   UNL A   1      48.700  30.942  27.534  1.00  0.00     0.031 C 
ATOM     60  C   UNL A   1      47.305  25.247  25.984  1.00  0.00     0.029 A 
ATOM     61  C   UNL A   1      47.227  26.548  26.455  1.00  0.00     0.049 A 
ATOM     62  H   UNL A   1      45.576  27.569  27.281  1.00  0.00     0.167 HD
ATOM     63  C   UNL A   1      48.087  28.814  26.951  1.00  0.00     0.074 A 
ATOM     64  C   UNL A   1      49.141  29.802  27.019  1.00  0.00     0.031 C 
ATOM     65  C   UNL A   1      48.267  27.542  26.518  1.00  0.00     0.031 A 
BRANCH  52  66
ATOM     66  C   UNL A   1      43.238  24.014  26.964  1.00  0.00    -0.014 A 
ATOM     67  C   UNL A   1      42.717  23.577  25.734  1.00  0.00     0.010 A 
ATOM     68  C   UNL A   1      43.273  23.123  28.053  1.00  0.00     0.010 A 
ATOM     69  C   UNL A   1      42.232  22.274  25.599  1.00  0.00     0.020 A 
ATOM     70  C   UNL A   1      42.811  21.814  27.915  1.00  0.00     0.020 A 
ATOM     71  C   UNL A   1      42.288  21.399  26.689  1.00  0.00     0.054 A 
BRANCH  71  72
ATOM     72  S   UNL A   1      41.718  19.692  26.465  1.00  0.00     0.124 S 
ATOM     73  O   UNL A   1      42.389  19.311  25.224  1.00  0.00    -0.237 OA
ATOM     74  O   UNL A   1      42.206  19.032  27.672  1.00  0.00    -0.237 OA
ATOM     75  O   UNL A   1      40.266  19.820  26.372  1.00  0.00    -0.744 OA
ENDBRANCH  71  72
ENDBRANCH  52  66
BRANCH  53  76
ATOM     76  C   UNL A   1      47.033  33.091  28.606  1.00  0.00    -0.014 A 
ATOM     77  C   UNL A   1      47.057  34.140  27.669  1.00  0.00     0.010 A 
ATOM     78  C   UNL A   1      47.665  33.279  29.850  1.00  0.00     0.010 A 
ATOM     79  C   UNL A   1      47.726  35.335  27.955  1.00  0.00     0.020 A 
ATOM     80  C   UNL A   1      48.307  34.484  30.152  1.00  0.00     0.020 A 
ATOM     81  C   UNL A   1      48.349  35.498  29.196  1.00  0.00     0.054 A 
BRANCH  81  82
ATOM     82  S   UNL A   1      49.191  37.064  29.560  1.00  0.00     0.124 S 
ATOM     83  O   UNL A   1      50.547  36.617  29.863  1.00  0.00    -0.237 OA
ATOM     84  O   UNL A   1      49.031  37.806  28.313  1.00  0.00    -0.237 OA
ATOM     85  O   UNL A   1      48.438  37.599  30.693  1.00  0.00    -0.744 OA
ENDBRANCH  81  82
ENDBRANCH  53  76
BRANCH  65  86
ATOM     86  C   UNL A   1      49.641  27.137  26.055  1.00  0.00    -0.014 A 
ATOM     87  C   UNL A   1      50.585  26.611  26.955  1.00  0.00     0.010 A 
ATOM     88  C   UNL A   1      49.958  27.193  24.685  1.00  0.00     0.010 A 
ATOM     89  C   UNL A   1      51.826  26.163  26.495  1.00  0.00     0.020 A 
ATOM     90  C   UNL A   1      51.187  26.720  24.217  1.00  0.00     0.020 A 
ATOM     91  C   UNL A   1      52.118  26.215  25.127  1.00  0.00     0.054 A 
BRANCH  91  92
ATOM     92  S   UNL A   1      53.707  25.562  24.548  1.00  0.00     0.124 S 
ATOM     93  O   UNL A   1      53.760  26.060  23.176  1.00  0.00    -0.237 OA
ATOM     94  O   UNL A   1      54.660  26.169  25.474  1.00  0.00    -0.237 OA
ATOM     95  O   UNL A   1      53.557  24.114  24.679  1.00  0.00    -0.744 OA
ENDBRANCH  91  92
ENDBRANCH  65  86
ENDBRANCH  39  40
ENDBRANCH  32  34
ENDBRANCH  31  32
ENDBRANCH  30  31
ENDBRANCH  29  30
ENDBRANCH  28  29
ENDBRANCH  27  28
ENDBRANCH   1  27
TORSDOF 24
ENDMDL
MODEL 2
REMARK VINA RESULT:      -9.5      6.740     12.326
REMARK SMILES O=C(OCCOCCOCCOCCOC(=O)c1ccc(-c2c3nc(c(-c4ccc(S(=O)(=O)[O-])cc4)c4ccc([nH]4)c(-c4ccc(S(=O)(=O)[O-])cc4)c4nc(c(-c5ccc(S(=O)(=O)[O-])cc5)c5ccc2[nH]5)C=C4)C=C3)cc1)C1=Cc2cc(Cl)c(Cl)cc2O[C@@H]1C(F)(F)F
REMARK SMILES IDX 10 1 9 2 8 3 7 4 6 5 5 6 4 7 3 8 2 9 1 10 78 11 79 12 89 13
REMARK SMILES IDX 80 14 88 15 81 16 87 17 82 18 86 19 83 20 84 21 85 22 90 23
REMARK SMILES IDX 91 24 92 25 93 26 11 27 12 28 13 29 14 30 15 31 16 32 17 33
REMARK SMILES IDX 18 34 19 35 77 36 20 37 76 38 21 39 22 40 23 41 70 42 24 43
REMARK SMILES IDX 75 44 69 45 71 46 25 47 74 48 68 49 67 50 26 52 56 53 37 54
REMARK SMILES IDX 55 55 38 56 41 57 54 58 72 59 39 60 40 61 53 63 73 64 42 65
REMARK SMILES IDX 27 66 28 67 36 68 29 69 35 70 30 71 31 72 32 73 33 74 34 75
REMARK SMILES IDX 57 76 58 77 66 78 59 79 65 80 60 81 61 82 62 83 63 84 64 85
REMARK SMILES IDX 43 86 44 87 52 88 45 89 51 90 46 91 47 92 48 93 49 94 50 95
REMARK H PARENT 71 51 41 62
REMARK Flexibility Score: inf
ROOT
ATOM      1  C   UNL A   1      35.660  22.204  24.515  1.00  0.00     0.188 C 
ENDROOT
BRANCH   1   2
ATOM      2  O   UNL A   1      34.721  21.192  24.852  1.00  0.00    -0.377 OA
BRANCH   2   3
ATOM      3  C   UNL A   1      33.422  21.362  24.300  1.00  0.00     0.188 C 
BRANCH   3   4
ATOM      4  C   UNL A   1      32.950  22.805  24.405  1.00  0.00     0.188 C 
BRANCH   4   5
ATOM      5  O   UNL A   1      31.539  22.932  24.502  1.00  0.00    -0.376 OA
BRANCH   5   6
ATOM      6  C   UNL A   1      30.943  22.906  25.791  1.00  0.00     0.202 C 
BRANCH   6   7
ATOM      7  C   UNL A   1      30.234  24.199  26.203  1.00  0.00     0.261 C 
BRANCH   7   8
ATOM      8  O   UNL A   1      30.953  25.365  25.757  1.00  0.00    -0.460 OA
BRANCH   8   9
ATOM      9  C   UNL A   1      30.390  26.091  24.769  1.00  0.00     0.338 C 
ATOM     10  O   UNL A   1      29.213  25.993  24.458  1.00  0.00    -0.246 OA
BRANCH   9  11
ATOM     11  C   UNL A   1      31.366  26.900  23.993  1.00  0.00     0.087 C 
ATOM     12  C   UNL A   1      31.018  28.198  23.975  1.00  0.00     0.027 C 
ATOM     13  C   UNL A   1      32.815  26.475  24.015  1.00  0.00     0.316 C 
ATOM     14  C   UNL A   1      31.890  29.024  24.819  1.00  0.00     0.019 A 
ATOM     15  O   UNL A   1      33.715  27.430  24.638  1.00  0.00    -0.475 OA
ATOM     16  C   UNL A   1      31.392  30.210  25.365  1.00  0.00     0.034 A 
ATOM     17  C   UNL A   1      33.161  28.565  25.171  1.00  0.00     0.129 A 
ATOM     18  C   UNL A   1      32.139  30.900  26.324  1.00  0.00     0.060 A 
ATOM     19  C   UNL A   1      33.908  29.250  26.127  1.00  0.00     0.069 A 
ATOM     20  Cl  UNL A   1      31.455  32.342  26.982  1.00  0.00    -0.083 Cl
ATOM     21  C   UNL A   1      33.384  30.401  26.729  1.00  0.00     0.063 A 
ATOM     22  Cl  UNL A   1      34.301  31.133  27.996  1.00  0.00    -0.083 Cl
BRANCH  13  23
ATOM     23  C   UNL A   1      33.299  26.066  22.621  1.00  0.00     0.430 C 
ATOM     24  F   UNL A   1      33.810  27.120  21.943  1.00  0.00    -0.167 F 
ATOM     25  F   UNL A   1      34.292  25.142  22.699  1.00  0.00    -0.167 F 
ATOM     26  F   UNL A   1      32.313  25.529  21.869  1.00  0.00    -0.167 F 
ENDBRANCH  13  23
ENDBRANCH   9  11
ENDBRANCH   8   9
ENDBRANCH   7   8
ENDBRANCH   6   7
ENDBRANCH   5   6
ENDBRANCH   4   5
ENDBRANCH   3   4
ENDBRANCH   2   3
ENDBRANCH   1   2
BRANCH   1  27
ATOM     27  C   UNL A   1      36.416  22.863  25.693  1.00  0.00     0.188 C 
BRANCH  27  28
ATOM     28  O   UNL A   1      37.667  23.528  25.548  1.00  0.00    -0.376 OA
BRANCH  28  29
ATOM     29  C   UNL A   1      38.826  22.989  26.152  1.00  0.00     0.202 C 
BRANCH  29  30
ATOM     30  C   UNL A   1      39.364  23.756  27.369  1.00  0.00     0.261 C 
BRANCH  30  31
ATOM     31  O   UNL A   1      38.945  25.129  27.435  1.00  0.00    -0.460 OA
BRANCH  31  32
ATOM     32  C   UNL A   1      39.902  26.057  27.155  1.00  0.00     0.338 C 
ATOM     33  O   UNL A   1      40.398  26.287  26.075  1.00  0.00    -0.246 OA
BRANCH  32  34
ATOM     34  C   UNL A   1      40.116  26.914  28.358  1.00  0.00     0.060 A 
ATOM     35  C   UNL A   1      39.281  26.708  29.467  1.00  0.00     0.016 A 
ATOM     36  C   UNL A   1      41.151  27.851  28.437  1.00  0.00     0.016 A 
ATOM     37  C   UNL A   1      39.469  27.435  30.647  1.00  0.00     0.010 A 
ATOM     38  C   UNL A   1      41.325  28.597  29.610  1.00  0.00     0.010 A 
ATOM     39  C   UNL A   1      40.471  28.411  30.714  1.00  0.00    -0.014 A 
BRANCH  39  40
ATOM     40  C   UNL A   1      40.485  29.402  31.823  1.00  0.00     0.031 A 
ATOM     41  C   UNL A   1      41.544  29.240  32.882  1.00  0.00     0.074 A 
ATOM     42  C   UNL A   1      39.581  30.396  31.924  1.00  0.00     0.049 A 
ATOM     43  N   UNL A   1      41.685  29.872  34.017  1.00  0.00    -0.248 NA
ATOM     44  C   UNL A   1      42.578  28.222  32.626  1.00  0.00     0.031 C 
ATOM     45  C   UNL A   1      38.542  30.706  30.945  1.00  0.00     0.029 A 
ATOM     46  N   UNL A   1      39.384  31.318  32.925  1.00  0.00    -0.354 N 
ATOM     47  C   UNL A   1      42.801  29.307  34.624  1.00  0.00     0.074 A 
ATOM     48  C   UNL A   1      43.301  28.285  33.733  1.00  0.00     0.031 C 
ATOM     49  C   UNL A   1      37.794  31.725  31.410  1.00  0.00     0.029 A 
ATOM     50  C   UNL A   1      38.274  32.111  32.738  1.00  0.00     0.049 A 
ATOM     51  H   UNL A   1      39.981  31.405  33.703  1.00  0.00     0.167 HD
ATOM     52  C   UNL A   1      43.355  29.604  35.821  1.00  0.00     0.031 A 
ATOM     53  C   UNL A   1      37.687  33.008  33.560  1.00  0.00     0.031 A 
ATOM     54  C   UNL A   1      42.864  30.621  36.709  1.00  0.00     0.049 A 
ATOM     55  C   UNL A   1      38.279  33.263  34.928  1.00  0.00     0.074 A 
ATOM     56  C   UNL A   1      43.389  31.022  37.925  1.00  0.00     0.029 A 
ATOM     57  N   UNL A   1      41.729  31.383  36.488  1.00  0.00    -0.354 N 
ATOM     58  N   UNL A   1      39.362  32.756  35.468  1.00  0.00    -0.248 NA
ATOM     59  C   UNL A   1      37.564  34.208  35.802  1.00  0.00     0.031 C 
ATOM     60  C   UNL A   1      42.530  31.977  38.474  1.00  0.00     0.029 A 
ATOM     61  C   UNL A   1      41.508  32.218  37.570  1.00  0.00     0.049 A 
ATOM     62  H   UNL A   1      41.163  31.337  35.684  1.00  0.00     0.167 HD
ATOM     63  C   UNL A   1      39.466  33.335  36.731  1.00  0.00     0.074 A 
ATOM     64  C   UNL A   1      38.350  34.245  36.870  1.00  0.00     0.031 C 
ATOM     65  C   UNL A   1      40.398  33.126  37.694  1.00  0.00     0.031 A 
BRANCH  52  66
ATOM     66  C   UNL A   1      44.532  28.787  36.273  1.00  0.00    -0.014 A 
ATOM     67  C   UNL A   1      45.852  29.220  36.061  1.00  0.00     0.010 A 
ATOM     68  C   UNL A   1      44.303  27.601  36.995  1.00  0.00     0.010 A 
ATOM     69  C   UNL A   1      46.924  28.474  36.556  1.00  0.00     0.020 A 
ATOM     70  C   UNL A   1      45.371  26.865  37.511  1.00  0.00     0.020 A 
ATOM     71  C   UNL A   1      46.676  27.304  37.283  1.00  0.00     0.054 A 
BRANCH  71  72
ATOM     72  S   UNL A   1      48.084  26.394  37.974  1.00  0.00     0.124 S 
ATOM     73  O   UNL A   1      49.178  27.346  37.788  1.00  0.00    -0.237 OA
ATOM     74  O   UNL A   1      47.673  26.174  39.358  1.00  0.00    -0.237 OA
ATOM     75  O   UNL A   1      48.159  25.191  37.150  1.00  0.00    -0.744 OA
ENDBRANCH  71  72
ENDBRANCH  52  66
BRANCH  53  76
ATOM     76  C   UNL A   1      36.415  33.682  33.166  1.00  0.00    -0.014 A 
ATOM     77  C   UNL A   1      36.420  34.967  32.595  1.00  0.00     0.010 A 
ATOM     78  C   UNL A   1      35.179  33.057  33.421  1.00  0.00     0.010 A 
ATOM     79  C   UNL A   1      35.217  35.627  32.317  1.00  0.00     0.020 A 
ATOM     80  C   UNL A   1      33.976  33.700  33.117  1.00  0.00     0.020 A 
ATOM     81  C   UNL A   1      34.002  34.989  32.583  1.00  0.00     0.054 A 
BRANCH  81  82
ATOM     82  S   UNL A   1      32.451  35.849  32.194  1.00  0.00     0.124 S 
ATOM     83  O   UNL A   1      31.450  34.905  32.680  1.00  0.00    -0.237 OA
ATOM     84  O   UNL A   1      32.579  37.088  32.957  1.00  0.00    -0.237 OA
ATOM     85  O   UNL A   1      32.509  36.013  30.743  1.00  0.00    -0.744 OA
ENDBRANCH  81  82
ENDBRANCH  53  76
BRANCH  65  86
ATOM     86  C   UNL A   1      40.281  33.906  38.976  1.00  0.00    -0.014 A 
ATOM     87  C   UNL A   1      39.326  33.564  39.950  1.00  0.00     0.010 A 
ATOM     88  C   UNL A   1      41.202  34.933  39.253  1.00  0.00     0.010 A 
ATOM     89  C   UNL A   1      39.285  34.245  41.169  1.00  0.00     0.020 A 
ATOM     90  C   UNL A   1      41.183  35.598  40.482  1.00  0.00     0.020 A 
ATOM     91  C   UNL A   1      40.218  35.254  41.431  1.00  0.00     0.054 A 
BRANCH  91  92
ATOM     92  S   UNL A   1      40.188  36.073  43.049  1.00  0.00     0.124 S 
ATOM     93  O   UNL A   1      39.235  35.250  43.789  1.00  0.00    -0.237 OA
ATOM     94  O   UNL A   1      41.578  35.972  43.486  1.00  0.00    -0.237 OA
ATOM     95  O   UNL A   1      39.735  37.428  42.743  1.00  0.00    -0.744 OA
ENDBRANCH  91  92
ENDBRANCH  65  86
ENDBRANCH  39  40
ENDBRANCH  32  34
ENDBRANCH  31  32
ENDBRANCH  30  31
ENDBRANCH  29  30
ENDBRANCH  28  29
ENDBRANCH  27  28
ENDBRANCH   1  27
TORSDOF 24
ENDMDL
MODEL 3
REMARK VINA RESULT:      -9.4      6.257      9.222
REMARK SMILES O=C(OCCOCCOCCOCCOC(=O)c1ccc(-c2c3nc(c(-c4ccc(S(=O)(=O)[O-])cc4)c4ccc([nH]4)c(-c4ccc(S(=O)(=O)[O-])cc4)c4nc(c(-c5ccc(S(=O)(=O)[O-])cc5)c5ccc2[nH]5)C=C4)C=C3)cc1)C1=Cc2cc(Cl)c(Cl)cc2O[C@@H]1C(F)(F)F
REMARK SMILES IDX 10 1 9 2 8 3 7 4 6 5 5 6 4 7 3 8 2 9 1 10 78 11 79 12 89 13
REMARK SMILES IDX 80 14 88 15 81 16 87 17 82 18 86 19 83 20 84 21 85 22 90 23
REMARK SMILES IDX 91 24 92 25 93 26 11 27 12 28 13 29 14 30 15 31 16 32 17 33
REMARK SMILES IDX 18 34 19 35 77 36 20 37 76 38 21 39 22 40 23 41 70 42 24 43
REMARK SMILES IDX 75 44 69 45 71 46 25 47 74 48 68 49 67 50 26 52 56 53 37 54
REMARK SMILES IDX 55 55 38 56 41 57 54 58 72 59 39 60 40 61 53 63 73 64 42 65
REMARK SMILES IDX 27 66 28 67 36 68 29 69 35 70 30 71 31 72 32 73 33 74 34 75
REMARK SMILES IDX 57 76 58 77 66 78 59 79 65 80 60 81 61 82 62 83 63 84 64 85
REMARK SMILES IDX 43 86 44 87 52 88 45 89 51 90 46 91 47 92 48 93 49 94 50 95
REMARK H PARENT 71 51 41 62
REMARK Flexibility Score: inf
ROOT
ATOM      1  C   UNL A   1      32.694  28.311  25.284  1.00  0.00     0.188 C 
ENDROOT
BRANCH   1   2
ATOM      2  O   UNL A   1      32.039  27.899  24.092  1.00  0.00    -0.377 OA
BRANCH   2   3
ATOM      3  C   UNL A   1      32.575  26.734  23.478  1.00  0.00     0.188 C 
BRANCH   3   4
ATOM      4  C   UNL A   1      34.009  26.476  23.915  1.00  0.00     0.188 C 
BRANCH   4   5
ATOM      5  O   UNL A   1      34.275  25.111  24.203  1.00  0.00    -0.376 OA
BRANCH   5   6
ATOM      6  C   UNL A   1      34.944  24.791  25.415  1.00  0.00     0.202 C 
BRANCH   6   7
ATOM      7  C   UNL A   1      35.958  23.649  25.313  1.00  0.00     0.261 C 
BRANCH   7   8
ATOM      8  O   UNL A   1      35.640  22.574  26.217  1.00  0.00    -0.460 OA
BRANCH   8   9
ATOM      9  C   UNL A   1      35.695  21.320  25.720  1.00  0.00     0.338 C 
ATOM     10  O   UNL A   1      36.708  20.837  25.240  1.00  0.00    -0.246 OA
BRANCH   9  11
ATOM     11  C   UNL A   1      34.373  20.642  25.668  1.00  0.00     0.087 C 
ATOM     12  C   UNL A   1      33.474  21.266  26.450  1.00  0.00     0.027 C 
ATOM     13  C   UNL A   1      33.964  19.982  24.374  1.00  0.00     0.316 C 
ATOM     14  C   UNL A   1      32.472  22.004  25.671  1.00  0.00     0.019 A 
ATOM     15  O   UNL A   1      32.801  20.574  23.734  1.00  0.00    -0.475 OA
ATOM     16  C   UNL A   1      31.843  23.114  26.240  1.00  0.00     0.034 A 
ATOM     17  C   UNL A   1      32.243  21.672  24.334  1.00  0.00     0.129 A 
ATOM     18  C   UNL A   1      31.040  23.940  25.448  1.00  0.00     0.060 A 
ATOM     19  C   UNL A   1      31.443  22.493  23.542  1.00  0.00     0.069 A 
ATOM     20  Cl  UNL A   1      30.315  25.312  26.204  1.00  0.00    -0.083 Cl
ATOM     21  C   UNL A   1      30.866  23.646  24.089  1.00  0.00     0.063 A 
ATOM     22  Cl  UNL A   1      29.991  24.689  23.026  1.00  0.00    -0.083 Cl
BRANCH  13  23
ATOM     23  C   UNL A   1      33.809  18.468  24.542  1.00  0.00     0.430 C 
ATOM     24  F   UNL A   1      33.243  18.155  25.731  1.00  0.00    -0.167 F 
ATOM     25  F   UNL A   1      33.000  17.949  23.583  1.00  0.00    -0.167 F 
ATOM     26  F   UNL A   1      34.990  17.816  24.463  1.00  0.00    -0.167 F 
ENDBRANCH  13  23
ENDBRANCH   9  11
ENDBRANCH   8   9
ENDBRANCH   7   8
ENDBRANCH   6   7
ENDBRANCH   5   6
ENDBRANCH   4   5
ENDBRANCH   3   4
ENDBRANCH   2   3
ENDBRANCH   1   2
BRANCH   1  27
ATOM     27  C   UNL A   1      31.899  29.257  26.216  1.00  0.00     0.188 C 
BRANCH  27  28
ATOM     28  O   UNL A   1      31.347  30.498  25.789  1.00  0.00    -0.376 OA
BRANCH  28  29
ATOM     29  C   UNL A   1      31.541  31.661  26.569  1.00  0.00     0.202 C 
BRANCH  29  30
ATOM     30  C   UNL A   1      32.876  31.745  27.324  1.00  0.00     0.261 C 
BRANCH  30  31
ATOM     31  O   UNL A   1      33.552  33.006  27.192  1.00  0.00    -0.460 OA
BRANCH  31  32
ATOM     32  C   UNL A   1      33.472  33.839  28.266  1.00  0.00     0.338 C 
ATOM     33  O   UNL A   1      32.550  34.570  28.552  1.00  0.00    -0.246 OA
BRANCH  32  34
ATOM     34  C   UNL A   1      34.624  33.572  29.176  1.00  0.00     0.060 A 
ATOM     35  C   UNL A   1      35.881  34.075  28.809  1.00  0.00     0.016 A 
ATOM     36  C   UNL A   1      34.476  32.907  30.398  1.00  0.00     0.016 A 
ATOM     37  C   UNL A   1      36.988  33.913  29.648  1.00  0.00     0.010 A 
ATOM     38  C   UNL A   1      35.590  32.723  31.227  1.00  0.00     0.010 A 
ATOM     39  C   UNL A   1      36.857  33.203  30.848  1.00  0.00    -0.014 A 
BRANCH  39  40
ATOM     40  C   UNL A   1      38.063  32.748  31.590  1.00  0.00     0.031 A 
ATOM     41  C   UNL A   1      38.812  31.565  31.033  1.00  0.00     0.074 A 
ATOM     42  C   UNL A   1      38.477  33.327  32.734  1.00  0.00     0.049 A 
ATOM     43  N   UNL A   1      39.799  30.887  31.558  1.00  0.00    -0.248 NA
ATOM     44  C   UNL A   1      38.384  31.080  29.709  1.00  0.00     0.031 C 
ATOM     45  C   UNL A   1      37.885  34.510  33.353  1.00  0.00     0.029 A 
ATOM     46  N   UNL A   1      39.489  32.970  33.593  1.00  0.00    -0.354 N 
ATOM     47  C   UNL A   1      40.086  29.878  30.645  1.00  0.00     0.074 A 
ATOM     48  C   UNL A   1      39.174  30.033  29.534  1.00  0.00     0.031 C 
ATOM     49  C   UNL A   1      38.524  34.763  34.511  1.00  0.00     0.029 A 
ATOM     50  C   UNL A   1      39.540  33.734  34.737  1.00  0.00     0.049 A 
ATOM     51  H   UNL A   1      40.121  32.238  33.408  1.00  0.00     0.167 HD
ATOM     52  C   UNL A   1      41.018  28.902  30.728  1.00  0.00     0.031 A 
ATOM     53  C   UNL A   1      40.286  33.592  35.856  1.00  0.00     0.031 A 
ATOM     54  C   UNL A   1      41.928  28.745  31.828  1.00  0.00     0.049 A 
ATOM     55  C   UNL A   1      41.264  32.443  35.958  1.00  0.00     0.074 A 
ATOM     56  C   UNL A   1      42.937  27.810  31.977  1.00  0.00     0.029 A 
ATOM     57  N   UNL A   1      41.930  29.527  32.971  1.00  0.00    -0.354 N 
ATOM     58  N   UNL A   1      41.558  31.526  35.066  1.00  0.00    -0.248 NA
ATOM     59  C   UNL A   1      42.006  32.306  37.222  1.00  0.00     0.031 C 
ATOM     60  C   UNL A   1      43.503  27.980  33.243  1.00  0.00     0.029 A 
ATOM     61  C   UNL A   1      42.891  29.063  33.853  1.00  0.00     0.049 A 
ATOM     62  H   UNL A   1      41.337  30.295  33.133  1.00  0.00     0.167 HD
ATOM     63  C   UNL A   1      42.530  30.720  35.656  1.00  0.00     0.074 A 
ATOM     64  C   UNL A   1      42.790  31.267  36.969  1.00  0.00     0.031 C 
ATOM     65  C   UNL A   1      43.147  29.621  35.156  1.00  0.00     0.031 A 
BRANCH  52  66
ATOM     66  C   UNL A   1      41.075  27.888  29.621  1.00  0.00    -0.014 A 
ATOM     67  C   UNL A   1      42.069  27.939  28.629  1.00  0.00     0.010 A 
ATOM     68  C   UNL A   1      40.158  26.820  29.625  1.00  0.00     0.010 A 
ATOM     69  C   UNL A   1      42.139  26.941  27.653  1.00  0.00     0.020 A 
ATOM     70  C   UNL A   1      40.240  25.809  28.665  1.00  0.00     0.020 A 
ATOM     71  C   UNL A   1      41.228  25.880  27.682  1.00  0.00     0.054 A 
BRANCH  71  72
ATOM     72  S   UNL A   1      41.387  24.563  26.445  1.00  0.00     0.124 S 
ATOM     73  O   UNL A   1      41.927  23.464  27.244  1.00  0.00    -0.237 OA
ATOM     74  O   UNL A   1      40.012  24.389  25.987  1.00  0.00    -0.237 OA
ATOM     75  O   UNL A   1      42.305  25.123  25.457  1.00  0.00    -0.744 OA
ENDBRANCH  71  72
ENDBRANCH  52  66
BRANCH  53  76
ATOM     76  C   UNL A   1      40.090  34.505  37.020  1.00  0.00    -0.014 A 
ATOM     77  C   UNL A   1      39.140  34.218  38.018  1.00  0.00     0.010 A 
ATOM     78  C   UNL A   1      40.816  35.708  37.101  1.00  0.00     0.010 A 
ATOM     79  C   UNL A   1      38.899  35.128  39.053  1.00  0.00     0.020 A 
ATOM     80  C   UNL A   1      40.600  36.605  38.151  1.00  0.00     0.020 A 
ATOM     81  C   UNL A   1      39.630  36.318  39.111  1.00  0.00     0.054 A 
BRANCH  81  82
ATOM     82  S   UNL A   1      39.321  37.476  40.474  1.00  0.00     0.124 S 
ATOM     83  O   UNL A   1      38.194  38.251  39.965  1.00  0.00    -0.237 OA
ATOM     84  O   UNL A   1      39.025  36.580  41.589  1.00  0.00    -0.237 OA
ATOM     85  O   UNL A   1      40.582  38.206  40.591  1.00  0.00    -0.744 OA
ENDBRANCH  81  82
ENDBRANCH  53  76
BRANCH  65  86
ATOM     86  C   UNL A   1      44.185  28.940  36.008  1.00  0.00    -0.014 A 
ATOM     87  C   UNL A   1      45.519  29.386  36.024  1.00  0.00     0.010 A 
ATOM     88  C   UNL A   1      43.800  27.903  36.879  1.00  0.00     0.010 A 
ATOM     89  C   UNL A   1      46.450  28.797  36.882  1.00  0.00     0.020 A 
ATOM     90  C   UNL A   1      44.723  27.330  37.759  1.00  0.00     0.020 A 
ATOM     91  C   UNL A   1      46.045  27.776  37.749  1.00  0.00     0.054 A 
BRANCH  91  92
ATOM     92  S   UNL A   1      47.258  27.077  38.902  1.00  0.00     0.124 S 
ATOM     93  O   UNL A   1      47.064  25.642  38.716  1.00  0.00    -0.237 OA
ATOM     94  O   UNL A   1      48.522  27.610  38.401  1.00  0.00    -0.237 OA
ATOM     95  O   UNL A   1      46.841  27.598  40.203  1.00  0.00    -0.744 OA
ENDBRANCH  91  92
ENDBRANCH  65  86
ENDBRANCH  39  40
ENDBRANCH  32  34
ENDBRANCH  31  32
ENDBRANCH  30  31
ENDBRANCH  29  30
ENDBRANCH  28  29
ENDBRANCH  27  28
ENDBRANCH   1  27
TORSDOF 24
ENDMDL
