MODEL 1
REMARK VINA RESULT:      -6.7      0.000      0.000
REMARK SMILES C#CC[N@@H+](CC(=O)OCCOCCOCCOCCOC(=O)c1ccc(-c2c3nc(c(-c4ccc(S(=O)(=O)[O-])cc4)c4ccc([nH]4)c(-c4ccc(S(=O)(=O)[O-])cc4)c4nc(c(-c5ccc(S(=O)(=O)[O-])cc5)c5ccc2[nH]5)C=C4)C=C3)cc1)Cc1ccc(C(C)C)cc1
REMARK SMILES IDX 13 1 12 2 11 3 10 4 9 5 8 6 6 7 7 8 5 9 4 10 3 12 2 13 1 14
REMARK SMILES IDX 83 15 84 16 85 17 92 18 86 19 91 20 87 21 88 22 89 23 90 24
REMARK SMILES IDX 14 25 15 26 16 27 17 28 18 29 19 30 20 31 21 32 22 33 23 34
REMARK SMILES IDX 24 35 82 36 25 37 81 38 26 39 27 40 28 41 75 42 29 43 80 44
REMARK SMILES IDX 74 45 76 46 30 47 79 48 73 49 72 50 31 52 61 53 42 54 60 55
REMARK SMILES IDX 43 56 46 57 59 58 77 59 44 60 45 61 58 63 78 64 47 65 32 66
REMARK SMILES IDX 33 67 41 68 34 69 40 70 35 71 36 72 37 73 38 74 39 75 62 76
REMARK SMILES IDX 63 77 71 78 64 79 70 80 65 81 66 82 67 83 68 84 69 85 48 86
REMARK SMILES IDX 49 87 57 88 50 89 56 90 51 91 52 92 53 93 54 94 55 95
REMARK H PARENT 4 11 76 51 46 62
REMARK Flexibility Score: inf
ROOT
ATOM      1  C   UNL A   1      40.677  28.932  30.563  1.00  0.00     0.188 C 
ENDROOT
BRANCH   1   2
ATOM      2  C   UNL A   1      40.459  29.603  32.644  1.00  0.00     0.188 C 
BRANCH   2   3
ATOM      3  O   UNL A   1      40.427  28.863  33.986  1.00  0.00    -0.376 OA
BRANCH   3   4
ATOM      4  C   UNL A   1      41.496  28.005  34.396  1.00  0.00     0.202 C 
BRANCH   4   5
ATOM      5  C   UNL A   1      41.698  27.416  35.815  1.00  0.00     0.261 C 
BRANCH   5   6
ATOM      6  O   UNL A   1      42.821  27.848  36.607  1.00  0.00    -0.459 OA
BRANCH   6   7
ATOM      7  C   UNL A   1      43.557  26.864  37.197  1.00  0.00     0.361 C 
ATOM      8  O   UNL A   1      44.185  27.017  38.243  1.00  0.00    -0.245 OA
BRANCH   7   9
ATOM      9  C   UNL A   1      43.629  25.551  36.407  1.00  0.00     0.387 C 
BRANCH   9  10
ATOM     10  N   UNL A   1      44.940  24.904  36.128  1.00  0.00    -0.312 N 
ATOM     11  H   UNL A   1      45.630  25.605  36.396  1.00  0.00     0.349 HD
BRANCH  10  12
ATOM     12  C   UNL A   1      45.197  24.711  34.716  1.00  0.00     0.354 C 
BRANCH  12  13
ATOM     13  C   UNL A   1      44.617  25.654  33.675  1.00  0.00    -0.047 C 
ATOM     14  C   UNL A   1      44.119  26.464  32.782  1.00  0.00     0.010 C 
ENDBRANCH  12  13
ENDBRANCH  10  12
BRANCH  10  15
ATOM     15  C   UNL A   1      45.357  23.850  37.037  1.00  0.00     0.300 C 
BRANCH  15  16
ATOM     16  C   UNL A   1      46.373  22.893  36.491  1.00  0.00     0.006 A 
ATOM     17  C   UNL A   1      45.904  21.263  35.851  1.00  0.00     0.010 A 
ATOM     18  C   UNL A   1      48.120  23.361  36.512  1.00  0.00     0.010 A 
ATOM     19  C   UNL A   1      47.202  20.109  35.302  1.00  0.00     0.004 A 
ATOM     20  C   UNL A   1      49.380  22.234  35.971  1.00  0.00     0.004 A 
ATOM     21  C   UNL A   1      48.942  20.612  35.361  1.00  0.00    -0.045 A 
BRANCH  21  22
ATOM     22  C   UNL A   1      50.152  19.756  35.105  1.00  0.00     0.013 C 
ATOM     23  C   UNL A   1      50.941  20.164  33.870  1.00  0.00     0.012 C 
ATOM     24  C   UNL A   1      50.993  19.601  36.347  1.00  0.00     0.012 C 
ENDBRANCH  21  22
ENDBRANCH  15  16
ENDBRANCH  10  15
ENDBRANCH   9  10
ENDBRANCH   7   9
ENDBRANCH   6   7
ENDBRANCH   5   6
ENDBRANCH   4   5
ENDBRANCH   3   4
ENDBRANCH   2   3
ENDBRANCH   1   2
BRANCH   1  25
ATOM     25  O   UNL A   1      39.685  29.017  29.398  1.00  0.00    -0.377 OA
BRANCH  25  26
ATOM     26  C   UNL A   1      38.321  28.983  29.764  1.00  0.00     0.188 C 
BRANCH  26  27
ATOM     27  C   UNL A   1      37.321  29.724  28.867  1.00  0.00     0.188 C 
BRANCH  27  28
ATOM     28  O   UNL A   1      36.494  29.008  27.973  1.00  0.00    -0.376 OA
BRANCH  28  29
ATOM     29  C   UNL A   1      35.382  29.678  27.400  1.00  0.00     0.202 C 
BRANCH  29  30
ATOM     30  C   UNL A   1      35.219  31.189  27.617  1.00  0.00     0.261 C 
BRANCH  30  31
ATOM     31  O   UNL A   1      33.949  31.590  28.163  1.00  0.00    -0.460 OA
BRANCH  31  32
ATOM     32  C   UNL A   1      33.840  32.880  28.581  1.00  0.00     0.338 C 
ATOM     33  O   UNL A   1      32.995  33.694  28.252  1.00  0.00    -0.246 OA
BRANCH  32  34
ATOM     34  C   UNL A   1      34.808  33.094  29.679  1.00  0.00     0.060 A 
ATOM     35  C   UNL A   1      35.371  34.368  29.891  1.00  0.00     0.016 A 
ATOM     36  C   UNL A   1      35.112  32.040  30.534  1.00  0.00     0.016 A 
ATOM     37  C   UNL A   1      36.184  34.607  30.998  1.00  0.00     0.010 A 
ATOM     38  C   UNL A   1      36.004  32.254  31.582  1.00  0.00     0.010 A 
ATOM     39  C   UNL A   1      36.552  33.530  31.810  1.00  0.00    -0.014 A 
BRANCH  39  40
ATOM     40  C   UNL A   1      37.749  33.621  32.674  1.00  0.00     0.031 A 
ATOM     41  C   UNL A   1      39.081  33.566  31.980  1.00  0.00     0.074 A 
ATOM     42  C   UNL A   1      37.664  33.634  34.015  1.00  0.00     0.049 A 
ATOM     43  N   UNL A   1      40.269  33.366  32.480  1.00  0.00    -0.248 NA
ATOM     44  C   UNL A   1      39.060  33.739  30.517  1.00  0.00     0.031 C 
ATOM     45  C   UNL A   1      36.434  33.770  34.791  1.00  0.00     0.029 A 
ATOM     46  N   UNL A   1      38.649  33.493  34.961  1.00  0.00    -0.354 N 
ATOM     47  C   UNL A   1      41.131  33.362  31.390  1.00  0.00     0.074 A 
ATOM     48  C   UNL A   1      40.333  33.571  30.205  1.00  0.00     0.031 C 
ATOM     49  C   UNL A   1      36.734  33.669  36.099  1.00  0.00     0.029 A 
ATOM     50  C   UNL A   1      38.165  33.401  36.245  1.00  0.00     0.049 A 
ATOM     51  H   UNL A   1      39.608  33.460  34.741  1.00  0.00     0.167 HD
ATOM     52  C   UNL A   1      42.471  33.181  31.375  1.00  0.00     0.031 A 
ATOM     53  C   UNL A   1      38.802  33.085  37.391  1.00  0.00     0.031 A 
ATOM     54  C   UNL A   1      43.242  32.915  32.556  1.00  0.00     0.049 A 
ATOM     55  C   UNL A   1      40.277  32.760  37.340  1.00  0.00     0.074 A 
ATOM     56  C   UNL A   1      44.603  32.704  32.665  1.00  0.00     0.029 A 
ATOM     57  N   UNL A   1      42.710  32.800  33.832  1.00  0.00    -0.354 N 
ATOM     58  N   UNL A   1      41.092  32.779  36.311  1.00  0.00    -0.248 NA
ATOM     59  C   UNL A   1      40.915  32.361  38.603  1.00  0.00     0.031 C 
ATOM     60  C   UNL A   1      44.884  32.390  33.997  1.00  0.00     0.029 A 
ATOM     61  C   UNL A   1      43.709  32.479  34.731  1.00  0.00     0.049 A 
ATOM     62  H   UNL A   1      41.762  32.926  34.063  1.00  0.00     0.167 HD
ATOM     63  C   UNL A   1      42.341  32.415  36.806  1.00  0.00     0.074 A 
ATOM     64  C   UNL A   1      42.177  32.202  38.230  1.00  0.00     0.031 C 
ATOM     65  C   UNL A   1      43.518  32.269  36.145  1.00  0.00     0.031 A 
BRANCH  52  66
ATOM     66  C   UNL A   1      43.152  33.199  30.033  1.00  0.00    -0.014 A 
ATOM     67  C   UNL A   1      43.310  32.024  29.277  1.00  0.00     0.010 A 
ATOM     68  C   UNL A   1      43.656  34.411  29.525  1.00  0.00     0.010 A 
ATOM     69  C   UNL A   1      43.999  32.050  28.062  1.00  0.00     0.020 A 
ATOM     70  C   UNL A   1      44.314  34.449  28.293  1.00  0.00     0.020 A 
ATOM     71  C   UNL A   1      44.498  33.264  27.579  1.00  0.00     0.054 A 
BRANCH  71  72
ATOM     72  S   UNL A   1      45.376  33.268  25.993  1.00  0.00     0.124 S 
ATOM     73  O   UNL A   1      44.495  32.456  25.157  1.00  0.00    -0.237 OA
ATOM     74  O   UNL A   1      45.421  34.690  25.660  1.00  0.00    -0.237 OA
ATOM     75  O   UNL A   1      46.667  32.663  26.308  1.00  0.00    -0.744 OA
ENDBRANCH  71  72
ENDBRANCH  52  66
BRANCH  53  76
ATOM     76  C   UNL A   1      38.050  33.022  38.676  1.00  0.00    -0.014 A 
ATOM     77  C   UNL A   1      37.206  31.932  38.953  1.00  0.00     0.010 A 
ATOM     78  C   UNL A   1      38.177  34.043  39.637  1.00  0.00     0.010 A 
ATOM     79  C   UNL A   1      36.507  31.862  40.162  1.00  0.00     0.020 A 
ATOM     80  C   UNL A   1      37.502  33.963  40.861  1.00  0.00     0.020 A 
ATOM     81  C   UNL A   1      36.669  32.873  41.113  1.00  0.00     0.054 A 
BRANCH  81  82
ATOM     82  S   UNL A   1      35.814  32.713  42.706  1.00  0.00     0.124 S 
ATOM     83  O   UNL A   1      35.551  34.105  43.054  1.00  0.00    -0.237 OA
ATOM     84  O   UNL A   1      34.643  31.915  42.351  1.00  0.00    -0.237 OA
ATOM     85  O   UNL A   1      36.790  32.029  43.552  1.00  0.00    -0.744 OA
ENDBRANCH  81  82
ENDBRANCH  53  76
BRANCH  65  86
ATOM     86  C   UNL A   1      44.729  31.873  36.949  1.00  0.00    -0.014 A 
ATOM     87  C   UNL A   1      45.077  30.522  37.119  1.00  0.00     0.010 A 
ATOM     88  C   UNL A   1      45.588  32.871  37.448  1.00  0.00     0.010 A 
ATOM     89  C   UNL A   1      46.255  30.176  37.784  1.00  0.00     0.020 A 
ATOM     90  C   UNL A   1      46.783  32.530  38.084  1.00  0.00     0.020 A 
ATOM     91  C   UNL A   1      47.107  31.182  38.253  1.00  0.00     0.054 A 
BRANCH  91  92
ATOM     92  S   UNL A   1      48.670  30.702  39.035  1.00  0.00     0.124 S 
ATOM     93  O   UNL A   1      48.396  29.330  39.450  1.00  0.00    -0.237 OA
ATOM     94  O   UNL A   1      49.630  30.849  37.942  1.00  0.00    -0.237 OA
ATOM     95  O   UNL A   1      48.825  31.663  40.125  1.00  0.00    -0.744 OA
ENDBRANCH  91  92
ENDBRANCH  65  86
ENDBRANCH  39  40
ENDBRANCH  32  34
ENDBRANCH  31  32
ENDBRANCH  30  31
ENDBRANCH  29  30
ENDBRANCH  28  29
ENDBRANCH  27  28
ENDBRANCH  26  27
ENDBRANCH  25  26
ENDBRANCH   1  25
TORSDOF 29
ENDMDL
MODEL 2
REMARK VINA RESULT:      -6.2      9.185     14.096
REMARK SMILES C#CC[N@@H+](CC(=O)OCCOCCOCCOCCOC(=O)c1ccc(-c2c3nc(c(-c4ccc(S(=O)(=O)[O-])cc4)c4ccc([nH]4)c(-c4ccc(S(=O)(=O)[O-])cc4)c4nc(c(-c5ccc(S(=O)(=O)[O-])cc5)c5ccc2[nH]5)C=C4)C=C3)cc1)Cc1ccc(C(C)C)cc1
REMARK SMILES IDX 13 1 12 2 11 3 10 4 9 5 8 6 6 7 7 8 5 9 4 10 3 12 2 13 1 14
REMARK SMILES IDX 83 15 84 16 85 17 92 18 86 19 91 20 87 21 88 22 89 23 90 24
REMARK SMILES IDX 14 25 15 26 16 27 17 28 18 29 19 30 20 31 21 32 22 33 23 34
REMARK SMILES IDX 24 35 82 36 25 37 81 38 26 39 27 40 28 41 75 42 29 43 80 44
REMARK SMILES IDX 74 45 76 46 30 47 79 48 73 49 72 50 31 52 61 53 42 54 60 55
REMARK SMILES IDX 43 56 46 57 59 58 77 59 44 60 45 61 58 63 78 64 47 65 32 66
REMARK SMILES IDX 33 67 41 68 34 69 40 70 35 71 36 72 37 73 38 74 39 75 62 76
REMARK SMILES IDX 63 77 71 78 64 79 70 80 65 81 66 82 67 83 68 84 69 85 48 86
REMARK SMILES IDX 49 87 57 88 50 89 56 90 51 91 52 92 53 93 54 94 55 95
REMARK H PARENT 4 11 76 51 46 62
REMARK Flexibility Score: inf
ROOT
ATOM      1  C   UNL A   1      36.234  33.200  34.082  1.00  0.00     0.188 C 
ENDROOT
BRANCH   1   2
ATOM      2  C   UNL A   1      34.660  33.420  32.566  1.00  0.00     0.188 C 
BRANCH   2   3
ATOM      3  O   UNL A   1      34.643  34.007  31.149  1.00  0.00    -0.376 OA
BRANCH   3   4
ATOM      4  C   UNL A   1      35.270  33.336  30.052  1.00  0.00     0.202 C 
BRANCH   4   5
ATOM      5  C   UNL A   1      35.859  31.903  30.077  1.00  0.00     0.261 C 
BRANCH   5   6
ATOM      6  O   UNL A   1      36.769  31.531  31.131  1.00  0.00    -0.459 OA
BRANCH   6   7
ATOM      7  C   UNL A   1      38.096  31.684  30.863  1.00  0.00     0.361 C 
ATOM      8  O   UNL A   1      38.791  32.575  31.350  1.00  0.00    -0.245 OA
BRANCH   7   9
ATOM      9  C   UNL A   1      38.661  30.710  29.823  1.00  0.00     0.387 C 
BRANCH   9  10
ATOM     10  N   UNL A   1      38.231  29.285  29.804  1.00  0.00    -0.312 N 
ATOM     11  H   UNL A   1      37.225  29.323  29.962  1.00  0.00     0.349 HD
BRANCH  10  12
ATOM     12  C   UNL A   1      38.715  28.523  30.937  1.00  0.00     0.354 C 
BRANCH  12  13
ATOM     13  C   UNL A   1      39.951  28.960  31.707  1.00  0.00    -0.047 C 
ATOM     14  C   UNL A   1      41.011  29.334  32.368  1.00  0.00     0.010 C 
ENDBRANCH  12  13
ENDBRANCH  10  12
BRANCH  10  15
ATOM     15  C   UNL A   1      38.210  28.624  28.511  1.00  0.00     0.300 C 
BRANCH  15  16
ATOM     16  C   UNL A   1      39.438  27.831  28.172  1.00  0.00     0.006 A 
ATOM     17  C   UNL A   1      40.910  28.609  27.457  1.00  0.00     0.010 A 
ATOM     18  C   UNL A   1      39.429  26.044  28.444  1.00  0.00     0.010 A 
ATOM     19  C   UNL A   1      42.325  27.570  26.971  1.00  0.00     0.004 A 
ATOM     20  C   UNL A   1      40.813  25.036  27.973  1.00  0.00     0.004 A 
ATOM     21  C   UNL A   1      42.265  25.779  27.242  1.00  0.00    -0.045 A 
BRANCH  21  22
ATOM     22  C   UNL A   1      43.253  24.748  26.770  1.00  0.00     0.013 C 
ATOM     23  C   UNL A   1      43.186  24.471  25.276  1.00  0.00     0.012 C 
ATOM     24  C   UNL A   1      44.644  25.041  27.278  1.00  0.00     0.012 C 
ENDBRANCH  21  22
ENDBRANCH  15  16
ENDBRANCH  10  15
ENDBRANCH   9  10
ENDBRANCH   7   9
ENDBRANCH   6   7
ENDBRANCH   5   6
ENDBRANCH   4   5
ENDBRANCH   3   4
ENDBRANCH   2   3
ENDBRANCH   1   2
BRANCH   1  25
ATOM     25  O   UNL A   1      37.042  31.961  34.482  1.00  0.00    -0.377 OA
BRANCH  25  26
ATOM     26  C   UNL A   1      38.408  32.194  34.752  1.00  0.00     0.188 C 
BRANCH  26  27
ATOM     27  C   UNL A   1      38.824  32.401  36.214  1.00  0.00     0.188 C 
BRANCH  27  28
ATOM     28  O   UNL A   1      38.842  33.697  36.776  1.00  0.00    -0.376 OA
BRANCH  28  29
ATOM     29  C   UNL A   1      38.127  33.919  37.980  1.00  0.00     0.202 C 
BRANCH  29  30
ATOM     30  C   UNL A   1      38.505  33.126  39.239  1.00  0.00     0.261 C 
BRANCH  30  31
ATOM     31  O   UNL A   1      39.092  33.908  40.296  1.00  0.00    -0.460 OA
BRANCH  31  32
ATOM     32  C   UNL A   1      38.293  34.832  40.894  1.00  0.00     0.338 C 
ATOM     33  O   UNL A   1      37.197  34.649  41.393  1.00  0.00    -0.246 OA
BRANCH  32  34
ATOM     34  C   UNL A   1      39.062  36.089  41.032  1.00  0.00     0.060 A 
ATOM     35  C   UNL A   1      39.250  36.931  39.919  1.00  0.00     0.016 A 
ATOM     36  C   UNL A   1      39.544  36.457  42.284  1.00  0.00     0.016 A 
ATOM     37  C   UNL A   1      39.863  38.175  40.069  1.00  0.00     0.010 A 
ATOM     38  C   UNL A   1      40.244  37.654  42.413  1.00  0.00     0.010 A 
ATOM     39  C   UNL A   1      40.417  38.509  41.308  1.00  0.00    -0.014 A 
BRANCH  39  40
ATOM     40  C   UNL A   1      41.460  39.554  41.402  1.00  0.00     0.031 A 
ATOM     41  C   UNL A   1      40.985  40.948  41.700  1.00  0.00     0.074 A 
ATOM     42  C   UNL A   1      42.750  39.305  41.122  1.00  0.00     0.049 A 
ATOM     43  N   UNL A   1      41.619  42.083  41.587  1.00  0.00    -0.248 NA
ATOM     44  C   UNL A   1      39.593  41.076  42.168  1.00  0.00     0.031 C 
ATOM     45  C   UNL A   1      43.336  37.984  40.902  1.00  0.00     0.029 A 
ATOM     46  N   UNL A   1      43.796  40.175  40.942  1.00  0.00    -0.354 N 
ATOM     47  C   UNL A   1      40.695  43.058  41.943  1.00  0.00     0.074 A 
ATOM     48  C   UNL A   1      39.459  42.387  42.267  1.00  0.00     0.031 C 
ATOM     49  C   UNL A   1      44.634  38.135  40.579  1.00  0.00     0.029 A 
ATOM     50  C   UNL A   1      44.949  39.562  40.511  1.00  0.00     0.049 A 
ATOM     51  H   UNL A   1      43.727  41.143  41.105  1.00  0.00     0.167 HD
ATOM     52  C   UNL A   1      40.858  44.400  41.980  1.00  0.00     0.031 A 
ATOM     53  C   UNL A   1      46.103  40.101  40.067  1.00  0.00     0.031 A 
ATOM     54  C   UNL A   1      42.075  45.056  41.598  1.00  0.00     0.049 A 
ATOM     55  C   UNL A   1      46.226  41.605  39.993  1.00  0.00     0.074 A 
ATOM     56  C   UNL A   1      42.355  46.409  41.583  1.00  0.00     0.029 A 
ATOM     57  N   UNL A   1      43.209  44.402  41.138  1.00  0.00    -0.354 N 
ATOM     58  N   UNL A   1      45.357  42.523  40.352  1.00  0.00    -0.248 NA
ATOM     59  C   UNL A   1      47.477  42.146  39.444  1.00  0.00     0.031 C 
ATOM     60  C   UNL A   1      43.634  46.577  41.045  1.00  0.00     0.029 A 
ATOM     61  C   UNL A   1      44.179  45.325  40.796  1.00  0.00     0.049 A 
ATOM     62  H   UNL A   1      43.308  43.425  41.065  1.00  0.00     0.167 HD
ATOM     63  C   UNL A   1      45.966  43.748  40.092  1.00  0.00     0.074 A 
ATOM     64  C   UNL A   1      47.284  43.452  39.564  1.00  0.00     0.031 C 
ATOM     65  C   UNL A   1      45.483  45.003  40.271  1.00  0.00     0.031 A 
BRANCH  52  66
ATOM     66  C   UNL A   1      39.665  45.225  42.382  1.00  0.00    -0.014 A 
ATOM     67  C   UNL A   1      38.755  45.711  41.426  1.00  0.00     0.010 A 
ATOM     68  C   UNL A   1      39.458  45.533  43.739  1.00  0.00     0.010 A 
ATOM     69  C   UNL A   1      37.690  46.526  41.812  1.00  0.00     0.020 A 
ATOM     70  C   UNL A   1      38.372  46.318  44.135  1.00  0.00     0.020 A 
ATOM     71  C   UNL A   1      37.505  46.826  43.166  1.00  0.00     0.054 A 
BRANCH  71  72
ATOM     72  S   UNL A   1      36.105  47.876  43.638  1.00  0.00     0.124 S 
ATOM     73  O   UNL A   1      35.888  47.483  45.028  1.00  0.00    -0.237 OA
ATOM     74  O   UNL A   1      36.638  49.222  43.442  1.00  0.00    -0.237 OA
ATOM     75  O   UNL A   1      35.048  47.485  42.709  1.00  0.00    -0.744 OA
ENDBRANCH  71  72
ENDBRANCH  52  66
BRANCH  53  76
ATOM     76  C   UNL A   1      47.222  39.222  39.622  1.00  0.00    -0.014 A 
ATOM     77  C   UNL A   1      47.304  38.798  38.284  1.00  0.00     0.010 A 
ATOM     78  C   UNL A   1      48.218  38.808  40.527  1.00  0.00     0.010 A 
ATOM     79  C   UNL A   1      48.357  37.982  37.858  1.00  0.00     0.020 A 
ATOM     80  C   UNL A   1      49.289  38.015  40.099  1.00  0.00     0.020 A 
ATOM     81  C   UNL A   1      49.349  37.606  38.767  1.00  0.00     0.054 A 
BRANCH  81  82
ATOM     82  S   UNL A   1      50.747  36.616  38.166  1.00  0.00     0.124 S 
ATOM     83  O   UNL A   1      50.872  37.068  36.785  1.00  0.00    -0.237 OA
ATOM     84  O   UNL A   1      51.824  37.022  39.066  1.00  0.00    -0.237 OA
ATOM     85  O   UNL A   1      50.290  35.239  38.337  1.00  0.00    -0.744 OA
ENDBRANCH  81  82
ENDBRANCH  53  76
BRANCH  65  86
ATOM     86  C   UNL A   1      46.380  46.158  39.909  1.00  0.00    -0.014 A 
ATOM     87  C   UNL A   1      46.277  46.793  38.659  1.00  0.00     0.010 A 
ATOM     88  C   UNL A   1      47.261  46.683  40.874  1.00  0.00     0.010 A 
ATOM     89  C   UNL A   1      47.048  47.923  38.377  1.00  0.00     0.020 A 
ATOM     90  C   UNL A   1      48.008  47.831  40.608  1.00  0.00     0.020 A 
ATOM     91  C   UNL A   1      47.900  48.442  39.357  1.00  0.00     0.054 A 
BRANCH  91  92
ATOM     92  S   UNL A   1      48.823  49.959  38.992  1.00  0.00     0.124 S 
ATOM     93  O   UNL A   1      50.170  49.448  38.755  1.00  0.00    -0.237 OA
ATOM     94  O   UNL A   1      48.130  50.476  37.813  1.00  0.00    -0.237 OA
ATOM     95  O   UNL A   1      48.667  50.763  40.202  1.00  0.00    -0.744 OA
ENDBRANCH  91  92
ENDBRANCH  65  86
ENDBRANCH  39  40
ENDBRANCH  32  34
ENDBRANCH  31  32
ENDBRANCH  30  31
ENDBRANCH  29  30
ENDBRANCH  28  29
ENDBRANCH  27  28
ENDBRANCH  26  27
ENDBRANCH  25  26
ENDBRANCH   1  25
TORSDOF 29
ENDMDL
MODEL 3
REMARK VINA RESULT:      -6.2      6.124     13.121
REMARK SMILES C#CC[N@@H+](CC(=O)OCCOCCOCCOCCOC(=O)c1ccc(-c2c3nc(c(-c4ccc(S(=O)(=O)[O-])cc4)c4ccc([nH]4)c(-c4ccc(S(=O)(=O)[O-])cc4)c4nc(c(-c5ccc(S(=O)(=O)[O-])cc5)c5ccc2[nH]5)C=C4)C=C3)cc1)Cc1ccc(C(C)C)cc1
REMARK SMILES IDX 13 1 12 2 11 3 10 4 9 5 8 6 6 7 7 8 5 9 4 10 3 12 2 13 1 14
REMARK SMILES IDX 83 15 84 16 85 17 92 18 86 19 91 20 87 21 88 22 89 23 90 24
REMARK SMILES IDX 14 25 15 26 16 27 17 28 18 29 19 30 20 31 21 32 22 33 23 34
REMARK SMILES IDX 24 35 82 36 25 37 81 38 26 39 27 40 28 41 75 42 29 43 80 44
REMARK SMILES IDX 74 45 76 46 30 47 79 48 73 49 72 50 31 52 61 53 42 54 60 55
REMARK SMILES IDX 43 56 46 57 59 58 77 59 44 60 45 61 58 63 78 64 47 65 32 66
REMARK SMILES IDX 33 67 41 68 34 69 40 70 35 71 36 72 37 73 38 74 39 75 62 76
REMARK SMILES IDX 63 77 71 78 64 79 70 80 65 81 66 82 67 83 68 84 69 85 48 86
REMARK SMILES IDX 49 87 57 88 50 89 56 90 51 91 52 92 53 93 54 94 55 95
REMARK H PARENT 4 11 76 51 46 62
REMARK Flexibility Score: inf
ROOT
ATOM      1  C   UNL A   1      51.298  35.851  28.857  1.00  0.00     0.188 C 
ENDROOT
BRANCH   1   2
ATOM      2  C   UNL A   1      51.113  33.670  28.662  1.00  0.00     0.188 C 
BRANCH   2   3
ATOM      3  O   UNL A   1      52.102  32.513  28.846  1.00  0.00    -0.376 OA
BRANCH   3   4
ATOM      4  C   UNL A   1      51.923  31.528  29.868  1.00  0.00     0.202 C 
BRANCH   4   5
ATOM      5  C   UNL A   1      50.603  31.234  30.627  1.00  0.00     0.261 C 
BRANCH   5   6
ATOM      6  O   UNL A   1      50.490  31.601  32.016  1.00  0.00    -0.459 OA
BRANCH   6   7
ATOM      7  C   UNL A   1      50.597  30.586  32.918  1.00  0.00     0.361 C 
ATOM      8  O   UNL A   1      51.206  29.540  32.698  1.00  0.00    -0.245 OA
BRANCH   7   9
ATOM      9  C   UNL A   1      49.816  30.796  34.221  1.00  0.00     0.387 C 
BRANCH   9  10
ATOM     10  N   UNL A   1      48.414  30.314  34.352  1.00  0.00    -0.312 N 
ATOM     11  H   UNL A   1      48.239  29.807  33.486  1.00  0.00     0.349 HD
BRANCH  10  12
ATOM     12  C   UNL A   1      47.434  31.380  34.314  1.00  0.00     0.354 C 
BRANCH  12  13
ATOM     13  C   UNL A   1      46.135  31.227  33.540  1.00  0.00    -0.047 C 
ATOM     14  C   UNL A   1      45.020  31.095  32.877  1.00  0.00     0.010 C 
ENDBRANCH  12  13
ENDBRANCH  10  12
BRANCH  10  15
ATOM     15  C   UNL A   1      48.181  29.221  35.280  1.00  0.00     0.300 C 
BRANCH  15  16
ATOM     16  C   UNL A   1      47.427  28.051  34.720  1.00  0.00     0.006 A 
ATOM     17  C   UNL A   1      48.187  26.899  33.545  1.00  0.00     0.010 A 
ATOM     18  C   UNL A   1      45.700  27.810  35.199  1.00  0.00     0.010 A 
ATOM     19  C   UNL A   1      47.180  25.563  32.824  1.00  0.00     0.004 A 
ATOM     20  C   UNL A   1      44.726  26.504  34.496  1.00  0.00     0.004 A 
ATOM     21  C   UNL A   1      45.447  25.372  33.315  1.00  0.00    -0.045 A 
BRANCH  21  22
ATOM     22  C   UNL A   1      44.424  24.443  32.722  1.00  0.00     0.013 C 
ATOM     23  C   UNL A   1      44.450  24.390  31.202  1.00  0.00     0.012 C 
ATOM     24  C   UNL A   1      44.458  23.087  33.383  1.00  0.00     0.012 C 
ENDBRANCH  21  22
ENDBRANCH  15  16
ENDBRANCH  10  15
ENDBRANCH   9  10
ENDBRANCH   7   9
ENDBRANCH   6   7
ENDBRANCH   5   6
ENDBRANCH   4   5
ENDBRANCH   3   4
ENDBRANCH   2   3
ENDBRANCH   1   2
BRANCH   1  25
ATOM     25  O   UNL A   1      50.208  36.916  29.011  1.00  0.00    -0.377 OA
BRANCH  25  26
ATOM     26  C   UNL A   1      49.082  36.752  28.173  1.00  0.00     0.188 C 
BRANCH  26  27
ATOM     27  C   UNL A   1      47.963  37.797  28.266  1.00  0.00     0.188 C 
BRANCH  27  28
ATOM     28  O   UNL A   1      48.202  39.050  28.876  1.00  0.00    -0.376 OA
BRANCH  28  29
ATOM     29  C   UNL A   1      47.697  39.269  30.183  1.00  0.00     0.202 C 
BRANCH  29  30
ATOM     30  C   UNL A   1      47.894  38.191  31.259  1.00  0.00     0.261 C 
BRANCH  30  31
ATOM     31  O   UNL A   1      46.803  37.262  31.394  1.00  0.00    -0.460 OA
BRANCH  31  32
ATOM     32  C   UNL A   1      47.052  36.118  32.086  1.00  0.00     0.338 C 
ATOM     33  O   UNL A   1      47.245  36.006  33.284  1.00  0.00    -0.246 OA
BRANCH  32  34
ATOM     34  C   UNL A   1      46.850  34.971  31.173  1.00  0.00     0.060 A 
ATOM     35  C   UNL A   1      46.043  35.111  30.026  1.00  0.00     0.016 A 
ATOM     36  C   UNL A   1      47.511  33.774  31.427  1.00  0.00     0.016 A 
ATOM     37  C   UNL A   1      45.951  34.075  29.096  1.00  0.00     0.010 A 
ATOM     38  C   UNL A   1      47.339  32.706  30.549  1.00  0.00     0.010 A 
ATOM     39  C   UNL A   1      46.550  32.847  29.391  1.00  0.00    -0.014 A 
BRANCH  39  40
ATOM     40  C   UNL A   1      46.102  31.615  28.710  1.00  0.00     0.031 A 
ATOM     41  C   UNL A   1      44.661  31.232  28.898  1.00  0.00     0.074 A 
ATOM     42  C   UNL A   1      46.954  30.810  28.052  1.00  0.00     0.049 A 
ATOM     43  N   UNL A   1      44.063  30.100  28.647  1.00  0.00    -0.248 NA
ATOM     44  C   UNL A   1      43.782  32.267  29.473  1.00  0.00     0.031 C 
ATOM     45  C   UNL A   1      48.347  31.117  27.738  1.00  0.00     0.029 A 
ATOM     46  N   UNL A   1      46.766  29.542  27.561  1.00  0.00    -0.354 N 
ATOM     47  C   UNL A   1      42.747  30.279  29.057  1.00  0.00     0.074 A 
ATOM     48  C   UNL A   1      42.635  31.620  29.580  1.00  0.00     0.031 C 
ATOM     49  C   UNL A   1      48.901  30.047  27.136  1.00  0.00     0.029 A 
ATOM     50  C   UNL A   1      47.918  28.965  27.081  1.00  0.00     0.049 A 
ATOM     51  H   UNL A   1      45.891  29.090  27.554  1.00  0.00     0.167 HD
ATOM     52  C   UNL A   1      41.724  29.396  29.019  1.00  0.00     0.031 A 
ATOM     53  C   UNL A   1      48.155  27.695  26.693  1.00  0.00     0.031 A 
ATOM     54  C   UNL A   1      41.867  28.047  28.551  1.00  0.00     0.049 A 
ATOM     55  C   UNL A   1      47.034  26.685  26.775  1.00  0.00     0.074 A 
ATOM     56  C   UNL A   1      40.905  27.057  28.474  1.00  0.00     0.029 A 
ATOM     57  N   UNL A   1      43.057  27.493  28.102  1.00  0.00    -0.354 N 
ATOM     58  N   UNL A   1      45.786  26.865  27.143  1.00  0.00    -0.248 NA
ATOM     59  C   UNL A   1      47.356  25.301  26.402  1.00  0.00     0.031 C 
ATOM     60  C   UNL A   1      41.531  25.883  28.047  1.00  0.00     0.029 A 
ATOM     61  C   UNL A   1      42.866  26.161  27.786  1.00  0.00     0.049 A 
ATOM     62  H   UNL A   1      43.911  27.975  28.022  1.00  0.00     0.167 HD
ATOM     63  C   UNL A   1      45.170  25.622  27.025  1.00  0.00     0.074 A 
ATOM     64  C   UNL A   1      46.178  24.705  26.532  1.00  0.00     0.031 C 
ATOM     65  C   UNL A   1      43.889  25.269  27.299  1.00  0.00     0.031 A 
BRANCH  52  66
ATOM     66  C   UNL A   1      40.398  29.857  29.561  1.00  0.00    -0.014 A 
ATOM     67  C   UNL A   1      39.398  30.367  28.714  1.00  0.00     0.010 A 
ATOM     68  C   UNL A   1      40.152  29.790  30.945  1.00  0.00     0.010 A 
ATOM     69  C   UNL A   1      38.198  30.846  29.243  1.00  0.00     0.020 A 
ATOM     70  C   UNL A   1      38.938  30.234  31.475  1.00  0.00     0.020 A 
ATOM     71  C   UNL A   1      37.976  30.777  30.622  1.00  0.00     0.054 A 
BRANCH  71  72
ATOM     72  S   UNL A   1      36.402  31.394  31.278  1.00  0.00     0.124 S 
ATOM     73  O   UNL A   1      36.158  30.477  32.389  1.00  0.00    -0.237 OA
ATOM     74  O   UNL A   1      36.733  32.766  31.657  1.00  0.00    -0.237 OA
ATOM     75  O   UNL A   1      35.481  31.266  30.152  1.00  0.00    -0.744 OA
ENDBRANCH  71  72
ENDBRANCH  52  66
BRANCH  53  76
ATOM     76  C   UNL A   1      49.512  27.292  26.227  1.00  0.00    -0.014 A 
ATOM     77  C   UNL A   1      50.463  26.807  27.143  1.00  0.00     0.010 A 
ATOM     78  C   UNL A   1      49.865  27.379  24.867  1.00  0.00     0.010 A 
ATOM     79  C   UNL A   1      51.734  26.417  26.711  1.00  0.00     0.020 A 
ATOM     80  C   UNL A   1      51.125  26.963  24.425  1.00  0.00     0.020 A 
ATOM     81  C   UNL A   1      52.053  26.486  25.352  1.00  0.00     0.054 A 
BRANCH  81  82
ATOM     82  S   UNL A   1      53.681  25.895  24.809  1.00  0.00     0.124 S 
ATOM     83  O   UNL A   1      53.382  24.536  24.368  1.00  0.00    -0.237 OA
ATOM     84  O   UNL A   1      54.020  26.845  23.753  1.00  0.00    -0.237 OA
ATOM     85  O   UNL A   1      54.501  25.997  26.015  1.00  0.00    -0.744 OA
ENDBRANCH  81  82
ENDBRANCH  53  76
BRANCH  65  86
ATOM     86  C   UNL A   1      43.491  23.834  27.062  1.00  0.00    -0.014 A 
ATOM     87  C   UNL A   1      43.445  22.911  28.120  1.00  0.00     0.010 A 
ATOM     88  C   UNL A   1      43.054  23.437  25.784  1.00  0.00     0.010 A 
ATOM     89  C   UNL A   1      42.980  21.611  27.901  1.00  0.00     0.020 A 
ATOM     90  C   UNL A   1      42.558  22.150  25.569  1.00  0.00     0.020 A 
ATOM     91  C   UNL A   1      42.529  21.242  26.629  1.00  0.00     0.054 A 
BRANCH  91  92
ATOM     92  S   UNL A   1      41.852  19.577  26.397  1.00  0.00     0.124 S 
ATOM     93  O   UNL A   1      40.417  19.837  26.328  1.00  0.00    -0.237 OA
ATOM     94  O   UNL A   1      42.475  19.153  25.144  1.00  0.00    -0.237 OA
ATOM     95  O   UNL A   1      42.297  18.850  27.584  1.00  0.00    -0.744 OA
ENDBRANCH  91  92
ENDBRANCH  65  86
ENDBRANCH  39  40
ENDBRANCH  32  34
ENDBRANCH  31  32
ENDBRANCH  30  31
ENDBRANCH  29  30
ENDBRANCH  28  29
ENDBRANCH  27  28
ENDBRANCH  26  27
ENDBRANCH  25  26
ENDBRANCH   1  25
TORSDOF 29
ENDMDL
