MODEL 1
REMARK VINA RESULT:     -10.1      0.000      0.000
REMARK SMILES CC(C)Cc1cc2c(cc1Cl)C=C(C(=O)OCCOCCOCCOCCOC(=O)c1ccc(-c3c4nc(c(-c5ccc(S(=O)(=O)[O-])cc5)c5ccc([nH]5)c(-c5ccc(S(=O)(=O)[O-])cc5)c5nc(c(-c6ccc(S(=O)(=O)[O-])cc6)c6ccc3[nH]6)C=C5)C=C4)cc1)[C@H](C(F)(F)F)O2
REMARK SMILES IDX 23 1 22 2 21 3 20 4 19 5 18 6 17 7 16 8 14 9 15 10 13 11
REMARK SMILES IDX 5 12 6 13 10 14 7 15 9 16 11 17 8 18 96 19 12 20 91 21 4 22
REMARK SMILES IDX 2 23 1 24 3 25 92 26 93 27 94 28 95 29 24 30 25 31 26 32
REMARK SMILES IDX 27 33 28 34 29 35 30 36 31 37 32 38 90 39 33 40 89 41 34 42
REMARK SMILES IDX 35 43 36 44 83 45 37 46 88 47 82 48 84 49 38 50 87 51 81 52
REMARK SMILES IDX 80 53 39 55 69 56 50 57 68 58 51 59 54 60 67 61 85 62 52 63
REMARK SMILES IDX 53 64 66 66 86 67 55 68 40 69 41 70 49 71 42 72 48 73 43 74
REMARK SMILES IDX 44 75 45 76 46 77 47 78 70 79 71 80 79 81 72 82 78 83 73 84
REMARK SMILES IDX 74 85 75 86 76 87 77 88 56 89 57 90 65 91 58 92 64 93 59 94
REMARK SMILES IDX 60 95 61 96 62 97 63 98
REMARK H PARENT 84 54 54 65
REMARK Flexibility Score: inf
ROOT
ATOM      1  C   UNL A   1      39.295  21.205  25.760  1.00  0.00     0.188 C 
ENDROOT
BRANCH   1   2
ATOM      2  O   UNL A   1      37.922  21.524  25.530  1.00  0.00    -0.377 OA
BRANCH   2   3
ATOM      3  C   UNL A   1      37.092  20.579  24.887  1.00  0.00     0.188 C 
BRANCH   3   4
ATOM      4  C   UNL A   1      35.593  20.853  25.053  1.00  0.00     0.188 C 
BRANCH   4   5
ATOM      5  O   UNL A   1      35.141  21.395  26.285  1.00  0.00    -0.376 OA
BRANCH   5   6
ATOM      6  C   UNL A   1      33.747  21.670  26.449  1.00  0.00     0.202 C 
BRANCH   6   7
ATOM      7  C   UNL A   1      33.298  22.965  27.152  1.00  0.00     0.261 C 
BRANCH   7   8
ATOM      8  O   UNL A   1      31.924  22.948  27.593  1.00  0.00    -0.460 OA
BRANCH   8   9
ATOM      9  C   UNL A   1      30.992  22.946  26.618  1.00  0.00     0.338 C 
ATOM     10  O   UNL A   1      30.055  22.169  26.513  1.00  0.00    -0.246 OA
BRANCH   9  11
ATOM     11  C   UNL A   1      31.110  24.143  25.766  1.00  0.00     0.087 C 
ATOM     12  C   UNL A   1      30.736  28.983  24.439  1.00  0.00    -0.025 A 
ATOM     13  C   UNL A   1      30.363  27.760  23.848  1.00  0.00     0.052 A 
ATOM     14  C   UNL A   1      31.418  28.949  25.666  1.00  0.00     0.045 A 
ATOM     15  C   UNL A   1      30.647  26.543  24.470  1.00  0.00     0.128 A 
ATOM     16  C   UNL A   1      31.713  27.730  26.283  1.00  0.00     0.032 A 
ATOM     17  Cl  UNL A   1      31.869  30.391  26.507  1.00  0.00    -0.084 Cl
ATOM     18  C   UNL A   1      31.312  26.527  25.694  1.00  0.00     0.019 A 
ATOM     19  O   UNL A   1      30.164  25.413  23.866  1.00  0.00    -0.475 OA
ATOM     20  C   UNL A   1      31.442  25.271  26.412  1.00  0.00     0.027 C 
ATOM     21  C   UNL A   1      30.675  24.120  24.327  1.00  0.00     0.316 C 
BRANCH  12  22
ATOM     22  C   UNL A   1      30.364  30.271  23.738  1.00  0.00     0.040 C 
BRANCH  22  23
ATOM     23  C   UNL A   1      28.948  30.284  23.127  1.00  0.00    -0.013 C 
ATOM     24  C   UNL A   1      28.069  31.385  23.723  1.00  0.00     0.008 C 
ATOM     25  C   UNL A   1      29.043  30.459  21.609  1.00  0.00     0.008 C 
ENDBRANCH  22  23
ENDBRANCH  12  22
BRANCH  21  26
ATOM     26  C   UNL A   1      31.740  23.623  23.334  1.00  0.00     0.430 C 
ATOM     27  F   UNL A   1      31.534  22.340  22.956  1.00  0.00    -0.167 F 
ATOM     28  F   UNL A   1      31.803  24.388  22.224  1.00  0.00    -0.167 F 
ATOM     29  F   UNL A   1      32.977  23.669  23.897  1.00  0.00    -0.167 F 
ENDBRANCH  21  26
ENDBRANCH   9  11
ENDBRANCH   8   9
ENDBRANCH   7   8
ENDBRANCH   6   7
ENDBRANCH   5   6
ENDBRANCH   4   5
ENDBRANCH   3   4
ENDBRANCH   2   3
ENDBRANCH   1   2
BRANCH   1  30
ATOM     30  C   UNL A   1      40.150  22.210  26.550  1.00  0.00     0.188 C 
BRANCH  30  31
ATOM     31  O   UNL A   1      41.245  21.715  27.331  1.00  0.00    -0.376 OA
BRANCH  31  32
ATOM     32  C   UNL A   1      42.564  21.757  26.791  1.00  0.00     0.202 C 
BRANCH  32  33
ATOM     33  C   UNL A   1      42.831  22.853  25.766  1.00  0.00     0.261 C 
BRANCH  33  34
ATOM     34  O   UNL A   1      43.241  24.073  26.390  1.00  0.00    -0.460 OA
BRANCH  34  35
ATOM     35  C   UNL A   1      42.736  25.202  25.842  1.00  0.00     0.338 C 
ATOM     36  O   UNL A   1      42.599  25.453  24.655  1.00  0.00    -0.246 OA
BRANCH  35  37
ATOM     37  C   UNL A   1      42.226  26.061  26.925  1.00  0.00     0.060 A 
ATOM     38  C   UNL A   1      41.207  25.610  27.769  1.00  0.00     0.016 A 
ATOM     39  C   UNL A   1      42.806  27.322  27.117  1.00  0.00     0.016 A 
ATOM     40  C   UNL A   1      40.799  26.410  28.832  1.00  0.00     0.010 A 
ATOM     41  C   UNL A   1      42.407  28.114  28.192  1.00  0.00     0.010 A 
ATOM     42  C   UNL A   1      41.423  27.647  29.073  1.00  0.00    -0.014 A 
BRANCH  42  43
ATOM     43  C   UNL A   1      41.139  28.353  30.342  1.00  0.00     0.031 A 
ATOM     44  C   UNL A   1      42.011  28.182  31.544  1.00  0.00     0.074 A 
ATOM     45  C   UNL A   1      40.089  29.197  30.366  1.00  0.00     0.049 A 
ATOM     46  N   UNL A   1      41.992  28.858  32.662  1.00  0.00    -0.248 NA
ATOM     47  C   UNL A   1      43.028  27.121  31.495  1.00  0.00     0.031 C 
ATOM     48  C   UNL A   1      39.164  29.405  29.248  1.00  0.00     0.029 A 
ATOM     49  N   UNL A   1      39.640  30.057  31.335  1.00  0.00    -0.354 N 
ATOM     50  C   UNL A   1      43.011  28.328  33.441  1.00  0.00     0.074 A 
ATOM     51  C   UNL A   1      43.588  27.232  32.694  1.00  0.00     0.031 C 
ATOM     52  C   UNL A   1      38.302  30.379  29.570  1.00  0.00     0.029 A 
ATOM     53  C   UNL A   1      38.582  30.838  30.927  1.00  0.00     0.049 A 
ATOM     54  H   UNL A   1      40.037  30.113  32.235  1.00  0.00     0.167 HD
ATOM     55  C   UNL A   1      43.434  28.745  34.658  1.00  0.00     0.031 A 
ATOM     56  C   UNL A   1      37.924  31.828  31.561  1.00  0.00     0.031 A 
ATOM     57  C   UNL A   1      42.827  29.829  35.389  1.00  0.00     0.049 A 
ATOM     58  C   UNL A   1      38.396  32.250  32.924  1.00  0.00     0.074 A 
ATOM     59  C   UNL A   1      43.198  30.343  36.619  1.00  0.00     0.029 A 
ATOM     60  N   UNL A   1      41.727  30.564  34.966  1.00  0.00    -0.354 N 
ATOM     61  N   UNL A   1      39.411  31.792  33.619  1.00  0.00    -0.248 NA
ATOM     62  C   UNL A   1      37.657  33.334  33.584  1.00  0.00     0.031 C 
ATOM     63  C   UNL A   1      42.276  31.328  36.978  1.00  0.00     0.029 A 
ATOM     64  C   UNL A   1      41.389  31.504  35.926  1.00  0.00     0.049 A 
ATOM     65  H   UNL A   1      41.257  30.436  34.111  1.00  0.00     0.167 HD
ATOM     66  C   UNL A   1      39.454  32.555  34.780  1.00  0.00     0.074 A 
ATOM     67  C   UNL A   1      38.371  33.512  34.689  1.00  0.00     0.031 C 
ATOM     68  C   UNL A   1      40.316  32.466  35.823  1.00  0.00     0.031 A 
BRANCH  55  69
ATOM     69  C   UNL A   1      44.623  28.057  35.280  1.00  0.00    -0.014 A 
ATOM     70  C   UNL A   1      44.429  27.045  36.240  1.00  0.00     0.010 A 
ATOM     71  C   UNL A   1      45.929  28.513  35.027  1.00  0.00     0.010 A 
ATOM     72  C   UNL A   1      45.509  26.536  36.965  1.00  0.00     0.020 A 
ATOM     73  C   UNL A   1      47.017  27.982  35.727  1.00  0.00     0.020 A 
ATOM     74  C   UNL A   1      46.797  27.017  36.711  1.00  0.00     0.054 A 
BRANCH  74  75
ATOM     75  S   UNL A   1      48.178  26.384  37.701  1.00  0.00     0.124 S 
ATOM     76  O   UNL A   1      49.306  26.530  36.787  1.00  0.00    -0.237 OA
ATOM     77  O   UNL A   1      48.178  27.280  38.854  1.00  0.00    -0.237 OA
ATOM     78  O   UNL A   1      47.785  25.006  37.995  1.00  0.00    -0.744 OA
ENDBRANCH  74  75
ENDBRANCH  55  69
BRANCH  56  79
ATOM     79  C   UNL A   1      36.804  32.520  30.862  1.00  0.00    -0.014 A 
ATOM     80  C   UNL A   1      37.064  33.607  30.004  1.00  0.00     0.010 A 
ATOM     81  C   UNL A   1      35.467  32.165  31.120  1.00  0.00     0.010 A 
ATOM     82  C   UNL A   1      36.016  34.362  29.472  1.00  0.00     0.020 A 
ATOM     83  C   UNL A   1      34.414  32.895  30.559  1.00  0.00     0.020 A 
ATOM     84  C   UNL A   1      34.698  34.008  29.764  1.00  0.00     0.054 A 
BRANCH  84  85
ATOM     85  S   UNL A   1      33.358  35.042  29.111  1.00  0.00     0.124 S 
ATOM     86  O   UNL A   1      34.100  36.060  28.371  1.00  0.00    -0.237 OA
ATOM     87  O   UNL A   1      32.599  34.099  28.294  1.00  0.00    -0.237 OA
ATOM     88  O   UNL A   1      32.673  35.517  30.311  1.00  0.00    -0.744 OA
ENDBRANCH  84  85
ENDBRANCH  56  79
BRANCH  68  89
ATOM     89  C   UNL A   1      40.163  33.439  36.967  1.00  0.00    -0.014 A 
ATOM     90  C   UNL A   1      39.087  33.285  37.864  1.00  0.00     0.010 A 
ATOM     91  C   UNL A   1      40.973  34.584  37.064  1.00  0.00     0.010 A 
ATOM     92  C   UNL A   1      38.795  34.278  38.802  1.00  0.00     0.020 A 
ATOM     93  C   UNL A   1      40.706  35.562  38.027  1.00  0.00     0.020 A 
ATOM     94  C   UNL A   1      39.599  35.418  38.867  1.00  0.00     0.054 A 
BRANCH  94  95
ATOM     95  S   UNL A   1      39.165  36.722  40.050  1.00  0.00     0.124 S 
ATOM     96  O   UNL A   1      38.249  36.028  40.952  1.00  0.00    -0.237 OA
ATOM     97  O   UNL A   1      40.460  37.080  40.621  1.00  0.00    -0.237 OA
ATOM     98  O   UNL A   1      38.553  37.753  39.215  1.00  0.00    -0.744 OA
ENDBRANCH  94  95
ENDBRANCH  68  89
ENDBRANCH  42  43
ENDBRANCH  35  37
ENDBRANCH  34  35
ENDBRANCH  33  34
ENDBRANCH  32  33
ENDBRANCH  31  32
ENDBRANCH  30  31
ENDBRANCH   1  30
TORSDOF 26
ENDMDL
MODEL 2
REMARK VINA RESULT:      -9.5      5.242      7.312
REMARK SMILES CC(C)Cc1cc2c(cc1Cl)C=C(C(=O)OCCOCCOCCOCCOC(=O)c1ccc(-c3c4nc(c(-c5ccc(S(=O)(=O)[O-])cc5)c5ccc([nH]5)c(-c5ccc(S(=O)(=O)[O-])cc5)c5nc(c(-c6ccc(S(=O)(=O)[O-])cc6)c6ccc3[nH]6)C=C5)C=C4)cc1)[C@H](C(F)(F)F)O2
REMARK SMILES IDX 23 1 22 2 21 3 20 4 19 5 18 6 17 7 16 8 14 9 15 10 13 11
REMARK SMILES IDX 5 12 6 13 10 14 7 15 9 16 11 17 8 18 96 19 12 20 91 21 4 22
REMARK SMILES IDX 2 23 1 24 3 25 92 26 93 27 94 28 95 29 24 30 25 31 26 32
REMARK SMILES IDX 27 33 28 34 29 35 30 36 31 37 32 38 90 39 33 40 89 41 34 42
REMARK SMILES IDX 35 43 36 44 83 45 37 46 88 47 82 48 84 49 38 50 87 51 81 52
REMARK SMILES IDX 80 53 39 55 69 56 50 57 68 58 51 59 54 60 67 61 85 62 52 63
REMARK SMILES IDX 53 64 66 66 86 67 55 68 40 69 41 70 49 71 42 72 48 73 43 74
REMARK SMILES IDX 44 75 45 76 46 77 47 78 70 79 71 80 79 81 72 82 78 83 73 84
REMARK SMILES IDX 74 85 75 86 76 87 77 88 56 89 57 90 65 91 58 92 64 93 59 94
REMARK SMILES IDX 60 95 61 96 62 97 63 98
REMARK H PARENT 84 54 54 65
REMARK Flexibility Score: inf
ROOT
ATOM      1  C   UNL A   1      36.068  22.679  24.196  1.00  0.00     0.188 C 
ENDROOT
BRANCH   1   2
ATOM      2  O   UNL A   1      36.271  23.931  24.851  1.00  0.00    -0.377 OA
BRANCH   2   3
ATOM      3  C   UNL A   1      35.681  24.152  26.117  1.00  0.00     0.188 C 
BRANCH   3   4
ATOM      4  C   UNL A   1      34.591  23.136  26.480  1.00  0.00     0.188 C 
BRANCH   4   5
ATOM      5  O   UNL A   1      33.415  23.611  27.119  1.00  0.00    -0.376 OA
BRANCH   5   6
ATOM      6  C   UNL A   1      32.247  22.787  27.114  1.00  0.00     0.202 C 
BRANCH   6   7
ATOM      7  C   UNL A   1      31.710  22.226  25.784  1.00  0.00     0.261 C 
BRANCH   7   8
ATOM      8  O   UNL A   1      31.248  23.237  24.863  1.00  0.00    -0.460 OA
BRANCH   8   9
ATOM      9  C   UNL A   1      32.152  23.671  23.962  1.00  0.00     0.338 C 
ATOM     10  O   UNL A   1      32.947  22.979  23.343  1.00  0.00    -0.246 OA
BRANCH   9  11
ATOM     11  C   UNL A   1      31.945  25.095  23.643  1.00  0.00     0.087 C 
ATOM     12  C   UNL A   1      30.596  29.890  24.362  1.00  0.00    -0.025 A 
ATOM     13  C   UNL A   1      30.343  28.925  23.366  1.00  0.00     0.052 A 
ATOM     14  C   UNL A   1      31.449  29.544  25.422  1.00  0.00     0.045 A 
ATOM     15  C   UNL A   1      30.911  27.652  23.436  1.00  0.00     0.128 A 
ATOM     16  C   UNL A   1      32.027  28.273  25.485  1.00  0.00     0.032 A 
ATOM     17  Cl  UNL A   1      31.780  30.629  26.727  1.00  0.00    -0.084 Cl
ATOM     18  C   UNL A   1      31.744  27.320  24.502  1.00  0.00     0.019 A 
ATOM     19  O   UNL A   1      30.534  26.754  22.473  1.00  0.00    -0.475 OA
ATOM     20  C   UNL A   1      32.181  25.944  24.655  1.00  0.00     0.027 C 
ATOM     21  C   UNL A   1      31.311  25.519  22.349  1.00  0.00     0.316 C 
BRANCH  12  22
ATOM     22  C   UNL A   1      29.919  31.238  24.254  1.00  0.00     0.040 C 
BRANCH  22  23
ATOM     23  C   UNL A   1      28.839  31.330  23.157  1.00  0.00    -0.013 C 
ATOM     24  C   UNL A   1      27.428  31.139  23.715  1.00  0.00     0.008 C 
ATOM     25  C   UNL A   1      28.939  32.682  22.447  1.00  0.00     0.008 C 
ENDBRANCH  22  23
ENDBRANCH  12  22
BRANCH  21  26
ATOM     26  C   UNL A   1      32.283  25.660  21.165  1.00  0.00     0.430 C 
ATOM     27  F   UNL A   1      33.006  24.535  20.954  1.00  0.00    -0.167 F 
ATOM     28  F   UNL A   1      31.650  25.979  20.016  1.00  0.00    -0.167 F 
ATOM     29  F   UNL A   1      33.176  26.659  21.396  1.00  0.00    -0.167 F 
ENDBRANCH  21  26
ENDBRANCH   9  11
ENDBRANCH   8   9
ENDBRANCH   7   8
ENDBRANCH   6   7
ENDBRANCH   5   6
ENDBRANCH   4   5
ENDBRANCH   3   4
ENDBRANCH   2   3
ENDBRANCH   1   2
BRANCH   1  30
ATOM     30  C   UNL A   1      37.240  21.685  24.154  1.00  0.00     0.188 C 
BRANCH  30  31
ATOM     31  O   UNL A   1      37.327  20.683  25.176  1.00  0.00    -0.376 OA
BRANCH  31  32
ATOM     32  C   UNL A   1      38.021  19.467  24.906  1.00  0.00     0.202 C 
BRANCH  32  33
ATOM     33  C   UNL A   1      39.348  19.282  25.633  1.00  0.00     0.261 C 
BRANCH  33  34
ATOM     34  O   UNL A   1      39.874  20.526  26.101  1.00  0.00    -0.460 OA
BRANCH  34  35
ATOM     35  C   UNL A   1      41.025  20.439  26.807  1.00  0.00     0.338 C 
ATOM     36  O   UNL A   1      41.703  19.442  27.000  1.00  0.00    -0.246 OA
BRANCH  35  37
ATOM     37  C   UNL A   1      41.433  21.797  27.208  1.00  0.00     0.060 A 
ATOM     38  C   UNL A   1      41.937  22.038  28.488  1.00  0.00     0.016 A 
ATOM     39  C   UNL A   1      41.341  22.833  26.269  1.00  0.00     0.016 A 
ATOM     40  C   UNL A   1      42.389  23.313  28.814  1.00  0.00     0.010 A 
ATOM     41  C   UNL A   1      41.809  24.107  26.593  1.00  0.00     0.010 A 
ATOM     42  C   UNL A   1      42.364  24.344  27.857  1.00  0.00    -0.014 A 
BRANCH  42  43
ATOM     43  C   UNL A   1      43.072  25.609  28.153  1.00  0.00     0.031 A 
ATOM     44  C   UNL A   1      44.517  25.793  27.822  1.00  0.00     0.074 A 
ATOM     45  C   UNL A   1      42.355  26.614  28.694  1.00  0.00     0.049 A 
ATOM     46  N   UNL A   1      45.225  26.891  27.862  1.00  0.00    -0.248 NA
ATOM     47  C   UNL A   1      45.269  24.603  27.396  1.00  0.00     0.031 C 
ATOM     48  C   UNL A   1      40.943  26.515  29.079  1.00  0.00     0.029 A 
ATOM     49  N   UNL A   1      42.688  27.913  28.980  1.00  0.00    -0.354 N 
ATOM     50  C   UNL A   1      46.498  26.534  27.440  1.00  0.00     0.074 A 
ATOM     51  C   UNL A   1      46.483  25.106  27.208  1.00  0.00     0.031 C 
ATOM     52  C   UNL A   1      40.516  27.718  29.486  1.00  0.00     0.029 A 
ATOM     53  C   UNL A   1      41.627  28.664  29.432  1.00  0.00     0.049 A 
ATOM     54  H   UNL A   1      43.598  28.274  28.871  1.00  0.00     0.167 HD
ATOM     55  C   UNL A   1      47.567  27.340  27.241  1.00  0.00     0.031 A 
ATOM     56  C   UNL A   1      41.546  29.972  29.746  1.00  0.00     0.031 A 
ATOM     57  C   UNL A   1      47.559  28.759  27.498  1.00  0.00     0.049 A 
ATOM     58  C   UNL A   1      42.758  30.838  29.545  1.00  0.00     0.074 A 
ATOM     59  C   UNL A   1      48.586  29.668  27.307  1.00  0.00     0.029 A 
ATOM     60  N   UNL A   1      46.482  29.477  28.002  1.00  0.00    -0.354 N 
ATOM     61  N   UNL A   1      43.935  30.504  29.071  1.00  0.00    -0.248 NA
ATOM     62  C   UNL A   1      42.632  32.259  29.895  1.00  0.00     0.031 C 
ATOM     63  C   UNL A   1      48.159  30.913  27.771  1.00  0.00     0.029 A 
ATOM     64  C   UNL A   1      46.831  30.809  28.156  1.00  0.00     0.049 A 
ATOM     65  H   UNL A   1      45.601  29.095  28.218  1.00  0.00     0.167 HD
ATOM     66  C   UNL A   1      44.678  31.678  29.033  1.00  0.00     0.074 A 
ATOM     67  C   UNL A   1      43.814  32.733  29.520  1.00  0.00     0.031 C 
ATOM     68  C   UNL A   1      45.959  31.859  28.629  1.00  0.00     0.031 A 
BRANCH  55  69
ATOM     69  C   UNL A   1      48.836  26.732  26.698  1.00  0.00    -0.014 A 
ATOM     70  C   UNL A   1      49.788  26.184  27.578  1.00  0.00     0.010 A 
ATOM     71  C   UNL A   1      49.153  26.837  25.331  1.00  0.00     0.010 A 
ATOM     72  C   UNL A   1      51.046  25.796  27.112  1.00  0.00     0.020 A 
ATOM     73  C   UNL A   1      50.399  26.418  24.855  1.00  0.00     0.020 A 
ATOM     74  C   UNL A   1      51.348  25.926  25.753  1.00  0.00     0.054 A 
BRANCH  74  75
ATOM     75  S   UNL A   1      53.005  25.468  25.177  1.00  0.00     0.124 S 
ATOM     76  O   UNL A   1      53.867  26.218  26.085  1.00  0.00    -0.237 OA
ATOM     77  O   UNL A   1      53.011  24.017  25.354  1.00  0.00    -0.237 OA
ATOM     78  O   UNL A   1      53.020  25.916  23.786  1.00  0.00    -0.744 OA
ENDBRANCH  74  75
ENDBRANCH  55  69
BRANCH  56  79
ATOM     79  C   UNL A   1      40.242  30.529  30.207  1.00  0.00    -0.014 A 
ATOM     80  C   UNL A   1      39.274  30.942  29.271  1.00  0.00     0.010 A 
ATOM     81  C   UNL A   1      39.996  30.742  31.576  1.00  0.00     0.010 A 
ATOM     82  C   UNL A   1      38.120  31.611  29.686  1.00  0.00     0.020 A 
ATOM     83  C   UNL A   1      38.824  31.377  31.999  1.00  0.00     0.020 A 
ATOM     84  C   UNL A   1      37.909  31.836  31.048  1.00  0.00     0.054 A 
BRANCH  84  85
ATOM     85  S   UNL A   1      36.434  32.761  31.555  1.00  0.00     0.124 S 
ATOM     86  O   UNL A   1      36.374  33.809  30.539  1.00  0.00    -0.237 OA
ATOM     87  O   UNL A   1      35.384  31.749  31.478  1.00  0.00    -0.237 OA
ATOM     88  O   UNL A   1      36.761  33.216  32.904  1.00  0.00    -0.744 OA
ENDBRANCH  84  85
ENDBRANCH  56  79
BRANCH  68  89
ATOM     89  C   UNL A   1      46.533  33.255  28.663  1.00  0.00    -0.014 A 
ATOM     90  C   UNL A   1      46.454  34.061  27.509  1.00  0.00     0.010 A 
ATOM     91  C   UNL A   1      47.280  33.710  29.763  1.00  0.00     0.010 A 
ATOM     92  C   UNL A   1      47.153  35.269  27.436  1.00  0.00     0.020 A 
ATOM     93  C   UNL A   1      47.949  34.938  29.707  1.00  0.00     0.020 A 
ATOM     94  C   UNL A   1      47.907  35.692  28.532  1.00  0.00     0.054 A 
BRANCH  94  95
ATOM     95  S   UNL A   1      48.854  37.233  28.393  1.00  0.00     0.124 S 
ATOM     96  O   UNL A   1      49.376  37.152  27.032  1.00  0.00    -0.237 OA
ATOM     97  O   UNL A   1      47.835  38.255  28.618  1.00  0.00    -0.237 OA
ATOM     98  O   UNL A   1      49.855  37.117  29.452  1.00  0.00    -0.744 OA
ENDBRANCH  94  95
ENDBRANCH  68  89
ENDBRANCH  42  43
ENDBRANCH  35  37
ENDBRANCH  34  35
ENDBRANCH  33  34
ENDBRANCH  32  33
ENDBRANCH  31  32
ENDBRANCH  30  31
ENDBRANCH   1  30
TORSDOF 26
ENDMDL
MODEL 3
REMARK VINA RESULT:      -9.4      5.470      9.985
REMARK SMILES CC(C)Cc1cc2c(cc1Cl)C=C(C(=O)OCCOCCOCCOCCOC(=O)c1ccc(-c3c4nc(c(-c5ccc(S(=O)(=O)[O-])cc5)c5ccc([nH]5)c(-c5ccc(S(=O)(=O)[O-])cc5)c5nc(c(-c6ccc(S(=O)(=O)[O-])cc6)c6ccc3[nH]6)C=C5)C=C4)cc1)[C@H](C(F)(F)F)O2
REMARK SMILES IDX 23 1 22 2 21 3 20 4 19 5 18 6 17 7 16 8 14 9 15 10 13 11
REMARK SMILES IDX 5 12 6 13 10 14 7 15 9 16 11 17 8 18 96 19 12 20 91 21 4 22
REMARK SMILES IDX 2 23 1 24 3 25 92 26 93 27 94 28 95 29 24 30 25 31 26 32
REMARK SMILES IDX 27 33 28 34 29 35 30 36 31 37 32 38 90 39 33 40 89 41 34 42
REMARK SMILES IDX 35 43 36 44 83 45 37 46 88 47 82 48 84 49 38 50 87 51 81 52
REMARK SMILES IDX 80 53 39 55 69 56 50 57 68 58 51 59 54 60 67 61 85 62 52 63
REMARK SMILES IDX 53 64 66 66 86 67 55 68 40 69 41 70 49 71 42 72 48 73 43 74
REMARK SMILES IDX 44 75 45 76 46 77 47 78 70 79 71 80 79 81 72 82 78 83 73 84
REMARK SMILES IDX 74 85 75 86 76 87 77 88 56 89 57 90 65 91 58 92 64 93 59 94
REMARK SMILES IDX 60 95 61 96 62 97 63 98
REMARK H PARENT 84 54 54 65
REMARK Flexibility Score: inf
ROOT
ATOM      1  C   UNL A   1      35.876  22.292  24.177  1.00  0.00     0.188 C 
ENDROOT
BRANCH   1   2
ATOM      2  O   UNL A   1      35.378  23.266  25.095  1.00  0.00    -0.377 OA
BRANCH   2   3
ATOM      3  C   UNL A   1      34.898  22.844  26.356  1.00  0.00     0.188 C 
BRANCH   3   4
ATOM      4  C   UNL A   1      34.173  21.494  26.325  1.00  0.00     0.188 C 
BRANCH   4   5
ATOM      5  O   UNL A   1      32.767  21.480  26.522  1.00  0.00    -0.376 OA
BRANCH   5   6
ATOM      6  C   UNL A   1      31.915  21.242  25.399  1.00  0.00     0.202 C 
BRANCH   6   7
ATOM      7  C   UNL A   1      32.289  21.813  24.018  1.00  0.00     0.261 C 
BRANCH   7   8
ATOM      8  O   UNL A   1      31.701  23.101  23.737  1.00  0.00    -0.460 OA
BRANCH   8   9
ATOM      9  C   UNL A   1      32.442  23.936  22.981  1.00  0.00     0.338 C 
ATOM     10  O   UNL A   1      33.282  23.611  22.154  1.00  0.00    -0.246 OA
BRANCH   9  11
ATOM     11  C   UNL A   1      31.985  25.330  23.120  1.00  0.00     0.087 C 
ATOM     12  C   UNL A   1      28.954  29.317  22.625  1.00  0.00    -0.025 A 
ATOM     13  C   UNL A   1      30.319  29.070  22.376  1.00  0.00     0.052 A 
ATOM     14  C   UNL A   1      28.182  28.286  23.184  1.00  0.00     0.045 A 
ATOM     15  C   UNL A   1      30.890  27.828  22.661  1.00  0.00     0.128 A 
ATOM     16  C   UNL A   1      28.757  27.047  23.480  1.00  0.00     0.032 A 
ATOM     17  Cl  UNL A   1      26.486  28.461  23.474  1.00  0.00    -0.084 Cl
ATOM     18  C   UNL A   1      30.106  26.811  23.203  1.00  0.00     0.019 A 
ATOM     19  O   UNL A   1      32.199  27.653  22.300  1.00  0.00    -0.475 OA
ATOM     20  C   UNL A   1      30.667  25.478  23.326  1.00  0.00     0.027 C 
ATOM     21  C   UNL A   1      32.903  26.484  22.830  1.00  0.00     0.316 C 
BRANCH  12  22
ATOM     22  C   UNL A   1      28.382  30.668  22.257  1.00  0.00     0.040 C 
BRANCH  22  23
ATOM     23  C   UNL A   1      28.384  31.701  23.402  1.00  0.00    -0.013 C 
ATOM     24  C   UNL A   1      29.577  31.523  24.342  1.00  0.00     0.008 C 
ATOM     25  C   UNL A   1      28.386  33.116  22.820  1.00  0.00     0.008 C 
ENDBRANCH  22  23
ENDBRANCH  12  22
BRANCH  21  26
ATOM     26  C   UNL A   1      33.782  26.926  24.012  1.00  0.00     0.430 C 
ATOM     27  F   UNL A   1      33.062  27.148  25.136  1.00  0.00    -0.167 F 
ATOM     28  F   UNL A   1      34.749  26.027  24.298  1.00  0.00    -0.167 F 
ATOM     29  F   UNL A   1      34.421  28.091  23.723  1.00  0.00    -0.167 F 
ENDBRANCH  21  26
ENDBRANCH   9  11
ENDBRANCH   8   9
ENDBRANCH   7   8
ENDBRANCH   6   7
ENDBRANCH   5   6
ENDBRANCH   4   5
ENDBRANCH   3   4
ENDBRANCH   2   3
ENDBRANCH   1   2
BRANCH   1  30
ATOM     30  C   UNL A   1      37.322  21.802  24.356  1.00  0.00     0.188 C 
BRANCH  30  31
ATOM     31  O   UNL A   1      37.595  20.820  25.364  1.00  0.00    -0.376 OA
BRANCH  31  32
ATOM     32  C   UNL A   1      38.137  19.558  24.984  1.00  0.00     0.202 C 
BRANCH  32  33
ATOM     33  C   UNL A   1      39.453  19.171  25.649  1.00  0.00     0.261 C 
BRANCH  33  34
ATOM     34  O   UNL A   1      40.158  20.316  26.136  1.00  0.00    -0.460 OA
BRANCH  34  35
ATOM     35  C   UNL A   1      41.371  20.062  26.678  1.00  0.00     0.338 C 
ATOM     36  O   UNL A   1      41.841  18.973  26.967  1.00  0.00    -0.246 OA
BRANCH  35  37
ATOM     37  C   UNL A   1      42.129  21.324  26.743  1.00  0.00     0.060 A 
ATOM     38  C   UNL A   1      42.234  22.147  25.619  1.00  0.00     0.016 A 
ATOM     39  C   UNL A   1      42.709  21.701  27.961  1.00  0.00     0.016 A 
ATOM     40  C   UNL A   1      42.887  23.371  25.729  1.00  0.00     0.010 A 
ATOM     41  C   UNL A   1      43.351  22.934  28.073  1.00  0.00     0.010 A 
ATOM     42  C   UNL A   1      43.415  23.788  26.964  1.00  0.00    -0.014 A 
BRANCH  42  43
ATOM     43  C   UNL A   1      43.881  25.186  27.105  1.00  0.00     0.031 A 
ATOM     44  C   UNL A   1      43.023  26.237  27.733  1.00  0.00     0.074 A 
ATOM     45  C   UNL A   1      45.129  25.473  26.687  1.00  0.00     0.049 A 
ATOM     46  N   UNL A   1      43.354  27.452  28.080  1.00  0.00    -0.248 NA
ATOM     47  C   UNL A   1      41.620  25.890  28.004  1.00  0.00     0.031 C 
ATOM     48  C   UNL A   1      46.028  24.516  26.033  1.00  0.00     0.029 A 
ATOM     49  N   UNL A   1      45.872  26.622  26.775  1.00  0.00    -0.354 N 
ATOM     50  C   UNL A   1      42.212  28.010  28.637  1.00  0.00     0.074 A 
ATOM     51  C   UNL A   1      41.161  27.022  28.526  1.00  0.00     0.031 C 
ATOM     52  C   UNL A   1      47.220  25.097  25.843  1.00  0.00     0.029 A 
ATOM     53  C   UNL A   1      47.163  26.476  26.319  1.00  0.00     0.049 A 
ATOM     54  H   UNL A   1      45.518  27.468  27.132  1.00  0.00     0.167 HD
ATOM     55  C   UNL A   1      42.073  29.228  29.212  1.00  0.00     0.031 A 
ATOM     56  C   UNL A   1      48.194  27.343  26.306  1.00  0.00     0.031 A 
ATOM     57  C   UNL A   1      43.134  30.201  29.292  1.00  0.00     0.049 A 
ATOM     58  C   UNL A   1      48.003  28.700  26.924  1.00  0.00     0.074 A 
ATOM     59  C   UNL A   1      43.100  31.456  29.876  1.00  0.00     0.029 A 
ATOM     60  N   UNL A   1      44.413  30.037  28.776  1.00  0.00    -0.354 N 
ATOM     61  N   UNL A   1      46.940  29.188  27.518  1.00  0.00    -0.248 NA
ATOM     62  C   UNL A   1      49.149  29.618  26.894  1.00  0.00     0.031 C 
ATOM     63  C   UNL A   1      44.325  32.081  29.640  1.00  0.00     0.029 A 
ATOM     64  C   UNL A   1      45.164  31.180  29.002  1.00  0.00     0.049 A 
ATOM     65  H   UNL A   1      44.738  29.229  28.318  1.00  0.00     0.167 HD
ATOM     66  C   UNL A   1      47.299  30.454  27.964  1.00  0.00     0.074 A 
ATOM     67  C   UNL A   1      48.682  30.652  27.582  1.00  0.00     0.031 C 
ATOM     68  C   UNL A   1      46.547  31.365  28.630  1.00  0.00     0.031 A 
BRANCH  55  69
ATOM     69  C   UNL A   1      40.744  29.586  29.827  1.00  0.00    -0.014 A 
ATOM     70  C   UNL A   1      39.699  30.069  29.015  1.00  0.00     0.010 A 
ATOM     71  C   UNL A   1      40.576  29.585  31.224  1.00  0.00     0.010 A 
ATOM     72  C   UNL A   1      38.535  30.586  29.589  1.00  0.00     0.020 A 
ATOM     73  C   UNL A   1      39.398  30.070  31.800  1.00  0.00     0.020 A 
ATOM     74  C   UNL A   1      38.397  30.594  30.980  1.00  0.00     0.054 A 
BRANCH  74  75
ATOM     75  S   UNL A   1      36.902  31.319  31.706  1.00  0.00     0.124 S 
ATOM     76  O   UNL A   1      36.379  32.119  30.603  1.00  0.00    -0.237 OA
ATOM     77  O   UNL A   1      36.117  30.138  32.059  1.00  0.00    -0.237 OA
ATOM     78  O   UNL A   1      37.410  32.081  32.846  1.00  0.00    -0.744 OA
ENDBRANCH  74  75
ENDBRANCH  55  69
BRANCH  56  79
ATOM     79  C   UNL A   1      49.506  26.903  25.752  1.00  0.00    -0.014 A 
ATOM     80  C   UNL A   1      50.520  26.436  26.610  1.00  0.00     0.010 A 
ATOM     81  C   UNL A   1      49.788  27.038  24.380  1.00  0.00     0.010 A 
ATOM     82  C   UNL A   1      51.803  26.174  26.122  1.00  0.00     0.020 A 
ATOM     83  C   UNL A   1      51.060  26.741  23.880  1.00  0.00     0.020 A 
ATOM     84  C   UNL A   1      52.068  26.342  24.762  1.00  0.00     0.054 A 
BRANCH  84  85
ATOM     85  S   UNL A   1      53.757  26.055  24.166  1.00  0.00     0.124 S 
ATOM     86  O   UNL A   1      54.497  27.115  24.844  1.00  0.00    -0.237 OA
ATOM     87  O   UNL A   1      54.031  24.698  24.633  1.00  0.00    -0.237 OA
ATOM     88  O   UNL A   1      53.640  26.202  22.717  1.00  0.00    -0.744 OA
ENDBRANCH  84  85
ENDBRANCH  56  79
BRANCH  68  89
ATOM     89  C   UNL A   1      47.188  32.674  29.027  1.00  0.00    -0.014 A 
ATOM     90  C   UNL A   1      46.889  33.839  28.293  1.00  0.00     0.010 A 
ATOM     91  C   UNL A   1      48.194  32.725  30.008  1.00  0.00     0.010 A 
ATOM     92  C   UNL A   1      47.616  35.014  28.497  1.00  0.00     0.020 A 
ATOM     93  C   UNL A   1      48.897  33.911  30.241  1.00  0.00     0.020 A 
ATOM     94  C   UNL A   1      48.625  35.038  29.461  1.00  0.00     0.054 A 
BRANCH  94  95
ATOM     95  S   UNL A   1      49.597  36.556  29.666  1.00  0.00     0.124 S 
ATOM     96  O   UNL A   1      50.791  36.266  28.876  1.00  0.00    -0.237 OA
ATOM     97  O   UNL A   1      48.711  37.579  29.116  1.00  0.00    -0.237 OA
ATOM     98  O   UNL A   1      49.809  36.635  31.110  1.00  0.00    -0.744 OA
ENDBRANCH  94  95
ENDBRANCH  68  89
ENDBRANCH  42  43
ENDBRANCH  35  37
ENDBRANCH  34  35
ENDBRANCH  33  34
ENDBRANCH  32  33
ENDBRANCH  31  32
ENDBRANCH  30  31
ENDBRANCH   1  30
TORSDOF 26
ENDMDL
