MODEL 1
REMARK VINA RESULT:      -9.3      0.000      0.000
REMARK SMILES O=C(C[C@@H](C(=O)OCCOCCOCCOCCOC(=O)c1ccc(-c2c3nc(c(-c4ccc(S(=O)(=O)[O-])cc4)c4ccc([nH]4)c(-c4ccc(S(=O)(=O)[O-])cc4)c4nc(c(-c5ccc(S(=O)(=O)[O-])cc5)c5ccc2[nH]5)C=C4)C=C3)cc1)[NH+]1CCN(c2cccc(Cl)c2)CC1)c1ccc(F)cc1
REMARK SMILES IDX 13 1 12 2 11 3 10 4 9 5 8 6 7 7 5 8 6 9 4 10 3 11 2 12 1 13
REMARK SMILES IDX 95 14 96 15 101 16 97 17 100 18 98 19 99 20 82 21 83 22
REMARK SMILES IDX 94 23 84 25 93 26 85 27 86 28 87 29 92 30 88 31 90 32 89 33
REMARK SMILES IDX 91 34 14 35 15 36 16 37 17 38 18 39 19 40 20 41 21 42 22 43
REMARK SMILES IDX 23 44 81 45 24 46 80 47 25 48 26 49 27 50 74 51 28 52 79 53
REMARK SMILES IDX 73 54 75 55 29 56 78 57 72 58 71 59 30 61 60 62 41 63 59 64
REMARK SMILES IDX 42 65 45 66 58 67 76 68 43 69 44 70 57 72 77 73 46 74 31 75
REMARK SMILES IDX 32 76 40 77 33 78 39 79 34 80 35 81 36 82 37 83 38 84 61 85
REMARK SMILES IDX 62 86 70 87 63 88 69 89 64 90 65 91 66 92 67 93 68 94 47 95
REMARK SMILES IDX 48 96 56 97 49 98 55 99 50 100 51 101 52 102 53 103 54 104
REMARK H PARENT 82 24 75 60 45 71
REMARK Flexibility Score: inf
ROOT
ATOM      1  O   UNL A   1      31.364  29.518  24.414  1.00  0.00    -0.377 OA
ENDROOT
BRANCH   1   2
ATOM      2  C   UNL A   1      30.102  29.673  23.811  1.00  0.00     0.188 C 
BRANCH   2   3
ATOM      3  C   UNL A   1      29.561  28.770  22.691  1.00  0.00     0.188 C 
BRANCH   3   4
ATOM      4  O   UNL A   1      29.889  27.389  22.750  1.00  0.00    -0.376 OA
BRANCH   4   5
ATOM      5  C   UNL A   1      29.561  26.656  23.930  1.00  0.00     0.202 C 
BRANCH   5   6
ATOM      6  C   UNL A   1      29.997  25.186  24.026  1.00  0.00     0.261 C 
BRANCH   6   7
ATOM      7  O   UNL A   1      30.156  24.762  25.406  1.00  0.00    -0.459 OA
BRANCH   7   8
ATOM      8  C   UNL A   1      31.391  24.888  25.946  1.00  0.00     0.365 C 
ATOM      9  O   UNL A   1      31.629  25.683  26.852  1.00  0.00    -0.245 OA
BRANCH   8  10
ATOM     10  C   UNL A   1      32.483  23.913  25.365  1.00  0.00     0.303 C 
BRANCH  10  11
ATOM     11  C   UNL A   1      32.855  23.912  23.868  1.00  0.00     0.158 C 
BRANCH  11  12
ATOM     12  C   UNL A   1      34.246  24.392  23.492  1.00  0.00     0.169 C 
ATOM     13  O   UNL A   1      34.429  25.324  22.717  1.00  0.00    -0.294 OA
BRANCH  12  14
ATOM     14  C   UNL A   1      35.415  23.750  24.130  1.00  0.00     0.018 A 
ATOM     15  C   UNL A   1      35.987  22.642  23.497  1.00  0.00     0.015 A 
ATOM     16  C   UNL A   1      35.932  24.224  25.340  1.00  0.00     0.015 A 
ATOM     17  C   UNL A   1      37.015  21.940  24.126  1.00  0.00     0.040 A 
ATOM     18  C   UNL A   1      36.983  23.533  25.949  1.00  0.00     0.040 A 
ATOM     19  C   UNL A   1      37.491  22.381  25.354  1.00  0.00     0.123 A 
ATOM     20  F   UNL A   1      38.435  21.669  25.982  1.00  0.00    -0.207 F 
ENDBRANCH  12  14
ENDBRANCH  11  12
ENDBRANCH  10  11
BRANCH  10  21
ATOM     21  N   UNL A   1      32.119  22.562  25.889  1.00  0.00    -0.320 N 
ATOM     22  C   UNL A   1      31.501  21.584  24.986  1.00  0.00     0.284 C 
ATOM     23  C   UNL A   1      33.085  21.908  26.778  1.00  0.00     0.284 C 
ATOM     24  H   UNL A   1      31.347  22.897  26.467  1.00  0.00     0.348 HD
ATOM     25  C   UNL A   1      32.477  20.682  24.199  1.00  0.00     0.178 C 
ATOM     26  C   UNL A   1      34.060  20.888  26.134  1.00  0.00     0.178 C 
ATOM     27  N   UNL A   1      33.396  20.046  25.134  1.00  0.00    -0.360 N 
BRANCH  27  28
ATOM     28  C   UNL A   1      33.594  18.688  25.049  1.00  0.00     0.038 A 
ATOM     29  C   UNL A   1      34.600  18.155  24.231  1.00  0.00     0.026 A 
ATOM     30  C   UNL A   1      32.735  17.803  25.705  1.00  0.00     0.046 A 
ATOM     31  C   UNL A   1      34.741  16.775  24.063  1.00  0.00     0.004 A 
ATOM     32  C   UNL A   1      32.860  16.426  25.520  1.00  0.00     0.043 A 
ATOM     33  C   UNL A   1      33.861  15.906  24.703  1.00  0.00     0.020 A 
ATOM     34  Cl  UNL A   1      31.741  15.359  26.281  1.00  0.00    -0.084 Cl
ENDBRANCH  27  28
ENDBRANCH  10  21
ENDBRANCH   8  10
ENDBRANCH   7   8
ENDBRANCH   6   7
ENDBRANCH   5   6
ENDBRANCH   4   5
ENDBRANCH   3   4
ENDBRANCH   2   3
ENDBRANCH   1   2
BRANCH   1  35
ATOM     35  C   UNL A   1      31.509  30.115  25.683  1.00  0.00     0.188 C 
BRANCH  35  36
ATOM     36  C   UNL A   1      32.263  29.184  26.624  1.00  0.00     0.188 C 
BRANCH  36  37
ATOM     37  O   UNL A   1      33.266  29.879  27.357  1.00  0.00    -0.376 OA
BRANCH  37  38
ATOM     38  C   UNL A   1      33.310  31.299  27.272  1.00  0.00     0.202 C 
BRANCH  38  39
ATOM     39  C   UNL A   1      34.427  32.146  27.923  1.00  0.00     0.261 C 
BRANCH  39  40
ATOM     40  O   UNL A   1      34.448  32.321  29.348  1.00  0.00    -0.460 OA
BRANCH  40  41
ATOM     41  C   UNL A   1      35.418  33.078  29.906  1.00  0.00     0.338 C 
ATOM     42  O   UNL A   1      35.335  34.224  30.273  1.00  0.00    -0.246 OA
BRANCH  41  43
ATOM     43  C   UNL A   1      36.575  32.173  30.139  1.00  0.00     0.060 A 
ATOM     44  C   UNL A   1      36.386  30.968  30.831  1.00  0.00     0.016 A 
ATOM     45  C   UNL A   1      37.836  32.504  29.639  1.00  0.00     0.016 A 
ATOM     46  C   UNL A   1      37.464  30.102  31.045  1.00  0.00     0.010 A 
ATOM     47  C   UNL A   1      38.919  31.655  29.883  1.00  0.00     0.010 A 
ATOM     48  C   UNL A   1      38.746  30.465  30.615  1.00  0.00    -0.014 A 
BRANCH  48  49
ATOM     49  C   UNL A   1      39.949  29.765  31.136  1.00  0.00     0.031 A 
ATOM     50  C   UNL A   1      40.604  30.347  32.359  1.00  0.00     0.074 A 
ATOM     51  C   UNL A   1      40.480  28.685  30.533  1.00  0.00     0.049 A 
ATOM     52  N   UNL A   1      41.731  30.018  32.929  1.00  0.00    -0.248 NA
ATOM     53  C   UNL A   1      39.893  31.456  33.023  1.00  0.00     0.031 C 
ATOM     54  C   UNL A   1      39.905  27.988  29.389  1.00  0.00     0.029 A 
ATOM     55  N   UNL A   1      41.642  27.998  30.788  1.00  0.00    -0.354 N 
ATOM     56  C   UNL A   1      41.874  30.886  34.003  1.00  0.00     0.074 A 
ATOM     57  C   UNL A   1      40.731  31.770  33.999  1.00  0.00     0.031 C 
ATOM     58  C   UNL A   1      40.735  27.000  29.007  1.00  0.00     0.029 A 
ATOM     59  C   UNL A   1      41.916  27.012  29.866  1.00  0.00     0.049 A 
ATOM     60  H   UNL A   1      42.224  28.192  31.558  1.00  0.00     0.167 HD
ATOM     61  C   UNL A   1      42.873  30.944  34.912  1.00  0.00     0.031 A 
ATOM     62  C   UNL A   1      43.006  26.231  29.715  1.00  0.00     0.031 A 
ATOM     63  C   UNL A   1      44.009  30.065  34.908  1.00  0.00     0.049 A 
ATOM     64  C   UNL A   1      44.145  26.371  30.696  1.00  0.00     0.074 A 
ATOM     65  C   UNL A   1      45.059  30.021  35.807  1.00  0.00     0.029 A 
ATOM     66  N   UNL A   1      44.251  29.087  33.957  1.00  0.00    -0.354 N 
ATOM     67  N   UNL A   1      44.243  27.166  31.736  1.00  0.00    -0.248 NA
ATOM     68  C   UNL A   1      45.313  25.499  30.498  1.00  0.00     0.031 C 
ATOM     69  C   UNL A   1      45.972  29.064  35.362  1.00  0.00     0.029 A 
ATOM     70  C   UNL A   1      45.451  28.456  34.229  1.00  0.00     0.049 A 
ATOM     71  H   UNL A   1      43.658  28.874  33.200  1.00  0.00     0.167 HD
ATOM     72  C   UNL A   1      45.456  26.852  32.341  1.00  0.00     0.074 A 
ATOM     73  C   UNL A   1      46.056  25.795  31.555  1.00  0.00     0.031 C 
ATOM     74  C   UNL A   1      46.018  27.384  33.454  1.00  0.00     0.031 A 
BRANCH  61  75
ATOM     75  C   UNL A   1      42.808  32.010  35.968  1.00  0.00    -0.014 A 
ATOM     76  C   UNL A   1      41.914  31.915  37.049  1.00  0.00     0.010 A 
ATOM     77  C   UNL A   1      43.718  33.081  35.919  1.00  0.00     0.010 A 
ATOM     78  C   UNL A   1      41.930  32.877  38.062  1.00  0.00     0.020 A 
ATOM     79  C   UNL A   1      43.755  34.030  36.943  1.00  0.00     0.020 A 
ATOM     80  C   UNL A   1      42.857  33.923  38.007  1.00  0.00     0.054 A 
BRANCH  80  81
ATOM     81  S   UNL A   1      42.910  35.109  39.377  1.00  0.00     0.124 S 
ATOM     82  O   UNL A   1      41.624  34.874  40.029  1.00  0.00    -0.237 OA
ATOM     83  O   UNL A   1      44.084  34.674  40.129  1.00  0.00    -0.237 OA
ATOM     84  O   UNL A   1      43.042  36.403  38.713  1.00  0.00    -0.744 OA
ENDBRANCH  80  81
ENDBRANCH  61  75
BRANCH  62  85
ATOM     85  C   UNL A   1      43.106  25.267  28.580  1.00  0.00    -0.014 A 
ATOM     86  C   UNL A   1      42.578  23.968  28.688  1.00  0.00     0.010 A 
ATOM     87  C   UNL A   1      43.787  25.626  27.401  1.00  0.00     0.010 A 
ATOM     88  C   UNL A   1      42.770  23.034  27.665  1.00  0.00     0.020 A 
ATOM     89  C   UNL A   1      43.952  24.705  26.361  1.00  0.00     0.020 A 
ATOM     90  C   UNL A   1      43.461  23.408  26.509  1.00  0.00     0.054 A 
BRANCH  90  91
ATOM     91  S   UNL A   1      43.703  22.177  25.197  1.00  0.00     0.124 S 
ATOM     92  O   UNL A   1      45.093  21.783  25.403  1.00  0.00    -0.237 OA
ATOM     93  O   UNL A   1      42.702  21.165  25.528  1.00  0.00    -0.237 OA
ATOM     94  O   UNL A   1      43.439  22.926  23.971  1.00  0.00    -0.744 OA
ENDBRANCH  90  91
ENDBRANCH  62  85
BRANCH  74  95
ATOM     95  C   UNL A   1      47.311  26.791  33.947  1.00  0.00    -0.014 A 
ATOM     96  C   UNL A   1      48.557  27.319  33.570  1.00  0.00     0.010 A 
ATOM     97  C   UNL A   1      47.264  25.746  34.890  1.00  0.00     0.010 A 
ATOM     98  C   UNL A   1      49.734  26.802  34.116  1.00  0.00     0.020 A 
ATOM     99  C   UNL A   1      48.437  25.249  35.462  1.00  0.00     0.020 A 
ATOM    100  C   UNL A   1      49.667  25.775  35.064  1.00  0.00     0.054 A 
BRANCH 100 101
ATOM    101  S   UNL A   1      51.205  25.177  35.815  1.00  0.00     0.124 S 
ATOM    102  O   UNL A   1      51.229  25.904  37.080  1.00  0.00    -0.237 OA
ATOM    103  O   UNL A   1      50.970  23.739  35.920  1.00  0.00    -0.237 OA
ATOM    104  O   UNL A   1      52.236  25.565  34.854  1.00  0.00    -0.744 OA
ENDBRANCH 100 101
ENDBRANCH  74  95
ENDBRANCH  48  49
ENDBRANCH  41  43
ENDBRANCH  40  41
ENDBRANCH  39  40
ENDBRANCH  38  39
ENDBRANCH  37  38
ENDBRANCH  36  37
ENDBRANCH  35  36
ENDBRANCH   1  35
TORSDOF 28
ENDMDL
MODEL 2
REMARK VINA RESULT:      -9.3      3.132      9.665
REMARK SMILES O=C(C[C@@H](C(=O)OCCOCCOCCOCCOC(=O)c1ccc(-c2c3nc(c(-c4ccc(S(=O)(=O)[O-])cc4)c4ccc([nH]4)c(-c4ccc(S(=O)(=O)[O-])cc4)c4nc(c(-c5ccc(S(=O)(=O)[O-])cc5)c5ccc2[nH]5)C=C4)C=C3)cc1)[NH+]1CCN(c2cccc(Cl)c2)CC1)c1ccc(F)cc1
REMARK SMILES IDX 13 1 12 2 11 3 10 4 9 5 8 6 7 7 5 8 6 9 4 10 3 11 2 12 1 13
REMARK SMILES IDX 95 14 96 15 101 16 97 17 100 18 98 19 99 20 82 21 83 22
REMARK SMILES IDX 94 23 84 25 93 26 85 27 86 28 87 29 92 30 88 31 90 32 89 33
REMARK SMILES IDX 91 34 14 35 15 36 16 37 17 38 18 39 19 40 20 41 21 42 22 43
REMARK SMILES IDX 23 44 81 45 24 46 80 47 25 48 26 49 27 50 74 51 28 52 79 53
REMARK SMILES IDX 73 54 75 55 29 56 78 57 72 58 71 59 30 61 60 62 41 63 59 64
REMARK SMILES IDX 42 65 45 66 58 67 76 68 43 69 44 70 57 72 77 73 46 74 31 75
REMARK SMILES IDX 32 76 40 77 33 78 39 79 34 80 35 81 36 82 37 83 38 84 61 85
REMARK SMILES IDX 62 86 70 87 63 88 69 89 64 90 65 91 66 92 67 93 68 94 47 95
REMARK SMILES IDX 48 96 56 97 49 98 55 99 50 100 51 101 52 102 53 103 54 104
REMARK H PARENT 82 24 75 60 45 71
REMARK Flexibility Score: inf
ROOT
ATOM      1  O   UNL A   1      40.402  19.757  25.638  1.00  0.00    -0.377 OA
ENDROOT
BRANCH   1   2
ATOM      2  C   UNL A   1      39.075  20.101  25.952  1.00  0.00     0.188 C 
BRANCH   2   3
ATOM      3  C   UNL A   1      38.400  21.418  25.539  1.00  0.00     0.188 C 
BRANCH   3   4
ATOM      4  O   UNL A   1      38.449  22.495  26.465  1.00  0.00    -0.376 OA
BRANCH   4   5
ATOM      5  C   UNL A   1      37.797  23.719  26.128  1.00  0.00     0.202 C 
BRANCH   5   6
ATOM      6  C   UNL A   1      36.979  23.782  24.830  1.00  0.00     0.261 C 
BRANCH   6   7
ATOM      7  O   UNL A   1      35.687  24.414  25.038  1.00  0.00    -0.459 OA
BRANCH   7   8
ATOM      8  C   UNL A   1      34.713  24.122  24.145  1.00  0.00     0.365 C 
ATOM      9  O   UNL A   1      34.965  23.688  23.024  1.00  0.00    -0.245 OA
BRANCH   8  10
ATOM     10  C   UNL A   1      33.241  24.334  24.662  1.00  0.00     0.303 C 
BRANCH  10  11
ATOM     11  C   UNL A   1      32.849  25.557  25.517  1.00  0.00     0.158 C 
BRANCH  11  12
ATOM     12  C   UNL A   1      32.959  26.927  24.871  1.00  0.00     0.169 C 
ATOM     13  O   UNL A   1      33.981  27.601  24.937  1.00  0.00    -0.294 OA
BRANCH  12  14
ATOM     14  C   UNL A   1      31.814  27.436  24.087  1.00  0.00     0.018 A 
ATOM     15  C   UNL A   1      32.054  28.433  23.136  1.00  0.00     0.015 A 
ATOM     16  C   UNL A   1      30.519  26.947  24.293  1.00  0.00     0.015 A 
ATOM     17  C   UNL A   1      30.984  29.019  22.461  1.00  0.00     0.040 A 
ATOM     18  C   UNL A   1      29.455  27.519  23.590  1.00  0.00     0.040 A 
ATOM     19  C   UNL A   1      29.693  28.570  22.707  1.00  0.00     0.123 A 
ATOM     20  F   UNL A   1      28.665  29.176  22.102  1.00  0.00    -0.207 F 
ENDBRANCH  12  14
ENDBRANCH  11  12
ENDBRANCH  10  11
BRANCH  10  21
ATOM     21  N   UNL A   1      32.850  23.029  25.275  1.00  0.00    -0.320 N 
ATOM     22  C   UNL A   1      31.926  22.146  24.554  1.00  0.00     0.284 C 
ATOM     23  C   UNL A   1      33.911  22.250  25.923  1.00  0.00     0.284 C 
ATOM     24  H   UNL A   1      32.280  23.445  26.012  1.00  0.00     0.348 HD
ATOM     25  C   UNL A   1      32.576  21.145  23.574  1.00  0.00     0.178 C 
ATOM     26  C   UNL A   1      34.580  21.132  25.083  1.00  0.00     0.178 C 
ATOM     27  N   UNL A   1      33.605  20.390  24.278  1.00  0.00    -0.360 N 
BRANCH  27  28
ATOM     28  C   UNL A   1      33.614  19.020  24.167  1.00  0.00     0.038 A 
ATOM     29  C   UNL A   1      32.522  18.331  23.620  1.00  0.00     0.026 A 
ATOM     30  C   UNL A   1      34.676  18.273  24.684  1.00  0.00     0.046 A 
ATOM     31  C   UNL A   1      32.484  16.935  23.596  1.00  0.00     0.004 A 
ATOM     32  C   UNL A   1      34.629  16.878  24.683  1.00  0.00     0.043 A 
ATOM     33  C   UNL A   1      33.538  16.205  24.139  1.00  0.00     0.020 A 
ATOM     34  Cl  UNL A   1      35.916  15.982  25.394  1.00  0.00    -0.084 Cl
ENDBRANCH  27  28
ENDBRANCH  10  21
ENDBRANCH   8  10
ENDBRANCH   7   8
ENDBRANCH   6   7
ENDBRANCH   5   6
ENDBRANCH   4   5
ENDBRANCH   3   4
ENDBRANCH   2   3
ENDBRANCH   1   2
BRANCH   1  35
ATOM     35  C   UNL A   1      41.347  19.987  26.659  1.00  0.00     0.188 C 
BRANCH  35  36
ATOM     36  C   UNL A   1      41.603  21.481  26.818  1.00  0.00     0.188 C 
BRANCH  36  37
ATOM     37  O   UNL A   1      42.995  21.770  26.889  1.00  0.00    -0.376 OA
BRANCH  37  38
ATOM     38  C   UNL A   1      43.624  22.371  25.763  1.00  0.00     0.202 C 
BRANCH  38  39
ATOM     39  C   UNL A   1      43.217  23.757  25.214  1.00  0.00     0.261 C 
BRANCH  39  40
ATOM     40  O   UNL A   1      42.846  24.803  26.125  1.00  0.00    -0.460 OA
BRANCH  40  41
ATOM     41  C   UNL A   1      43.798  25.640  26.594  1.00  0.00     0.338 C 
ATOM     42  O   UNL A   1      44.913  25.797  26.162  1.00  0.00    -0.246 OA
BRANCH  41  43
ATOM     43  C   UNL A   1      43.151  26.460  27.653  1.00  0.00     0.060 A 
ATOM     44  C   UNL A   1      43.428  27.832  27.736  1.00  0.00     0.016 A 
ATOM     45  C   UNL A   1      42.245  25.872  28.538  1.00  0.00     0.016 A 
ATOM     46  C   UNL A   1      42.816  28.616  28.720  1.00  0.00     0.010 A 
ATOM     47  C   UNL A   1      41.660  26.649  29.542  1.00  0.00     0.010 A 
ATOM     48  C   UNL A   1      41.967  28.018  29.659  1.00  0.00    -0.014 A 
BRANCH  48  49
ATOM     49  C   UNL A   1      41.600  28.728  30.911  1.00  0.00     0.031 A 
ATOM     50  C   UNL A   1      40.408  29.645  30.855  1.00  0.00     0.074 A 
ATOM     51  C   UNL A   1      42.312  28.613  32.048  1.00  0.00     0.049 A 
ATOM     52  N   UNL A   1      39.963  30.479  31.756  1.00  0.00    -0.248 NA
ATOM     53  C   UNL A   1      39.617  29.622  29.611  1.00  0.00     0.031 C 
ATOM     54  C   UNL A   1      43.440  27.711  32.251  1.00  0.00     0.029 A 
ATOM     55  N   UNL A   1      42.205  29.282  33.243  1.00  0.00    -0.354 N 
ATOM     56  C   UNL A   1      38.856  31.091  31.184  1.00  0.00     0.074 A 
ATOM     57  C   UNL A   1      38.704  30.550  29.853  1.00  0.00     0.031 C 
ATOM     58  C   UNL A   1      43.954  27.911  33.479  1.00  0.00     0.029 A 
ATOM     59  C   UNL A   1      43.206  28.977  34.140  1.00  0.00     0.049 A 
ATOM     60  H   UNL A   1      41.481  29.919  33.442  1.00  0.00     0.167 HD
ATOM     61  C   UNL A   1      38.040  32.026  31.720  1.00  0.00     0.031 A 
ATOM     62  C   UNL A   1      43.502  29.517  35.341  1.00  0.00     0.031 A 
ATOM     63  C   UNL A   1      38.200  32.563  33.043  1.00  0.00     0.049 A 
ATOM     64  C   UNL A   1      42.621  30.617  35.882  1.00  0.00     0.074 A 
ATOM     65  C   UNL A   1      37.403  33.489  33.690  1.00  0.00     0.029 A 
ATOM     66  N   UNL A   1      39.226  32.234  33.913  1.00  0.00    -0.354 N 
ATOM     67  N   UNL A   1      41.549  31.153  35.347  1.00  0.00    -0.248 NA
ATOM     68  C   UNL A   1      42.977  31.176  37.196  1.00  0.00     0.031 C 
ATOM     69  C   UNL A   1      37.987  33.774  34.926  1.00  0.00     0.029 A 
ATOM     70  C   UNL A   1      39.102  32.964  35.081  1.00  0.00     0.049 A 
ATOM     71  H   UNL A   1      39.937  31.578  33.727  1.00  0.00     0.167 HD
ATOM     72  C   UNL A   1      41.076  32.070  36.281  1.00  0.00     0.074 A 
ATOM     73  C   UNL A   1      41.976  32.017  37.413  1.00  0.00     0.031 C 
ATOM     74  C   UNL A   1      39.989  32.875  36.211  1.00  0.00     0.031 A 
BRANCH  61  75
ATOM     75  C   UNL A   1      36.920  32.557  30.871  1.00  0.00    -0.014 A 
ATOM     76  C   UNL A   1      35.588  32.164  31.089  1.00  0.00     0.010 A 
ATOM     77  C   UNL A   1      37.200  33.532  29.897  1.00  0.00     0.010 A 
ATOM     78  C   UNL A   1      34.555  32.735  30.341  1.00  0.00     0.020 A 
ATOM     79  C   UNL A   1      36.168  34.125  29.167  1.00  0.00     0.020 A 
ATOM     80  C   UNL A   1      34.851  33.719  29.392  1.00  0.00     0.054 A 
BRANCH  80  81
ATOM     81  S   UNL A   1      33.483  34.501  28.496  1.00  0.00     0.124 S 
ATOM     82  O   UNL A   1      32.937  33.378  27.739  1.00  0.00    -0.237 OA
ATOM     83  O   UNL A   1      32.637  34.997  29.579  1.00  0.00    -0.237 OA
ATOM     84  O   UNL A   1      34.135  35.533  27.695  1.00  0.00    -0.744 OA
ENDBRANCH  80  81
ENDBRANCH  61  75
BRANCH  62  85
ATOM     85  C   UNL A   1      44.698  29.063  36.111  1.00  0.00    -0.014 A 
ATOM     86  C   UNL A   1      44.652  27.893  36.890  1.00  0.00     0.010 A 
ATOM     87  C   UNL A   1      45.874  29.836  36.115  1.00  0.00     0.010 A 
ATOM     88  C   UNL A   1      45.738  27.532  37.695  1.00  0.00     0.020 A 
ATOM     89  C   UNL A   1      46.974  29.460  36.893  1.00  0.00     0.020 A 
ATOM     90  C   UNL A   1      46.891  28.321  37.695  1.00  0.00     0.054 A 
BRANCH  90  91
ATOM     91  S   UNL A   1      48.284  27.835  38.752  1.00  0.00     0.124 S 
ATOM     92  O   UNL A   1      48.366  28.957  39.681  1.00  0.00    -0.237 OA
ATOM     93  O   UNL A   1      47.820  26.572  39.323  1.00  0.00    -0.237 OA
ATOM     94  O   UNL A   1      49.399  27.715  37.815  1.00  0.00    -0.744 OA
ENDBRANCH  90  91
ENDBRANCH  62  85
BRANCH  74  95
ATOM     95  C   UNL A   1      39.652  33.716  37.413  1.00  0.00    -0.014 A 
ATOM     96  C   UNL A   1      39.341  33.138  38.656  1.00  0.00     0.010 A 
ATOM     97  C   UNL A   1      39.750  35.118  37.313  1.00  0.00     0.010 A 
ATOM     98  C   UNL A   1      39.121  33.947  39.772  1.00  0.00     0.020 A 
ATOM     99  C   UNL A   1      39.562  35.928  38.434  1.00  0.00     0.020 A 
ATOM    100  C   UNL A   1      39.239  35.337  39.657  1.00  0.00     0.054 A 
BRANCH 100 101
ATOM    101  S   UNL A   1      39.026  36.358  41.139  1.00  0.00     0.124 S 
ATOM    102  O   UNL A   1      40.352  36.298  41.745  1.00  0.00    -0.237 OA
ATOM    103  O   UNL A   1      38.647  37.654  40.581  1.00  0.00    -0.237 OA
ATOM    104  O   UNL A   1      37.969  35.675  41.884  1.00  0.00    -0.744 OA
ENDBRANCH 100 101
ENDBRANCH  74  95
ENDBRANCH  48  49
ENDBRANCH  41  43
ENDBRANCH  40  41
ENDBRANCH  39  40
ENDBRANCH  38  39
ENDBRANCH  37  38
ENDBRANCH  36  37
ENDBRANCH  35  36
ENDBRANCH   1  35
TORSDOF 28
ENDMDL
MODEL 3
REMARK VINA RESULT:      -9.3      4.941      8.607
REMARK SMILES O=C(C[C@@H](C(=O)OCCOCCOCCOCCOC(=O)c1ccc(-c2c3nc(c(-c4ccc(S(=O)(=O)[O-])cc4)c4ccc([nH]4)c(-c4ccc(S(=O)(=O)[O-])cc4)c4nc(c(-c5ccc(S(=O)(=O)[O-])cc5)c5ccc2[nH]5)C=C4)C=C3)cc1)[NH+]1CCN(c2cccc(Cl)c2)CC1)c1ccc(F)cc1
REMARK SMILES IDX 13 1 12 2 11 3 10 4 9 5 8 6 7 7 5 8 6 9 4 10 3 11 2 12 1 13
REMARK SMILES IDX 95 14 96 15 101 16 97 17 100 18 98 19 99 20 82 21 83 22
REMARK SMILES IDX 94 23 84 25 93 26 85 27 86 28 87 29 92 30 88 31 90 32 89 33
REMARK SMILES IDX 91 34 14 35 15 36 16 37 17 38 18 39 19 40 20 41 21 42 22 43
REMARK SMILES IDX 23 44 81 45 24 46 80 47 25 48 26 49 27 50 74 51 28 52 79 53
REMARK SMILES IDX 73 54 75 55 29 56 78 57 72 58 71 59 30 61 60 62 41 63 59 64
REMARK SMILES IDX 42 65 45 66 58 67 76 68 43 69 44 70 57 72 77 73 46 74 31 75
REMARK SMILES IDX 32 76 40 77 33 78 39 79 34 80 35 81 36 82 37 83 38 84 61 85
REMARK SMILES IDX 62 86 70 87 63 88 69 89 64 90 65 91 66 92 67 93 68 94 47 95
REMARK SMILES IDX 48 96 56 97 49 98 55 99 50 100 51 101 52 102 53 103 54 104
REMARK H PARENT 82 24 75 60 45 71
REMARK Flexibility Score: inf
ROOT
ATOM      1  O   UNL A   1      33.117  29.308  25.234  1.00  0.00    -0.377 OA
ENDROOT
BRANCH   1   2
ATOM      2  C   UNL A   1      31.819  29.631  24.798  1.00  0.00     0.188 C 
BRANCH   2   3
ATOM      3  C   UNL A   1      31.133  28.997  23.578  1.00  0.00     0.188 C 
BRANCH   3   4
ATOM      4  O   UNL A   1      31.054  27.580  23.536  1.00  0.00    -0.376 OA
BRANCH   4   5
ATOM      5  C   UNL A   1      29.766  26.963  23.558  1.00  0.00     0.202 C 
BRANCH   5   6
ATOM      6  C   UNL A   1      29.341  26.198  24.819  1.00  0.00     0.261 C 
BRANCH   6   7
ATOM      7  O   UNL A   1      30.436  26.068  25.765  1.00  0.00    -0.459 OA
BRANCH   7   8
ATOM      8  C   UNL A   1      30.673  24.830  26.259  1.00  0.00     0.365 C 
ATOM      9  O   UNL A   1      29.909  24.288  27.054  1.00  0.00    -0.245 OA
BRANCH   8  10
ATOM     10  C   UNL A   1      31.967  24.121  25.708  1.00  0.00     0.303 C 
BRANCH  10  11
ATOM     11  C   UNL A   1      32.550  24.461  24.321  1.00  0.00     0.158 C 
BRANCH  11  12
ATOM     12  C   UNL A   1      33.930  25.096  24.279  1.00  0.00     0.169 C 
ATOM     13  O   UNL A   1      34.090  26.309  24.208  1.00  0.00    -0.294 OA
BRANCH  12  14
ATOM     14  C   UNL A   1      35.117  24.221  24.387  1.00  0.00     0.018 A 
ATOM     15  C   UNL A   1      35.468  23.444  23.279  1.00  0.00     0.015 A 
ATOM     16  C   UNL A   1      35.866  24.157  25.568  1.00  0.00     0.015 A 
ATOM     17  C   UNL A   1      36.509  22.522  23.382  1.00  0.00     0.040 A 
ATOM     18  C   UNL A   1      36.927  23.252  25.652  1.00  0.00     0.040 A 
ATOM     19  C   UNL A   1      37.217  22.421  24.573  1.00  0.00     0.123 A 
ATOM     20  F   UNL A   1      38.174  21.493  24.686  1.00  0.00    -0.207 F 
ENDBRANCH  12  14
ENDBRANCH  11  12
ENDBRANCH  10  11
BRANCH  10  21
ATOM     21  N   UNL A   1      31.728  22.660  25.911  1.00  0.00    -0.320 N 
ATOM     22  C   UNL A   1      31.173  21.864  24.810  1.00  0.00     0.284 C 
ATOM     23  C   UNL A   1      32.765  21.906  26.624  1.00  0.00     0.284 C 
ATOM     24  H   UNL A   1      30.945  22.787  26.553  1.00  0.00     0.348 HD
ATOM     25  C   UNL A   1      32.202  21.251  23.835  1.00  0.00     0.178 C 
ATOM     26  C   UNL A   1      33.807  21.147  25.761  1.00  0.00     0.178 C 
ATOM     27  N   UNL A   1      33.191  20.501  24.598  1.00  0.00    -0.360 N 
BRANCH  27  28
ATOM     28  C   UNL A   1      33.500  19.220  24.204  1.00  0.00     0.038 A 
ATOM     29  C   UNL A   1      32.823  18.608  23.140  1.00  0.00     0.026 A 
ATOM     30  C   UNL A   1      34.433  18.463  24.919  1.00  0.00     0.046 A 
ATOM     31  C   UNL A   1      33.062  17.274  22.800  1.00  0.00     0.004 A 
ATOM     32  C   UNL A   1      34.655  17.124  24.595  1.00  0.00     0.043 A 
ATOM     33  C   UNL A   1      33.976  16.525  23.538  1.00  0.00     0.020 A 
ATOM     34  Cl  UNL A   1      35.755  16.192  25.539  1.00  0.00    -0.084 Cl
ENDBRANCH  27  28
ENDBRANCH  10  21
ENDBRANCH   8  10
ENDBRANCH   7   8
ENDBRANCH   6   7
ENDBRANCH   5   6
ENDBRANCH   4   5
ENDBRANCH   3   4
ENDBRANCH   2   3
ENDBRANCH   1   2
BRANCH   1  35
ATOM     35  C   UNL A   1      33.385  29.571  26.593  1.00  0.00     0.188 C 
BRANCH  35  36
ATOM     36  C   UNL A   1      34.802  29.136  26.948  1.00  0.00     0.188 C 
BRANCH  36  37
ATOM     37  O   UNL A   1      35.215  29.669  28.201  1.00  0.00    -0.376 OA
BRANCH  37  38
ATOM     38  C   UNL A   1      35.144  31.076  28.398  1.00  0.00     0.202 C 
BRANCH  38  39
ATOM     39  C   UNL A   1      35.944  31.812  29.497  1.00  0.00     0.261 C 
BRANCH  39  40
ATOM     40  O   UNL A   1      36.566  31.059  30.550  1.00  0.00    -0.460 OA
BRANCH  40  41
ATOM     41  C   UNL A   1      37.559  31.626  31.270  1.00  0.00     0.338 C 
ATOM     42  O   UNL A   1      37.449  32.352  32.227  1.00  0.00    -0.246 OA
BRANCH  41  43
ATOM     43  C   UNL A   1      38.830  31.049  30.758  1.00  0.00     0.060 A 
ATOM     44  C   UNL A   1      40.043  31.372  31.385  1.00  0.00     0.016 A 
ATOM     45  C   UNL A   1      38.812  30.161  29.680  1.00  0.00     0.016 A 
ATOM     46  C   UNL A   1      41.243  30.825  30.920  1.00  0.00     0.010 A 
ATOM     47  C   UNL A   1      40.016  29.642  29.195  1.00  0.00     0.010 A 
ATOM     48  C   UNL A   1      41.241  29.996  29.791  1.00  0.00    -0.014 A 
BRANCH  48  49
ATOM     49  C   UNL A   1      42.502  29.703  29.061  1.00  0.00     0.031 A 
ATOM     50  C   UNL A   1      42.698  28.295  28.570  1.00  0.00     0.074 A 
ATOM     51  C   UNL A   1      43.466  30.624  28.876  1.00  0.00     0.049 A 
ATOM     52  N   UNL A   1      43.754  27.745  28.034  1.00  0.00    -0.248 NA
ATOM     53  C   UNL A   1      41.548  27.382  28.709  1.00  0.00     0.031 C 
ATOM     54  C   UNL A   1      43.371  32.033  29.242  1.00  0.00     0.029 A 
ATOM     55  N   UNL A   1      44.731  30.504  28.353  1.00  0.00    -0.354 N 
ATOM     56  C   UNL A   1      43.404  26.423  27.791  1.00  0.00     0.074 A 
ATOM     57  C   UNL A   1      42.046  26.244  28.251  1.00  0.00     0.031 C 
ATOM     58  C   UNL A   1      44.541  32.641  28.976  1.00  0.00     0.029 A 
ATOM     59  C   UNL A   1      45.480  31.656  28.446  1.00  0.00     0.049 A 
ATOM     60  H   UNL A   1      45.070  29.673  27.949  1.00  0.00     0.167 HD
ATOM     61  C   UNL A   1      44.151  25.444  27.234  1.00  0.00     0.031 A 
ATOM     62  C   UNL A   1      46.781  31.882  28.164  1.00  0.00     0.031 A 
ATOM     63  C   UNL A   1      45.502  25.627  26.782  1.00  0.00     0.049 A 
ATOM     64  C   UNL A   1      47.616  30.748  27.619  1.00  0.00     0.074 A 
ATOM     65  C   UNL A   1      46.331  24.704  26.173  1.00  0.00     0.029 A 
ATOM     66  N   UNL A   1      46.224  26.804  26.899  1.00  0.00    -0.354 N 
ATOM     67  N   UNL A   1      47.256  29.515  27.351  1.00  0.00    -0.248 NA
ATOM     68  C   UNL A   1      49.027  31.037  27.323  1.00  0.00     0.031 C 
ATOM     69  C   UNL A   1      47.579  25.300  25.984  1.00  0.00     0.029 A 
ATOM     70  C   UNL A   1      47.501  26.620  26.403  1.00  0.00     0.049 A 
ATOM     71  H   UNL A   1      45.879  27.644  27.280  1.00  0.00     0.167 HD
ATOM     72  C   UNL A   1      48.380  28.901  26.806  1.00  0.00     0.074 A 
ATOM     73  C   UNL A   1      49.430  29.896  26.782  1.00  0.00     0.031 C 
ATOM     74  C   UNL A   1      48.525  27.631  26.357  1.00  0.00     0.031 A 
BRANCH  61  75
ATOM     75  C   UNL A   1      43.544  24.075  27.112  1.00  0.00    -0.014 A 
ATOM     76  C   UNL A   1      43.457  23.212  28.218  1.00  0.00     0.010 A 
ATOM     77  C   UNL A   1      42.973  23.684  25.887  1.00  0.00     0.010 A 
ATOM     78  C   UNL A   1      42.814  21.978  28.099  1.00  0.00     0.020 A 
ATOM     79  C   UNL A   1      42.305  22.463  25.772  1.00  0.00     0.020 A 
ATOM     80  C   UNL A   1      42.233  21.616  26.879  1.00  0.00     0.054 A 
BRANCH  80  81
ATOM     81  S   UNL A   1      41.333  20.045  26.778  1.00  0.00     0.124 S 
ATOM     82  O   UNL A   1      40.208  20.397  25.917  1.00  0.00    -0.237 OA
ATOM     83  O   UNL A   1      42.323  19.150  26.183  1.00  0.00    -0.237 OA
ATOM     84  O   UNL A   1      40.986  19.752  28.166  1.00  0.00    -0.744 OA
ENDBRANCH  80  81
ENDBRANCH  61  75
BRANCH  62  85
ATOM     85  C   UNL A   1      47.398  33.217  28.416  1.00  0.00    -0.014 A 
ATOM     86  C   UNL A   1      46.945  34.362  27.736  1.00  0.00     0.010 A 
ATOM     87  C   UNL A   1      48.488  33.340  29.298  1.00  0.00     0.010 A 
ATOM     88  C   UNL A   1      47.598  35.589  27.893  1.00  0.00     0.020 A 
ATOM     89  C   UNL A   1      49.123  34.573  29.485  1.00  0.00     0.020 A 
ATOM     90  C   UNL A   1      48.687  35.685  28.764  1.00  0.00     0.054 A 
BRANCH  90  91
ATOM     91  S   UNL A   1      49.522  37.286  28.948  1.00  0.00     0.124 S 
ATOM     92  O   UNL A   1      50.205  37.422  27.665  1.00  0.00    -0.237 OA
ATOM     93  O   UNL A   1      48.402  38.200  29.169  1.00  0.00    -0.237 OA
ATOM     94  O   UNL A   1      50.393  37.088  30.104  1.00  0.00    -0.744 OA
ENDBRANCH  90  91
ENDBRANCH  62  85
BRANCH  74  95
ATOM     95  C   UNL A   1      49.838  27.249  25.727  1.00  0.00    -0.014 A 
ATOM     96  C   UNL A   1      49.984  27.136  24.334  1.00  0.00     0.010 A 
ATOM     97  C   UNL A   1      50.971  27.100  26.551  1.00  0.00     0.010 A 
ATOM     98  C   UNL A   1      51.236  26.867  23.778  1.00  0.00     0.020 A 
ATOM     99  C   UNL A   1      52.229  26.863  25.996  1.00  0.00     0.020 A 
ATOM    100  C   UNL A   1      52.353  26.739  24.611  1.00  0.00     0.054 A 
BRANCH 100 101
ATOM    101  S   UNL A   1      53.979  26.469  23.857  1.00  0.00     0.124 S 
ATOM    102  O   UNL A   1      54.480  25.326  24.615  1.00  0.00    -0.237 OA
ATOM    103  O   UNL A   1      53.642  26.200  22.461  1.00  0.00    -0.237 OA
ATOM    104  O   UNL A   1      54.685  27.727  24.090  1.00  0.00    -0.744 OA
ENDBRANCH 100 101
ENDBRANCH  74  95
ENDBRANCH  48  49
ENDBRANCH  41  43
ENDBRANCH  40  41
ENDBRANCH  39  40
ENDBRANCH  38  39
ENDBRANCH  37  38
ENDBRANCH  36  37
ENDBRANCH  35  36
ENDBRANCH   1  35
TORSDOF 28
ENDMDL
