MODEL 1
REMARK VINA RESULT:     -10.0      0.000      0.000
REMARK SMILES Cc1ccc(-c2cc(C(=O)OCCOCCOCCOCCOC(=O)c3ccc(-c4c5nc(c(-c6ccc(S(=O)(=O)[O-])cc6)c6ccc([nH]6)c(-c6ccc(S(=O)(=O)[O-])cc6)c6nc(c(-c7ccc(S(=O)(=O)[O-])cc7)c7ccc4[nH]7)C=C6)C=C5)cc3)c3c(-c4cccc([N+](=O)[O-])c4)[nH]nc3n2)cc1
REMARK SMILES IDX 18 1 17 2 16 3 15 4 14 5 13 6 12 7 11 8 9 9 10 10 8 11 6 12
REMARK SMILES IDX 7 13 100 14 99 15 86 16 98 17 87 18 97 19 5 21 1 22 2 23
REMARK SMILES IDX 3 24 102 25 4 26 101 27 88 28 89 29 96 30 90 31 92 32 91 33
REMARK SMILES IDX 93 34 94 35 95 36 19 37 20 38 21 39 22 40 23 41 24 42 25 43
REMARK SMILES IDX 26 44 27 45 85 46 28 47 84 48 29 49 30 50 31 51 78 52 32 53
REMARK SMILES IDX 83 54 77 55 79 56 33 57 82 58 76 59 75 60 34 62 64 63 45 64
REMARK SMILES IDX 63 65 46 66 49 67 62 68 80 69 47 70 48 71 61 73 81 74 50 75
REMARK SMILES IDX 35 76 36 77 44 78 37 79 43 80 38 81 39 82 40 83 41 84 42 85
REMARK SMILES IDX 65 86 66 87 74 88 67 89 73 90 68 91 69 92 70 93 71 94 72 95
REMARK SMILES IDX 51 96 52 97 60 98 53 99 59 100 54 101 55 102 56 103 57 104
REMARK SMILES IDX 58 105
REMARK H PARENT 97 20 79 61 49 72
REMARK Flexibility Score: inf
ROOT
ATOM      1  C   UNL A   1      38.066  31.293  29.309  1.00  0.00     0.188 C 
ENDROOT
BRANCH   1   2
ATOM      2  O   UNL A   1      37.061  31.325  28.307  1.00  0.00    -0.377 OA
BRANCH   2   3
ATOM      3  C   UNL A   1      36.490  30.194  27.660  1.00  0.00     0.188 C 
BRANCH   3   4
ATOM      4  C   UNL A   1      34.913  29.672  27.348  1.00  0.00     0.188 C 
BRANCH   4   5
ATOM      5  O   UNL A   1      33.841  29.212  25.944  1.00  0.00    -0.376 OA
BRANCH   5   6
ATOM      6  C   UNL A   1      32.626  27.970  25.631  1.00  0.00     0.202 C 
BRANCH   6   7
ATOM      7  C   UNL A   1      32.807  26.105  25.796  1.00  0.00     0.261 C 
BRANCH   7   8
ATOM      8  O   UNL A   1      34.353  25.241  26.237  1.00  0.00    -0.460 OA
BRANCH   8   9
ATOM      9  C   UNL A   1      35.052  23.965  26.543  1.00  0.00     0.339 C 
ATOM     10  O   UNL A   1      34.517  22.986  27.063  1.00  0.00    -0.246 OA
BRANCH   9  11
ATOM     11  C   UNL A   1      36.543  23.557  26.244  1.00  0.00     0.075 A 
ATOM     12  C   UNL A   1      39.104  23.804  26.328  1.00  0.00     0.074 A 
ATOM     13  C   UNL A   1      37.761  24.260  26.448  1.00  0.00     0.045 A 
ATOM     14  N   UNL A   1      39.443  22.543  26.029  1.00  0.00    -0.226 NA
ATOM     15  C   UNL A   1      38.355  21.776  25.770  1.00  0.00     0.182 A 
ATOM     16  C   UNL A   1      36.967  22.255  25.816  1.00  0.00     0.061 A 
ATOM     17  N   UNL A   1      38.445  20.497  25.414  1.00  0.00    -0.154 NA
ATOM     18  C   UNL A   1      36.269  21.186  25.253  1.00  0.00     0.076 A 
ATOM     19  N   UNL A   1      37.183  20.162  25.161  1.00  0.00    -0.275 N 
ATOM     20  H   UNL A   1      36.919  19.244  24.923  1.00  0.00     0.190 HD
BRANCH  12  21
ATOM     21  C   UNL A   1      40.201  24.779  26.564  1.00  0.00     0.000 A 
ATOM     22  C   UNL A   1      43.171  27.900  27.164  1.00  0.00     0.044 C 
ATOM     23  C   UNL A   1      42.137  26.833  26.955  1.00  0.00    -0.051 A 
ATOM     24  C   UNL A   1      42.149  26.045  25.797  1.00  0.00     0.004 A 
ATOM     25  C   UNL A   1      41.162  26.585  27.922  1.00  0.00     0.004 A 
ATOM     26  C   UNL A   1      41.193  25.032  25.605  1.00  0.00     0.010 A 
ATOM     27  C   UNL A   1      40.212  25.575  27.728  1.00  0.00     0.010 A 
ENDBRANCH  12  21
BRANCH  18  28
ATOM     28  C   UNL A   1      34.942  20.937  24.698  1.00  0.00     0.007 A 
ATOM     29  C   UNL A   1      34.369  19.664  24.766  1.00  0.00     0.011 A 
ATOM     30  C   UNL A   1      34.277  21.948  23.993  1.00  0.00     0.096 A 
ATOM     31  C   UNL A   1      33.118  19.413  24.194  1.00  0.00     0.008 A 
ATOM     32  C   UNL A   1      33.010  21.695  23.443  1.00  0.00     0.270 A 
ATOM     33  C   UNL A   1      32.422  20.431  23.543  1.00  0.00     0.085 A 
BRANCH  32  34
ATOM     34  N   UNL A   1      32.240  22.805  22.872  1.00  0.00     0.062 N 
ATOM     35  O   UNL A   1      31.075  22.584  22.511  1.00  0.00    -0.258 OA
ATOM     36  O   UNL A   1      32.782  23.920  22.832  1.00  0.00    -0.258 OA
ENDBRANCH  32  34
ENDBRANCH  18  28
ENDBRANCH   9  11
ENDBRANCH   8   9
ENDBRANCH   7   8
ENDBRANCH   6   7
ENDBRANCH   5   6
ENDBRANCH   4   5
ENDBRANCH   3   4
ENDBRANCH   2   3
ENDBRANCH   1   2
BRANCH   1  37
ATOM     37  C   UNL A   1      38.074  32.345  30.394  1.00  0.00     0.188 C 
BRANCH  37  38
ATOM     38  O   UNL A   1      39.390  32.478  30.906  1.00  0.00    -0.376 OA
BRANCH  38  39
ATOM     39  C   UNL A   1      40.383  32.717  29.930  1.00  0.00     0.202 C 
BRANCH  39  40
ATOM     40  C   UNL A   1      41.736  33.099  30.542  1.00  0.00     0.261 C 
BRANCH  40  41
ATOM     41  O   UNL A   1      42.408  34.155  29.814  1.00  0.00    -0.460 OA
BRANCH  41  42
ATOM     42  C   UNL A   1      43.535  34.697  30.378  1.00  0.00     0.338 C 
ATOM     43  O   UNL A   1      43.485  35.567  31.255  1.00  0.00    -0.246 OA
BRANCH  42  44
ATOM     44  C   UNL A   1      44.745  33.946  29.975  1.00  0.00     0.060 A 
ATOM     45  C   UNL A   1      45.139  33.505  28.713  1.00  0.00     0.016 A 
ATOM     46  C   UNL A   1      45.595  33.632  30.975  1.00  0.00     0.016 A 
ATOM     47  C   UNL A   1      46.113  32.436  28.520  1.00  0.00     0.010 A 
ATOM     48  C   UNL A   1      46.507  32.616  30.742  1.00  0.00     0.010 A 
ATOM     49  C   UNL A   1      46.682  31.722  29.583  1.00  0.00    -0.014 A 
BRANCH  49  50
ATOM     50  C   UNL A   1      47.450  30.008  29.532  1.00  0.00     0.031 A 
ATOM     51  C   UNL A   1      48.730  29.404  28.091  1.00  0.00     0.074 A 
ATOM     52  C   UNL A   1      46.794  29.241  30.554  1.00  0.00     0.049 A 
ATOM     53  N   UNL A   1      48.543  28.350  27.238  1.00  0.00    -0.248 NA
ATOM     54  C   UNL A   1      49.717  30.173  27.005  1.00  0.00     0.031 C 
ATOM     55  C   UNL A   1      46.966  27.891  31.112  1.00  0.00     0.029 A 
ATOM     56  N   UNL A   1      45.572  29.503  31.225  1.00  0.00    -0.354 N 
ATOM     57  C   UNL A   1      49.322  28.161  26.135  1.00  0.00     0.074 A 
ATOM     58  C   UNL A   1      49.907  29.422  25.923  1.00  0.00     0.031 C 
ATOM     59  C   UNL A   1      46.048  27.443  31.961  1.00  0.00     0.029 A 
ATOM     60  C   UNL A   1      44.986  28.323  31.740  1.00  0.00     0.049 A 
ATOM     61  H   UNL A   1      45.178  30.400  31.321  1.00  0.00     0.167 HD
ATOM     62  C   UNL A   1      49.462  26.942  25.530  1.00  0.00     0.031 A 
ATOM     63  C   UNL A   1      43.841  27.776  31.264  1.00  0.00     0.031 A 
ATOM     64  C   UNL A   1      48.822  25.848  26.290  1.00  0.00     0.049 A 
ATOM     65  C   UNL A   1      44.018  26.544  30.326  1.00  0.00     0.074 A 
ATOM     66  C   UNL A   1      49.339  24.967  27.228  1.00  0.00     0.029 A 
ATOM     67  N   UNL A   1      47.433  25.735  26.414  1.00  0.00    -0.354 N 
ATOM     68  N   UNL A   1      45.018  26.342  29.474  1.00  0.00    -0.248 NA
ATOM     69  C   UNL A   1      43.167  25.357  30.411  1.00  0.00     0.031 C 
ATOM     70  C   UNL A   1      48.273  24.525  28.068  1.00  0.00     0.029 A 
ATOM     71  C   UNL A   1      47.070  25.020  27.570  1.00  0.00     0.049 A 
ATOM     72  H   UNL A   1      46.788  26.110  25.773  1.00  0.00     0.167 HD
ATOM     73  C   UNL A   1      44.901  25.107  28.845  1.00  0.00     0.074 A 
ATOM     74  C   UNL A   1      43.750  24.522  29.531  1.00  0.00     0.031 C 
ATOM     75  C   UNL A   1      45.686  24.571  27.832  1.00  0.00     0.031 A 
BRANCH  62  76
ATOM     76  C   UNL A   1      50.589  26.797  24.509  1.00  0.00    -0.014 A 
ATOM     77  C   UNL A   1      51.762  26.091  24.828  1.00  0.00     0.010 A 
ATOM     78  C   UNL A   1      50.593  27.485  23.273  1.00  0.00     0.010 A 
ATOM     79  C   UNL A   1      52.930  26.211  24.051  1.00  0.00     0.020 A 
ATOM     80  C   UNL A   1      51.767  27.663  22.519  1.00  0.00     0.020 A 
ATOM     81  C   UNL A   1      52.941  27.045  22.933  1.00  0.00     0.054 A 
BRANCH  81  82
ATOM     82  S   UNL A   1      54.517  27.384  22.094  1.00  0.00     0.124 S 
ATOM     83  O   UNL A   1      55.500  26.985  23.099  1.00  0.00    -0.237 OA
ATOM     84  O   UNL A   1      54.439  26.531  20.913  1.00  0.00    -0.237 OA
ATOM     85  O   UNL A   1      54.469  28.821  21.829  1.00  0.00    -0.744 OA
ENDBRANCH  81  82
ENDBRANCH  62  76
BRANCH  63  86
ATOM     86  C   UNL A   1      42.745  28.691  31.704  1.00  0.00    -0.014 A 
ATOM     87  C   UNL A   1      41.804  29.011  30.672  1.00  0.00     0.010 A 
ATOM     88  C   UNL A   1      42.254  28.560  33.014  1.00  0.00     0.010 A 
ATOM     89  C   UNL A   1      40.425  28.894  30.891  1.00  0.00     0.020 A 
ATOM     90  C   UNL A   1      40.863  28.507  33.245  1.00  0.00     0.020 A 
ATOM     91  C   UNL A   1      39.968  28.585  32.167  1.00  0.00     0.054 A 
BRANCH  91  92
ATOM     92  S   UNL A   1      38.223  28.087  32.340  1.00  0.00     0.124 S 
ATOM     93  O   UNL A   1      37.736  28.119  30.966  1.00  0.00    -0.237 OA
ATOM     94  O   UNL A   1      38.356  26.751  32.923  1.00  0.00    -0.237 OA
ATOM     95  O   UNL A   1      37.675  29.112  33.222  1.00  0.00    -0.744 OA
ENDBRANCH  91  92
ENDBRANCH  63  86
BRANCH  75  96
ATOM     96  C   UNL A   1      45.262  23.394  26.936  1.00  0.00    -0.014 A 
ATOM     97  C   UNL A   1      46.149  22.605  26.194  1.00  0.00     0.010 A 
ATOM     98  C   UNL A   1      43.917  22.923  26.999  1.00  0.00     0.010 A 
ATOM     99  C   UNL A   1      45.723  21.433  25.546  1.00  0.00     0.020 A 
ATOM    100  C   UNL A   1      43.495  21.730  26.413  1.00  0.00     0.020 A 
ATOM    101  C   UNL A   1      44.404  20.994  25.675  1.00  0.00     0.054 A 
BRANCH 101 102
ATOM    102  S   UNL A   1      43.911  19.403  24.971  1.00  0.00     0.124 S 
ATOM    103  O   UNL A   1      42.468  19.413  25.193  1.00  0.00    -0.237 OA
ATOM    104  O   UNL A   1      44.332  19.521  23.577  1.00  0.00    -0.237 OA
ATOM    105  O   UNL A   1      44.664  18.431  25.760  1.00  0.00    -0.744 OA
ENDBRANCH 101 102
ENDBRANCH  75  96
ENDBRANCH  49  50
ENDBRANCH  42  44
ENDBRANCH  41  42
ENDBRANCH  40  41
ENDBRANCH  39  40
ENDBRANCH  38  39
ENDBRANCH  37  38
ENDBRANCH   1  37
TORSDOF 26
ENDMDL
MODEL 2
REMARK VINA RESULT:      -9.9      3.040      7.236
REMARK SMILES Cc1ccc(-c2cc(C(=O)OCCOCCOCCOCCOC(=O)c3ccc(-c4c5nc(c(-c6ccc(S(=O)(=O)[O-])cc6)c6ccc([nH]6)c(-c6ccc(S(=O)(=O)[O-])cc6)c6nc(c(-c7ccc(S(=O)(=O)[O-])cc7)c7ccc4[nH]7)C=C6)C=C5)cc3)c3c(-c4cccc([N+](=O)[O-])c4)[nH]nc3n2)cc1
REMARK SMILES IDX 18 1 17 2 16 3 15 4 14 5 13 6 12 7 11 8 9 9 10 10 8 11 6 12
REMARK SMILES IDX 7 13 100 14 99 15 86 16 98 17 87 18 97 19 5 21 1 22 2 23
REMARK SMILES IDX 3 24 102 25 4 26 101 27 88 28 89 29 96 30 90 31 92 32 91 33
REMARK SMILES IDX 93 34 94 35 95 36 19 37 20 38 21 39 22 40 23 41 24 42 25 43
REMARK SMILES IDX 26 44 27 45 85 46 28 47 84 48 29 49 30 50 31 51 78 52 32 53
REMARK SMILES IDX 83 54 77 55 79 56 33 57 82 58 76 59 75 60 34 62 64 63 45 64
REMARK SMILES IDX 63 65 46 66 49 67 62 68 80 69 47 70 48 71 61 73 81 74 50 75
REMARK SMILES IDX 35 76 36 77 44 78 37 79 43 80 38 81 39 82 40 83 41 84 42 85
REMARK SMILES IDX 65 86 66 87 74 88 67 89 73 90 68 91 69 92 70 93 71 94 72 95
REMARK SMILES IDX 51 96 52 97 60 98 53 99 59 100 54 101 55 102 56 103 57 104
REMARK SMILES IDX 58 105
REMARK H PARENT 97 20 79 61 49 72
REMARK Flexibility Score: inf
ROOT
ATOM      1  C   UNL A   1      38.065  29.273  29.583  1.00  0.00     0.188 C 
ENDROOT
BRANCH   1   2
ATOM      2  O   UNL A   1      39.289  28.653  29.220  1.00  0.00    -0.377 OA
BRANCH   2   3
ATOM      3  C   UNL A   1      39.875  28.655  27.923  1.00  0.00     0.188 C 
BRANCH   3   4
ATOM      4  C   UNL A   1      40.301  27.458  26.808  1.00  0.00     0.188 C 
BRANCH   4   5
ATOM      5  O   UNL A   1      39.916  25.720  26.404  1.00  0.00    -0.376 OA
BRANCH   5   6
ATOM      6  C   UNL A   1      38.588  24.606  26.736  1.00  0.00     0.202 C 
BRANCH   6   7
ATOM      7  C   UNL A   1      37.589  23.594  25.504  1.00  0.00     0.261 C 
BRANCH   7   8
ATOM      8  O   UNL A   1      36.037  24.143  24.717  1.00  0.00    -0.460 OA
BRANCH   8   9
ATOM      9  C   UNL A   1      34.803  23.795  23.964  1.00  0.00     0.339 C 
ATOM     10  O   UNL A   1      34.525  24.228  22.846  1.00  0.00    -0.246 OA
BRANCH   9  11
ATOM     11  C   UNL A   1      33.647  22.804  24.363  1.00  0.00     0.075 A 
ATOM     12  C   UNL A   1      32.620  20.524  24.979  1.00  0.00     0.074 A 
ATOM     13  C   UNL A   1      33.624  21.386  24.454  1.00  0.00     0.045 A 
ATOM     14  N   UNL A   1      31.488  20.956  25.550  1.00  0.00    -0.226 NA
ATOM     15  C   UNL A   1      31.374  22.305  25.488  1.00  0.00     0.182 A 
ATOM     16  C   UNL A   1      32.368  23.199  24.880  1.00  0.00     0.061 A 
ATOM     17  N   UNL A   1      30.314  22.959  25.957  1.00  0.00    -0.154 NA
ATOM     18  C   UNL A   1      31.691  24.419  24.857  1.00  0.00     0.076 A 
ATOM     19  N   UNL A   1      30.557  24.221  25.609  1.00  0.00    -0.275 N 
ATOM     20  H   UNL A   1      29.966  24.962  25.872  1.00  0.00     0.190 HD
BRANCH  12  21
ATOM     21  C   UNL A   1      32.845  19.057  24.908  1.00  0.00     0.000 A 
ATOM     22  C   UNL A   1      33.811  14.815  24.909  1.00  0.00     0.044 C 
ATOM     23  C   UNL A   1      33.488  16.281  24.917  1.00  0.00    -0.051 A 
ATOM     24  C   UNL A   1      33.751  17.076  23.795  1.00  0.00     0.004 A 
ATOM     25  C   UNL A   1      32.893  16.873  26.031  1.00  0.00     0.004 A 
ATOM     26  C   UNL A   1      33.434  18.446  23.791  1.00  0.00     0.010 A 
ATOM     27  C   UNL A   1      32.579  18.238  26.024  1.00  0.00     0.010 A 
ENDBRANCH  12  21
BRANCH  18  28
ATOM     28  C   UNL A   1      31.832  25.718  24.207  1.00  0.00     0.007 A 
ATOM     29  C   UNL A   1      31.647  25.849  22.828  1.00  0.00     0.011 A 
ATOM     30  C   UNL A   1      32.264  26.827  24.945  1.00  0.00     0.096 A 
ATOM     31  C   UNL A   1      31.827  27.084  22.197  1.00  0.00     0.008 A 
ATOM     32  C   UNL A   1      32.418  28.070  24.309  1.00  0.00     0.270 A 
ATOM     33  C   UNL A   1      32.198  28.206  22.936  1.00  0.00     0.085 A 
BRANCH  32  34
ATOM     34  N   UNL A   1      32.688  29.262  25.119  1.00  0.00     0.062 N 
ATOM     35  O   UNL A   1      33.806  29.371  25.644  1.00  0.00    -0.258 OA
ATOM     36  O   UNL A   1      31.798  30.124  25.188  1.00  0.00    -0.258 OA
ENDBRANCH  32  34
ENDBRANCH  18  28
ENDBRANCH   9  11
ENDBRANCH   8   9
ENDBRANCH   7   8
ENDBRANCH   6   7
ENDBRANCH   5   6
ENDBRANCH   4   5
ENDBRANCH   3   4
ENDBRANCH   2   3
ENDBRANCH   1   2
BRANCH   1  37
ATOM     37  C   UNL A   1      37.404  28.912  30.893  1.00  0.00     0.188 C 
BRANCH  37  38
ATOM     38  O   UNL A   1      36.459  29.915  31.231  1.00  0.00    -0.376 OA
BRANCH  38  39
ATOM     39  C   UNL A   1      36.917  31.240  31.063  1.00  0.00     0.202 C 
BRANCH  39  40
ATOM     40  C   UNL A   1      37.523  31.826  32.343  1.00  0.00     0.261 C 
BRANCH  40  41
ATOM     41  O   UNL A   1      38.860  31.340  32.611  1.00  0.00    -0.460 OA
BRANCH  41  42
ATOM     42  C   UNL A   1      39.896  31.922  31.925  1.00  0.00     0.338 C 
ATOM     43  O   UNL A   1      40.005  33.147  31.802  1.00  0.00    -0.246 OA
BRANCH  42  44
ATOM     44  C   UNL A   1      40.935  30.924  31.584  1.00  0.00     0.060 A 
ATOM     45  C   UNL A   1      41.579  29.997  32.401  1.00  0.00     0.016 A 
ATOM     46  C   UNL A   1      41.328  30.911  30.294  1.00  0.00     0.016 A 
ATOM     47  C   UNL A   1      42.853  29.382  32.044  1.00  0.00     0.010 A 
ATOM     48  C   UNL A   1      42.541  30.308  30.001  1.00  0.00     0.010 A 
ATOM     49  C   UNL A   1      43.564  29.720  30.885  1.00  0.00    -0.014 A 
BRANCH  49  50
ATOM     50  C   UNL A   1      45.403  29.503  30.563  1.00  0.00     0.031 A 
ATOM     51  C   UNL A   1      46.601  30.993  29.912  1.00  0.00     0.074 A 
ATOM     52  C   UNL A   1      45.670  28.097  30.677  1.00  0.00     0.049 A 
ATOM     53  N   UNL A   1      47.326  30.995  28.751  1.00  0.00    -0.248 NA
ATOM     54  C   UNL A   1      46.523  32.649  29.924  1.00  0.00     0.031 C 
ATOM     55  C   UNL A   1      46.882  27.263  30.645  1.00  0.00     0.029 A 
ATOM     56  N   UNL A   1      44.763  27.007  30.644  1.00  0.00    -0.354 N 
ATOM     57  C   UNL A   1      47.905  32.127  28.257  1.00  0.00     0.074 A 
ATOM     58  C   UNL A   1      47.216  33.163  28.911  1.00  0.00     0.031 C 
ATOM     59  C   UNL A   1      46.733  25.944  30.619  1.00  0.00     0.029 A 
ATOM     60  C   UNL A   1      45.393  25.804  30.249  1.00  0.00     0.049 A 
ATOM     61  H   UNL A   1      43.808  27.079  30.868  1.00  0.00     0.167 HD
ATOM     62  C   UNL A   1      48.960  32.098  27.387  1.00  0.00     0.031 A 
ATOM     63  C   UNL A   1      45.158  25.178  29.070  1.00  0.00     0.031 A 
ATOM     64  C   UNL A   1      49.496  30.736  27.182  1.00  0.00     0.049 A 
ATOM     65  C   UNL A   1      46.238  25.385  27.965  1.00  0.00     0.074 A 
ATOM     66  C   UNL A   1      50.538  30.064  27.805  1.00  0.00     0.029 A 
ATOM     67  N   UNL A   1      48.782  29.744  26.500  1.00  0.00    -0.354 N 
ATOM     68  N   UNL A   1      46.961  26.482  27.771  1.00  0.00    -0.248 NA
ATOM     69  C   UNL A   1      46.708  24.299  27.105  1.00  0.00     0.031 C 
ATOM     70  C   UNL A   1      50.297  28.660  27.697  1.00  0.00     0.029 A 
ATOM     71  C   UNL A   1      49.181  28.453  26.890  1.00  0.00     0.049 A 
ATOM     72  H   UNL A   1      48.084  29.927  25.831  1.00  0.00     0.167 HD
ATOM     73  C   UNL A   1      47.881  26.303  26.742  1.00  0.00     0.074 A 
ATOM     74  C   UNL A   1      47.703  24.888  26.416  1.00  0.00     0.031 C 
ATOM     75  C   UNL A   1      48.747  27.233  26.179  1.00  0.00     0.031 A 
BRANCH  62  76
ATOM     76  C   UNL A   1      49.707  33.409  27.156  1.00  0.00    -0.014 A 
ATOM     77  C   UNL A   1      49.600  34.093  25.932  1.00  0.00     0.010 A 
ATOM     78  C   UNL A   1      50.659  33.918  28.071  1.00  0.00     0.010 A 
ATOM     79  C   UNL A   1      50.508  35.106  25.570  1.00  0.00     0.020 A 
ATOM     80  C   UNL A   1      51.610  34.886  27.701  1.00  0.00     0.020 A 
ATOM     81  C   UNL A   1      51.545  35.455  26.436  1.00  0.00     0.054 A 
BRANCH  81  82
ATOM     82  S   UNL A   1      52.849  36.578  25.851  1.00  0.00     0.124 S 
ATOM     83  O   UNL A   1      52.670  36.538  24.401  1.00  0.00    -0.237 OA
ATOM     84  O   UNL A   1      52.496  37.838  26.497  1.00  0.00    -0.237 OA
ATOM     85  O   UNL A   1      54.083  35.956  26.328  1.00  0.00    -0.744 OA
ENDBRANCH  81  82
ENDBRANCH  62  76
BRANCH  63  86
ATOM     86  C   UNL A   1      43.789  24.594  29.192  1.00  0.00    -0.014 A 
ATOM     87  C   UNL A   1      42.935  24.876  28.076  1.00  0.00     0.010 A 
ATOM     88  C   UNL A   1      43.650  23.344  29.817  1.00  0.00     0.010 A 
ATOM     89  C   UNL A   1      42.217  23.854  27.439  1.00  0.00     0.020 A 
ATOM     90  C   UNL A   1      42.875  22.333  29.210  1.00  0.00     0.020 A 
ATOM     91  C   UNL A   1      42.242  22.574  27.982  1.00  0.00     0.054 A 
BRANCH  91  92
ATOM     92  S   UNL A   1      41.611  21.210  26.950  1.00  0.00     0.124 S 
ATOM     93  O   UNL A   1      40.935  20.353  27.917  1.00  0.00    -0.237 OA
ATOM     94  O   UNL A   1      40.729  21.926  26.026  1.00  0.00    -0.237 OA
ATOM     95  O   UNL A   1      42.826  20.654  26.362  1.00  0.00    -0.744 OA
ENDBRANCH  91  92
ENDBRANCH  63  86
BRANCH  75  96
ATOM     96  C   UNL A   1      49.432  27.063  24.811  1.00  0.00    -0.014 A 
ATOM     97  C   UNL A   1      48.775  27.175  23.579  1.00  0.00     0.010 A 
ATOM     98  C   UNL A   1      50.854  26.988  24.752  1.00  0.00     0.010 A 
ATOM     99  C   UNL A   1      49.487  27.195  22.369  1.00  0.00     0.020 A 
ATOM    100  C   UNL A   1      51.576  27.070  23.561  1.00  0.00     0.020 A 
ATOM    101  C   UNL A   1      50.883  27.162  22.368  1.00  0.00     0.054 A 
BRANCH 101 102
ATOM    102  S   UNL A   1      51.789  27.351  20.815  1.00  0.00     0.124 S 
ATOM    103  O   UNL A   1      52.782  28.362  21.171  1.00  0.00    -0.237 OA
ATOM    104  O   UNL A   1      52.316  26.009  20.581  1.00  0.00    -0.237 OA
ATOM    105  O   UNL A   1      50.763  27.783  19.869  1.00  0.00    -0.744 OA
ENDBRANCH 101 102
ENDBRANCH  75  96
ENDBRANCH  49  50
ENDBRANCH  42  44
ENDBRANCH  41  42
ENDBRANCH  40  41
ENDBRANCH  39  40
ENDBRANCH  38  39
ENDBRANCH  37  38
ENDBRANCH   1  37
TORSDOF 26
ENDMDL
MODEL 3
REMARK VINA RESULT:      -9.5      4.061      9.879
REMARK SMILES Cc1ccc(-c2cc(C(=O)OCCOCCOCCOCCOC(=O)c3ccc(-c4c5nc(c(-c6ccc(S(=O)(=O)[O-])cc6)c6ccc([nH]6)c(-c6ccc(S(=O)(=O)[O-])cc6)c6nc(c(-c7ccc(S(=O)(=O)[O-])cc7)c7ccc4[nH]7)C=C6)C=C5)cc3)c3c(-c4cccc([N+](=O)[O-])c4)[nH]nc3n2)cc1
REMARK SMILES IDX 18 1 17 2 16 3 15 4 14 5 13 6 12 7 11 8 9 9 10 10 8 11 6 12
REMARK SMILES IDX 7 13 100 14 99 15 86 16 98 17 87 18 97 19 5 21 1 22 2 23
REMARK SMILES IDX 3 24 102 25 4 26 101 27 88 28 89 29 96 30 90 31 92 32 91 33
REMARK SMILES IDX 93 34 94 35 95 36 19 37 20 38 21 39 22 40 23 41 24 42 25 43
REMARK SMILES IDX 26 44 27 45 85 46 28 47 84 48 29 49 30 50 31 51 78 52 32 53
REMARK SMILES IDX 83 54 77 55 79 56 33 57 82 58 76 59 75 60 34 62 64 63 45 64
REMARK SMILES IDX 63 65 46 66 49 67 62 68 80 69 47 70 48 71 61 73 81 74 50 75
REMARK SMILES IDX 35 76 36 77 44 78 37 79 43 80 38 81 39 82 40 83 41 84 42 85
REMARK SMILES IDX 65 86 66 87 74 88 67 89 73 90 68 91 69 92 70 93 71 94 72 95
REMARK SMILES IDX 51 96 52 97 60 98 53 99 59 100 54 101 55 102 56 103 57 104
REMARK SMILES IDX 58 105
REMARK H PARENT 97 20 79 61 49 72
REMARK Flexibility Score: inf
ROOT
ATOM      1  C   UNL A   1      33.117  27.715  26.440  1.00  0.00     0.188 C 
ENDROOT
BRANCH   1   2
ATOM      2  O   UNL A   1      32.499  26.472  26.141  1.00  0.00    -0.377 OA
BRANCH   2   3
ATOM      3  C   UNL A   1      33.165  25.286  25.723  1.00  0.00     0.188 C 
BRANCH   3   4
ATOM      4  C   UNL A   1      34.782  24.846  25.499  1.00  0.00     0.188 C 
BRANCH   4   5
ATOM      5  O   UNL A   1      36.196  24.181  26.443  1.00  0.00    -0.376 OA
BRANCH   5   6
ATOM      6  C   UNL A   1      37.955  24.273  26.322  1.00  0.00     0.202 C 
BRANCH   6   7
ATOM      7  C   UNL A   1      39.201  24.495  27.714  1.00  0.00     0.261 C 
BRANCH   7   8
ATOM      8  O   UNL A   1      40.774  25.408  27.571  1.00  0.00    -0.460 OA
BRANCH   8   9
ATOM      9  C   UNL A   1      41.672  26.272  26.759  1.00  0.00     0.339 C 
ATOM     10  O   UNL A   1      41.528  26.489  25.556  1.00  0.00    -0.246 OA
BRANCH   9  11
ATOM     11  C   UNL A   1      42.918  27.115  27.222  1.00  0.00     0.075 A 
ATOM     12  C   UNL A   1      45.399  27.802  27.267  1.00  0.00     0.074 A 
ATOM     13  C   UNL A   1      44.308  26.934  26.981  1.00  0.00     0.045 A 
ATOM     14  N   UNL A   1      45.265  29.024  27.799  1.00  0.00    -0.226 NA
ATOM     15  C   UNL A   1      43.975  29.298  28.113  1.00  0.00     0.182 A 
ATOM     16  C   UNL A   1      42.850  28.380  27.893  1.00  0.00     0.061 A 
ATOM     17  N   UNL A   1      43.603  30.439  28.688  1.00  0.00    -0.154 NA
ATOM     18  C   UNL A   1      41.816  29.013  28.584  1.00  0.00     0.076 A 
ATOM     19  N   UNL A   1      42.303  30.257  28.911  1.00  0.00    -0.275 N 
ATOM     20  H   UNL A   1      41.729  30.964  29.284  1.00  0.00     0.190 HD
BRANCH  12  21
ATOM     21  C   UNL A   1      46.773  27.336  26.940  1.00  0.00     0.000 A 
ATOM     22  C   UNL A   1      50.640  25.775  25.702  1.00  0.00     0.044 C 
ATOM     23  C   UNL A   1      49.300  26.308  26.118  1.00  0.00    -0.051 A 
ATOM     24  C   UNL A   1      48.636  25.779  27.232  1.00  0.00     0.004 A 
ATOM     25  C   UNL A   1      48.703  27.358  25.422  1.00  0.00     0.004 A 
ATOM     26  C   UNL A   1      47.389  26.286  27.637  1.00  0.00     0.010 A 
ATOM     27  C   UNL A   1      47.461  27.861  25.827  1.00  0.00     0.010 A 
ENDBRANCH  12  21
BRANCH  18  28
ATOM     28  C   UNL A   1      40.487  28.674  29.084  1.00  0.00     0.007 A 
ATOM     29  C   UNL A   1      39.405  28.555  28.208  1.00  0.00     0.011 A 
ATOM     30  C   UNL A   1      40.262  28.575  30.463  1.00  0.00     0.096 A 
ATOM     31  C   UNL A   1      38.123  28.276  28.690  1.00  0.00     0.008 A 
ATOM     32  C   UNL A   1      38.976  28.269  30.938  1.00  0.00     0.270 A 
ATOM     33  C   UNL A   1      37.903  28.115  30.057  1.00  0.00     0.085 A 
BRANCH  32  34
ATOM     34  N   UNL A   1      38.787  27.983  32.364  1.00  0.00     0.062 N 
ATOM     35  O   UNL A   1      39.777  27.639  33.026  1.00  0.00    -0.258 OA
ATOM     36  O   UNL A   1      37.655  28.155  32.840  1.00  0.00    -0.258 OA
ENDBRANCH  32  34
ENDBRANCH  18  28
ENDBRANCH   9  11
ENDBRANCH   8   9
ENDBRANCH   7   8
ENDBRANCH   6   7
ENDBRANCH   5   6
ENDBRANCH   4   5
ENDBRANCH   3   4
ENDBRANCH   2   3
ENDBRANCH   1   2
BRANCH   1  37
ATOM     37  C   UNL A   1      32.266  28.952  26.610  1.00  0.00     0.188 C 
BRANCH  37  38
ATOM     38  O   UNL A   1      32.844  29.782  27.604  1.00  0.00    -0.376 OA
BRANCH  38  39
ATOM     39  C   UNL A   1      34.067  30.384  27.236  1.00  0.00     0.202 C 
BRANCH  39  40
ATOM     40  C   UNL A   1      34.329  31.700  27.978  1.00  0.00     0.261 C 
BRANCH  40  41
ATOM     41  O   UNL A   1      35.680  31.804  28.485  1.00  0.00    -0.460 OA
BRANCH  41  42
ATOM     42  C   UNL A   1      35.840  31.960  29.839  1.00  0.00     0.338 C 
ATOM     43  O   UNL A   1      34.882  32.009  30.618  1.00  0.00    -0.246 OA
BRANCH  42  44
ATOM     44  C   UNL A   1      37.262  31.821  30.226  1.00  0.00     0.060 A 
ATOM     45  C   UNL A   1      37.835  31.738  31.494  1.00  0.00     0.016 A 
ATOM     46  C   UNL A   1      38.142  31.776  29.204  1.00  0.00     0.016 A 
ATOM     47  C   UNL A   1      39.243  32.026  31.743  1.00  0.00     0.010 A 
ATOM     48  C   UNL A   1      39.469  32.049  29.490  1.00  0.00     0.010 A 
ATOM     49  C   UNL A   1      40.118  32.473  30.745  1.00  0.00    -0.014 A 
BRANCH  49  50
ATOM     50  C   UNL A   1      41.723  33.425  30.967  1.00  0.00     0.031 A 
ATOM     51  C   UNL A   1      42.237  35.020  29.839  1.00  0.00     0.074 A 
ATOM     52  C   UNL A   1      42.511  32.675  31.905  1.00  0.00     0.049 A 
ATOM     53  N   UNL A   1      43.349  35.121  29.048  1.00  0.00    -0.248 NA
ATOM     54  C   UNL A   1      41.408  36.104  28.899  1.00  0.00     0.031 C 
ATOM     55  C   UNL A   1      43.797  32.887  32.585  1.00  0.00     0.029 A 
ATOM     56  N   UNL A   1      42.369  31.325  32.316  1.00  0.00    -0.354 N 
ATOM     57  C   UNL A   1      43.497  36.115  28.126  1.00  0.00     0.074 A 
ATOM     58  C   UNL A   1      42.185  36.584  27.932  1.00  0.00     0.031 C 
ATOM     59  C   UNL A   1      44.311  31.879  33.280  1.00  0.00     0.029 A 
ATOM     60  C   UNL A   1      43.584  30.788  32.800  1.00  0.00     0.049 A 
ATOM     61  H   UNL A   1      41.525  30.821  32.269  1.00  0.00     0.167 HD
ATOM     62  C   UNL A   1      44.718  36.506  27.651  1.00  0.00     0.031 A 
ATOM     63  C   UNL A   1      44.295  29.826  32.163  1.00  0.00     0.031 A 
ATOM     64  C   UNL A   1      45.842  35.860  28.359  1.00  0.00     0.049 A 
ATOM     65  C   UNL A   1      45.543  30.319  31.370  1.00  0.00     0.074 A 
ATOM     66  C   UNL A   1      46.601  36.282  29.441  1.00  0.00     0.029 A 
ATOM     67  N   UNL A   1      46.122  34.494  28.232  1.00  0.00    -0.354 N 
ATOM     68  N   UNL A   1      45.662  31.480  30.736  1.00  0.00    -0.248 NA
ATOM     69  C   UNL A   1      46.821  29.607  31.385  1.00  0.00     0.031 C 
ATOM     70  C   UNL A   1      47.128  35.130  30.099  1.00  0.00     0.029 A 
ATOM     71  C   UNL A   1      46.815  33.998  29.351  1.00  0.00     0.049 A 
ATOM     72  H   UNL A   1      45.865  33.948  27.455  1.00  0.00     0.167 HD
ATOM     73  C   UNL A   1      46.934  31.628  30.192  1.00  0.00     0.074 A 
ATOM     74  C   UNL A   1      47.622  30.440  30.694  1.00  0.00     0.031 C 
ATOM     75  C   UNL A   1      47.419  32.650  29.384  1.00  0.00     0.031 A 
BRANCH  62  76
ATOM     76  C   UNL A   1      44.774  37.818  26.871  1.00  0.00    -0.014 A 
ATOM     77  C   UNL A   1      45.965  38.238  26.253  1.00  0.00     0.010 A 
ATOM     78  C   UNL A   1      43.707  38.748  26.862  1.00  0.00     0.010 A 
ATOM     79  C   UNL A   1      46.142  39.564  25.814  1.00  0.00     0.020 A 
ATOM     80  C   UNL A   1      43.888  40.091  26.485  1.00  0.00     0.020 A 
ATOM     81  C   UNL A   1      45.120  40.498  25.988  1.00  0.00     0.054 A 
BRANCH  81  82
ATOM     82  S   UNL A   1      45.455  42.253  25.651  1.00  0.00     0.124 S 
ATOM     83  O   UNL A   1      44.574  42.928  26.603  1.00  0.00    -0.237 OA
ATOM     84  O   UNL A   1      46.883  42.362  25.925  1.00  0.00    -0.237 OA
ATOM     85  O   UNL A   1      45.074  42.417  24.249  1.00  0.00    -0.744 OA
ENDBRANCH  81  82
ENDBRANCH  62  76
BRANCH  63  86
ATOM     86  C   UNL A   1      43.503  28.569  32.322  1.00  0.00    -0.014 A 
ATOM     87  C   UNL A   1      43.829  27.551  31.368  1.00  0.00     0.010 A 
ATOM     88  C   UNL A   1      43.160  28.158  33.620  1.00  0.00     0.010 A 
ATOM     89  C   UNL A   1      44.099  26.238  31.778  1.00  0.00     0.020 A 
ATOM     90  C   UNL A   1      43.370  26.820  34.016  1.00  0.00     0.020 A 
ATOM     91  C   UNL A   1      43.922  25.898  33.115  1.00  0.00     0.054 A 
BRANCH  91  92
ATOM     92  S   UNL A   1      44.618  24.311  33.680  1.00  0.00     0.124 S 
ATOM     93  O   UNL A   1      44.524  23.471  32.492  1.00  0.00    -0.237 OA
ATOM     94  O   UNL A   1      45.976  24.705  34.059  1.00  0.00    -0.237 OA
ATOM     95  O   UNL A   1      43.736  23.940  34.781  1.00  0.00    -0.744 OA
ENDBRANCH  91  92
ENDBRANCH  63  86
BRANCH  75  96
ATOM     96  C   UNL A   1      48.686  32.542  28.517  1.00  0.00    -0.014 A 
ATOM     97  C   UNL A   1      48.911  31.536  27.569  1.00  0.00     0.010 A 
ATOM     98  C   UNL A   1      49.613  33.625  28.505  1.00  0.00     0.010 A 
ATOM     99  C   UNL A   1      49.997  31.597  26.680  1.00  0.00     0.020 A 
ATOM    100  C   UNL A   1      50.658  33.728  27.587  1.00  0.00     0.020 A 
ATOM    101  C   UNL A   1      50.852  32.701  26.682  1.00  0.00     0.054 A 
BRANCH 101 102
ATOM    102  S   UNL A   1      52.146  32.841  25.427  1.00  0.00     0.124 S 
ATOM    103  O   UNL A   1      52.268  34.289  25.286  1.00  0.00    -0.237 OA
ATOM    104  O   UNL A   1      53.283  32.174  26.057  1.00  0.00    -0.237 OA
ATOM    105  O   UNL A   1      51.584  32.141  24.274  1.00  0.00    -0.744 OA
ENDBRANCH 101 102
ENDBRANCH  75  96
ENDBRANCH  49  50
ENDBRANCH  42  44
ENDBRANCH  41  42
ENDBRANCH  40  41
ENDBRANCH  39  40
ENDBRANCH  38  39
ENDBRANCH  37  38
ENDBRANCH   1  37
TORSDOF 26
ENDMDL
