MODEL 1
REMARK VINA RESULT:      -8.1      0.000      0.000
REMARK SMILES CCc1cccc(NC(=O)NCC(=O)OCCOCCOCCOCCOC(=O)c2ccc(-c3c4nc(c(-c5ccc(S(=O)(=O)[O-])cc5)c5ccc([nH]5)c(-c5ccc(S(=O)(=O)[O-])cc5)c5nc(c(-c6ccc(S(=O)(=O)[O-])cc6)c6ccc3[nH]6)C=C5)C=C4)cc2)c1
REMARK SMILES IDX 21 1 20 2 19 3 18 4 17 5 16 6 15 7 13 8 14 9 12 10 11 11
REMARK SMILES IDX 8 12 9 13 10 15 7 17 3 18 4 19 90 20 5 21 6 22 2 23 1 24
REMARK SMILES IDX 22 25 23 26 24 27 25 28 26 29 27 30 28 31 29 32 30 33 31 34
REMARK SMILES IDX 89 35 32 36 88 37 33 38 34 39 35 40 82 41 36 42 87 43 81 44
REMARK SMILES IDX 83 45 37 46 86 47 80 48 79 49 38 51 68 52 49 53 67 54 50 55
REMARK SMILES IDX 53 56 66 57 84 58 51 59 52 60 65 62 85 63 54 64 39 65 40 66
REMARK SMILES IDX 48 67 41 68 47 69 42 70 43 71 44 72 45 73 46 74 69 75 70 76
REMARK SMILES IDX 78 77 71 78 77 79 72 80 73 81 74 82 75 83 76 84 55 85 56 86
REMARK SMILES IDX 64 87 57 88 63 89 58 90 59 91 60 92 61 93 62 94
REMARK H PARENT 8 14 11 16 83 50 53 61
REMARK Flexibility Score: inf
ROOT
ATOM      1  O   UNL A   1      32.881  35.960  30.791  1.00  0.00    -0.377 OA
ENDROOT
BRANCH   1   2
ATOM      2  C   UNL A   1      33.539  35.307  29.726  1.00  0.00     0.188 C 
BRANCH   2   3
ATOM      3  C   UNL A   1      32.721  35.172  28.423  1.00  0.00     0.188 C 
BRANCH   3   4
ATOM      4  O   UNL A   1      32.583  33.928  27.744  1.00  0.00    -0.376 OA
BRANCH   4   5
ATOM      5  C   UNL A   1      33.419  32.821  28.051  1.00  0.00     0.202 C 
BRANCH   5   6
ATOM      6  C   UNL A   1      33.483  31.620  27.101  1.00  0.00     0.261 C 
BRANCH   6   7
ATOM      7  O   UNL A   1      33.761  30.361  27.730  1.00  0.00    -0.462 OA
BRANCH   7   8
ATOM      8  C   UNL A   1      33.059  29.269  27.323  1.00  0.00     0.325 C 
ATOM      9  O   UNL A   1      31.887  29.052  27.610  1.00  0.00    -0.250 OA
BRANCH   8  10
ATOM     10  C   UNL A   1      33.894  28.348  26.402  1.00  0.00     0.240 C 
BRANCH  10  11
ATOM     11  N   UNL A   1      34.053  28.705  24.983  1.00  0.00    -0.327 N 
ATOM     12  N   UNL A   1      32.251  27.699  23.791  1.00  0.00    -0.308 N 
ATOM     13  C   UNL A   1      33.301  28.545  23.880  1.00  0.00     0.319 C 
ATOM     14  H   UNL A   1      31.619  27.912  23.067  1.00  0.00     0.171 HD
ATOM     15  O   UNL A   1      33.542  29.293  22.928  1.00  0.00    -0.248 OA
ATOM     16  H   UNL A   1      34.904  29.165  24.799  1.00  0.00     0.166 HD
BRANCH  12  17
ATOM     17  C   UNL A   1      31.905  26.576  24.546  1.00  0.00     0.043 A 
ATOM     18  C   UNL A   1      32.169  24.255  25.096  1.00  0.00    -0.046 A 
ATOM     19  C   UNL A   1      30.859  24.229  25.592  1.00  0.00     0.004 A 
ATOM     20  C   UNL A   1      32.663  25.417  24.484  1.00  0.00     0.029 A 
ATOM     21  C   UNL A   1      30.229  25.427  25.843  1.00  0.00     0.002 A 
ATOM     22  C   UNL A   1      30.840  26.601  25.427  1.00  0.00     0.026 A 
BRANCH  18  23
ATOM     23  C   UNL A   1      33.078  23.116  25.467  1.00  0.00     0.032 C 
ATOM     24  C   UNL A   1      34.112  23.650  26.465  1.00  0.00     0.009 C 
ENDBRANCH  18  23
ENDBRANCH  12  17
ENDBRANCH  10  11
ENDBRANCH   8  10
ENDBRANCH   7   8
ENDBRANCH   6   7
ENDBRANCH   5   6
ENDBRANCH   4   5
ENDBRANCH   3   4
ENDBRANCH   2   3
ENDBRANCH   1   2
BRANCH   1  25
ATOM     25  C   UNL A   1      33.658  36.205  31.958  1.00  0.00     0.188 C 
BRANCH  25  26
ATOM     26  C   UNL A   1      33.843  35.028  32.936  1.00  0.00     0.188 C 
BRANCH  26  27
ATOM     27  O   UNL A   1      34.981  34.220  32.666  1.00  0.00    -0.376 OA
BRANCH  27  28
ATOM     28  C   UNL A   1      34.849  33.013  31.934  1.00  0.00     0.202 C 
BRANCH  28  29
ATOM     29  C   UNL A   1      35.484  31.723  32.483  1.00  0.00     0.261 C 
BRANCH  29  30
ATOM     30  O   UNL A   1      36.671  31.257  31.831  1.00  0.00    -0.460 OA
BRANCH  30  31
ATOM     31  C   UNL A   1      37.841  31.835  32.170  1.00  0.00     0.338 C 
ATOM     32  O   UNL A   1      38.024  32.651  33.061  1.00  0.00    -0.246 OA
BRANCH  31  33
ATOM     33  C   UNL A   1      38.914  31.146  31.426  1.00  0.00     0.060 A 
ATOM     34  C   UNL A   1      39.908  30.468  32.144  1.00  0.00     0.016 A 
ATOM     35  C   UNL A   1      38.934  31.159  30.028  1.00  0.00     0.016 A 
ATOM     36  C   UNL A   1      40.952  29.839  31.470  1.00  0.00     0.010 A 
ATOM     37  C   UNL A   1      39.997  30.555  29.354  1.00  0.00     0.010 A 
ATOM     38  C   UNL A   1      41.031  29.930  30.075  1.00  0.00    -0.014 A 
BRANCH  38  39
ATOM     39  C   UNL A   1      42.301  29.584  29.397  1.00  0.00     0.031 A 
ATOM     40  C   UNL A   1      42.437  28.200  28.823  1.00  0.00     0.074 A 
ATOM     41  C   UNL A   1      43.295  30.480  29.264  1.00  0.00     0.049 A 
ATOM     42  N   UNL A   1      43.459  27.646  28.227  1.00  0.00    -0.248 NA
ATOM     43  C   UNL A   1      41.257  27.324  28.938  1.00  0.00     0.031 C 
ATOM     44  C   UNL A   1      43.254  31.867  29.723  1.00  0.00     0.029 A 
ATOM     45  N   UNL A   1      44.539  30.345  28.702  1.00  0.00    -0.354 N 
ATOM     46  C   UNL A   1      43.053  26.354  27.911  1.00  0.00     0.074 A 
ATOM     47  C   UNL A   1      41.703  26.198  28.402  1.00  0.00     0.031 C 
ATOM     48  C   UNL A   1      44.429  32.455  29.433  1.00  0.00     0.029 A 
ATOM     49  C   UNL A   1      45.315  31.475  28.807  1.00  0.00     0.049 A 
ATOM     50  H   UNL A   1      44.847  29.519  28.264  1.00  0.00     0.167 HD
ATOM     51  C   UNL A   1      43.743  25.384  27.266  1.00  0.00     0.031 A 
ATOM     52  C   UNL A   1      46.602  31.682  28.461  1.00  0.00     0.031 A 
ATOM     53  C   UNL A   1      45.094  25.543  26.795  1.00  0.00     0.049 A 
ATOM     54  C   UNL A   1      47.382  30.558  27.824  1.00  0.00     0.074 A 
ATOM     55  C   UNL A   1      45.880  24.626  26.121  1.00  0.00     0.029 A 
ATOM     56  N   UNL A   1      45.859  26.686  26.960  1.00  0.00    -0.354 N 
ATOM     57  N   UNL A   1      46.980  29.348  27.511  1.00  0.00    -0.248 NA
ATOM     58  C   UNL A   1      48.786  30.832  27.487  1.00  0.00     0.031 C 
ATOM     59  C   UNL A   1      47.145  25.191  25.939  1.00  0.00     0.029 A 
ATOM     60  C   UNL A   1      47.123  26.488  26.428  1.00  0.00     0.049 A 
ATOM     61  H   UNL A   1      45.552  27.517  27.389  1.00  0.00     0.167 HD
ATOM     62  C   UNL A   1      48.073  28.729  26.910  1.00  0.00     0.074 A 
ATOM     63  C   UNL A   1      49.146  29.702  26.892  1.00  0.00     0.031 C 
ATOM     64  C   UNL A   1      48.180  27.470  26.416  1.00  0.00     0.031 A 
BRANCH  51  65
ATOM     65  C   UNL A   1      43.066  24.053  27.078  1.00  0.00    -0.014 A 
ATOM     66  C   UNL A   1      42.346  23.754  25.907  1.00  0.00     0.010 A 
ATOM     67  C   UNL A   1      43.181  23.071  28.080  1.00  0.00     0.010 A 
ATOM     68  C   UNL A   1      41.724  22.510  25.758  1.00  0.00     0.020 A 
ATOM     69  C   UNL A   1      42.588  21.817  27.920  1.00  0.00     0.020 A 
ATOM     70  C   UNL A   1      41.850  21.549  26.766  1.00  0.00     0.054 A 
BRANCH  70  71
ATOM     71  S   UNL A   1      41.058  19.934  26.531  1.00  0.00     0.124 S 
ATOM     72  O   UNL A   1      42.096  19.191  25.820  1.00  0.00    -0.237 OA
ATOM     73  O   UNL A   1      40.804  19.502  27.903  1.00  0.00    -0.237 OA
ATOM     74  O   UNL A   1      39.865  20.243  25.746  1.00  0.00    -0.744 OA
ENDBRANCH  70  71
ENDBRANCH  51  65
BRANCH  52  75
ATOM     75  C   UNL A   1      47.245  32.998  28.731  1.00  0.00    -0.014 A 
ATOM     76  C   UNL A   1      47.883  33.251  29.958  1.00  0.00     0.010 A 
ATOM     77  C   UNL A   1      47.214  34.016  27.758  1.00  0.00     0.010 A 
ATOM     78  C   UNL A   1      48.462  34.498  30.213  1.00  0.00     0.020 A 
ATOM     79  C   UNL A   1      47.820  35.252  27.997  1.00  0.00     0.020 A 
ATOM     80  C   UNL A   1      48.431  35.490  29.229  1.00  0.00     0.054 A 
BRANCH  80  81
ATOM     81  S   UNL A   1      49.232  37.082  29.566  1.00  0.00     0.124 S 
ATOM     82  O   UNL A   1      49.719  36.896  30.929  1.00  0.00    -0.237 OA
ATOM     83  O   UNL A   1      50.260  37.140  28.528  1.00  0.00    -0.237 OA
ATOM     84  O   UNL A   1      48.149  38.051  29.413  1.00  0.00    -0.744 OA
ENDBRANCH  80  81
ENDBRANCH  52  75
BRANCH  64  85
ATOM     85  C   UNL A   1      49.483  27.079  25.767  1.00  0.00    -0.014 A 
ATOM     86  C   UNL A   1      49.758  27.387  24.424  1.00  0.00     0.010 A 
ATOM     87  C   UNL A   1      50.475  26.447  26.540  1.00  0.00     0.010 A 
ATOM     88  C   UNL A   1      50.989  27.042  23.856  1.00  0.00     0.020 A 
ATOM     89  C   UNL A   1      51.719  26.131  25.987  1.00  0.00     0.020 A 
ATOM     90  C   UNL A   1      51.962  26.418  24.643  1.00  0.00     0.054 A 
BRANCH  90  91
ATOM     91  S   UNL A   1      53.566  26.021  23.896  1.00  0.00     0.124 S 
ATOM     92  O   UNL A   1      54.387  27.153  24.319  1.00  0.00    -0.237 OA
ATOM     93  O   UNL A   1      53.897  24.739  24.513  1.00  0.00    -0.237 OA
ATOM     94  O   UNL A   1      53.279  25.962  22.465  1.00  0.00    -0.744 OA
ENDBRANCH  90  91
ENDBRANCH  64  85
ENDBRANCH  38  39
ENDBRANCH  31  33
ENDBRANCH  30  31
ENDBRANCH  29  30
ENDBRANCH  28  29
ENDBRANCH  27  28
ENDBRANCH  26  27
ENDBRANCH  25  26
ENDBRANCH   1  25
TORSDOF 26
ENDMDL
MODEL 2
REMARK VINA RESULT:      -7.2      4.710      9.262
REMARK SMILES CCc1cccc(NC(=O)NCC(=O)OCCOCCOCCOCCOC(=O)c2ccc(-c3c4nc(c(-c5ccc(S(=O)(=O)[O-])cc5)c5ccc([nH]5)c(-c5ccc(S(=O)(=O)[O-])cc5)c5nc(c(-c6ccc(S(=O)(=O)[O-])cc6)c6ccc3[nH]6)C=C5)C=C4)cc2)c1
REMARK SMILES IDX 21 1 20 2 19 3 18 4 17 5 16 6 15 7 13 8 14 9 12 10 11 11
REMARK SMILES IDX 8 12 9 13 10 15 7 17 3 18 4 19 90 20 5 21 6 22 2 23 1 24
REMARK SMILES IDX 22 25 23 26 24 27 25 28 26 29 27 30 28 31 29 32 30 33 31 34
REMARK SMILES IDX 89 35 32 36 88 37 33 38 34 39 35 40 82 41 36 42 87 43 81 44
REMARK SMILES IDX 83 45 37 46 86 47 80 48 79 49 38 51 68 52 49 53 67 54 50 55
REMARK SMILES IDX 53 56 66 57 84 58 51 59 52 60 65 62 85 63 54 64 39 65 40 66
REMARK SMILES IDX 48 67 41 68 47 69 42 70 43 71 44 72 45 73 46 74 69 75 70 76
REMARK SMILES IDX 78 77 71 78 77 79 72 80 73 81 74 82 75 83 76 84 55 85 56 86
REMARK SMILES IDX 64 87 57 88 63 89 58 90 59 91 60 92 61 93 62 94
REMARK H PARENT 8 14 11 16 83 50 53 61
REMARK Flexibility Score: inf
ROOT
ATOM      1  O   UNL A   1      40.939  27.392  28.397  1.00  0.00    -0.377 OA
ENDROOT
BRANCH   1   2
ATOM      2  C   UNL A   1      42.160  27.013  27.797  1.00  0.00     0.188 C 
BRANCH   2   3
ATOM      3  C   UNL A   1      42.057  25.916  26.715  1.00  0.00     0.188 C 
BRANCH   3   4
ATOM      4  O   UNL A   1      43.210  25.346  26.107  1.00  0.00    -0.376 OA
BRANCH   4   5
ATOM      5  C   UNL A   1      43.107  24.245  25.214  1.00  0.00     0.202 C 
BRANCH   5   6
ATOM      6  C   UNL A   1      44.359  23.451  24.825  1.00  0.00     0.261 C 
BRANCH   6   7
ATOM      7  O   UNL A   1      44.161  22.467  23.801  1.00  0.00    -0.462 OA
BRANCH   7   8
ATOM      8  C   UNL A   1      44.229  21.153  24.148  1.00  0.00     0.325 C 
ATOM      9  O   UNL A   1      44.620  20.259  23.405  1.00  0.00    -0.250 OA
BRANCH   8  10
ATOM     10  C   UNL A   1      43.809  20.914  25.618  1.00  0.00     0.240 C 
BRANCH  10  11
ATOM     11  N   UNL A   1      43.820  19.544  26.154  1.00  0.00    -0.327 N 
ATOM     12  N   UNL A   1      41.553  18.899  26.501  1.00  0.00    -0.308 N 
ATOM     13  C   UNL A   1      42.873  18.626  26.417  1.00  0.00     0.319 C 
ATOM     14  H   UNL A   1      40.968  18.115  26.381  1.00  0.00     0.171 HD
ATOM     15  O   UNL A   1      43.242  17.451  26.494  1.00  0.00    -0.248 OA
ATOM     16  H   UNL A   1      44.727  19.226  26.369  1.00  0.00     0.166 HD
BRANCH  12  17
ATOM     17  C   UNL A   1      40.870  20.096  26.727  1.00  0.00     0.043 A 
ATOM     18  C   UNL A   1      39.297  21.776  26.046  1.00  0.00    -0.046 A 
ATOM     19  C   UNL A   1      39.952  22.711  26.858  1.00  0.00     0.004 A 
ATOM     20  C   UNL A   1      39.818  20.481  25.911  1.00  0.00     0.029 A 
ATOM     21  C   UNL A   1      40.833  22.250  27.810  1.00  0.00     0.002 A 
ATOM     22  C   UNL A   1      41.174  20.906  27.806  1.00  0.00     0.026 A 
BRANCH  18  23
ATOM     23  C   UNL A   1      37.919  22.124  25.552  1.00  0.00     0.032 C 
ATOM     24  C   UNL A   1      37.342  20.882  24.864  1.00  0.00     0.009 C 
ENDBRANCH  18  23
ENDBRANCH  12  17
ENDBRANCH  10  11
ENDBRANCH   8  10
ENDBRANCH   7   8
ENDBRANCH   6   7
ENDBRANCH   5   6
ENDBRANCH   4   5
ENDBRANCH   3   4
ENDBRANCH   2   3
ENDBRANCH   1   2
BRANCH   1  25
ATOM     25  C   UNL A   1      40.143  28.325  27.676  1.00  0.00     0.188 C 
BRANCH  25  26
ATOM     26  C   UNL A   1      39.688  29.589  28.433  1.00  0.00     0.188 C 
BRANCH  26  27
ATOM     27  O   UNL A   1      38.306  29.889  28.288  1.00  0.00    -0.376 OA
BRANCH  27  28
ATOM     28  C   UNL A   1      37.330  29.133  28.987  1.00  0.00     0.202 C 
BRANCH  28  29
ATOM     29  C   UNL A   1      37.662  28.575  30.382  1.00  0.00     0.261 C 
BRANCH  29  30
ATOM     30  O   UNL A   1      37.627  29.500  31.474  1.00  0.00    -0.460 OA
BRANCH  30  31
ATOM     31  C   UNL A   1      38.513  29.324  32.475  1.00  0.00     0.338 C 
ATOM     32  O   UNL A   1      38.529  28.411  33.288  1.00  0.00    -0.246 OA
BRANCH  31  33
ATOM     33  C   UNL A   1      39.602  30.302  32.287  1.00  0.00     0.060 A 
ATOM     34  C   UNL A   1      39.395  31.389  31.426  1.00  0.00     0.016 A 
ATOM     35  C   UNL A   1      40.818  30.155  32.961  1.00  0.00     0.016 A 
ATOM     36  C   UNL A   1      40.417  32.308  31.202  1.00  0.00     0.010 A 
ATOM     37  C   UNL A   1      41.853  31.059  32.712  1.00  0.00     0.010 A 
ATOM     38  C   UNL A   1      41.668  32.113  31.799  1.00  0.00    -0.014 A 
BRANCH  38  39
ATOM     39  C   UNL A   1      42.839  32.864  31.289  1.00  0.00     0.031 A 
ATOM     40  C   UNL A   1      43.781  32.149  30.359  1.00  0.00     0.074 A 
ATOM     41  C   UNL A   1      43.046  34.152  31.615  1.00  0.00     0.049 A 
ATOM     42  N   UNL A   1      44.893  32.572  29.819  1.00  0.00    -0.248 NA
ATOM     43  C   UNL A   1      43.417  30.770  29.989  1.00  0.00     0.031 C 
ATOM     44  C   UNL A   1      42.170  34.965  32.456  1.00  0.00     0.029 A 
ATOM     45  N   UNL A   1      44.070  34.998  31.274  1.00  0.00    -0.354 N 
ATOM     46  C   UNL A   1      45.369  31.508  29.060  1.00  0.00     0.074 A 
ATOM     47  C   UNL A   1      44.440  30.414  29.229  1.00  0.00     0.031 C 
ATOM     48  C   UNL A   1      42.703  36.195  32.575  1.00  0.00     0.029 A 
ATOM     49  C   UNL A   1      43.973  36.241  31.853  1.00  0.00     0.049 A 
ATOM     50  H   UNL A   1      44.804  34.741  30.670  1.00  0.00     0.167 HD
ATOM     51  C   UNL A   1      46.480  31.450  28.289  1.00  0.00     0.031 A 
ATOM     52  C   UNL A   1      44.828  37.283  31.825  1.00  0.00     0.031 A 
ATOM     53  C   UNL A   1      47.408  32.539  28.140  1.00  0.00     0.049 A 
ATOM     54  C   UNL A   1      46.105  37.164  31.031  1.00  0.00     0.074 A 
ATOM     55  C   UNL A   1      48.559  32.587  27.374  1.00  0.00     0.029 A 
ATOM     56  N   UNL A   1      47.298  33.765  28.777  1.00  0.00    -0.354 N 
ATOM     57  N   UNL A   1      46.534  36.161  30.300  1.00  0.00    -0.248 NA
ATOM     58  C   UNL A   1      47.011  38.323  31.051  1.00  0.00     0.031 C 
ATOM     59  C   UNL A   1      49.182  33.817  27.603  1.00  0.00     0.029 A 
ATOM     60  C   UNL A   1      48.378  34.566  28.449  1.00  0.00     0.049 A 
ATOM     61  H   UNL A   1      46.560  34.028  29.374  1.00  0.00     0.167 HD
ATOM     62  C   UNL A   1      47.741  36.582  29.748  1.00  0.00     0.074 A 
ATOM     63  C   UNL A   1      47.967  37.932  30.219  1.00  0.00     0.031 C 
ATOM     64  C   UNL A   1      48.586  35.912  28.924  1.00  0.00     0.031 A 
BRANCH  51  65
ATOM     65  C   UNL A   1      46.775  30.150  27.588  1.00  0.00    -0.014 A 
ATOM     66  C   UNL A   1      47.455  29.103  28.236  1.00  0.00     0.010 A 
ATOM     67  C   UNL A   1      46.332  29.962  26.265  1.00  0.00     0.010 A 
ATOM     68  C   UNL A   1      47.718  27.907  27.562  1.00  0.00     0.020 A 
ATOM     69  C   UNL A   1      46.564  28.757  25.600  1.00  0.00     0.020 A 
ATOM     70  C   UNL A   1      47.270  27.741  26.247  1.00  0.00     0.054 A 
BRANCH  70  71
ATOM     71  S   UNL A   1      47.599  26.167  25.409  1.00  0.00     0.124 S 
ATOM     72  O   UNL A   1      46.557  26.147  24.386  1.00  0.00    -0.237 OA
ATOM     73  O   UNL A   1      48.962  26.348  24.915  1.00  0.00    -0.237 OA
ATOM     74  O   UNL A   1      47.450  25.171  26.468  1.00  0.00    -0.744 OA
ENDBRANCH  70  71
ENDBRANCH  51  65
BRANCH  52  75
ATOM     75  C   UNL A   1      44.519  38.523  32.591  1.00  0.00    -0.014 A 
ATOM     76  C   UNL A   1      44.961  38.680  33.917  1.00  0.00     0.010 A 
ATOM     77  C   UNL A   1      43.770  39.556  31.996  1.00  0.00     0.010 A 
ATOM     78  C   UNL A   1      44.644  39.835  34.638  1.00  0.00     0.020 A 
ATOM     79  C   UNL A   1      43.480  40.726  32.703  1.00  0.00     0.020 A 
ATOM     80  C   UNL A   1      43.910  40.854  34.024  1.00  0.00     0.054 A 
BRANCH  80  81
ATOM     81  S   UNL A   1      43.555  42.365  34.965  1.00  0.00     0.124 S 
ATOM     82  O   UNL A   1      44.443  43.334  34.331  1.00  0.00    -0.237 OA
ATOM     83  O   UNL A   1      42.128  42.558  34.720  1.00  0.00    -0.237 OA
ATOM     84  O   UNL A   1      43.900  42.003  36.338  1.00  0.00    -0.744 OA
ENDBRANCH  80  81
ENDBRANCH  52  75
BRANCH  64  85
ATOM     85  C   UNL A   1      49.812  36.640  28.435  1.00  0.00    -0.014 A 
ATOM     86  C   UNL A   1      49.800  37.385  27.243  1.00  0.00     0.010 A 
ATOM     87  C   UNL A   1      50.980  36.628  29.221  1.00  0.00     0.010 A 
ATOM     88  C   UNL A   1      50.942  38.077  26.829  1.00  0.00     0.020 A 
ATOM     89  C   UNL A   1      52.113  37.346  28.829  1.00  0.00     0.020 A 
ATOM     90  C   UNL A   1      52.090  38.055  27.627  1.00  0.00     0.054 A 
BRANCH  90  91
ATOM     91  S   UNL A   1      53.544  38.998  27.091  1.00  0.00     0.124 S 
ATOM     92  O   UNL A   1      53.400  40.236  27.851  1.00  0.00    -0.237 OA
ATOM     93  O   UNL A   1      54.651  38.136  27.496  1.00  0.00    -0.237 OA
ATOM     94  O   UNL A   1      53.360  39.130  25.647  1.00  0.00    -0.744 OA
ENDBRANCH  90  91
ENDBRANCH  64  85
ENDBRANCH  38  39
ENDBRANCH  31  33
ENDBRANCH  30  31
ENDBRANCH  29  30
ENDBRANCH  28  29
ENDBRANCH  27  28
ENDBRANCH  26  27
ENDBRANCH  25  26
ENDBRANCH   1  25
TORSDOF 26
ENDMDL
MODEL 3
REMARK VINA RESULT:      -7.1      6.474     10.161
REMARK SMILES CCc1cccc(NC(=O)NCC(=O)OCCOCCOCCOCCOC(=O)c2ccc(-c3c4nc(c(-c5ccc(S(=O)(=O)[O-])cc5)c5ccc([nH]5)c(-c5ccc(S(=O)(=O)[O-])cc5)c5nc(c(-c6ccc(S(=O)(=O)[O-])cc6)c6ccc3[nH]6)C=C5)C=C4)cc2)c1
REMARK SMILES IDX 21 1 20 2 19 3 18 4 17 5 16 6 15 7 13 8 14 9 12 10 11 11
REMARK SMILES IDX 8 12 9 13 10 15 7 17 3 18 4 19 90 20 5 21 6 22 2 23 1 24
REMARK SMILES IDX 22 25 23 26 24 27 25 28 26 29 27 30 28 31 29 32 30 33 31 34
REMARK SMILES IDX 89 35 32 36 88 37 33 38 34 39 35 40 82 41 36 42 87 43 81 44
REMARK SMILES IDX 83 45 37 46 86 47 80 48 79 49 38 51 68 52 49 53 67 54 50 55
REMARK SMILES IDX 53 56 66 57 84 58 51 59 52 60 65 62 85 63 54 64 39 65 40 66
REMARK SMILES IDX 48 67 41 68 47 69 42 70 43 71 44 72 45 73 46 74 69 75 70 76
REMARK SMILES IDX 78 77 71 78 77 79 72 80 73 81 74 82 75 83 76 84 55 85 56 86
REMARK SMILES IDX 64 87 57 88 63 89 58 90 59 91 60 92 61 93 62 94
REMARK H PARENT 8 14 11 16 83 50 53 61
REMARK Flexibility Score: inf
ROOT
ATOM      1  O   UNL A   1      38.967  27.900  29.369  1.00  0.00    -0.377 OA
ENDROOT
BRANCH   1   2
ATOM      2  C   UNL A   1      39.618  26.977  28.521  1.00  0.00     0.188 C 
BRANCH   2   3
ATOM      3  C   UNL A   1      40.682  27.577  27.577  1.00  0.00     0.188 C 
BRANCH   3   4
ATOM      4  O   UNL A   1      40.832  27.137  26.232  1.00  0.00    -0.376 OA
BRANCH   4   5
ATOM      5  C   UNL A   1      42.115  26.907  25.667  1.00  0.00     0.202 C 
BRANCH   5   6
ATOM      6  C   UNL A   1      43.236  26.309  26.524  1.00  0.00     0.261 C 
BRANCH   6   7
ATOM      7  O   UNL A   1      43.056  24.933  26.887  1.00  0.00    -0.462 OA
BRANCH   7   8
ATOM      8  C   UNL A   1      43.341  24.561  28.164  1.00  0.00     0.325 C 
ATOM      9  O   UNL A   1      43.131  25.256  29.152  1.00  0.00    -0.250 OA
BRANCH   8  10
ATOM     10  C   UNL A   1      43.913  23.126  28.241  1.00  0.00     0.240 C 
BRANCH  10  11
ATOM     11  N   UNL A   1      45.089  22.777  27.426  1.00  0.00    -0.327 N 
ATOM     12  N   UNL A   1      44.288  21.840  25.387  1.00  0.00    -0.308 N 
ATOM     13  C   UNL A   1      45.269  22.347  26.165  1.00  0.00     0.319 C 
ATOM     14  H   UNL A   1      44.480  21.867  24.422  1.00  0.00     0.171 HD
ATOM     15  O   UNL A   1      46.387  22.520  25.672  1.00  0.00    -0.248 OA
ATOM     16  H   UNL A   1      45.936  22.883  27.917  1.00  0.00     0.166 HD
BRANCH  12  17
ATOM     17  C   UNL A   1      43.048  21.284  25.712  1.00  0.00     0.043 A 
ATOM     18  C   UNL A   1      40.751  21.517  26.366  1.00  0.00    -0.046 A 
ATOM     19  C   UNL A   1      40.780  20.227  26.911  1.00  0.00     0.004 A 
ATOM     20  C   UNL A   1      41.923  22.083  25.843  1.00  0.00     0.029 A 
ATOM     21  C   UNL A   1      41.820  19.394  26.567  1.00  0.00     0.002 A 
ATOM     22  C   UNL A   1      42.885  19.918  25.849  1.00  0.00     0.026 A 
BRANCH  18  23
ATOM     23  C   UNL A   1      39.404  22.145  26.133  1.00  0.00     0.032 C 
ATOM     24  C   UNL A   1      38.431  21.028  25.737  1.00  0.00     0.009 C 
ENDBRANCH  18  23
ENDBRANCH  12  17
ENDBRANCH  10  11
ENDBRANCH   8  10
ENDBRANCH   7   8
ENDBRANCH   6   7
ENDBRANCH   5   6
ENDBRANCH   4   5
ENDBRANCH   3   4
ENDBRANCH   2   3
ENDBRANCH   1   2
BRANCH   1  25
ATOM     25  C   UNL A   1      38.886  29.240  28.900  1.00  0.00     0.188 C 
BRANCH  25  26
ATOM     26  C   UNL A   1      38.294  30.286  29.866  1.00  0.00     0.188 C 
BRANCH  26  27
ATOM     27  O   UNL A   1      39.127  31.418  30.079  1.00  0.00    -0.376 OA
BRANCH  27  28
ATOM     28  C   UNL A   1      38.557  32.686  30.361  1.00  0.00     0.202 C 
BRANCH  28  29
ATOM     29  C   UNL A   1      37.992  32.966  31.764  1.00  0.00     0.261 C 
BRANCH  29  30
ATOM     30  O   UNL A   1      38.924  33.394  32.764  1.00  0.00    -0.460 OA
BRANCH  30  31
ATOM     31  C   UNL A   1      39.131  32.581  33.819  1.00  0.00     0.338 C 
ATOM     32  O   UNL A   1      38.383  32.411  34.771  1.00  0.00    -0.246 OA
BRANCH  31  33
ATOM     33  C   UNL A   1      40.316  31.753  33.521  1.00  0.00     0.060 A 
ATOM     34  C   UNL A   1      40.168  30.361  33.445  1.00  0.00     0.016 A 
ATOM     35  C   UNL A   1      41.564  32.345  33.310  1.00  0.00     0.016 A 
ATOM     36  C   UNL A   1      41.275  29.553  33.200  1.00  0.00     0.010 A 
ATOM     37  C   UNL A   1      42.680  31.532  33.096  1.00  0.00     0.010 A 
ATOM     38  C   UNL A   1      42.545  30.132  33.083  1.00  0.00    -0.014 A 
BRANCH  38  39
ATOM     39  C   UNL A   1      43.746  29.272  33.186  1.00  0.00     0.031 A 
ATOM     40  C   UNL A   1      44.240  28.917  34.562  1.00  0.00     0.074 A 
ATOM     41  C   UNL A   1      44.363  28.791  32.092  1.00  0.00     0.049 A 
ATOM     42  N   UNL A   1      45.289  28.222  34.912  1.00  0.00    -0.248 NA
ATOM     43  C   UNL A   1      43.441  29.416  35.695  1.00  0.00     0.031 C 
ATOM     44  C   UNL A   1      43.939  29.015  30.712  1.00  0.00     0.029 A 
ATOM     45  N   UNL A   1      45.488  28.014  31.980  1.00  0.00    -0.354 N 
ATOM     46  C   UNL A   1      45.285  28.213  36.303  1.00  0.00     0.074 A 
ATOM     47  C   UNL A   1      44.146  28.991  36.732  1.00  0.00     0.031 C 
ATOM     48  C   UNL A   1      44.804  28.397  29.887  1.00  0.00     0.029 A 
ATOM     49  C   UNL A   1      45.860  27.769  30.679  1.00  0.00     0.049 A 
ATOM     50  H   UNL A   1      45.981  27.664  32.756  1.00  0.00     0.167 HD
ATOM     51  C   UNL A   1      46.153  27.607  37.147  1.00  0.00     0.031 A 
ATOM     52  C   UNL A   1      46.944  27.136  30.189  1.00  0.00     0.031 A 
ATOM     53  C   UNL A   1      47.295  26.848  36.711  1.00  0.00     0.049 A 
ATOM     54  C   UNL A   1      47.947  26.545  31.150  1.00  0.00     0.074 A 
ATOM     55  C   UNL A   1      48.231  26.185  37.485  1.00  0.00     0.029 A 
ATOM     56  N   UNL A   1      47.661  26.660  35.388  1.00  0.00    -0.354 N 
ATOM     57  N   UNL A   1      47.921  26.524  32.462  1.00  0.00    -0.248 NA
ATOM     58  C   UNL A   1      49.121  25.884  30.561  1.00  0.00     0.031 C 
ATOM     59  C   UNL A   1      49.202  25.655  36.631  1.00  0.00     0.029 A 
ATOM     60  C   UNL A   1      48.829  25.919  35.323  1.00  0.00     0.049 A 
ATOM     61  H   UNL A   1      47.165  27.002  34.609  1.00  0.00     0.167 HD
ATOM     62  C   UNL A   1      49.057  25.820  32.854  1.00  0.00     0.074 A 
ATOM     63  C   UNL A   1      49.739  25.422  31.640  1.00  0.00     0.031 C 
ATOM     64  C   UNL A   1      49.495  25.527  34.104  1.00  0.00     0.031 A 
BRANCH  51  65
ATOM     65  C   UNL A   1      45.926  27.784  38.625  1.00  0.00    -0.014 A 
ATOM     66  C   UNL A   1      46.349  28.943  39.300  1.00  0.00     0.010 A 
ATOM     67  C   UNL A   1      45.246  26.783  39.344  1.00  0.00     0.010 A 
ATOM     68  C   UNL A   1      46.127  29.082  40.674  1.00  0.00     0.020 A 
ATOM     69  C   UNL A   1      44.994  26.932  40.710  1.00  0.00     0.020 A 
ATOM     70  C   UNL A   1      45.450  28.075  41.370  1.00  0.00     0.054 A 
BRANCH  70  71
ATOM     71  S   UNL A   1      45.150  28.296  43.145  1.00  0.00     0.124 S 
ATOM     72  O   UNL A   1      45.346  29.735  43.306  1.00  0.00    -0.237 OA
ATOM     73  O   UNL A   1      43.774  27.829  43.296  1.00  0.00    -0.237 OA
ATOM     74  O   UNL A   1      46.164  27.455  43.777  1.00  0.00    -0.744 OA
ENDBRANCH  70  71
ENDBRANCH  51  65
BRANCH  52  75
ATOM     75  C   UNL A   1      47.155  27.047  28.717  1.00  0.00    -0.014 A 
ATOM     76  C   UNL A   1      46.647  25.963  27.980  1.00  0.00     0.010 A 
ATOM     77  C   UNL A   1      47.878  28.050  28.043  1.00  0.00     0.010 A 
ATOM     78  C   UNL A   1      46.872  25.874  26.603  1.00  0.00     0.020 A 
ATOM     79  C   UNL A   1      48.077  27.981  26.662  1.00  0.00     0.020 A 
ATOM     80  C   UNL A   1      47.583  26.886  25.951  1.00  0.00     0.054 A 
BRANCH  80  81
ATOM     81  S   UNL A   1      47.818  26.773  24.156  1.00  0.00     0.124 S 
ATOM     82  O   UNL A   1      46.736  27.612  23.652  1.00  0.00    -0.237 OA
ATOM     83  O   UNL A   1      49.167  27.307  23.983  1.00  0.00    -0.237 OA
ATOM     84  O   UNL A   1      47.683  25.344  23.881  1.00  0.00    -0.744 OA
ENDBRANCH  80  81
ENDBRANCH  52  75
BRANCH  64  85
ATOM     85  C   UNL A   1      50.746  24.696  34.232  1.00  0.00    -0.014 A 
ATOM     86  C   UNL A   1      52.013  25.289  34.371  1.00  0.00     0.010 A 
ATOM     87  C   UNL A   1      50.639  23.293  34.277  1.00  0.00     0.010 A 
ATOM     88  C   UNL A   1      53.153  24.494  34.521  1.00  0.00     0.020 A 
ATOM     89  C   UNL A   1      51.772  22.496  34.461  1.00  0.00     0.020 A 
ATOM     90  C   UNL A   1      53.024  23.102  34.567  1.00  0.00     0.054 A 
BRANCH  90  91
ATOM     91  S   UNL A   1      54.514  22.096  34.808  1.00  0.00     0.124 S 
ATOM     92  O   UNL A   1      55.473  22.757  33.928  1.00  0.00    -0.237 OA
ATOM     93  O   UNL A   1      54.768  22.240  36.239  1.00  0.00    -0.237 OA
ATOM     94  O   UNL A   1      54.102  20.758  34.386  1.00  0.00    -0.744 OA
ENDBRANCH  90  91
ENDBRANCH  64  85
ENDBRANCH  38  39
ENDBRANCH  31  33
ENDBRANCH  30  31
ENDBRANCH  29  30
ENDBRANCH  28  29
ENDBRANCH  27  28
ENDBRANCH  26  27
ENDBRANCH  25  26
ENDBRANCH   1  25
TORSDOF 26
ENDMDL
