MODEL 1
REMARK VINA RESULT:      -8.4      0.000      0.000
REMARK SMILES CC(=O)c1cc(C(=O)N(CC(=O)OCCOCCOCCOCCOC(=O)c2ccc(-c3c4nc(c(-c5ccc(S(=O)(=O)[O-])cc5)c5ccc([nH]5)c(-c5ccc(S(=O)(=O)[O-])cc5)c5nc(c(-c6ccc(S(=O)(=O)[O-])cc6)c6ccc3[nH]6)C=C5)C=C4)cc2)C(C)(C)C)n(C)c1
REMARK SMILES IDX 18 1 17 2 16 3 15 4 14 5 13 6 11 7 12 8 10 9 9 10 7 11 8 12
REMARK SMILES IDX 6 13 4 14 5 15 94 16 92 17 93 18 2 19 1 20 3 21 88 22 89 23
REMARK SMILES IDX 90 24 91 25 19 26 20 27 21 28 22 29 23 30 24 31 25 32 26 33
REMARK SMILES IDX 27 34 28 35 29 36 87 37 30 38 86 39 31 40 32 41 33 42 80 43
REMARK SMILES IDX 34 44 85 45 79 46 81 47 35 48 84 49 78 50 77 51 36 53 66 54
REMARK SMILES IDX 47 55 65 56 48 57 51 58 64 59 82 60 49 61 50 62 63 64 83 65
REMARK SMILES IDX 52 66 37 67 38 68 46 69 39 70 45 71 40 72 41 73 42 74 43 75
REMARK SMILES IDX 44 76 67 77 68 78 76 79 69 80 75 81 70 82 71 83 72 84 73 85
REMARK SMILES IDX 74 86 53 87 54 88 62 89 55 90 61 91 56 92 57 93 58 94 59 95
REMARK SMILES IDX 60 96
REMARK H PARENT 81 52 51 63
REMARK Flexibility Score: inf
ROOT
ATOM      1  C   UNL A   1      37.276  22.163  25.362  1.00  0.00     0.188 C 
ENDROOT
BRANCH   1   2
ATOM      2  C   UNL A   1      35.940  21.464  25.681  1.00  0.00     0.188 C 
BRANCH   2   3
ATOM      3  O   UNL A   1      35.451  20.392  24.881  1.00  0.00    -0.376 OA
BRANCH   3   4
ATOM      4  C   UNL A   1      34.085  20.018  24.951  1.00  0.00     0.202 C 
BRANCH   4   5
ATOM      5  C   UNL A   1      33.113  21.032  25.584  1.00  0.00     0.261 C 
BRANCH   5   6
ATOM      6  O   UNL A   1      31.818  21.179  24.952  1.00  0.00    -0.462 OA
BRANCH   6   7
ATOM      7  C   UNL A   1      31.683  22.254  24.138  1.00  0.00     0.325 C 
ATOM      8  O   UNL A   1      31.753  22.194  22.910  1.00  0.00    -0.250 OA
BRANCH   7   9
ATOM      9  C   UNL A   1      31.640  23.641  24.832  1.00  0.00     0.243 C 
BRANCH   9  10
ATOM     10  N   UNL A   1      32.284  24.975  24.932  1.00  0.00    -0.321 N 
BRANCH  10  11
ATOM     11  C   UNL A   1      31.684  26.034  25.663  1.00  0.00     0.271 C 
ATOM     12  O   UNL A   1      31.531  25.898  26.880  1.00  0.00    -0.267 OA
BRANCH  11  13
ATOM     13  C   UNL A   1      31.227  27.307  25.069  1.00  0.00     0.107 A 
ATOM     14  C   UNL A   1      30.020  28.624  23.602  1.00  0.00     0.036 A 
ATOM     15  C   UNL A   1      30.294  27.304  24.026  1.00  0.00     0.045 A 
ATOM     16  C   UNL A   1      30.777  29.430  24.418  1.00  0.00     0.097 A 
ATOM     17  N   UNL A   1      31.586  28.644  25.208  1.00  0.00    -0.346 N 
ATOM     18  C   UNL A   1      32.653  29.271  25.964  1.00  0.00     0.150 C 
BRANCH  14  19
ATOM     19  C   UNL A   1      29.151  29.103  22.533  1.00  0.00     0.161 C 
ATOM     20  C   UNL A   1      27.662  29.075  22.762  1.00  0.00     0.093 C 
ATOM     21  O   UNL A   1      29.617  29.522  21.473  1.00  0.00    -0.294 OA
ENDBRANCH  14  19
ENDBRANCH  11  13
ENDBRANCH  10  11
BRANCH  10  22
ATOM     22  C   UNL A   1      33.650  25.253  24.304  1.00  0.00     0.036 C 
ATOM     23  C   UNL A   1      34.273  23.944  23.761  1.00  0.00     0.034 C 
ATOM     24  C   UNL A   1      33.587  26.244  23.097  1.00  0.00     0.034 C 
ATOM     25  C   UNL A   1      34.623  25.975  25.265  1.00  0.00     0.034 C 
ENDBRANCH  10  22
ENDBRANCH   9  10
ENDBRANCH   7   9
ENDBRANCH   6   7
ENDBRANCH   5   6
ENDBRANCH   4   5
ENDBRANCH   3   4
ENDBRANCH   2   3
ENDBRANCH   1   2
BRANCH   1  26
ATOM     26  O   UNL A   1      38.414  21.358  25.562  1.00  0.00    -0.377 OA
BRANCH  26  27
ATOM     27  C   UNL A   1      39.394  21.894  26.423  1.00  0.00     0.188 C 
BRANCH  27  28
ATOM     28  C   UNL A   1      39.344  23.422  26.588  1.00  0.00     0.188 C 
BRANCH  28  29
ATOM     29  O   UNL A   1      40.495  23.937  27.249  1.00  0.00    -0.376 OA
BRANCH  29  30
ATOM     30  C   UNL A   1      41.434  24.723  26.543  1.00  0.00     0.202 C 
BRANCH  30  31
ATOM     31  C   UNL A   1      42.846  24.190  26.244  1.00  0.00     0.261 C 
BRANCH  31  32
ATOM     32  O   UNL A   1      43.927  25.127  26.241  1.00  0.00    -0.460 OA
BRANCH  32  33
ATOM     33  C   UNL A   1      44.635  25.252  27.384  1.00  0.00     0.338 C 
ATOM     34  O   UNL A   1      45.757  24.819  27.590  1.00  0.00    -0.246 OA
BRANCH  33  35
ATOM     35  C   UNL A   1      43.916  26.195  28.271  1.00  0.00     0.060 A 
ATOM     36  C   UNL A   1      43.924  27.556  27.937  1.00  0.00     0.016 A 
ATOM     37  C   UNL A   1      43.219  25.751  29.399  1.00  0.00     0.016 A 
ATOM     38  C   UNL A   1      43.255  28.479  28.737  1.00  0.00     0.010 A 
ATOM     39  C   UNL A   1      42.587  26.685  30.228  1.00  0.00     0.010 A 
ATOM     40  C   UNL A   1      42.633  28.056  29.917  1.00  0.00    -0.014 A 
BRANCH  40  41
ATOM     41  C   UNL A   1      42.267  29.072  30.931  1.00  0.00     0.031 A 
ATOM     42  C   UNL A   1      43.154  29.199  32.141  1.00  0.00     0.074 A 
ATOM     43  C   UNL A   1      41.221  29.899  30.765  1.00  0.00     0.049 A 
ATOM     44  N   UNL A   1      43.054  30.006  33.164  1.00  0.00    -0.248 NA
ATOM     45  C   UNL A   1      44.316  28.294  32.198  1.00  0.00     0.031 C 
ATOM     46  C   UNL A   1      40.329  29.918  29.606  1.00  0.00     0.029 A 
ATOM     47  N   UNL A   1      40.733  30.890  31.581  1.00  0.00    -0.354 N 
ATOM     48  C   UNL A   1      44.133  29.703  33.987  1.00  0.00     0.074 A 
ATOM     49  C   UNL A   1      44.860  28.622  33.360  1.00  0.00     0.031 C 
ATOM     50  C   UNL A   1      39.394  30.867  29.792  1.00  0.00     0.029 A 
ATOM     51  C   UNL A   1      39.602  31.500  31.094  1.00  0.00     0.049 A 
ATOM     52  H   UNL A   1      41.155  31.141  32.434  1.00  0.00     0.167 HD
ATOM     53  C   UNL A   1      44.489  30.274  35.161  1.00  0.00     0.031 A 
ATOM     54  C   UNL A   1      38.814  32.444  31.649  1.00  0.00     0.031 A 
ATOM     55  C   UNL A   1      43.747  31.330  35.793  1.00  0.00     0.049 A 
ATOM     56  C   UNL A   1      39.178  33.002  33.003  1.00  0.00     0.074 A 
ATOM     57  C   UNL A   1      44.022  31.979  36.984  1.00  0.00     0.029 A 
ATOM     58  N   UNL A   1      42.579  31.885  35.294  1.00  0.00    -0.354 N 
ATOM     59  N   UNL A   1      40.211  32.720  33.762  1.00  0.00    -0.248 NA
ATOM     60  C   UNL A   1      38.274  34.012  33.571  1.00  0.00     0.031 C 
ATOM     61  C   UNL A   1      42.983  32.879  37.237  1.00  0.00     0.029 A 
ATOM     62  C   UNL A   1      42.102  32.846  36.167  1.00  0.00     0.049 A 
ATOM     63  H   UNL A   1      42.151  31.631  34.444  1.00  0.00     0.167 HD
ATOM     64  C   UNL A   1      40.098  33.543  34.880  1.00  0.00     0.074 A 
ATOM     65  C   UNL A   1      38.904  34.339  34.691  1.00  0.00     0.031 C 
ATOM     66  C   UNL A   1      40.912  33.635  35.962  1.00  0.00     0.031 A 
BRANCH  53  67
ATOM     67  C   UNL A   1      45.708  29.730  35.857  1.00  0.00    -0.014 A 
ATOM     68  C   UNL A   1      45.608  28.714  36.825  1.00  0.00     0.010 A 
ATOM     69  C   UNL A   1      46.979  30.225  35.513  1.00  0.00     0.010 A 
ATOM     70  C   UNL A   1      46.754  28.228  37.460  1.00  0.00     0.020 A 
ATOM     71  C   UNL A   1      48.130  29.720  36.124  1.00  0.00     0.020 A 
ATOM     72  C   UNL A   1      48.008  28.735  37.105  1.00  0.00     0.054 A 
BRANCH  72  73
ATOM     73  S   UNL A   1      49.480  28.064  37.924  1.00  0.00     0.124 S 
ATOM     74  O   UNL A   1      50.552  28.831  37.293  1.00  0.00    -0.237 OA
ATOM     75  O   UNL A   1      49.231  28.373  39.329  1.00  0.00    -0.237 OA
ATOM     76  O   UNL A   1      49.449  26.643  37.586  1.00  0.00    -0.744 OA
ENDBRANCH  72  73
ENDBRANCH  53  67
BRANCH  54  77
ATOM     77  C   UNL A   1      37.587  32.906  30.941  1.00  0.00    -0.014 A 
ATOM     78  C   UNL A   1      37.621  34.024  30.088  1.00  0.00     0.010 A 
ATOM     79  C   UNL A   1      36.366  32.231  31.130  1.00  0.00     0.010 A 
ATOM     80  C   UNL A   1      36.455  34.469  29.455  1.00  0.00     0.020 A 
ATOM     81  C   UNL A   1      35.207  32.653  30.474  1.00  0.00     0.020 A 
ATOM     82  C   UNL A   1      35.256  33.777  29.649  1.00  0.00     0.054 A 
BRANCH  82  83
ATOM     83  S   UNL A   1      33.769  34.345  28.778  1.00  0.00     0.124 S 
ATOM     84  O   UNL A   1      34.254  35.537  28.092  1.00  0.00    -0.237 OA
ATOM     85  O   UNL A   1      33.453  33.204  27.922  1.00  0.00    -0.237 OA
ATOM     86  O   UNL A   1      32.813  34.588  29.857  1.00  0.00    -0.744 OA
ENDBRANCH  82  83
ENDBRANCH  54  77
BRANCH  66  87
ATOM     87  C   UNL A   1      40.572  34.663  37.009  1.00  0.00    -0.014 A 
ATOM     88  C   UNL A   1      41.255  35.890  37.085  1.00  0.00     0.010 A 
ATOM     89  C   UNL A   1      39.501  34.420  37.891  1.00  0.00     0.010 A 
ATOM     90  C   UNL A   1      40.894  36.841  38.044  1.00  0.00     0.020 A 
ATOM     91  C   UNL A   1      39.116  35.381  38.828  1.00  0.00     0.020 A 
ATOM     92  C   UNL A   1      39.825  36.581  38.908  1.00  0.00     0.054 A 
BRANCH  92  93
ATOM     93  S   UNL A   1      39.347  37.850  40.113  1.00  0.00     0.124 S 
ATOM     94  O   UNL A   1      38.128  38.391  39.516  1.00  0.00    -0.237 OA
ATOM     95  O   UNL A   1      39.157  37.074  41.336  1.00  0.00    -0.237 OA
ATOM     96  O   UNL A   1      40.488  38.760  40.130  1.00  0.00    -0.744 OA
ENDBRANCH  92  93
ENDBRANCH  66  87
ENDBRANCH  40  41
ENDBRANCH  33  35
ENDBRANCH  32  33
ENDBRANCH  31  32
ENDBRANCH  30  31
ENDBRANCH  29  30
ENDBRANCH  28  29
ENDBRANCH  27  28
ENDBRANCH  26  27
ENDBRANCH   1  26
TORSDOF 28
ENDMDL
MODEL 2
REMARK VINA RESULT:      -8.0      1.757      2.407
REMARK SMILES CC(=O)c1cc(C(=O)N(CC(=O)OCCOCCOCCOCCOC(=O)c2ccc(-c3c4nc(c(-c5ccc(S(=O)(=O)[O-])cc5)c5ccc([nH]5)c(-c5ccc(S(=O)(=O)[O-])cc5)c5nc(c(-c6ccc(S(=O)(=O)[O-])cc6)c6ccc3[nH]6)C=C5)C=C4)cc2)C(C)(C)C)n(C)c1
REMARK SMILES IDX 18 1 17 2 16 3 15 4 14 5 13 6 11 7 12 8 10 9 9 10 7 11 8 12
REMARK SMILES IDX 6 13 4 14 5 15 94 16 92 17 93 18 2 19 1 20 3 21 88 22 89 23
REMARK SMILES IDX 90 24 91 25 19 26 20 27 21 28 22 29 23 30 24 31 25 32 26 33
REMARK SMILES IDX 27 34 28 35 29 36 87 37 30 38 86 39 31 40 32 41 33 42 80 43
REMARK SMILES IDX 34 44 85 45 79 46 81 47 35 48 84 49 78 50 77 51 36 53 66 54
REMARK SMILES IDX 47 55 65 56 48 57 51 58 64 59 82 60 49 61 50 62 63 64 83 65
REMARK SMILES IDX 52 66 37 67 38 68 46 69 39 70 45 71 40 72 41 73 42 74 43 75
REMARK SMILES IDX 44 76 67 77 68 78 76 79 69 80 75 81 70 82 71 83 72 84 73 85
REMARK SMILES IDX 74 86 53 87 54 88 62 89 55 90 61 91 56 92 57 93 58 94 59 95
REMARK SMILES IDX 60 96
REMARK H PARENT 81 52 51 63
REMARK Flexibility Score: inf
ROOT
ATOM      1  C   UNL A   1      37.311  22.564  24.772  1.00  0.00     0.188 C 
ENDROOT
BRANCH   1   2
ATOM      2  C   UNL A   1      35.946  23.278  24.811  1.00  0.00     0.188 C 
BRANCH   2   3
ATOM      3  O   UNL A   1      34.843  22.820  24.034  1.00  0.00    -0.376 OA
BRANCH   3   4
ATOM      4  C   UNL A   1      33.744  22.184  24.666  1.00  0.00     0.202 C 
BRANCH   4   5
ATOM      5  C   UNL A   1      32.877  23.050  25.599  1.00  0.00     0.261 C 
BRANCH   5   6
ATOM      6  O   UNL A   1      31.497  23.252  25.209  1.00  0.00    -0.462 OA
BRANCH   6   7
ATOM      7  C   UNL A   1      31.303  23.668  23.934  1.00  0.00     0.325 C 
ATOM      8  O   UNL A   1      30.805  22.966  23.054  1.00  0.00    -0.250 OA
BRANCH   7   9
ATOM      9  C   UNL A   1      31.937  25.032  23.553  1.00  0.00     0.243 C 
BRANCH   9  10
ATOM     10  N   UNL A   1      31.784  26.508  23.615  1.00  0.00    -0.321 N 
BRANCH  10  11
ATOM     11  C   UNL A   1      31.088  27.223  22.605  1.00  0.00     0.271 C 
ATOM     12  O   UNL A   1      31.569  27.257  21.469  1.00  0.00    -0.267 OA
BRANCH  11  13
ATOM     13  C   UNL A   1      29.810  27.933  22.812  1.00  0.00     0.107 A 
ATOM     14  C   UNL A   1      28.399  29.764  22.788  1.00  0.00     0.036 A 
ATOM     15  C   UNL A   1      29.696  29.290  22.489  1.00  0.00     0.045 A 
ATOM     16  C   UNL A   1      27.718  28.672  23.271  1.00  0.00     0.097 A 
ATOM     17  N   UNL A   1      28.589  27.615  23.400  1.00  0.00    -0.346 N 
ATOM     18  C   UNL A   1      28.161  26.435  24.128  1.00  0.00     0.150 C 
BRANCH  14  19
ATOM     19  C   UNL A   1      27.837  31.104  22.656  1.00  0.00     0.161 C 
ATOM     20  C   UNL A   1      28.304  31.959  21.507  1.00  0.00     0.093 C 
ATOM     21  O   UNL A   1      27.003  31.526  23.457  1.00  0.00    -0.294 OA
ENDBRANCH  14  19
ENDBRANCH  11  13
ENDBRANCH  10  11
BRANCH  10  22
ATOM     22  C   UNL A   1      32.316  27.318  24.797  1.00  0.00     0.036 C 
ATOM     23  C   UNL A   1      31.244  27.422  25.909  1.00  0.00     0.034 C 
ATOM     24  C   UNL A   1      33.581  26.684  25.463  1.00  0.00     0.034 C 
ATOM     25  C   UNL A   1      32.832  28.718  24.390  1.00  0.00     0.034 C 
ENDBRANCH  10  22
ENDBRANCH   9  10
ENDBRANCH   7   9
ENDBRANCH   6   7
ENDBRANCH   5   6
ENDBRANCH   4   5
ENDBRANCH   3   4
ENDBRANCH   2   3
ENDBRANCH   1   2
BRANCH   1  26
ATOM     26  O   UNL A   1      37.490  21.602  25.785  1.00  0.00    -0.377 OA
BRANCH  26  27
ATOM     27  C   UNL A   1      38.746  20.959  25.797  1.00  0.00     0.188 C 
BRANCH  27  28
ATOM     28  C   UNL A   1      39.920  21.841  26.252  1.00  0.00     0.188 C 
BRANCH  28  29
ATOM     29  O   UNL A   1      40.961  21.089  26.865  1.00  0.00    -0.376 OA
BRANCH  29  30
ATOM     30  C   UNL A   1      42.316  21.380  26.583  1.00  0.00     0.202 C 
BRANCH  30  31
ATOM     31  C   UNL A   1      42.701  22.607  25.736  1.00  0.00     0.261 C 
BRANCH  31  32
ATOM     32  O   UNL A   1      43.805  23.401  26.177  1.00  0.00    -0.460 OA
BRANCH  32  33
ATOM     33  C   UNL A   1      43.857  24.677  25.737  1.00  0.00     0.338 C 
ATOM     34  O   UNL A   1      44.190  25.044  24.621  1.00  0.00    -0.246 OA
BRANCH  33  35
ATOM     35  C   UNL A   1      43.232  25.545  26.761  1.00  0.00     0.060 A 
ATOM     36  C   UNL A   1      43.524  26.914  26.737  1.00  0.00     0.016 A 
ATOM     37  C   UNL A   1      42.348  25.030  27.715  1.00  0.00     0.016 A 
ATOM     38  C   UNL A   1      42.952  27.772  27.674  1.00  0.00     0.010 A 
ATOM     39  C   UNL A   1      41.812  25.884  28.686  1.00  0.00     0.010 A 
ATOM     40  C   UNL A   1      42.139  27.251  28.688  1.00  0.00    -0.014 A 
BRANCH  40  41
ATOM     41  C   UNL A   1      41.858  28.093  29.875  1.00  0.00     0.031 A 
ATOM     42  C   UNL A   1      42.744  27.915  31.080  1.00  0.00     0.074 A 
ATOM     43  C   UNL A   1      40.891  29.026  29.872  1.00  0.00     0.049 A 
ATOM     44  N   UNL A   1      42.708  28.526  32.234  1.00  0.00    -0.248 NA
ATOM     45  C   UNL A   1      43.820  26.915  30.959  1.00  0.00     0.031 C 
ATOM     46  C   UNL A   1      40.013  29.336  28.744  1.00  0.00     0.029 A 
ATOM     47  N   UNL A   1      40.487  29.889  30.861  1.00  0.00    -0.354 N 
ATOM     48  C   UNL A   1      43.749  27.983  32.978  1.00  0.00     0.074 A 
ATOM     49  C   UNL A   1      44.382  26.975  32.157  1.00  0.00     0.031 C 
ATOM     50  C   UNL A   1      39.165  30.315  29.110  1.00  0.00     0.029 A 
ATOM     51  C   UNL A   1      39.419  30.676  30.505  1.00  0.00     0.049 A 
ATOM     52  H   UNL A   1      40.923  29.941  31.742  1.00  0.00     0.167 HD
ATOM     53  C   UNL A   1      44.146  28.294  34.234  1.00  0.00     0.031 A 
ATOM     54  C   UNL A   1      38.714  31.569  31.230  1.00  0.00     0.031 A 
ATOM     55  C   UNL A   1      43.497  29.279  35.055  1.00  0.00     0.049 A 
ATOM     56  C   UNL A   1      39.115  31.834  32.660  1.00  0.00     0.074 A 
ATOM     57  C   UNL A   1      43.819  29.671  36.342  1.00  0.00     0.029 A 
ATOM     58  N   UNL A   1      42.386  30.017  34.677  1.00  0.00    -0.354 N 
ATOM     59  N   UNL A   1      40.114  31.327  33.346  1.00  0.00    -0.248 NA
ATOM     60  C   UNL A   1      38.300  32.798  33.413  1.00  0.00     0.031 C 
ATOM     61  C   UNL A   1      42.862  30.598  36.766  1.00  0.00     0.029 A 
ATOM     62  C   UNL A   1      41.990  30.840  35.716  1.00  0.00     0.049 A 
ATOM     63  H   UNL A   1      41.944  29.963  33.799  1.00  0.00     0.167 HD
ATOM     64  C   UNL A   1      40.066  31.937  34.596  1.00  0.00     0.074 A 
ATOM     65  C   UNL A   1      38.949  32.857  34.568  1.00  0.00     0.031 C 
ATOM     66  C   UNL A   1      40.876  31.755  35.670  1.00  0.00     0.031 A 
BRANCH  53  67
ATOM     67  C   UNL A   1      45.306  27.526  34.807  1.00  0.00    -0.014 A 
ATOM     68  C   UNL A   1      45.117  26.302  35.474  1.00  0.00     0.010 A 
ATOM     69  C   UNL A   1      46.612  28.024  34.647  1.00  0.00     0.010 A 
ATOM     70  C   UNL A   1      46.210  25.609  36.001  1.00  0.00     0.020 A 
ATOM     71  C   UNL A   1      47.710  27.319  35.146  1.00  0.00     0.020 A 
ATOM     72  C   UNL A   1      47.500  26.122  35.834  1.00  0.00     0.054 A 
BRANCH  72  73
ATOM     73  S   UNL A   1      48.902  25.186  36.502  1.00  0.00     0.124 S 
ATOM     74  O   UNL A   1      49.995  26.148  36.375  1.00  0.00    -0.237 OA
ATOM     75  O   UNL A   1      48.473  24.901  37.868  1.00  0.00    -0.237 OA
ATOM     76  O   UNL A   1      48.993  24.022  35.624  1.00  0.00    -0.744 OA
ENDBRANCH  72  73
ENDBRANCH  53  67
BRANCH  54  77
ATOM     77  C   UNL A   1      37.538  32.260  30.630  1.00  0.00    -0.014 A 
ATOM     78  C   UNL A   1      37.704  33.232  29.627  1.00  0.00     0.010 A 
ATOM     79  C   UNL A   1      36.237  31.956  31.074  1.00  0.00     0.010 A 
ATOM     80  C   UNL A   1      36.595  33.899  29.095  1.00  0.00     0.020 A 
ATOM     81  C   UNL A   1      35.125  32.597  30.522  1.00  0.00     0.020 A 
ATOM     82  C   UNL A   1      35.312  33.573  29.543  1.00  0.00     0.054 A 
BRANCH  82  83
ATOM     83  S   UNL A   1      33.886  34.417  28.802  1.00  0.00     0.124 S 
ATOM     84  O   UNL A   1      33.474  33.471  27.771  1.00  0.00    -0.237 OA
ATOM     85  O   UNL A   1      32.978  34.554  29.938  1.00  0.00    -0.237 OA
ATOM     86  O   UNL A   1      34.451  35.672  28.310  1.00  0.00    -0.744 OA
ENDBRANCH  82  83
ENDBRANCH  54  77
BRANCH  66  87
ATOM     87  C   UNL A   1      40.621  32.600  36.891  1.00  0.00    -0.014 A 
ATOM     88  C   UNL A   1      41.421  32.488  38.043  1.00  0.00     0.010 A 
ATOM     89  C   UNL A   1      39.603  33.572  36.856  1.00  0.00     0.010 A 
ATOM     90  C   UNL A   1      41.184  33.311  39.149  1.00  0.00     0.020 A 
ATOM     91  C   UNL A   1      39.386  34.418  37.946  1.00  0.00     0.020 A 
ATOM     92  C   UNL A   1      40.169  34.272  39.092  1.00  0.00     0.054 A 
BRANCH  92  93
ATOM     93  S   UNL A   1      39.913  35.357  40.523  1.00  0.00     0.124 S 
ATOM     94  O   UNL A   1      38.744  36.132  40.111  1.00  0.00    -0.237 OA
ATOM     95  O   UNL A   1      39.686  34.406  41.608  1.00  0.00    -0.237 OA
ATOM     96  O   UNL A   1      41.160  36.112  40.614  1.00  0.00    -0.744 OA
ENDBRANCH  92  93
ENDBRANCH  66  87
ENDBRANCH  40  41
ENDBRANCH  33  35
ENDBRANCH  32  33
ENDBRANCH  31  32
ENDBRANCH  30  31
ENDBRANCH  29  30
ENDBRANCH  28  29
ENDBRANCH  27  28
ENDBRANCH  26  27
ENDBRANCH   1  26
TORSDOF 28
ENDMDL
MODEL 3
REMARK VINA RESULT:      -8.0      6.223      8.853
REMARK SMILES CC(=O)c1cc(C(=O)N(CC(=O)OCCOCCOCCOCCOC(=O)c2ccc(-c3c4nc(c(-c5ccc(S(=O)(=O)[O-])cc5)c5ccc([nH]5)c(-c5ccc(S(=O)(=O)[O-])cc5)c5nc(c(-c6ccc(S(=O)(=O)[O-])cc6)c6ccc3[nH]6)C=C5)C=C4)cc2)C(C)(C)C)n(C)c1
REMARK SMILES IDX 18 1 17 2 16 3 15 4 14 5 13 6 11 7 12 8 10 9 9 10 7 11 8 12
REMARK SMILES IDX 6 13 4 14 5 15 94 16 92 17 93 18 2 19 1 20 3 21 88 22 89 23
REMARK SMILES IDX 90 24 91 25 19 26 20 27 21 28 22 29 23 30 24 31 25 32 26 33
REMARK SMILES IDX 27 34 28 35 29 36 87 37 30 38 86 39 31 40 32 41 33 42 80 43
REMARK SMILES IDX 34 44 85 45 79 46 81 47 35 48 84 49 78 50 77 51 36 53 66 54
REMARK SMILES IDX 47 55 65 56 48 57 51 58 64 59 82 60 49 61 50 62 63 64 83 65
REMARK SMILES IDX 52 66 37 67 38 68 46 69 39 70 45 71 40 72 41 73 42 74 43 75
REMARK SMILES IDX 44 76 67 77 68 78 76 79 69 80 75 81 70 82 71 83 72 84 73 85
REMARK SMILES IDX 74 86 53 87 54 88 62 89 55 90 61 91 56 92 57 93 58 94 59 95
REMARK SMILES IDX 60 96
REMARK H PARENT 81 52 51 63
REMARK Flexibility Score: inf
ROOT
ATOM      1  C   UNL A   1      42.410  21.157  27.009  1.00  0.00     0.188 C 
ENDROOT
BRANCH   1   2
ATOM      2  C   UNL A   1      40.937  20.932  27.401  1.00  0.00     0.188 C 
BRANCH   2   3
ATOM      3  O   UNL A   1      39.946  20.617  26.426  1.00  0.00    -0.376 OA
BRANCH   3   4
ATOM      4  C   UNL A   1      39.240  21.656  25.768  1.00  0.00     0.202 C 
BRANCH   4   5
ATOM      5  C   UNL A   1      37.934  21.268  25.050  1.00  0.00     0.261 C 
BRANCH   5   6
ATOM      6  O   UNL A   1      36.700  21.763  25.626  1.00  0.00    -0.462 OA
BRANCH   6   7
ATOM      7  C   UNL A   1      36.293  22.978  25.183  1.00  0.00     0.325 C 
ATOM      8  O   UNL A   1      37.063  23.860  24.802  1.00  0.00    -0.250 OA
BRANCH   7   9
ATOM      9  C   UNL A   1      34.789  23.308  25.369  1.00  0.00     0.243 C 
BRANCH   9  10
ATOM     10  N   UNL A   1      33.540  23.736  24.687  1.00  0.00    -0.321 N 
BRANCH  10  11
ATOM     11  C   UNL A   1      33.518  24.864  23.825  1.00  0.00     0.271 C 
ATOM     12  O   UNL A   1      33.502  24.674  22.606  1.00  0.00    -0.267 OA
BRANCH  11  13
ATOM     13  C   UNL A   1      33.505  26.268  24.284  1.00  0.00     0.107 A 
ATOM     14  C   UNL A   1      33.174  27.975  25.807  1.00  0.00     0.036 A 
ATOM     15  C   UNL A   1      33.134  26.578  25.597  1.00  0.00     0.045 A 
ATOM     16  C   UNL A   1      33.600  28.508  24.614  1.00  0.00     0.097 A 
ATOM     17  N   UNL A   1      33.680  27.506  23.673  1.00  0.00    -0.346 N 
ATOM     18  C   UNL A   1      33.859  27.864  22.278  1.00  0.00     0.150 C 
BRANCH  14  19
ATOM     19  C   UNL A   1      32.838  28.754  26.994  1.00  0.00     0.161 C 
ATOM     20  C   UNL A   1      31.579  28.399  27.742  1.00  0.00     0.093 C 
ATOM     21  O   UNL A   1      33.561  29.674  27.378  1.00  0.00    -0.294 OA
ENDBRANCH  14  19
ENDBRANCH  11  13
ENDBRANCH  10  11
BRANCH  10  22
ATOM     22  C   UNL A   1      32.239  22.949  24.835  1.00  0.00     0.036 C 
ATOM     23  C   UNL A   1      32.360  21.568  24.147  1.00  0.00     0.034 C 
ATOM     24  C   UNL A   1      31.851  22.668  26.323  1.00  0.00     0.034 C 
ATOM     25  C   UNL A   1      31.002  23.721  24.319  1.00  0.00     0.034 C 
ENDBRANCH  10  22
ENDBRANCH   9  10
ENDBRANCH   7   9
ENDBRANCH   6   7
ENDBRANCH   5   6
ENDBRANCH   4   5
ENDBRANCH   3   4
ENDBRANCH   2   3
ENDBRANCH   1   2
BRANCH   1  26
ATOM     26  O   UNL A   1      42.691  20.912  25.650  1.00  0.00    -0.377 OA
BRANCH  26  27
ATOM     27  C   UNL A   1      43.739  20.001  25.402  1.00  0.00     0.188 C 
BRANCH  27  28
ATOM     28  C   UNL A   1      45.099  20.648  25.093  1.00  0.00     0.188 C 
BRANCH  28  29
ATOM     29  O   UNL A   1      45.058  21.481  23.939  1.00  0.00    -0.376 OA
BRANCH  29  30
ATOM     30  C   UNL A   1      44.565  22.803  24.028  1.00  0.00     0.202 C 
BRANCH  30  31
ATOM     31  C   UNL A   1      45.486  23.963  24.446  1.00  0.00     0.261 C 
BRANCH  31  32
ATOM     32  O   UNL A   1      45.467  24.371  25.817  1.00  0.00    -0.460 OA
BRANCH  32  33
ATOM     33  C   UNL A   1      46.652  24.688  26.380  1.00  0.00     0.338 C 
ATOM     34  O   UNL A   1      47.620  23.952  26.493  1.00  0.00    -0.246 OA
BRANCH  33  35
ATOM     35  C   UNL A   1      46.666  26.146  26.637  1.00  0.00     0.060 A 
ATOM     36  C   UNL A   1      47.125  26.595  27.882  1.00  0.00     0.016 A 
ATOM     37  C   UNL A   1      46.262  27.064  25.663  1.00  0.00     0.016 A 
ATOM     38  C   UNL A   1      47.164  27.958  28.167  1.00  0.00     0.010 A 
ATOM     39  C   UNL A   1      46.256  28.431  25.968  1.00  0.00     0.010 A 
ATOM     40  C   UNL A   1      46.676  28.878  27.233  1.00  0.00    -0.014 A 
BRANCH  40  41
ATOM     41  C   UNL A   1      46.371  30.256  27.686  1.00  0.00     0.031 A 
ATOM     42  C   UNL A   1      45.090  30.470  28.448  1.00  0.00     0.074 A 
ATOM     43  C   UNL A   1      47.223  31.276  27.484  1.00  0.00     0.049 A 
ATOM     44  N   UNL A   1      44.598  31.571  28.951  1.00  0.00    -0.248 NA
ATOM     45  C   UNL A   1      44.257  29.277  28.678  1.00  0.00     0.031 C 
ATOM     46  C   UNL A   1      48.521  31.179  26.819  1.00  0.00     0.029 A 
ATOM     47  N   UNL A   1      47.117  32.601  27.825  1.00  0.00    -0.354 N 
ATOM     48  C   UNL A   1      43.398  31.205  29.550  1.00  0.00     0.074 A 
ATOM     49  C   UNL A   1      43.222  29.787  29.327  1.00  0.00     0.031 C 
ATOM     50  C   UNL A   1      49.087  32.399  26.791  1.00  0.00     0.029 A 
ATOM     51  C   UNL A   1      48.179  33.367  27.406  1.00  0.00     0.049 A 
ATOM     52  H   UNL A   1      46.353  32.970  28.325  1.00  0.00     0.167 HD
ATOM     53  C   UNL A   1      42.519  31.979  30.228  1.00  0.00     0.031 A 
ATOM     54  C   UNL A   1      48.380  34.698  27.491  1.00  0.00     0.031 A 
ATOM     55  C   UNL A   1      42.685  33.393  30.426  1.00  0.00     0.049 A 
ATOM     56  C   UNL A   1      47.342  35.557  28.170  1.00  0.00     0.074 A 
ATOM     57  C   UNL A   1      41.853  34.270  31.098  1.00  0.00     0.029 A 
ATOM     58  N   UNL A   1      43.748  34.139  29.941  1.00  0.00    -0.354 N 
ATOM     59  N   UNL A   1      46.221  35.195  28.748  1.00  0.00    -0.248 NA
ATOM     60  C   UNL A   1      47.601  37.003  28.214  1.00  0.00     0.031 C 
ATOM     61  C   UNL A   1      42.380  35.558  30.962  1.00  0.00     0.029 A 
ATOM     62  C   UNL A   1      43.579  35.471  30.271  1.00  0.00     0.049 A 
ATOM     63  H   UNL A   1      44.510  33.775  29.435  1.00  0.00     0.167 HD
ATOM     64  C   UNL A   1      45.660  36.364  29.255  1.00  0.00     0.074 A 
ATOM     65  C   UNL A   1      46.570  37.440  28.924  1.00  0.00     0.031 C 
ATOM     66  C   UNL A   1      44.499  36.531  29.937  1.00  0.00     0.031 A 
BRANCH  53  67
ATOM     67  C   UNL A   1      41.277  31.316  30.762  1.00  0.00    -0.014 A 
ATOM     68  C   UNL A   1      40.106  31.220  29.988  1.00  0.00     0.010 A 
ATOM     69  C   UNL A   1      41.294  30.752  32.051  1.00  0.00     0.010 A 
ATOM     70  C   UNL A   1      38.965  30.604  30.508  1.00  0.00     0.020 A 
ATOM     71  C   UNL A   1      40.164  30.108  32.562  1.00  0.00     0.020 A 
ATOM     72  C   UNL A   1      39.001  30.052  31.792  1.00  0.00     0.054 A 
BRANCH  72  73
ATOM     73  S   UNL A   1      37.515  29.231  32.427  1.00  0.00     0.124 S 
ATOM     74  O   UNL A   1      38.053  27.957  32.901  1.00  0.00    -0.237 OA
ATOM     75  O   UNL A   1      37.065  30.148  33.470  1.00  0.00    -0.237 OA
ATOM     76  O   UNL A   1      36.641  29.141  31.260  1.00  0.00    -0.744 OA
ENDBRANCH  72  73
ENDBRANCH  53  67
BRANCH  54  77
ATOM     77  C   UNL A   1      49.602  35.309  26.895  1.00  0.00    -0.014 A 
ATOM     78  C   UNL A   1      49.608  35.765  25.564  1.00  0.00     0.010 A 
ATOM     79  C   UNL A   1      50.779  35.425  27.659  1.00  0.00     0.010 A 
ATOM     80  C   UNL A   1      50.771  36.307  25.005  1.00  0.00     0.020 A 
ATOM     81  C   UNL A   1      51.933  35.994  27.114  1.00  0.00     0.020 A 
ATOM     82  C   UNL A   1      51.925  36.421  25.786  1.00  0.00     0.054 A 
BRANCH  82  83
ATOM     83  S   UNL A   1      53.405  37.172  25.053  1.00  0.00     0.124 S 
ATOM     84  O   UNL A   1      53.170  38.593  25.280  1.00  0.00    -0.237 OA
ATOM     85  O   UNL A   1      54.481  36.573  25.838  1.00  0.00    -0.237 OA
ATOM     86  O   UNL A   1      53.349  36.743  23.657  1.00  0.00    -0.744 OA
ENDBRANCH  82  83
ENDBRANCH  54  77
BRANCH  66  87
ATOM     87  C   UNL A   1      44.162  37.919  30.418  1.00  0.00    -0.014 A 
ATOM     88  C   UNL A   1      43.375  38.794  29.647  1.00  0.00     0.010 A 
ATOM     89  C   UNL A   1      44.586  38.327  31.696  1.00  0.00     0.010 A 
ATOM     90  C   UNL A   1      43.047  40.063  30.134  1.00  0.00     0.020 A 
ATOM     91  C   UNL A   1      44.232  39.581  32.200  1.00  0.00     0.020 A 
ATOM     92  C   UNL A   1      43.477  40.447  31.408  1.00  0.00     0.054 A 
BRANCH  92  93
ATOM     93  S   UNL A   1      42.999  42.081  32.035  1.00  0.00     0.124 S 
ATOM     94  O   UNL A   1      43.457  42.963  30.964  1.00  0.00    -0.237 OA
ATOM     95  O   UNL A   1      41.550  41.959  32.172  1.00  0.00    -0.237 OA
ATOM     96  O   UNL A   1      43.730  42.198  33.293  1.00  0.00    -0.744 OA
ENDBRANCH  92  93
ENDBRANCH  66  87
ENDBRANCH  40  41
ENDBRANCH  33  35
ENDBRANCH  32  33
ENDBRANCH  31  32
ENDBRANCH  30  31
ENDBRANCH  29  30
ENDBRANCH  28  29
ENDBRANCH  27  28
ENDBRANCH  26  27
ENDBRANCH   1  26
TORSDOF 28
ENDMDL
