MODEL 1
REMARK VINA RESULT:      -8.3      0.000      0.000
REMARK SMILES O=C(CN1C(=O)N[C@@](CCC(=O)OCCOCCOCCOCCOC(=O)c2ccc(-c3c4nc(c(-c5ccc(S(=O)(=O)[O-])cc5)c5ccc([nH]5)c(-c5ccc(S(=O)(=O)[O-])cc5)c5nc(c(-c6ccc(S(=O)(=O)[O-])cc6)c6ccc3[nH]6)C=C5)C=C4)cc2)(c2ccccc2)C1=O)Nc1cccc(F)c1
REMARK SMILES IDX 18 1 17 2 16 3 15 4 14 5 13 6 11 7 12 8 10 9 9 10 8 11 4 12
REMARK SMILES IDX 5 13 94 14 6 15 7 16 95 17 3 19 2 20 1 21 96 22 97 24 98 25
REMARK SMILES IDX 103 26 99 27 101 28 100 29 102 30 88 31 89 32 93 33 90 34
REMARK SMILES IDX 92 35 91 36 19 37 20 38 21 39 22 40 23 41 24 42 25 43 26 44
REMARK SMILES IDX 27 45 28 46 29 47 87 48 30 49 86 50 31 51 32 52 33 53 80 54
REMARK SMILES IDX 34 55 85 56 79 57 81 58 35 59 84 60 78 61 77 62 36 64 66 65
REMARK SMILES IDX 47 66 65 67 48 68 51 69 64 70 82 71 49 72 50 73 63 75 83 76
REMARK SMILES IDX 52 77 37 78 38 79 46 80 39 81 45 82 40 83 41 84 42 85 43 86
REMARK SMILES IDX 44 87 67 88 68 89 76 90 69 91 75 92 70 93 71 94 72 95 73 96
REMARK SMILES IDX 74 97 53 98 54 99 62 100 55 101 61 102 56 103 57 104 58 105
REMARK SMILES IDX 59 106 60 107
REMARK H PARENT 7 18 96 23 81 63 51 74
REMARK Flexibility Score: inf
ROOT
ATOM      1  C   UNL A   1      37.022  32.556  29.395  1.00  0.00     0.188 C 
ENDROOT
BRANCH   1   2
ATOM      2  C   UNL A   1      36.334  32.999  28.104  1.00  0.00     0.188 C 
BRANCH   2   3
ATOM      3  O   UNL A   1      35.407  32.013  27.687  1.00  0.00    -0.376 OA
BRANCH   3   4
ATOM      4  C   UNL A   1      34.047  32.380  27.789  1.00  0.00     0.202 C 
BRANCH   4   5
ATOM      5  C   UNL A   1      33.111  31.174  27.658  1.00  0.00     0.261 C 
BRANCH   5   6
ATOM      6  O   UNL A   1      33.787  29.911  27.503  1.00  0.00    -0.463 OA
BRANCH   6   7
ATOM      7  C   UNL A   1      33.056  28.886  26.995  1.00  0.00     0.305 C 
ATOM      8  O   UNL A   1      32.323  28.150  27.644  1.00  0.00    -0.252 OA
BRANCH   7   9
ATOM      9  C   UNL A   1      33.329  28.694  25.518  1.00  0.00     0.126 C 
BRANCH   9  10
ATOM     10  C   UNL A   1      33.713  27.270  25.089  1.00  0.00     0.055 C 
BRANCH  10  11
ATOM     11  C   UNL A   1      32.664  26.541  24.210  1.00  0.00     0.147 C 
ATOM     12  N   UNL A   1      32.268  24.183  24.226  1.00  0.00    -0.252 N 
ATOM     13  C   UNL A   1      33.028  24.476  23.133  1.00  0.00     0.325 C 
ATOM     14  C   UNL A   1      32.086  25.314  24.975  1.00  0.00     0.261 C 
ATOM     15  O   UNL A   1      33.343  23.729  22.225  1.00  0.00    -0.248 OA
ATOM     16  N   UNL A   1      33.333  25.814  23.148  1.00  0.00    -0.319 N 
ATOM     17  O   UNL A   1      31.540  25.338  26.070  1.00  0.00    -0.271 OA
ATOM     18  H   UNL A   1      33.944  26.237  22.502  1.00  0.00     0.166 HD
BRANCH  12  19
ATOM     19  C   UNL A   1      31.370  23.042  24.230  1.00  0.00     0.230 C 
BRANCH  19  20
ATOM     20  C   UNL A   1      31.819  21.617  24.561  1.00  0.00     0.244 C 
ATOM     21  O   UNL A   1      31.522  21.154  25.663  1.00  0.00    -0.273 OA
ATOM     22  N   UNL A   1      32.521  20.947  23.585  1.00  0.00    -0.324 N 
ATOM     23  H   UNL A   1      32.660  21.428  22.737  1.00  0.00     0.170 HD
BRANCH  22  24
ATOM     24  C   UNL A   1      33.063  19.646  23.668  1.00  0.00     0.044 A 
ATOM     25  C   UNL A   1      32.414  18.634  22.944  1.00  0.00     0.026 A 
ATOM     26  C   UNL A   1      34.206  19.318  24.401  1.00  0.00     0.065 A 
ATOM     27  C   UNL A   1      32.903  17.323  22.946  1.00  0.00     0.005 A 
ATOM     28  C   UNL A   1      34.690  18.013  24.389  1.00  0.00     0.125 A 
ATOM     29  C   UNL A   1      34.051  17.013  23.668  1.00  0.00     0.039 A 
ATOM     30  F   UNL A   1      35.797  17.713  25.083  1.00  0.00    -0.207 F 
ENDBRANCH  22  24
ENDBRANCH  19  20
ENDBRANCH  12  19
BRANCH  11  31
ATOM     31  C   UNL A   1      31.481  27.353  23.680  1.00  0.00    -0.013 A 
ATOM     32  C   UNL A   1      30.159  26.981  23.947  1.00  0.00     0.007 A 
ATOM     33  C   UNL A   1      31.669  28.446  22.809  1.00  0.00     0.007 A 
ATOM     34  C   UNL A   1      29.074  27.707  23.450  1.00  0.00     0.000 A 
ATOM     35  C   UNL A   1      30.585  29.153  22.280  1.00  0.00     0.000 A 
ATOM     36  C   UNL A   1      29.287  28.796  22.621  1.00  0.00     0.000 A 
ENDBRANCH  11  31
ENDBRANCH  10  11
ENDBRANCH   9  10
ENDBRANCH   7   9
ENDBRANCH   6   7
ENDBRANCH   5   6
ENDBRANCH   4   5
ENDBRANCH   3   4
ENDBRANCH   2   3
ENDBRANCH   1   2
BRANCH   1  37
ATOM     37  O   UNL A   1      38.271  33.131  29.749  1.00  0.00    -0.377 OA
BRANCH  37  38
ATOM     38  C   UNL A   1      38.346  34.277  30.581  1.00  0.00     0.188 C 
BRANCH  38  39
ATOM     39  C   UNL A   1      37.557  34.318  31.892  1.00  0.00     0.188 C 
BRANCH  39  40
ATOM     40  O   UNL A   1      36.810  33.210  32.374  1.00  0.00    -0.376 OA
BRANCH  40  41
ATOM     41  C   UNL A   1      36.981  32.753  33.702  1.00  0.00     0.202 C 
BRANCH  41  42
ATOM     42  C   UNL A   1      37.442  31.307  33.905  1.00  0.00     0.261 C 
BRANCH  42  43
ATOM     43  O   UNL A   1      38.475  30.861  33.016  1.00  0.00    -0.460 OA
BRANCH  43  44
ATOM     44  C   UNL A   1      38.381  29.560  32.650  1.00  0.00     0.338 C 
ATOM     45  O   UNL A   1      37.369  28.953  32.351  1.00  0.00    -0.246 OA
BRANCH  44  46
ATOM     46  C   UNL A   1      39.715  28.931  32.587  1.00  0.00     0.060 A 
ATOM     47  C   UNL A   1      40.563  29.095  33.686  1.00  0.00     0.016 A 
ATOM     48  C   UNL A   1      40.193  28.357  31.404  1.00  0.00     0.016 A 
ATOM     49  C   UNL A   1      41.911  28.752  33.582  1.00  0.00     0.010 A 
ATOM     50  C   UNL A   1      41.549  28.019  31.301  1.00  0.00     0.010 A 
ATOM     51  C   UNL A   1      42.425  28.263  32.372  1.00  0.00    -0.014 A 
BRANCH  51  52
ATOM     52  C   UNL A   1      43.900  28.167  32.202  1.00  0.00     0.031 A 
ATOM     53  C   UNL A   1      44.648  27.045  32.870  1.00  0.00     0.074 A 
ATOM     54  C   UNL A   1      44.562  29.025  31.405  1.00  0.00     0.049 A 
ATOM     55  N   UNL A   1      45.915  26.729  32.778  1.00  0.00    -0.248 NA
ATOM     56  C   UNL A   1      43.868  26.159  33.748  1.00  0.00     0.031 C 
ATOM     57  C   UNL A   1      43.950  30.135  30.683  1.00  0.00     0.029 A 
ATOM     58  N   UNL A   1      45.889  29.091  31.060  1.00  0.00    -0.354 N 
ATOM     59  C   UNL A   1      46.084  25.605  33.579  1.00  0.00     0.074 A 
ATOM     60  C   UNL A   1      44.796  25.316  34.176  1.00  0.00     0.031 C 
ATOM     61  C   UNL A   1      44.897  30.774  29.974  1.00  0.00     0.029 A 
ATOM     62  C   UNL A   1      46.187  30.128  30.209  1.00  0.00     0.049 A 
ATOM     63  H   UNL A   1      46.564  28.456  31.393  1.00  0.00     0.167 HD
ATOM     64  C   UNL A   1      47.203  24.871  33.790  1.00  0.00     0.031 A 
ATOM     65  C   UNL A   1      47.364  30.517  29.682  1.00  0.00     0.031 A 
ATOM     66  C   UNL A   1      48.490  25.169  33.219  1.00  0.00     0.049 A 
ATOM     67  C   UNL A   1      48.608  29.724  29.984  1.00  0.00     0.074 A 
ATOM     68  C   UNL A   1      49.678  24.474  33.367  1.00  0.00     0.029 A 
ATOM     69  N   UNL A   1      48.762  26.255  32.403  1.00  0.00    -0.354 N 
ATOM     70  N   UNL A   1      48.737  28.640  30.710  1.00  0.00    -0.248 NA
ATOM     71  C   UNL A   1      49.860  30.200  29.380  1.00  0.00     0.031 C 
ATOM     72  C   UNL A   1      50.681  25.168  32.680  1.00  0.00     0.029 A 
ATOM     73  C   UNL A   1      50.104  26.266  32.060  1.00  0.00     0.049 A 
ATOM     74  H   UNL A   1      48.100  26.921  32.110  1.00  0.00     0.167 HD
ATOM     75  C   UNL A   1      50.082  28.292  30.633  1.00  0.00     0.074 A 
ATOM     76  C   UNL A   1      50.719  29.270  29.774  1.00  0.00     0.031 C 
ATOM     77  C   UNL A   1      50.731  27.254  31.218  1.00  0.00     0.031 A 
BRANCH  64  78
ATOM     78  C   UNL A   1      47.083  23.682  34.705  1.00  0.00    -0.014 A 
ATOM     79  C   UNL A   1      47.961  23.510  35.790  1.00  0.00     0.010 A 
ATOM     80  C   UNL A   1      46.060  22.739  34.495  1.00  0.00     0.010 A 
ATOM     81  C   UNL A   1      47.843  22.397  36.627  1.00  0.00     0.020 A 
ATOM     82  C   UNL A   1      45.923  21.637  35.343  1.00  0.00     0.020 A 
ATOM     83  C   UNL A   1      46.827  21.465  36.395  1.00  0.00     0.054 A 
BRANCH  83  84
ATOM     84  S   UNL A   1      46.681  20.040  37.508  1.00  0.00     0.124 S 
ATOM     85  O   UNL A   1      45.895  19.108  36.701  1.00  0.00    -0.237 OA
ATOM     86  O   UNL A   1      48.073  19.659  37.728  1.00  0.00    -0.237 OA
ATOM     87  O   UNL A   1      45.994  20.582  38.678  1.00  0.00    -0.744 OA
ENDBRANCH  83  84
ENDBRANCH  64  78
BRANCH  65  88
ATOM     88  C   UNL A   1      47.427  31.725  28.815  1.00  0.00    -0.014 A 
ATOM     89  C   UNL A   1      47.791  32.975  29.346  1.00  0.00     0.010 A 
ATOM     90  C   UNL A   1      47.112  31.627  27.447  1.00  0.00     0.010 A 
ATOM     91  C   UNL A   1      47.828  34.108  28.527  1.00  0.00     0.020 A 
ATOM     92  C   UNL A   1      47.172  32.752  26.621  1.00  0.00     0.020 A 
ATOM     93  C   UNL A   1      47.520  33.989  27.169  1.00  0.00     0.054 A 
BRANCH  93  94
ATOM     94  S   UNL A   1      47.630  35.458  26.110  1.00  0.00     0.124 S 
ATOM     95  O   UNL A   1      46.262  35.585  25.621  1.00  0.00    -0.237 OA
ATOM     96  O   UNL A   1      48.068  36.491  27.047  1.00  0.00    -0.237 OA
ATOM     97  O   UNL A   1      48.624  35.081  25.107  1.00  0.00    -0.744 OA
ENDBRANCH  93  94
ENDBRANCH  65  88
BRANCH  77  98
ATOM     98  C   UNL A   1      52.202  27.112  30.927  1.00  0.00    -0.014 A 
ATOM     99  C   UNL A   1      53.163  27.816  31.675  1.00  0.00     0.010 A 
ATOM    100  C   UNL A   1      52.630  26.251  29.900  1.00  0.00     0.010 A 
ATOM    101  C   UNL A   1      54.522  27.702  31.366  1.00  0.00     0.020 A 
ATOM    102  C   UNL A   1      53.989  26.113  29.607  1.00  0.00     0.020 A 
ATOM    103  C   UNL A   1      54.925  26.858  30.327  1.00  0.00     0.054 A 
BRANCH 103 104
ATOM    104  S   UNL A   1      56.693  26.720  29.944  1.00  0.00     0.124 S 
ATOM    105  O   UNL A   1      57.011  28.072  29.492  1.00  0.00    -0.237 OA
ATOM    106  O   UNL A   1      57.274  26.333  31.229  1.00  0.00    -0.237 OA
ATOM    107  O   UNL A   1      56.743  25.688  28.910  1.00  0.00    -0.744 OA
ENDBRANCH 103 104
ENDBRANCH  77  98
ENDBRANCH  51  52
ENDBRANCH  44  46
ENDBRANCH  43  44
ENDBRANCH  42  43
ENDBRANCH  41  42
ENDBRANCH  40  41
ENDBRANCH  39  40
ENDBRANCH  38  39
ENDBRANCH  37  38
ENDBRANCH   1  37
TORSDOF 29
ENDMDL
MODEL 2
REMARK VINA RESULT:      -8.2      7.406     11.165
REMARK SMILES O=C(CN1C(=O)N[C@@](CCC(=O)OCCOCCOCCOCCOC(=O)c2ccc(-c3c4nc(c(-c5ccc(S(=O)(=O)[O-])cc5)c5ccc([nH]5)c(-c5ccc(S(=O)(=O)[O-])cc5)c5nc(c(-c6ccc(S(=O)(=O)[O-])cc6)c6ccc3[nH]6)C=C5)C=C4)cc2)(c2ccccc2)C1=O)Nc1cccc(F)c1
REMARK SMILES IDX 18 1 17 2 16 3 15 4 14 5 13 6 11 7 12 8 10 9 9 10 8 11 4 12
REMARK SMILES IDX 5 13 94 14 6 15 7 16 95 17 3 19 2 20 1 21 96 22 97 24 98 25
REMARK SMILES IDX 103 26 99 27 101 28 100 29 102 30 88 31 89 32 93 33 90 34
REMARK SMILES IDX 92 35 91 36 19 37 20 38 21 39 22 40 23 41 24 42 25 43 26 44
REMARK SMILES IDX 27 45 28 46 29 47 87 48 30 49 86 50 31 51 32 52 33 53 80 54
REMARK SMILES IDX 34 55 85 56 79 57 81 58 35 59 84 60 78 61 77 62 36 64 66 65
REMARK SMILES IDX 47 66 65 67 48 68 51 69 64 70 82 71 49 72 50 73 63 75 83 76
REMARK SMILES IDX 52 77 37 78 38 79 46 80 39 81 45 82 40 83 41 84 42 85 43 86
REMARK SMILES IDX 44 87 67 88 68 89 76 90 69 91 75 92 70 93 71 94 72 95 73 96
REMARK SMILES IDX 74 97 53 98 54 99 62 100 55 101 61 102 56 103 57 104 58 105
REMARK SMILES IDX 59 106 60 107
REMARK H PARENT 7 18 96 23 81 63 51 74
REMARK Flexibility Score: inf
ROOT
ATOM      1  C   UNL A   1      33.782  29.758  26.611  1.00  0.00     0.188 C 
ENDROOT
BRANCH   1   2
ATOM      2  C   UNL A   1      32.839  28.938  25.731  1.00  0.00     0.188 C 
BRANCH   2   3
ATOM      3  O   UNL A   1      31.572  28.825  26.354  1.00  0.00    -0.376 OA
BRANCH   3   4
ATOM      4  C   UNL A   1      31.311  27.583  26.972  1.00  0.00     0.202 C 
BRANCH   4   5
ATOM      5  C   UNL A   1      32.010  26.423  26.256  1.00  0.00     0.261 C 
BRANCH   5   6
ATOM      6  O   UNL A   1      31.115  25.483  25.632  1.00  0.00    -0.463 OA
BRANCH   6   7
ATOM      7  C   UNL A   1      31.034  24.250  26.194  1.00  0.00     0.305 C 
ATOM      8  O   UNL A   1      30.862  24.026  27.386  1.00  0.00    -0.252 OA
BRANCH   7   9
ATOM      9  C   UNL A   1      31.279  23.161  25.170  1.00  0.00     0.126 C 
BRANCH   9  10
ATOM     10  C   UNL A   1      32.333  23.475  24.099  1.00  0.00     0.055 C 
BRANCH  10  11
ATOM     11  C   UNL A   1      33.506  22.465  24.013  1.00  0.00     0.147 C 
ATOM     12  N   UNL A   1      35.761  22.930  24.659  1.00  0.00    -0.252 N 
ATOM     13  C   UNL A   1      35.687  23.009  23.300  1.00  0.00     0.325 C 
ATOM     14  C   UNL A   1      34.512  22.714  25.175  1.00  0.00     0.261 C 
ATOM     15  O   UNL A   1      36.605  23.141  22.513  1.00  0.00    -0.248 OA
ATOM     16  N   UNL A   1      34.383  22.823  22.913  1.00  0.00    -0.319 N 
ATOM     17  O   UNL A   1      34.249  22.709  26.371  1.00  0.00    -0.271 OA
ATOM     18  H   UNL A   1      34.075  22.922  21.984  1.00  0.00     0.166 HD
BRANCH  12  19
ATOM     19  C   UNL A   1      36.999  22.559  25.322  1.00  0.00     0.230 C 
BRANCH  19  20
ATOM     20  C   UNL A   1      37.850  23.541  26.128  1.00  0.00     0.244 C 
ATOM     21  O   UNL A   1      37.273  24.363  26.842  1.00  0.00    -0.273 OA
ATOM     22  N   UNL A   1      39.216  23.423  26.004  1.00  0.00    -0.324 N 
ATOM     23  H   UNL A   1      39.542  22.699  25.423  1.00  0.00     0.170 HD
BRANCH  22  24
ATOM     24  C   UNL A   1      40.199  24.229  26.619  1.00  0.00     0.044 A 
ATOM     25  C   UNL A   1      40.873  23.686  27.724  1.00  0.00     0.026 A 
ATOM     26  C   UNL A   1      40.550  25.508  26.182  1.00  0.00     0.065 A 
ATOM     27  C   UNL A   1      41.883  24.405  28.373  1.00  0.00     0.005 A 
ATOM     28  C   UNL A   1      41.563  26.211  26.828  1.00  0.00     0.125 A 
ATOM     29  C   UNL A   1      42.234  25.672  27.918  1.00  0.00     0.039 A 
ATOM     30  F   UNL A   1      41.904  27.431  26.390  1.00  0.00    -0.207 F 
ENDBRANCH  22  24
ENDBRANCH  19  20
ENDBRANCH  12  19
BRANCH  11  31
ATOM     31  C   UNL A   1      33.171  20.973  24.004  1.00  0.00    -0.013 A 
ATOM     32  C   UNL A   1      32.383  20.405  22.999  1.00  0.00     0.007 A 
ATOM     33  C   UNL A   1      33.551  20.126  25.066  1.00  0.00     0.007 A 
ATOM     34  C   UNL A   1      32.057  19.046  22.995  1.00  0.00     0.000 A 
ATOM     35  C   UNL A   1      33.197  18.774  25.085  1.00  0.00     0.000 A 
ATOM     36  C   UNL A   1      32.468  18.230  24.035  1.00  0.00     0.000 A 
ENDBRANCH  11  31
ENDBRANCH  10  11
ENDBRANCH   9  10
ENDBRANCH   7   9
ENDBRANCH   6   7
ENDBRANCH   5   6
ENDBRANCH   4   5
ENDBRANCH   3   4
ENDBRANCH   2   3
ENDBRANCH   1   2
BRANCH   1  37
ATOM     37  O   UNL A   1      34.619  29.088  27.544  1.00  0.00    -0.377 OA
BRANCH  37  38
ATOM     38  C   UNL A   1      35.961  29.495  27.754  1.00  0.00     0.188 C 
BRANCH  38  39
ATOM     39  C   UNL A   1      36.254  30.766  28.557  1.00  0.00     0.188 C 
BRANCH  39  40
ATOM     40  O   UNL A   1      36.140  30.824  29.972  1.00  0.00    -0.376 OA
BRANCH  40  41
ATOM     41  C   UNL A   1      36.881  29.938  30.788  1.00  0.00     0.202 C 
BRANCH  41  42
ATOM     42  C   UNL A   1      38.396  30.145  30.873  1.00  0.00     0.261 C 
BRANCH  42  43
ATOM     43  O   UNL A   1      39.034  29.554  32.013  1.00  0.00    -0.460 OA
BRANCH  43  44
ATOM     44  C   UNL A   1      38.910  30.264  33.159  1.00  0.00     0.338 C 
ATOM     45  O   UNL A   1      38.278  29.951  34.152  1.00  0.00    -0.246 OA
BRANCH  44  46
ATOM     46  C   UNL A   1      39.716  31.500  33.106  1.00  0.00     0.060 A 
ATOM     47  C   UNL A   1      41.061  31.416  33.477  1.00  0.00     0.016 A 
ATOM     48  C   UNL A   1      39.120  32.746  32.880  1.00  0.00     0.016 A 
ATOM     49  C   UNL A   1      41.797  32.580  33.695  1.00  0.00     0.010 A 
ATOM     50  C   UNL A   1      39.861  33.914  33.105  1.00  0.00     0.010 A 
ATOM     51  C   UNL A   1      41.187  33.837  33.564  1.00  0.00    -0.014 A 
BRANCH  51  52
ATOM     52  C   UNL A   1      41.904  35.041  34.064  1.00  0.00     0.031 A 
ATOM     53  C   UNL A   1      41.735  35.455  35.501  1.00  0.00     0.074 A 
ATOM     54  C   UNL A   1      42.753  35.719  33.272  1.00  0.00     0.049 A 
ATOM     55  N   UNL A   1      42.336  36.414  36.159  1.00  0.00    -0.248 NA
ATOM     56  C   UNL A   1      40.772  34.685  36.303  1.00  0.00     0.031 C 
ATOM     57  C   UNL A   1      43.024  35.404  31.874  1.00  0.00     0.029 A 
ATOM     58  N   UNL A   1      43.552  36.806  33.532  1.00  0.00    -0.354 N 
ATOM     59  C   UNL A   1      41.831  36.359  37.453  1.00  0.00     0.074 A 
ATOM     60  C   UNL A   1      40.849  35.295  37.477  1.00  0.00     0.031 C 
ATOM     61  C   UNL A   1      43.932  36.273  31.394  1.00  0.00     0.029 A 
ATOM     62  C   UNL A   1      44.290  37.219  32.449  1.00  0.00     0.049 A 
ATOM     63  H   UNL A   1      43.591  37.247  34.412  1.00  0.00     0.167 HD
ATOM     64  C   UNL A   1      42.160  37.116  38.527  1.00  0.00     0.031 A 
ATOM     65  C   UNL A   1      45.152  38.247  32.318  1.00  0.00     0.031 A 
ATOM     66  C   UNL A   1      43.117  38.191  38.502  1.00  0.00     0.049 A 
ATOM     67  C   UNL A   1      45.454  39.115  33.510  1.00  0.00     0.074 A 
ATOM     68  C   UNL A   1      43.525  39.005  39.545  1.00  0.00     0.029 A 
ATOM     69  N   UNL A   1      43.806  38.612  37.376  1.00  0.00    -0.354 N 
ATOM     70  N   UNL A   1      44.996  39.021  34.736  1.00  0.00    -0.248 NA
ATOM     71  C   UNL A   1      46.401  40.219  33.303  1.00  0.00     0.031 C 
ATOM     72  C   UNL A   1      44.424  39.950  39.039  1.00  0.00     0.029 A 
ATOM     73  C   UNL A   1      44.617  39.690  37.691  1.00  0.00     0.049 A 
ATOM     74  H   UNL A   1      43.730  38.205  36.483  1.00  0.00     0.167 HD
ATOM     75  C   UNL A   1      45.617  40.040  35.451  1.00  0.00     0.074 A 
ATOM     76  C   UNL A   1      46.495  40.726  34.525  1.00  0.00     0.031 C 
ATOM     77  C   UNL A   1      45.475  40.375  36.758  1.00  0.00     0.031 A 
BRANCH  64  78
ATOM     78  C   UNL A   1      41.453  36.817  39.822  1.00  0.00    -0.014 A 
ATOM     79  C   UNL A   1      41.950  35.850  40.713  1.00  0.00     0.010 A 
ATOM     80  C   UNL A   1      40.291  37.532  40.165  1.00  0.00     0.010 A 
ATOM     81  C   UNL A   1      41.279  35.577  41.908  1.00  0.00     0.020 A 
ATOM     82  C   UNL A   1      39.630  37.280  41.370  1.00  0.00     0.020 A 
ATOM     83  C   UNL A   1      40.120  36.291  42.226  1.00  0.00     0.054 A 
BRANCH  83  84
ATOM     84  S   UNL A   1      39.278  35.934  43.794  1.00  0.00     0.124 S 
ATOM     85  O   UNL A   1      39.303  37.239  44.452  1.00  0.00    -0.237 OA
ATOM     86  O   UNL A   1      37.961  35.477  43.355  1.00  0.00    -0.237 OA
ATOM     87  O   UNL A   1      40.115  34.909  44.412  1.00  0.00    -0.744 OA
ENDBRANCH  83  84
ENDBRANCH  64  78
BRANCH  65  88
ATOM     88  C   UNL A   1      45.791  38.517  31.002  1.00  0.00    -0.014 A 
ATOM     89  C   UNL A   1      45.182  39.371  30.066  1.00  0.00     0.010 A 
ATOM     90  C   UNL A   1      47.018  37.909  30.676  1.00  0.00     0.010 A 
ATOM     91  C   UNL A   1      45.781  39.603  28.824  1.00  0.00     0.020 A 
ATOM     92  C   UNL A   1      47.631  38.157  29.446  1.00  0.00     0.020 A 
ATOM     93  C   UNL A   1      47.003  38.996  28.523  1.00  0.00     0.054 A 
BRANCH  93  94
ATOM     94  S   UNL A   1      47.795  39.355  26.930  1.00  0.00     0.124 S 
ATOM     95  O   UNL A   1      46.733  39.034  25.983  1.00  0.00    -0.237 OA
ATOM     96  O   UNL A   1      48.127  40.774  27.055  1.00  0.00    -0.237 OA
ATOM     97  O   UNL A   1      48.947  38.456  26.912  1.00  0.00    -0.744 OA
ENDBRANCH  93  94
ENDBRANCH  65  88
BRANCH  77  98
ATOM     98  C   UNL A   1      46.307  41.523  37.266  1.00  0.00    -0.014 A 
ATOM     99  C   UNL A   1      45.793  42.832  37.311  1.00  0.00     0.010 A 
ATOM    100  C   UNL A   1      47.618  41.286  37.718  1.00  0.00     0.010 A 
ATOM    101  C   UNL A   1      46.594  43.891  37.750  1.00  0.00     0.020 A 
ATOM    102  C   UNL A   1      48.412  42.338  38.184  1.00  0.00     0.020 A 
ATOM    103  C   UNL A   1      47.902  43.638  38.174  1.00  0.00     0.054 A 
BRANCH 103 104
ATOM    104  S   UNL A   1      48.924  45.025  38.745  1.00  0.00     0.124 S 
ATOM    105  O   UNL A   1      48.751  44.950  40.193  1.00  0.00    -0.237 OA
ATOM    106  O   UNL A   1      50.253  44.672  38.252  1.00  0.00    -0.237 OA
ATOM    107  O   UNL A   1      48.316  46.188  38.103  1.00  0.00    -0.744 OA
ENDBRANCH 103 104
ENDBRANCH  77  98
ENDBRANCH  51  52
ENDBRANCH  44  46
ENDBRANCH  43  44
ENDBRANCH  42  43
ENDBRANCH  41  42
ENDBRANCH  40  41
ENDBRANCH  39  40
ENDBRANCH  38  39
ENDBRANCH  37  38
ENDBRANCH   1  37
TORSDOF 29
ENDMDL
MODEL 3
REMARK VINA RESULT:      -7.7      4.708      6.667
REMARK SMILES O=C(CN1C(=O)N[C@@](CCC(=O)OCCOCCOCCOCCOC(=O)c2ccc(-c3c4nc(c(-c5ccc(S(=O)(=O)[O-])cc5)c5ccc([nH]5)c(-c5ccc(S(=O)(=O)[O-])cc5)c5nc(c(-c6ccc(S(=O)(=O)[O-])cc6)c6ccc3[nH]6)C=C5)C=C4)cc2)(c2ccccc2)C1=O)Nc1cccc(F)c1
REMARK SMILES IDX 18 1 17 2 16 3 15 4 14 5 13 6 11 7 12 8 10 9 9 10 8 11 4 12
REMARK SMILES IDX 5 13 94 14 6 15 7 16 95 17 3 19 2 20 1 21 96 22 97 24 98 25
REMARK SMILES IDX 103 26 99 27 101 28 100 29 102 30 88 31 89 32 93 33 90 34
REMARK SMILES IDX 92 35 91 36 19 37 20 38 21 39 22 40 23 41 24 42 25 43 26 44
REMARK SMILES IDX 27 45 28 46 29 47 87 48 30 49 86 50 31 51 32 52 33 53 80 54
REMARK SMILES IDX 34 55 85 56 79 57 81 58 35 59 84 60 78 61 77 62 36 64 66 65
REMARK SMILES IDX 47 66 65 67 48 68 51 69 64 70 82 71 49 72 50 73 63 75 83 76
REMARK SMILES IDX 52 77 37 78 38 79 46 80 39 81 45 82 40 83 41 84 42 85 43 86
REMARK SMILES IDX 44 87 67 88 68 89 76 90 69 91 75 92 70 93 71 94 72 95 73 96
REMARK SMILES IDX 74 97 53 98 54 99 62 100 55 101 61 102 56 103 57 104 58 105
REMARK SMILES IDX 59 106 60 107
REMARK H PARENT 7 18 96 23 81 63 51 74
REMARK Flexibility Score: inf
ROOT
ATOM      1  C   UNL A   1      33.749  29.815  26.676  1.00  0.00     0.188 C 
ENDROOT
BRANCH   1   2
ATOM      2  C   UNL A   1      32.793  28.921  25.889  1.00  0.00     0.188 C 
BRANCH   2   3
ATOM      3  O   UNL A   1      31.606  28.709  26.632  1.00  0.00    -0.376 OA
BRANCH   3   4
ATOM      4  C   UNL A   1      31.420  27.394  27.111  1.00  0.00     0.202 C 
BRANCH   4   5
ATOM      5  C   UNL A   1      32.149  26.357  26.250  1.00  0.00     0.261 C 
BRANCH   5   6
ATOM      6  O   UNL A   1      31.279  25.467  25.525  1.00  0.00    -0.463 OA
BRANCH   6   7
ATOM      7  C   UNL A   1      31.003  24.273  26.108  1.00  0.00     0.305 C 
ATOM      8  O   UNL A   1      30.639  24.118  27.268  1.00  0.00    -0.252 OA
BRANCH   7   9
ATOM      9  C   UNL A   1      31.293  23.121  25.168  1.00  0.00     0.126 C 
BRANCH   9  10
ATOM     10  C   UNL A   1      32.417  23.357  24.149  1.00  0.00     0.055 C 
BRANCH  10  11
ATOM     11  C   UNL A   1      33.541  22.289  24.148  1.00  0.00     0.147 C 
ATOM     12  N   UNL A   1      35.753  22.630  24.991  1.00  0.00    -0.252 N 
ATOM     13  C   UNL A   1      35.800  22.727  23.632  1.00  0.00     0.325 C 
ATOM     14  C   UNL A   1      34.454  22.473  25.396  1.00  0.00     0.261 C 
ATOM     15  O   UNL A   1      36.787  22.819  22.928  1.00  0.00    -0.248 OA
ATOM     16  N   UNL A   1      34.526  22.612  23.133  1.00  0.00    -0.319 N 
ATOM     17  O   UNL A   1      34.090  22.469  26.564  1.00  0.00    -0.271 OA
ATOM     18  H   UNL A   1      34.304  22.736  22.182  1.00  0.00     0.166 HD
BRANCH  12  19
ATOM     19  C   UNL A   1      36.908  22.188  25.751  1.00  0.00     0.230 C 
BRANCH  19  20
ATOM     20  C   UNL A   1      38.063  23.113  26.143  1.00  0.00     0.244 C 
ATOM     21  O   UNL A   1      37.897  24.328  26.036  1.00  0.00    -0.273 OA
ATOM     22  N   UNL A   1      39.211  22.509  26.603  1.00  0.00    -0.324 N 
ATOM     23  H   UNL A   1      39.194  21.527  26.668  1.00  0.00     0.170 HD
BRANCH  22  24
ATOM     24  C   UNL A   1      40.410  23.145  26.991  1.00  0.00     0.044 A 
ATOM     25  C   UNL A   1      41.611  22.574  26.542  1.00  0.00     0.026 A 
ATOM     26  C   UNL A   1      40.467  24.306  27.764  1.00  0.00     0.065 A 
ATOM     27  C   UNL A   1      42.844  23.159  26.853  1.00  0.00     0.005 A 
ATOM     28  C   UNL A   1      41.698  24.885  28.061  1.00  0.00     0.125 A 
ATOM     29  C   UNL A   1      42.887  24.325  27.612  1.00  0.00     0.039 A 
ATOM     30  F   UNL A   1      41.740  26.009  28.790  1.00  0.00    -0.207 F 
ENDBRANCH  22  24
ENDBRANCH  19  20
ENDBRANCH  12  19
BRANCH  11  31
ATOM     31  C   UNL A   1      33.133  20.816  24.089  1.00  0.00    -0.013 A 
ATOM     32  C   UNL A   1      32.478  20.282  22.975  1.00  0.00     0.007 A 
ATOM     33  C   UNL A   1      33.301  19.959  25.197  1.00  0.00     0.007 A 
ATOM     34  C   UNL A   1      32.085  18.942  22.922  1.00  0.00     0.000 A 
ATOM     35  C   UNL A   1      32.877  18.628  25.162  1.00  0.00     0.000 A 
ATOM     36  C   UNL A   1      32.290  18.113  24.013  1.00  0.00     0.000 A 
ENDBRANCH  11  31
ENDBRANCH  10  11
ENDBRANCH   9  10
ENDBRANCH   7   9
ENDBRANCH   6   7
ENDBRANCH   5   6
ENDBRANCH   4   5
ENDBRANCH   3   4
ENDBRANCH   2   3
ENDBRANCH   1   2
BRANCH   1  37
ATOM     37  O   UNL A   1      34.558  29.241  27.694  1.00  0.00    -0.377 OA
BRANCH  37  38
ATOM     38  C   UNL A   1      35.913  29.623  27.862  1.00  0.00     0.188 C 
BRANCH  38  39
ATOM     39  C   UNL A   1      36.249  30.987  28.472  1.00  0.00     0.188 C 
BRANCH  39  40
ATOM     40  O   UNL A   1      35.970  31.312  29.827  1.00  0.00    -0.376 OA
BRANCH  40  41
ATOM     41  C   UNL A   1      36.283  30.400  30.862  1.00  0.00     0.202 C 
BRANCH  41  42
ATOM     42  C   UNL A   1      37.750  29.996  31.037  1.00  0.00     0.261 C 
BRANCH  42  43
ATOM     43  O   UNL A   1      38.041  29.239  32.220  1.00  0.00    -0.460 OA
BRANCH  43  44
ATOM     44  C   UNL A   1      38.796  29.891  33.135  1.00  0.00     0.338 C 
ATOM     45  O   UNL A   1      38.403  30.632  34.018  1.00  0.00    -0.246 OA
BRANCH  44  46
ATOM     46  C   UNL A   1      40.224  29.546  32.986  1.00  0.00     0.060 A 
ATOM     47  C   UNL A   1      40.602  28.224  33.236  1.00  0.00     0.016 A 
ATOM     48  C   UNL A   1      41.194  30.535  32.791  1.00  0.00     0.016 A 
ATOM     49  C   UNL A   1      41.952  27.899  33.365  1.00  0.00     0.010 A 
ATOM     50  C   UNL A   1      42.550  30.206  32.926  1.00  0.00     0.010 A 
ATOM     51  C   UNL A   1      42.933  28.897  33.265  1.00  0.00    -0.014 A 
BRANCH  51  52
ATOM     52  C   UNL A   1      44.327  28.581  33.676  1.00  0.00     0.031 A 
ATOM     53  C   UNL A   1      44.687  28.596  35.138  1.00  0.00     0.074 A 
ATOM     54  C   UNL A   1      45.249  28.214  32.769  1.00  0.00     0.049 A 
ATOM     55  N   UNL A   1      45.815  28.265  35.713  1.00  0.00    -0.248 NA
ATOM     56  C   UNL A   1      43.637  29.032  36.073  1.00  0.00     0.031 C 
ATOM     57  C   UNL A   1      45.021  28.134  31.330  1.00  0.00     0.029 A 
ATOM     58  N   UNL A   1      46.559  27.829  32.922  1.00  0.00    -0.354 N 
ATOM     59  C   UNL A   1      45.611  28.445  37.077  1.00  0.00     0.074 A 
ATOM     60  C   UNL A   1      44.262  28.948  37.238  1.00  0.00     0.031 C 
ATOM     61  C   UNL A   1      46.149  27.720  30.728  1.00  0.00     0.029 A 
ATOM     62  C   UNL A   1      47.187  27.526  31.738  1.00  0.00     0.049 A 
ATOM     63  H   UNL A   1      47.005  27.777  33.798  1.00  0.00     0.167 HD
ATOM     64  C   UNL A   1      46.461  28.203  38.103  1.00  0.00     0.031 A 
ATOM     65  C   UNL A   1      48.454  27.140  31.494  1.00  0.00     0.031 A 
ATOM     66  C   UNL A   1      47.811  27.728  37.946  1.00  0.00     0.049 A 
ATOM     67  C   UNL A   1      49.402  26.941  32.647  1.00  0.00     0.074 A 
ATOM     68  C   UNL A   1      48.743  27.443  38.929  1.00  0.00     0.029 A 
ATOM     69  N   UNL A   1      48.427  27.481  36.729  1.00  0.00    -0.354 N 
ATOM     70  N   UNL A   1      49.177  27.076  33.931  1.00  0.00    -0.248 NA
ATOM     71  C   UNL A   1      50.771  26.522  32.314  1.00  0.00     0.031 C 
ATOM     72  C   UNL A   1      49.939  27.070  38.305  1.00  0.00     0.029 A 
ATOM     73  C   UNL A   1      49.734  27.071  36.934  1.00  0.00     0.049 A 
ATOM     74  H   UNL A   1      47.998  27.581  35.848  1.00  0.00     0.167 HD
ATOM     75  C   UNL A   1      50.370  26.738  34.562  1.00  0.00     0.074 A 
ATOM     76  C   UNL A   1      51.306  26.373  33.518  1.00  0.00     0.031 C 
ATOM     77  C   UNL A   1      50.662  26.726  35.887  1.00  0.00     0.031 A 
BRANCH  64  78
ATOM     78  C   UNL A   1      45.957  28.478  39.494  1.00  0.00    -0.014 A 
ATOM     79  C   UNL A   1      45.622  27.426  40.365  1.00  0.00     0.010 A 
ATOM     80  C   UNL A   1      45.842  29.805  39.946  1.00  0.00     0.010 A 
ATOM     81  C   UNL A   1      45.147  27.696  41.651  1.00  0.00     0.020 A 
ATOM     82  C   UNL A   1      45.390  30.080  41.240  1.00  0.00     0.020 A 
ATOM     83  C   UNL A   1      45.030  29.022  42.078  1.00  0.00     0.054 A 
BRANCH  83  84
ATOM     84  S   UNL A   1      44.431  29.346  43.761  1.00  0.00     0.124 S 
ATOM     85  O   UNL A   1      45.116  28.308  44.528  1.00  0.00    -0.237 OA
ATOM     86  O   UNL A   1      44.887  30.712  44.006  1.00  0.00    -0.237 OA
ATOM     87  O   UNL A   1      42.984  29.187  43.651  1.00  0.00    -0.744 OA
ENDBRANCH  83  84
ENDBRANCH  64  78
BRANCH  65  88
ATOM     88  C   UNL A   1      48.907  26.922  30.093  1.00  0.00    -0.014 A 
ATOM     89  C   UNL A   1      49.443  27.977  29.335  1.00  0.00     0.010 A 
ATOM     90  C   UNL A   1      48.795  25.647  29.507  1.00  0.00     0.010 A 
ATOM     91  C   UNL A   1      49.848  27.766  28.013  1.00  0.00     0.020 A 
ATOM     92  C   UNL A   1      49.220  25.426  28.195  1.00  0.00     0.020 A 
ATOM     93  C   UNL A   1      49.735  26.491  27.453  1.00  0.00     0.054 A 
BRANCH  93  94
ATOM     94  S   UNL A   1      50.320  26.222  25.756  1.00  0.00     0.124 S 
ATOM     95  O   UNL A   1      49.117  25.727  25.094  1.00  0.00    -0.237 OA
ATOM     96  O   UNL A   1      50.760  27.558  25.357  1.00  0.00    -0.237 OA
ATOM     97  O   UNL A   1      51.395  25.245  25.917  1.00  0.00    -0.744 OA
ENDBRANCH  93  94
ENDBRANCH  65  88
BRANCH  77  98
ATOM     98  C   UNL A   1      52.047  26.283  36.280  1.00  0.00    -0.014 A 
ATOM     99  C   UNL A   1      53.127  27.184  36.284  1.00  0.00     0.010 A 
ATOM    100  C   UNL A   1      52.268  24.948  36.664  1.00  0.00     0.010 A 
ATOM    101  C   UNL A   1      54.413  26.745  36.615  1.00  0.00     0.020 A 
ATOM    102  C   UNL A   1      53.547  24.512  37.023  1.00  0.00     0.020 A 
ATOM    103  C   UNL A   1      54.616  25.410  36.973  1.00  0.00     0.054 A 
BRANCH 103 104
ATOM    104  S   UNL A   1      56.291  24.861  37.403  1.00  0.00     0.124 S 
ATOM    105  O   UNL A   1      56.087  24.284  38.730  1.00  0.00    -0.237 OA
ATOM    106  O   UNL A   1      56.601  23.904  36.343  1.00  0.00    -0.237 OA
ATOM    107  O   UNL A   1      57.077  26.092  37.371  1.00  0.00    -0.744 OA
ENDBRANCH 103 104
ENDBRANCH  77  98
ENDBRANCH  51  52
ENDBRANCH  44  46
ENDBRANCH  43  44
ENDBRANCH  42  43
ENDBRANCH  41  42
ENDBRANCH  40  41
ENDBRANCH  39  40
ENDBRANCH  38  39
ENDBRANCH  37  38
ENDBRANCH   1  37
TORSDOF 29
ENDMDL
