MODEL 1
REMARK VINA RESULT:      -9.6      0.000      0.000
REMARK SMILES O=C(CCCN1C(=O)c2ccc3c4c(ccc(c24)C1=O)C(=O)NC3=O)OCCOCCOCCOCCOC(=O)c1ccc(-c2c3nc(c(-c4ccc(S(=O)(=O)[O-])cc4)c4ccc([nH]4)c(-c4ccc(S(=O)(=O)[O-])cc4)c4nc(c(-c5ccc(S(=O)(=O)[O-])cc5)c5ccc2[nH]5)C=C4)C=C3)cc1
REMARK SMILES IDX 32 1 31 2 30 3 29 4 28 5 27 6 26 7 2 8 1 9 3 10 4 11 5 12
REMARK SMILES IDX 6 13 19 14 7 15 20 16 17 17 9 18 8 19 16 20 18 21 10 22
REMARK SMILES IDX 15 23 13 24 11 25 14 26 12 27 21 28 24 29 23 30 22 31 25 32
REMARK SMILES IDX 33 34 34 35 35 36 36 37 37 38 38 39 39 40 40 41 41 42 42 43
REMARK SMILES IDX 100 44 43 45 99 46 44 47 45 48 46 49 93 50 47 51 98 52 92 53
REMARK SMILES IDX 94 54 48 55 97 56 91 57 90 58 49 60 79 61 60 62 78 63 61 64
REMARK SMILES IDX 64 65 77 66 95 67 62 68 63 69 76 71 96 72 65 73 50 74 51 75
REMARK SMILES IDX 59 76 52 77 58 78 53 79 54 80 55 81 56 82 57 83 80 84 81 85
REMARK SMILES IDX 89 86 82 87 88 88 83 89 84 90 85 91 86 92 87 93 66 94 67 95
REMARK SMILES IDX 75 96 68 97 74 98 69 99 70 100 71 101 72 102 73 103
REMARK H PARENT 23 33 94 59 64 70
REMARK Flexibility Score: inf
ROOT
ATOM      1  O   UNL A   1      33.240  29.499  27.528  1.00  0.00    -0.377 OA
ENDROOT
BRANCH   1   2
ATOM      2  C   UNL A   1      33.997  28.503  26.863  1.00  0.00     0.188 C 
BRANCH   2   3
ATOM      3  C   UNL A   1      33.249  27.739  25.772  1.00  0.00     0.188 C 
BRANCH   3   4
ATOM      4  O   UNL A   1      34.009  27.389  24.604  1.00  0.00    -0.376 OA
BRANCH   4   5
ATOM      5  C   UNL A   1      33.878  28.255  23.477  1.00  0.00     0.202 C 
BRANCH   5   6
ATOM      6  C   UNL A   1      32.627  29.120  23.548  1.00  0.00     0.261 C 
BRANCH   6   7
ATOM      7  O   UNL A   1      31.893  29.241  22.318  1.00  0.00    -0.463 OA
BRANCH   7   8
ATOM      8  C   UNL A   1      30.584  29.540  22.285  1.00  0.00     0.305 C 
ATOM      9  O   UNL A   1      30.038  29.803  21.214  1.00  0.00    -0.252 OA
BRANCH   8  10
ATOM     10  C   UNL A   1      29.791  29.524  23.573  1.00  0.00     0.124 C 
BRANCH  10  11
ATOM     11  C   UNL A   1      29.300  28.186  24.102  1.00  0.00     0.034 C 
BRANCH  11  12
ATOM     12  C   UNL A   1      29.477  26.934  23.225  1.00  0.00     0.130 C 
BRANCH  12  13
ATOM     13  N   UNL A   1      30.445  25.889  23.600  1.00  0.00    -0.274 N 
ATOM     14  C   UNL A   1      31.525  25.608  22.764  1.00  0.00     0.261 C 
ATOM     15  C   UNL A   1      30.346  25.405  24.912  1.00  0.00     0.261 C 
ATOM     16  O   UNL A   1      31.730  26.168  21.690  1.00  0.00    -0.269 OA
ATOM     17  C   UNL A   1      32.513  24.601  23.236  1.00  0.00     0.049 A 
ATOM     18  C   UNL A   1      31.411  24.499  25.402  1.00  0.00     0.049 A 
ATOM     19  O   UNL A   1      29.447  25.712  25.690  1.00  0.00    -0.269 OA
ATOM     20  C   UNL A   1      33.536  24.177  22.378  1.00  0.00     0.015 A 
ATOM     21  C   UNL A   1      32.447  24.120  24.547  1.00  0.00     0.009 A 
ATOM     22  C   UNL A   1      31.373  24.035  26.727  1.00  0.00     0.015 A 
ATOM     23  C   UNL A   1      34.517  23.295  22.834  1.00  0.00     0.015 A 
ATOM     24  C   UNL A   1      33.456  23.239  25.024  1.00  0.00     0.009 A 
ATOM     25  C   UNL A   1      32.374  23.192  27.206  1.00  0.00     0.015 A 
ATOM     26  C   UNL A   1      34.483  22.841  24.156  1.00  0.00     0.048 A 
ATOM     27  C   UNL A   1      33.407  22.795  26.354  1.00  0.00     0.048 A 
ATOM     28  C   UNL A   1      35.555  21.947  24.654  1.00  0.00     0.258 C 
ATOM     29  C   UNL A   1      34.472  21.900  26.863  1.00  0.00     0.258 C 
ATOM     30  N   UNL A   1      35.442  21.535  25.961  1.00  0.00    -0.288 N 
ATOM     31  O   UNL A   1      36.510  21.636  23.952  1.00  0.00    -0.269 OA
ATOM     32  O   UNL A   1      34.489  21.526  28.029  1.00  0.00    -0.269 OA
ATOM     33  H   UNL A   1      36.131  20.911  26.286  1.00  0.00     0.173 HD
ENDBRANCH  12  13
ENDBRANCH  11  12
ENDBRANCH  10  11
ENDBRANCH   8  10
ENDBRANCH   7   8
ENDBRANCH   6   7
ENDBRANCH   5   6
ENDBRANCH   4   5
ENDBRANCH   3   4
ENDBRANCH   2   3
ENDBRANCH   1   2
BRANCH   1  34
ATOM     34  C   UNL A   1      33.367  30.826  27.052  1.00  0.00     0.188 C 
BRANCH  34  35
ATOM     35  C   UNL A   1      33.995  31.819  28.049  1.00  0.00     0.188 C 
BRANCH  35  36
ATOM     36  O   UNL A   1      34.160  33.210  27.774  1.00  0.00    -0.376 OA
BRANCH  36  37
ATOM     37  C   UNL A   1      33.385  34.177  28.460  1.00  0.00     0.202 C 
BRANCH  37  38
ATOM     38  C   UNL A   1      33.856  34.520  29.880  1.00  0.00     0.261 C 
BRANCH  38  39
ATOM     39  O   UNL A   1      35.206  34.126  30.168  1.00  0.00    -0.460 OA
BRANCH  39  40
ATOM     40  C   UNL A   1      35.348  33.067  31.004  1.00  0.00     0.338 C 
ATOM     41  O   UNL A   1      34.499  32.603  31.751  1.00  0.00    -0.246 OA
BRANCH  40  42
ATOM     42  C   UNL A   1      36.644  32.395  30.731  1.00  0.00     0.060 A 
ATOM     43  C   UNL A   1      37.260  31.706  31.786  1.00  0.00     0.016 A 
ATOM     44  C   UNL A   1      37.214  32.364  29.452  1.00  0.00     0.016 A 
ATOM     45  C   UNL A   1      38.438  30.988  31.569  1.00  0.00     0.010 A 
ATOM     46  C   UNL A   1      38.405  31.661  29.240  1.00  0.00     0.010 A 
ATOM     47  C   UNL A   1      39.032  30.982  30.301  1.00  0.00    -0.014 A 
BRANCH  47  48
ATOM     48  C   UNL A   1      40.397  30.428  30.118  1.00  0.00     0.031 A 
ATOM     49  C   UNL A   1      41.566  31.360  30.295  1.00  0.00     0.074 A 
ATOM     50  C   UNL A   1      40.604  29.142  29.782  1.00  0.00     0.049 A 
ATOM     51  N   UNL A   1      42.839  31.133  30.107  1.00  0.00    -0.248 NA
ATOM     52  C   UNL A   1      41.255  32.730  30.738  1.00  0.00     0.031 C 
ATOM     53  C   UNL A   1      39.565  28.126  29.618  1.00  0.00     0.029 A 
ATOM     54  N   UNL A   1      41.772  28.474  29.499  1.00  0.00    -0.354 N 
ATOM     55  C   UNL A   1      43.480  32.330  30.399  1.00  0.00     0.074 A 
ATOM     56  C   UNL A   1      42.458  33.284  30.766  1.00  0.00     0.031 C 
ATOM     57  C   UNL A   1      40.140  26.971  29.236  1.00  0.00     0.029 A 
ATOM     58  C   UNL A   1      41.583  27.172  29.097  1.00  0.00     0.049 A 
ATOM     59  H   UNL A   1      42.662  28.889  29.578  1.00  0.00     0.167 HD
ATOM     60  C   UNL A   1      44.802  32.614  30.359  1.00  0.00     0.031 A 
ATOM     61  C   UNL A   1      42.466  26.263  28.633  1.00  0.00     0.031 A 
ATOM     62  C   UNL A   1      45.822  31.675  29.980  1.00  0.00     0.049 A 
ATOM     63  C   UNL A   1      43.924  26.634  28.514  1.00  0.00     0.074 A 
ATOM     64  C   UNL A   1      47.191  31.866  29.947  1.00  0.00     0.029 A 
ATOM     65  N   UNL A   1      45.584  30.381  29.551  1.00  0.00    -0.354 N 
ATOM     66  N   UNL A   1      44.522  27.753  28.850  1.00  0.00    -0.248 NA
ATOM     67  C   UNL A   1      44.828  25.620  27.946  1.00  0.00     0.031 C 
ATOM     68  C   UNL A   1      47.780  30.705  29.437  1.00  0.00     0.029 A 
ATOM     69  C   UNL A   1      46.780  29.774  29.207  1.00  0.00     0.049 A 
ATOM     70  H   UNL A   1      44.698  29.955  29.499  1.00  0.00     0.167 HD
ATOM     71  C   UNL A   1      45.868  27.569  28.549  1.00  0.00     0.074 A 
ATOM     72  C   UNL A   1      46.004  26.228  28.025  1.00  0.00     0.031 C 
ATOM     73  C   UNL A   1      46.901  28.437  28.689  1.00  0.00     0.031 A 
BRANCH  60  74
ATOM     74  C   UNL A   1      45.226  34.014  30.699  1.00  0.00    -0.014 A 
ATOM     75  C   UNL A   1      45.601  34.361  32.009  1.00  0.00     0.010 A 
ATOM     76  C   UNL A   1      45.319  34.975  29.677  1.00  0.00     0.010 A 
ATOM     77  C   UNL A   1      46.052  35.653  32.292  1.00  0.00     0.020 A 
ATOM     78  C   UNL A   1      45.789  36.261  29.952  1.00  0.00     0.020 A 
ATOM     79  C   UNL A   1      46.146  36.593  31.261  1.00  0.00     0.054 A 
BRANCH  79  80
ATOM     80  S   UNL A   1      46.795  38.242  31.645  1.00  0.00     0.124 S 
ATOM     81  O   UNL A   1      48.189  37.949  31.968  1.00  0.00    -0.237 OA
ATOM     82  O   UNL A   1      46.578  38.970  30.398  1.00  0.00    -0.237 OA
ATOM     83  O   UNL A   1      45.975  38.683  32.771  1.00  0.00    -0.744 OA
ENDBRANCH  79  80
ENDBRANCH  60  74
BRANCH  61  84
ATOM     84  C   UNL A   1      42.002  24.922  28.175  1.00  0.00    -0.014 A 
ATOM     85  C   UNL A   1      42.286  23.764  28.921  1.00  0.00     0.010 A 
ATOM     86  C   UNL A   1      41.327  24.793  26.947  1.00  0.00     0.010 A 
ATOM     87  C   UNL A   1      41.934  22.502  28.433  1.00  0.00     0.020 A 
ATOM     88  C   UNL A   1      40.949  23.535  26.468  1.00  0.00     0.020 A 
ATOM     89  C   UNL A   1      41.272  22.395  27.206  1.00  0.00     0.054 A 
BRANCH  89  90
ATOM     90  S   UNL A   1      40.809  20.751  26.595  1.00  0.00     0.124 S 
ATOM     91  O   UNL A   1      39.504  21.008  25.994  1.00  0.00    -0.237 OA
ATOM     92  O   UNL A   1      41.889  20.444  25.661  1.00  0.00    -0.237 OA
ATOM     93  O   UNL A   1      40.792  19.932  27.805  1.00  0.00    -0.744 OA
ENDBRANCH  89  90
ENDBRANCH  61  84
BRANCH  73  94
ATOM     94  C   UNL A   1      48.275  27.968  28.288  1.00  0.00    -0.014 A 
ATOM     95  C   UNL A   1      49.110  27.308  29.205  1.00  0.00     0.010 A 
ATOM     96  C   UNL A   1      48.701  28.115  26.955  1.00  0.00     0.010 A 
ATOM     97  C   UNL A   1      50.355  26.817  28.802  1.00  0.00     0.020 A 
ATOM     98  C   UNL A   1      49.934  27.604  26.541  1.00  0.00     0.020 A 
ATOM     99  C   UNL A   1      50.759  26.966  27.471  1.00  0.00     0.054 A 
BRANCH  99 100
ATOM    100  S   UNL A   1      52.352  26.266  26.957  1.00  0.00     0.124 S 
ATOM    101  O   UNL A   1      52.753  27.176  25.889  1.00  0.00    -0.237 OA
ATOM    102  O   UNL A   1      53.146  26.343  28.180  1.00  0.00    -0.237 OA
ATOM    103  O   UNL A   1      52.011  24.911  26.527  1.00  0.00    -0.744 OA
ENDBRANCH  99 100
ENDBRANCH  73  94
ENDBRANCH  47  48
ENDBRANCH  40  42
ENDBRANCH  39  40
ENDBRANCH  38  39
ENDBRANCH  37  38
ENDBRANCH  36  37
ENDBRANCH  35  36
ENDBRANCH  34  35
ENDBRANCH   1  34
TORSDOF 26
ENDMDL
MODEL 2
REMARK VINA RESULT:      -9.2      2.703      3.798
REMARK SMILES O=C(CCCN1C(=O)c2ccc3c4c(ccc(c24)C1=O)C(=O)NC3=O)OCCOCCOCCOCCOC(=O)c1ccc(-c2c3nc(c(-c4ccc(S(=O)(=O)[O-])cc4)c4ccc([nH]4)c(-c4ccc(S(=O)(=O)[O-])cc4)c4nc(c(-c5ccc(S(=O)(=O)[O-])cc5)c5ccc2[nH]5)C=C4)C=C3)cc1
REMARK SMILES IDX 32 1 31 2 30 3 29 4 28 5 27 6 26 7 2 8 1 9 3 10 4 11 5 12
REMARK SMILES IDX 6 13 19 14 7 15 20 16 17 17 9 18 8 19 16 20 18 21 10 22
REMARK SMILES IDX 15 23 13 24 11 25 14 26 12 27 21 28 24 29 23 30 22 31 25 32
REMARK SMILES IDX 33 34 34 35 35 36 36 37 37 38 38 39 39 40 40 41 41 42 42 43
REMARK SMILES IDX 100 44 43 45 99 46 44 47 45 48 46 49 93 50 47 51 98 52 92 53
REMARK SMILES IDX 94 54 48 55 97 56 91 57 90 58 49 60 79 61 60 62 78 63 61 64
REMARK SMILES IDX 64 65 77 66 95 67 62 68 63 69 76 71 96 72 65 73 50 74 51 75
REMARK SMILES IDX 59 76 52 77 58 78 53 79 54 80 55 81 56 82 57 83 80 84 81 85
REMARK SMILES IDX 89 86 82 87 88 88 83 89 84 90 85 91 86 92 87 93 66 94 67 95
REMARK SMILES IDX 75 96 68 97 74 98 69 99 70 100 71 101 72 102 73 103
REMARK H PARENT 23 33 94 59 64 70
REMARK Flexibility Score: inf
ROOT
ATOM      1  O   UNL A   1      34.467  26.352  24.977  1.00  0.00    -0.377 OA
ENDROOT
BRANCH   1   2
ATOM      2  C   UNL A   1      34.422  24.939  24.907  1.00  0.00     0.188 C 
BRANCH   2   3
ATOM      3  C   UNL A   1      34.358  24.359  23.495  1.00  0.00     0.188 C 
BRANCH   3   4
ATOM      4  O   UNL A   1      34.374  25.308  22.416  1.00  0.00    -0.376 OA
BRANCH   4   5
ATOM      5  C   UNL A   1      33.105  25.795  21.980  1.00  0.00     0.202 C 
BRANCH   5   6
ATOM      6  C   UNL A   1      33.054  27.316  21.916  1.00  0.00     0.261 C 
BRANCH   6   7
ATOM      7  O   UNL A   1      32.219  27.945  22.903  1.00  0.00    -0.463 OA
BRANCH   7   8
ATOM      8  C   UNL A   1      30.877  27.922  22.833  1.00  0.00     0.305 C 
ATOM      9  O   UNL A   1      30.307  28.284  21.804  1.00  0.00    -0.252 OA
BRANCH   8  10
ATOM     10  C   UNL A   1      30.085  27.423  24.021  1.00  0.00     0.124 C 
BRANCH  10  11
ATOM     11  C   UNL A   1      30.833  26.724  25.146  1.00  0.00     0.034 C 
BRANCH  11  12
ATOM     12  C   UNL A   1      30.305  25.371  25.656  1.00  0.00     0.130 C 
BRANCH  12  13
ATOM     13  N   UNL A   1      30.999  24.120  25.311  1.00  0.00    -0.274 N 
ATOM     14  C   UNL A   1      31.535  23.318  26.318  1.00  0.00     0.261 C 
ATOM     15  C   UNL A   1      30.861  23.689  23.983  1.00  0.00     0.261 C 
ATOM     16  O   UNL A   1      31.492  23.595  27.514  1.00  0.00    -0.269 OA
ATOM     17  C   UNL A   1      32.151  22.027  25.913  1.00  0.00     0.049 A 
ATOM     18  C   UNL A   1      31.373  22.344  23.631  1.00  0.00     0.049 A 
ATOM     19  O   UNL A   1      30.314  24.347  23.102  1.00  0.00    -0.269 OA
ATOM     20  C   UNL A   1      32.829  21.252  26.864  1.00  0.00     0.015 A 
ATOM     21  C   UNL A   1      32.008  21.567  24.600  1.00  0.00     0.009 A 
ATOM     22  C   UNL A   1      31.206  21.859  22.324  1.00  0.00     0.015 A 
ATOM     23  C   UNL A   1      33.340  20.001  26.517  1.00  0.00     0.015 A 
ATOM     24  C   UNL A   1      32.506  20.284  24.248  1.00  0.00     0.009 A 
ATOM     25  C   UNL A   1      31.670  20.590  21.980  1.00  0.00     0.015 A 
ATOM     26  C   UNL A   1      33.165  19.515  25.218  1.00  0.00     0.048 A 
ATOM     27  C   UNL A   1      32.321  19.811  22.939  1.00  0.00     0.048 A 
ATOM     28  C   UNL A   1      33.661  18.163  24.865  1.00  0.00     0.258 C 
ATOM     29  C   UNL A   1      32.814  18.462  22.575  1.00  0.00     0.258 C 
ATOM     30  N   UNL A   1      33.462  17.764  23.565  1.00  0.00    -0.288 N 
ATOM     31  O   UNL A   1      34.175  17.430  25.701  1.00  0.00    -0.269 OA
ATOM     32  O   UNL A   1      32.633  17.997  21.457  1.00  0.00    -0.269 OA
ATOM     33  H   UNL A   1      33.824  16.883  23.315  1.00  0.00     0.173 HD
ENDBRANCH  12  13
ENDBRANCH  11  12
ENDBRANCH  10  11
ENDBRANCH   8  10
ENDBRANCH   7   8
ENDBRANCH   6   7
ENDBRANCH   5   6
ENDBRANCH   4   5
ENDBRANCH   3   4
ENDBRANCH   2   3
ENDBRANCH   1   2
BRANCH   1  34
ATOM     34  C   UNL A   1      33.964  26.953  26.156  1.00  0.00     0.188 C 
BRANCH  34  35
ATOM     35  C   UNL A   1      33.687  28.465  26.051  1.00  0.00     0.188 C 
BRANCH  35  36
ATOM     36  O   UNL A   1      34.552  29.463  26.592  1.00  0.00    -0.376 OA
BRANCH  36  37
ATOM     37  C   UNL A   1      34.044  30.466  27.455  1.00  0.00     0.202 C 
BRANCH  37  38
ATOM     38  C   UNL A   1      35.092  31.225  28.279  1.00  0.00     0.261 C 
BRANCH  38  39
ATOM     39  O   UNL A   1      36.438  30.761  28.099  1.00  0.00    -0.460 OA
BRANCH  39  40
ATOM     40  C   UNL A   1      36.920  29.951  29.075  1.00  0.00     0.338 C 
ATOM     41  O   UNL A   1      36.286  29.450  29.993  1.00  0.00    -0.246 OA
BRANCH  40  42
ATOM     42  C   UNL A   1      38.320  29.572  28.753  1.00  0.00     0.060 A 
ATOM     43  C   UNL A   1      39.154  29.185  29.812  1.00  0.00     0.016 A 
ATOM     44  C   UNL A   1      38.793  29.513  27.437  1.00  0.00     0.016 A 
ATOM     45  C   UNL A   1      40.454  28.741  29.563  1.00  0.00     0.010 A 
ATOM     46  C   UNL A   1      40.103  29.087  27.189  1.00  0.00     0.010 A 
ATOM     47  C   UNL A   1      40.946  28.713  28.251  1.00  0.00    -0.014 A 
BRANCH  47  48
ATOM     48  C   UNL A   1      42.389  28.476  27.999  1.00  0.00     0.031 A 
ATOM     49  C   UNL A   1      43.341  29.622  28.213  1.00  0.00     0.074 A 
ATOM     50  C   UNL A   1      42.850  27.286  27.571  1.00  0.00     0.049 A 
ATOM     51  N   UNL A   1      44.626  29.683  27.981  1.00  0.00    -0.248 NA
ATOM     52  C   UNL A   1      42.765  30.864  28.757  1.00  0.00     0.031 C 
ATOM     53  C   UNL A   1      42.044  26.085  27.362  1.00  0.00     0.029 A 
ATOM     54  N   UNL A   1      44.122  26.901  27.216  1.00  0.00    -0.354 N 
ATOM     55  C   UNL A   1      45.010  30.969  28.339  1.00  0.00     0.074 A 
ATOM     56  C   UNL A   1      43.824  31.659  28.795  1.00  0.00     0.031 C 
ATOM     57  C   UNL A   1      42.835  25.104  26.888  1.00  0.00     0.029 A 
ATOM     58  C   UNL A   1      44.197  25.617  26.729  1.00  0.00     0.049 A 
ATOM     59  H   UNL A   1      44.906  27.491  27.302  1.00  0.00     0.167 HD
ATOM     60  C   UNL A   1      46.239  31.530  28.288  1.00  0.00     0.031 A 
ATOM     61  C   UNL A   1      45.234  24.947  26.185  1.00  0.00     0.031 A 
ATOM     62  C   UNL A   1      47.420  30.856  27.823  1.00  0.00     0.049 A 
ATOM     63  C   UNL A   1      46.576  25.627  26.057  1.00  0.00     0.074 A 
ATOM     64  C   UNL A   1      48.716  31.336  27.772  1.00  0.00     0.029 A 
ATOM     65  N   UNL A   1      47.445  29.570  27.311  1.00  0.00    -0.354 N 
ATOM     66  N   UNL A   1      46.936  26.825  26.456  1.00  0.00    -0.248 NA
ATOM     67  C   UNL A   1      47.651  24.867  25.400  1.00  0.00     0.031 C 
ATOM     68  C   UNL A   1      49.517  30.361  27.170  1.00  0.00     0.029 A 
ATOM     69  C   UNL A   1      48.728  29.254  26.899  1.00  0.00     0.049 A 
ATOM     70  H   UNL A   1      46.667  28.969  27.250  1.00  0.00     0.167 HD
ATOM     71  C   UNL A   1      48.279  26.951  26.112  1.00  0.00     0.074 A 
ATOM     72  C   UNL A   1      48.675  25.705  25.494  1.00  0.00     0.031 C 
ATOM     73  C   UNL A   1      49.109  28.009  26.287  1.00  0.00     0.031 A 
BRANCH  60  74
ATOM     74  C   UNL A   1      46.371  32.964  28.715  1.00  0.00    -0.014 A 
ATOM     75  C   UNL A   1      46.759  33.301  30.023  1.00  0.00     0.010 A 
ATOM     76  C   UNL A   1      46.173  33.986  27.769  1.00  0.00     0.010 A 
ATOM     77  C   UNL A   1      46.936  34.639  30.382  1.00  0.00     0.020 A 
ATOM     78  C   UNL A   1      46.369  35.324  28.119  1.00  0.00     0.020 A 
ATOM     79  C   UNL A   1      46.743  35.642  29.426  1.00  0.00     0.054 A 
BRANCH  79  80
ATOM     80  S   UNL A   1      47.042  37.366  29.902  1.00  0.00     0.124 S 
ATOM     81  O   UNL A   1      45.953  38.059  29.219  1.00  0.00    -0.237 OA
ATOM     82  O   UNL A   1      46.940  37.318  31.358  1.00  0.00    -0.237 OA
ATOM     83  O   UNL A   1      48.379  37.643  29.383  1.00  0.00    -0.744 OA
ENDBRANCH  79  80
ENDBRANCH  60  74
BRANCH  61  84
ATOM     84  C   UNL A   1      45.047  23.570  25.646  1.00  0.00    -0.014 A 
ATOM     85  C   UNL A   1      45.035  22.454  26.501  1.00  0.00     0.010 A 
ATOM     86  C   UNL A   1      44.946  23.365  24.257  1.00  0.00     0.010 A 
ATOM     87  C   UNL A   1      44.960  21.159  25.977  1.00  0.00     0.020 A 
ATOM     88  C   UNL A   1      44.842  22.075  23.731  1.00  0.00     0.020 A 
ATOM     89  C   UNL A   1      44.869  20.978  24.594  1.00  0.00     0.054 A 
BRANCH  89  90
ATOM     90  S   UNL A   1      44.756  19.292  23.932  1.00  0.00     0.124 S 
ATOM     91  O   UNL A   1      44.484  19.540  22.519  1.00  0.00    -0.237 OA
ATOM     92  O   UNL A   1      46.074  18.742  24.238  1.00  0.00    -0.237 OA
ATOM     93  O   UNL A   1      43.654  18.704  24.690  1.00  0.00    -0.744 OA
ENDBRANCH  89  90
ENDBRANCH  61  84
BRANCH  73  94
ATOM     94  C   UNL A   1      50.535  27.869  25.823  1.00  0.00    -0.014 A 
ATOM     95  C   UNL A   1      51.505  27.262  26.640  1.00  0.00     0.010 A 
ATOM     96  C   UNL A   1      50.889  28.274  24.523  1.00  0.00     0.010 A 
ATOM     97  C   UNL A   1      52.809  27.077  26.171  1.00  0.00     0.020 A 
ATOM     98  C   UNL A   1      52.185  28.068  24.041  1.00  0.00     0.020 A 
ATOM     99  C   UNL A   1      53.140  27.479  24.873  1.00  0.00     0.054 A 
BRANCH  99 100
ATOM    100  S   UNL A   1      54.822  27.172  24.265  1.00  0.00     0.124 S 
ATOM    101  O   UNL A   1      55.304  28.525  24.008  1.00  0.00    -0.237 OA
ATOM    102  O   UNL A   1      55.449  26.484  25.390  1.00  0.00    -0.237 OA
ATOM    103  O   UNL A   1      54.614  26.348  23.076  1.00  0.00    -0.744 OA
ENDBRANCH  99 100
ENDBRANCH  73  94
ENDBRANCH  47  48
ENDBRANCH  40  42
ENDBRANCH  39  40
ENDBRANCH  38  39
ENDBRANCH  37  38
ENDBRANCH  36  37
ENDBRANCH  35  36
ENDBRANCH  34  35
ENDBRANCH   1  34
TORSDOF 26
ENDMDL
MODEL 3
REMARK VINA RESULT:      -9.1      4.740      8.924
REMARK SMILES O=C(CCCN1C(=O)c2ccc3c4c(ccc(c24)C1=O)C(=O)NC3=O)OCCOCCOCCOCCOC(=O)c1ccc(-c2c3nc(c(-c4ccc(S(=O)(=O)[O-])cc4)c4ccc([nH]4)c(-c4ccc(S(=O)(=O)[O-])cc4)c4nc(c(-c5ccc(S(=O)(=O)[O-])cc5)c5ccc2[nH]5)C=C4)C=C3)cc1
REMARK SMILES IDX 32 1 31 2 30 3 29 4 28 5 27 6 26 7 2 8 1 9 3 10 4 11 5 12
REMARK SMILES IDX 6 13 19 14 7 15 20 16 17 17 9 18 8 19 16 20 18 21 10 22
REMARK SMILES IDX 15 23 13 24 11 25 14 26 12 27 21 28 24 29 23 30 22 31 25 32
REMARK SMILES IDX 33 34 34 35 35 36 36 37 37 38 38 39 39 40 40 41 41 42 42 43
REMARK SMILES IDX 100 44 43 45 99 46 44 47 45 48 46 49 93 50 47 51 98 52 92 53
REMARK SMILES IDX 94 54 48 55 97 56 91 57 90 58 49 60 79 61 60 62 78 63 61 64
REMARK SMILES IDX 64 65 77 66 95 67 62 68 63 69 76 71 96 72 65 73 50 74 51 75
REMARK SMILES IDX 59 76 52 77 58 78 53 79 54 80 55 81 56 82 57 83 80 84 81 85
REMARK SMILES IDX 89 86 82 87 88 88 83 89 84 90 85 91 86 92 87 93 66 94 67 95
REMARK SMILES IDX 75 96 68 97 74 98 69 99 70 100 71 101 72 102 73 103
REMARK H PARENT 23 33 94 59 64 70
REMARK Flexibility Score: inf
ROOT
ATOM      1  O   UNL A   1      33.850  28.116  24.162  1.00  0.00    -0.377 OA
ENDROOT
BRANCH   1   2
ATOM      2  C   UNL A   1      33.715  26.720  23.971  1.00  0.00     0.188 C 
BRANCH   2   3
ATOM      3  C   UNL A   1      33.663  26.266  22.513  1.00  0.00     0.188 C 
BRANCH   3   4
ATOM      4  O   UNL A   1      32.778  26.998  21.649  1.00  0.00    -0.376 OA
BRANCH   4   5
ATOM      5  C   UNL A   1      31.381  26.847  21.896  1.00  0.00     0.202 C 
BRANCH   5   6
ATOM      6  C   UNL A   1      30.727  28.140  22.365  1.00  0.00     0.261 C 
BRANCH   6   7
ATOM      7  O   UNL A   1      30.054  28.063  23.633  1.00  0.00    -0.463 OA
BRANCH   7   8
ATOM      8  C   UNL A   1      29.059  27.192  23.870  1.00  0.00     0.305 C 
ATOM      9  O   UNL A   1      27.933  27.405  23.422  1.00  0.00    -0.252 OA
BRANCH   8  10
ATOM     10  C   UNL A   1      29.349  25.940  24.670  1.00  0.00     0.124 C 
BRANCH  10  11
ATOM     11  C   UNL A   1      30.709  25.809  25.337  1.00  0.00     0.034 C 
BRANCH  11  12
ATOM     12  C   UNL A   1      30.890  24.756  26.445  1.00  0.00     0.130 C 
BRANCH  12  13
ATOM     13  N   UNL A   1      31.856  23.657  26.282  1.00  0.00    -0.274 N 
ATOM     14  C   UNL A   1      31.427  22.416  25.813  1.00  0.00     0.261 C 
ATOM     15  C   UNL A   1      33.209  24.011  26.383  1.00  0.00     0.261 C 
ATOM     16  O   UNL A   1      30.261  22.150  25.536  1.00  0.00    -0.269 OA
ATOM     17  C   UNL A   1      32.462  21.372  25.591  1.00  0.00     0.049 A 
ATOM     18  C   UNL A   1      34.224  22.989  26.036  1.00  0.00     0.049 A 
ATOM     19  O   UNL A   1      33.604  25.127  26.711  1.00  0.00    -0.269 OA
ATOM     20  C   UNL A   1      32.073  20.067  25.259  1.00  0.00     0.015 A 
ATOM     21  C   UNL A   1      33.818  21.706  25.665  1.00  0.00     0.009 A 
ATOM     22  C   UNL A   1      35.587  23.322  26.075  1.00  0.00     0.015 A 
ATOM     23  C   UNL A   1      33.034  19.098  24.968  1.00  0.00     0.015 A 
ATOM     24  C   UNL A   1      34.801  20.729  25.348  1.00  0.00     0.009 A 
ATOM     25  C   UNL A   1      36.553  22.375  25.740  1.00  0.00     0.015 A 
ATOM     26  C   UNL A   1      34.391  19.434  24.999  1.00  0.00     0.048 A 
ATOM     27  C   UNL A   1      36.158  21.084  25.382  1.00  0.00     0.048 A 
ATOM     28  C   UNL A   1      35.409  18.419  24.637  1.00  0.00     0.258 C 
ATOM     29  C   UNL A   1      37.184  20.077  25.025  1.00  0.00     0.258 C 
ATOM     30  N   UNL A   1      36.721  18.824  24.705  1.00  0.00    -0.288 N 
ATOM     31  O   UNL A   1      35.091  17.300  24.254  1.00  0.00    -0.269 OA
ATOM     32  O   UNL A   1      38.375  20.361  25.000  1.00  0.00    -0.269 OA
ATOM     33  H   UNL A   1      37.402  18.143  24.503  1.00  0.00     0.173 HD
ENDBRANCH  12  13
ENDBRANCH  11  12
ENDBRANCH  10  11
ENDBRANCH   8  10
ENDBRANCH   7   8
ENDBRANCH   6   7
ENDBRANCH   5   6
ENDBRANCH   4   5
ENDBRANCH   3   4
ENDBRANCH   2   3
ENDBRANCH   1   2
BRANCH   1  34
ATOM     34  C   UNL A   1      33.821  28.587  25.496  1.00  0.00     0.188 C 
BRANCH  34  35
ATOM     35  C   UNL A   1      32.517  29.297  25.910  1.00  0.00     0.188 C 
BRANCH  35  36
ATOM     36  O   UNL A   1      32.284  30.691  25.711  1.00  0.00    -0.376 OA
BRANCH  36  37
ATOM     37  C   UNL A   1      31.271  31.363  26.440  1.00  0.00     0.202 C 
BRANCH  37  38
ATOM     38  C   UNL A   1      31.709  32.651  27.151  1.00  0.00     0.261 C 
BRANCH  38  39
ATOM     39  O   UNL A   1      33.105  32.701  27.481  1.00  0.00    -0.460 OA
BRANCH  39  40
ATOM     40  C   UNL A   1      33.476  33.686  28.337  1.00  0.00     0.338 C 
ATOM     41  O   UNL A   1      32.815  34.662  28.663  1.00  0.00    -0.246 OA
BRANCH  40  42
ATOM     42  C   UNL A   1      34.744  33.303  29.008  1.00  0.00     0.060 A 
ATOM     43  C   UNL A   1      34.705  32.248  29.930  1.00  0.00     0.016 A 
ATOM     44  C   UNL A   1      35.968  33.902  28.688  1.00  0.00     0.016 A 
ATOM     45  C   UNL A   1      35.879  31.789  30.532  1.00  0.00     0.010 A 
ATOM     46  C   UNL A   1      37.142  33.456  29.305  1.00  0.00     0.010 A 
ATOM     47  C   UNL A   1      37.102  32.407  30.242  1.00  0.00    -0.014 A 
BRANCH  47  48
ATOM     48  C   UNL A   1      38.308  32.092  31.048  1.00  0.00     0.031 A 
ATOM     49  C   UNL A   1      39.199  30.974  30.578  1.00  0.00     0.074 A 
ATOM     50  C   UNL A   1      38.602  32.758  32.180  1.00  0.00     0.049 A 
ATOM     51  N   UNL A   1      40.255  30.461  31.152  1.00  0.00    -0.248 NA
ATOM     52  C   UNL A   1      38.848  30.349  29.290  1.00  0.00     0.031 C 
ATOM     53  C   UNL A   1      37.847  33.886  32.725  1.00  0.00     0.029 A 
ATOM     54  N   UNL A   1      39.616  32.565  33.087  1.00  0.00    -0.354 N 
ATOM     55  C   UNL A   1      40.688  29.450  30.305  1.00  0.00     0.074 A 
ATOM     56  C   UNL A   1      39.778  29.413  29.182  1.00  0.00     0.031 C 
ATOM     57  C   UNL A   1      38.408  34.265  33.888  1.00  0.00     0.029 A 
ATOM     58  C   UNL A   1      39.542  33.389  34.187  1.00  0.00     0.049 A 
ATOM     59  H   UNL A   1      40.330  31.898  32.962  1.00  0.00     0.167 HD
ATOM     60  C   UNL A   1      41.746  28.620  30.450  1.00  0.00     0.031 A 
ATOM     61  C   UNL A   1      40.278  33.408  35.317  1.00  0.00     0.031 A 
ATOM     62  C   UNL A   1      42.647  28.641  31.570  1.00  0.00     0.049 A 
ATOM     63  C   UNL A   1      41.399  32.411  35.493  1.00  0.00     0.074 A 
ATOM     64  C   UNL A   1      43.769  27.861  31.781  1.00  0.00     0.029 A 
ATOM     65  N   UNL A   1      42.516  29.468  32.672  1.00  0.00    -0.354 N 
ATOM     66  N   UNL A   1      41.832  31.500  34.655  1.00  0.00    -0.248 NA
ATOM     67  C   UNL A   1      42.126  32.442  36.773  1.00  0.00     0.031 C 
ATOM     68  C   UNL A   1      44.283  28.172  33.043  1.00  0.00     0.029 A 
ATOM     69  C   UNL A   1      43.513  29.186  33.590  1.00  0.00     0.049 A 
ATOM     70  H   UNL A   1      41.820  30.154  32.786  1.00  0.00     0.167 HD
ATOM     71  C   UNL A   1      42.889  30.863  35.299  1.00  0.00     0.074 A 
ATOM     72  C   UNL A   1      43.046  31.505  36.586  1.00  0.00     0.031 C 
ATOM     73  C   UNL A   1      43.659  29.834  34.867  1.00  0.00     0.031 A 
BRANCH  60  74
ATOM     74  C   UNL A   1      41.974  27.586  29.385  1.00  0.00    -0.014 A 
ATOM     75  C   UNL A   1      43.114  27.627  28.563  1.00  0.00     0.010 A 
ATOM     76  C   UNL A   1      41.068  26.517  29.256  1.00  0.00     0.010 A 
ATOM     77  C   UNL A   1      43.338  26.621  27.621  1.00  0.00     0.020 A 
ATOM     78  C   UNL A   1      41.300  25.499  28.329  1.00  0.00     0.020 A 
ATOM     79  C   UNL A   1      42.431  25.561  27.512  1.00  0.00     0.054 A 
BRANCH  79  80
ATOM     80  S   UNL A   1      42.780  24.237  26.324  1.00  0.00     0.124 S 
ATOM     81  O   UNL A   1      43.776  23.444  27.042  1.00  0.00    -0.237 OA
ATOM     82  O   UNL A   1      41.475  23.604  26.157  1.00  0.00    -0.237 OA
ATOM     83  O   UNL A   1      43.280  24.947  25.150  1.00  0.00    -0.744 OA
ENDBRANCH  79  80
ENDBRANCH  60  74
BRANCH  61  84
ATOM     84  C   UNL A   1      39.950  34.356  36.419  1.00  0.00    -0.014 A 
ATOM     85  C   UNL A   1      40.511  35.645  36.456  1.00  0.00     0.010 A 
ATOM     86  C   UNL A   1      39.119  33.945  37.478  1.00  0.00     0.010 A 
ATOM     87  C   UNL A   1      40.276  36.491  37.545  1.00  0.00     0.020 A 
ATOM     88  C   UNL A   1      38.859  34.796  38.555  1.00  0.00     0.020 A 
ATOM     89  C   UNL A   1      39.455  36.058  38.590  1.00  0.00     0.054 A 
BRANCH  89  90
ATOM     90  S   UNL A   1      39.147  37.174  39.988  1.00  0.00     0.124 S 
ATOM     91  O   UNL A   1      38.453  36.298  40.928  1.00  0.00    -0.237 OA
ATOM     92  O   UNL A   1      40.497  37.577  40.375  1.00  0.00    -0.237 OA
ATOM     93  O   UNL A   1      38.333  38.236  39.401  1.00  0.00    -0.744 OA
ENDBRANCH  89  90
ENDBRANCH  61  84
BRANCH  73  94
ATOM     94  C   UNL A   1      44.753  29.342  35.776  1.00  0.00    -0.014 A 
ATOM     95  C   UNL A   1      46.011  29.969  35.800  1.00  0.00     0.010 A 
ATOM     96  C   UNL A   1      44.492  28.293  36.677  1.00  0.00     0.010 A 
ATOM     97  C   UNL A   1      46.995  29.545  36.697  1.00  0.00     0.020 A 
ATOM     98  C   UNL A   1      45.465  27.882  37.593  1.00  0.00     0.020 A 
ATOM     99  C   UNL A   1      46.715  28.506  37.590  1.00  0.00     0.054 A 
BRANCH  99 100
ATOM    100  S   UNL A   1      47.988  28.016  38.787  1.00  0.00     0.124 S 
ATOM    101  O   UNL A   1      47.720  26.590  38.949  1.00  0.00    -0.237 OA
ATOM    102  O   UNL A   1      49.228  28.348  38.092  1.00  0.00    -0.237 OA
ATOM    103  O   UNL A   1      47.697  28.841  39.958  1.00  0.00    -0.744 OA
ENDBRANCH  99 100
ENDBRANCH  73  94
ENDBRANCH  47  48
ENDBRANCH  40  42
ENDBRANCH  39  40
ENDBRANCH  38  39
ENDBRANCH  37  38
ENDBRANCH  36  37
ENDBRANCH  35  36
ENDBRANCH  34  35
ENDBRANCH   1  34
TORSDOF 26
ENDMDL
