MODEL 1
REMARK VINA RESULT:      -9.2      0.000      0.000
REMARK SMILES CC[NH2+][C@@]1(C(=O)OCCOCCOCCOCCOC(=O)c2ccc(-c3c4nc(c(-c5ccc(S(=O)(=O)[O-])cc5)c5ccc([nH]5)c(-c5ccc(S(=O)(=O)[O-])cc5)c5nc(c(-c6ccc(S(=O)(=O)[O-])cc6)c6ccc3[nH]6)C=C5)C=C4)cc2)CC[C@H]([NH+]2CCC(C(C)(C)C)CC2)C1
REMARK SMILES IDX 14 1 13 2 12 3 11 4 10 5 9 6 8 7 7 8 5 9 6 10 4 11 82 12
REMARK SMILES IDX 95 13 83 14 84 15 3 16 2 19 1 20 85 21 86 22 94 23 87 25
REMARK SMILES IDX 93 26 88 27 89 28 90 29 91 30 92 31 15 32 16 33 17 34 18 35
REMARK SMILES IDX 19 36 20 37 21 38 22 39 23 40 81 41 24 42 80 43 25 44 26 45
REMARK SMILES IDX 27 46 74 47 28 48 79 49 73 50 75 51 29 52 78 53 72 54 71 55
REMARK SMILES IDX 30 57 60 58 41 59 59 60 42 61 45 62 58 63 76 64 43 65 44 66
REMARK SMILES IDX 57 68 77 69 46 70 31 71 32 72 40 73 33 74 39 75 34 76 35 77
REMARK SMILES IDX 36 78 37 79 38 80 61 81 62 82 70 83 63 84 69 85 64 86 65 87
REMARK SMILES IDX 66 88 67 89 68 90 47 91 48 92 56 93 49 94 55 95 50 96 51 97
REMARK SMILES IDX 52 98 53 99 54 100
REMARK H PARENT 3 17 3 18 85 24 75 56 45 67
REMARK Flexibility Score: inf
ROOT
ATOM      1  C   UNL A   1      35.924  22.131  24.827  1.00  0.00     0.188 C 
ENDROOT
BRANCH   1   2
ATOM      2  O   UNL A   1      34.880  21.712  25.678  1.00  0.00    -0.377 OA
BRANCH   2   3
ATOM      3  C   UNL A   1      34.419  22.518  26.746  1.00  0.00     0.188 C 
BRANCH   3   4
ATOM      4  C   UNL A   1      33.265  22.163  27.695  1.00  0.00     0.188 C 
BRANCH   4   5
ATOM      5  O   UNL A   1      32.155  23.027  27.699  1.00  0.00    -0.376 OA
BRANCH   5   6
ATOM      6  C   UNL A   1      31.114  22.910  26.748  1.00  0.00     0.202 C 
BRANCH   6   7
ATOM      7  C   UNL A   1      30.218  24.088  26.339  1.00  0.00     0.261 C 
BRANCH   7   8
ATOM      8  O   UNL A   1      30.852  25.118  25.567  1.00  0.00    -0.459 OA
BRANCH   8   9
ATOM      9  C   UNL A   1      30.571  25.077  24.231  1.00  0.00     0.368 C 
ATOM     10  O   UNL A   1      29.552  25.574  23.752  1.00  0.00    -0.245 OA
BRANCH   9  11
ATOM     11  C   UNL A   1      31.720  24.482  23.345  1.00  0.00     0.200 C 
ATOM     12  C   UNL A   1      33.064  24.540  24.095  1.00  0.00     0.087 C 
ATOM     13  C   UNL A   1      32.092  25.266  22.061  1.00  0.00     0.146 C 
ATOM     14  C   UNL A   1      33.606  25.940  23.824  1.00  0.00     0.072 C 
ATOM     15  C   UNL A   1      33.106  26.368  22.446  1.00  0.00     0.191 C 
BRANCH  11  16
ATOM     16  N   UNL A   1      31.342  23.076  22.990  1.00  0.00    -0.332 N 
ATOM     17  H   UNL A   1      30.826  22.675  23.772  1.00  0.00     0.347 HD
ATOM     18  H   UNL A   1      30.785  23.126  22.136  1.00  0.00     0.347 HD
BRANCH  16  19
ATOM     19  C   UNL A   1      32.487  22.207  22.699  1.00  0.00     0.257 C 
ATOM     20  C   UNL A   1      32.348  20.899  23.464  1.00  0.00     0.071 C 
ENDBRANCH  16  19
ENDBRANCH  11  16
BRANCH  15  21
ATOM     21  N   UNL A   1      32.687  27.764  22.229  1.00  0.00    -0.332 N 
ATOM     22  C   UNL A   1      33.685  28.807  22.480  1.00  0.00     0.262 C 
ATOM     23  C   UNL A   1      31.407  28.216  22.749  1.00  0.00     0.262 C 
ATOM     24  H   UNL A   1      32.561  27.651  21.223  1.00  0.00     0.348 HD
ATOM     25  C   UNL A   1      33.854  29.222  23.952  1.00  0.00     0.066 C 
ATOM     26  C   UNL A   1      31.420  28.438  24.250  1.00  0.00     0.066 C 
ATOM     27  C   UNL A   1      32.550  29.325  24.787  1.00  0.00     0.005 C 
BRANCH  27  28
ATOM     28  C   UNL A   1      32.755  29.122  26.353  1.00  0.00    -0.035 C 
ATOM     29  C   UNL A   1      31.651  28.199  26.893  1.00  0.00     0.011 C 
ATOM     30  C   UNL A   1      34.127  28.470  26.649  1.00  0.00     0.011 C 
ATOM     31  C   UNL A   1      32.713  30.422  27.191  1.00  0.00     0.011 C 
ENDBRANCH  27  28
ENDBRANCH  15  21
ENDBRANCH   9  11
ENDBRANCH   8   9
ENDBRANCH   7   8
ENDBRANCH   6   7
ENDBRANCH   5   6
ENDBRANCH   4   5
ENDBRANCH   3   4
ENDBRANCH   2   3
ENDBRANCH   1   2
BRANCH   1  32
ATOM     32  C   UNL A   1      37.301  21.503  25.106  1.00  0.00     0.188 C 
BRANCH  32  33
ATOM     33  O   UNL A   1      37.686  20.251  24.548  1.00  0.00    -0.376 OA
BRANCH  33  34
ATOM     34  C   UNL A   1      38.283  19.257  25.357  1.00  0.00     0.202 C 
BRANCH  34  35
ATOM     35  C   UNL A   1      39.759  19.384  25.764  1.00  0.00     0.261 C 
BRANCH  35  36
ATOM     36  O   UNL A   1      40.226  20.690  26.115  1.00  0.00    -0.460 OA
BRANCH  36  37
ATOM     37  C   UNL A   1      40.821  20.795  27.322  1.00  0.00     0.338 C 
ATOM     38  O   UNL A   1      41.116  19.887  28.090  1.00  0.00    -0.246 OA
BRANCH  37  39
ATOM     39  C   UNL A   1      41.150  22.211  27.558  1.00  0.00     0.060 A 
ATOM     40  C   UNL A   1      40.755  23.175  26.621  1.00  0.00     0.016 A 
ATOM     41  C   UNL A   1      41.886  22.579  28.686  1.00  0.00     0.016 A 
ATOM     42  C   UNL A   1      41.091  24.514  26.813  1.00  0.00     0.010 A 
ATOM     43  C   UNL A   1      42.250  23.917  28.860  1.00  0.00     0.010 A 
ATOM     44  C   UNL A   1      41.867  24.887  27.917  1.00  0.00    -0.014 A 
BRANCH  44  45
ATOM     45  C   UNL A   1      42.388  26.268  28.028  1.00  0.00     0.031 A 
ATOM     46  C   UNL A   1      43.828  26.528  27.688  1.00  0.00     0.074 A 
ATOM     47  C   UNL A   1      41.587  27.270  28.437  1.00  0.00     0.049 A 
ATOM     48  N   UNL A   1      44.521  27.630  27.816  1.00  0.00    -0.248 NA
ATOM     49  C   UNL A   1      44.591  25.398  27.129  1.00  0.00     0.031 C 
ATOM     50  C   UNL A   1      40.159  27.145  28.731  1.00  0.00     0.029 A 
ATOM     51  N   UNL A   1      41.869  28.589  28.689  1.00  0.00    -0.354 N 
ATOM     52  C   UNL A   1      45.804  27.320  27.378  1.00  0.00     0.074 A 
ATOM     53  C   UNL A   1      45.796  25.929  26.984  1.00  0.00     0.031 C 
ATOM     54  C   UNL A   1      39.693  28.338  29.142  1.00  0.00     0.029 A 
ATOM     55  C   UNL A   1      40.799  29.294  29.188  1.00  0.00     0.049 A 
ATOM     56  H   UNL A   1      42.752  28.992  28.527  1.00  0.00     0.167 HD
ATOM     57  C   UNL A   1      46.890  28.126  27.322  1.00  0.00     0.031 A 
ATOM     58  C   UNL A   1      40.733  30.552  29.667  1.00  0.00     0.031 A 
ATOM     59  C   UNL A   1      46.885  29.509  27.722  1.00  0.00     0.049 A 
ATOM     60  C   UNL A   1      41.986  31.394  29.685  1.00  0.00     0.074 A 
ATOM     61  C   UNL A   1      47.926  30.420  27.670  1.00  0.00     0.029 A 
ATOM     62  N   UNL A   1      45.797  30.173  28.264  1.00  0.00    -0.354 N 
ATOM     63  N   UNL A   1      43.181  31.106  29.229  1.00  0.00    -0.248 NA
ATOM     64  C   UNL A   1      41.881  32.730  30.293  1.00  0.00     0.031 C 
ATOM     65  C   UNL A   1      47.488  31.613  28.251  1.00  0.00     0.029 A 
ATOM     66  C   UNL A   1      46.154  31.468  28.599  1.00  0.00     0.049 A 
ATOM     67  H   UNL A   1      44.902  29.783  28.391  1.00  0.00     0.167 HD
ATOM     68  C   UNL A   1      43.963  32.231  29.474  1.00  0.00     0.074 A 
ATOM     69  C   UNL A   1      43.099  33.213  30.095  1.00  0.00     0.031 C 
ATOM     70  C   UNL A   1      45.279  32.433  29.214  1.00  0.00     0.031 A 
BRANCH  57  71
ATOM     71  C   UNL A   1      48.193  27.534  26.856  1.00  0.00    -0.014 A 
ATOM     72  C   UNL A   1      48.550  27.519  25.497  1.00  0.00     0.010 A 
ATOM     73  C   UNL A   1      49.115  27.067  27.812  1.00  0.00     0.010 A 
ATOM     74  C   UNL A   1      49.802  27.038  25.102  1.00  0.00     0.020 A 
ATOM     75  C   UNL A   1      50.377  26.609  27.423  1.00  0.00     0.020 A 
ATOM     76  C   UNL A   1      50.710  26.593  26.068  1.00  0.00     0.054 A 
BRANCH  76  77
ATOM     77  S   UNL A   1      52.354  26.043  25.531  1.00  0.00     0.124 S 
ATOM     78  O   UNL A   1      52.282  24.603  25.765  1.00  0.00    -0.237 OA
ATOM     79  O   UNL A   1      52.383  26.451  24.129  1.00  0.00    -0.237 OA
ATOM     80  O   UNL A   1      53.269  26.770  26.408  1.00  0.00    -0.744 OA
ENDBRANCH  76  77
ENDBRANCH  57  71
BRANCH  58  81
ATOM     81  C   UNL A   1      39.458  31.082  30.227  1.00  0.00    -0.014 A 
ATOM     82  C   UNL A   1      38.471  31.620  29.383  1.00  0.00     0.010 A 
ATOM     83  C   UNL A   1      39.239  31.086  31.618  1.00  0.00     0.010 A 
ATOM     84  C   UNL A   1      37.308  32.181  29.919  1.00  0.00     0.020 A 
ATOM     85  C   UNL A   1      38.063  31.615  32.156  1.00  0.00     0.020 A 
ATOM     86  C   UNL A   1      37.111  32.175  31.302  1.00  0.00     0.054 A 
BRANCH  86  87
ATOM     87  S   UNL A   1      35.585  32.889  31.974  1.00  0.00     0.124 S 
ATOM     88  O   UNL A   1      35.530  32.290  33.304  1.00  0.00    -0.237 OA
ATOM     89  O   UNL A   1      35.866  34.322  31.935  1.00  0.00    -0.237 OA
ATOM     90  O   UNL A   1      34.558  32.437  31.039  1.00  0.00    -0.744 OA
ENDBRANCH  86  87
ENDBRANCH  58  81
BRANCH  70  91
ATOM     91  C   UNL A   1      45.867  33.770  29.583  1.00  0.00    -0.014 A 
ATOM     92  C   UNL A   1      46.502  33.965  30.823  1.00  0.00     0.010 A 
ATOM     93  C   UNL A   1      45.855  34.820  28.646  1.00  0.00     0.010 A 
ATOM     94  C   UNL A   1      47.096  35.194  31.126  1.00  0.00     0.020 A 
ATOM     95  C   UNL A   1      46.476  36.038  28.932  1.00  0.00     0.020 A 
ATOM     96  C   UNL A   1      47.085  36.220  30.176  1.00  0.00     0.054 A 
BRANCH  96  97
ATOM     97  S   UNL A   1      47.922  37.779  30.572  1.00  0.00     0.124 S 
ATOM     98  O   UNL A   1      49.205  37.313  31.092  1.00  0.00    -0.237 OA
ATOM     99  O   UNL A   1      47.976  38.451  29.277  1.00  0.00    -0.237 OA
ATOM    100  O   UNL A   1      47.043  38.405  31.557  1.00  0.00    -0.744 OA
ENDBRANCH  96  97
ENDBRANCH  70  91
ENDBRANCH  44  45
ENDBRANCH  37  39
ENDBRANCH  36  37
ENDBRANCH  35  36
ENDBRANCH  34  35
ENDBRANCH  33  34
ENDBRANCH  32  33
ENDBRANCH   1  32
TORSDOF 27
ENDMDL
MODEL 2
REMARK VINA RESULT:      -8.3      1.668      2.053
REMARK SMILES CC[NH2+][C@@]1(C(=O)OCCOCCOCCOCCOC(=O)c2ccc(-c3c4nc(c(-c5ccc(S(=O)(=O)[O-])cc5)c5ccc([nH]5)c(-c5ccc(S(=O)(=O)[O-])cc5)c5nc(c(-c6ccc(S(=O)(=O)[O-])cc6)c6ccc3[nH]6)C=C5)C=C4)cc2)CC[C@H]([NH+]2CCC(C(C)(C)C)CC2)C1
REMARK SMILES IDX 14 1 13 2 12 3 11 4 10 5 9 6 8 7 7 8 5 9 6 10 4 11 82 12
REMARK SMILES IDX 95 13 83 14 84 15 3 16 2 19 1 20 85 21 86 22 94 23 87 25
REMARK SMILES IDX 93 26 88 27 89 28 90 29 91 30 92 31 15 32 16 33 17 34 18 35
REMARK SMILES IDX 19 36 20 37 21 38 22 39 23 40 81 41 24 42 80 43 25 44 26 45
REMARK SMILES IDX 27 46 74 47 28 48 79 49 73 50 75 51 29 52 78 53 72 54 71 55
REMARK SMILES IDX 30 57 60 58 41 59 59 60 42 61 45 62 58 63 76 64 43 65 44 66
REMARK SMILES IDX 57 68 77 69 46 70 31 71 32 72 40 73 33 74 39 75 34 76 35 77
REMARK SMILES IDX 36 78 37 79 38 80 61 81 62 82 70 83 63 84 69 85 64 86 65 87
REMARK SMILES IDX 66 88 67 89 68 90 47 91 48 92 56 93 49 94 55 95 50 96 51 97
REMARK SMILES IDX 52 98 53 99 54 100
REMARK H PARENT 3 17 3 18 85 24 75 56 45 67
REMARK Flexibility Score: inf
ROOT
ATOM      1  C   UNL A   1      35.927  22.477  24.614  1.00  0.00     0.188 C 
ENDROOT
BRANCH   1   2
ATOM      2  O   UNL A   1      34.913  21.774  25.296  1.00  0.00    -0.377 OA
BRANCH   2   3
ATOM      3  C   UNL A   1      34.595  22.047  26.648  1.00  0.00     0.188 C 
BRANCH   3   4
ATOM      4  C   UNL A   1      33.216  21.850  27.296  1.00  0.00     0.188 C 
BRANCH   4   5
ATOM      5  O   UNL A   1      32.412  22.994  27.442  1.00  0.00    -0.376 OA
BRANCH   5   6
ATOM      6  C   UNL A   1      31.010  22.951  27.260  1.00  0.00     0.202 C 
BRANCH   6   7
ATOM      7  C   UNL A   1      30.264  23.865  26.277  1.00  0.00     0.261 C 
BRANCH   7   8
ATOM      8  O   UNL A   1      31.082  24.763  25.514  1.00  0.00    -0.459 OA
BRANCH   8   9
ATOM      9  C   UNL A   1      30.684  24.926  24.217  1.00  0.00     0.368 C 
ATOM     10  O   UNL A   1      29.646  25.512  23.911  1.00  0.00    -0.245 OA
BRANCH   9  11
ATOM     11  C   UNL A   1      31.729  24.443  23.153  1.00  0.00     0.200 C 
ATOM     12  C   UNL A   1      33.156  24.512  23.728  1.00  0.00     0.087 C 
ATOM     13  C   UNL A   1      31.903  25.324  21.890  1.00  0.00     0.146 C 
ATOM     14  C   UNL A   1      33.607  25.950  23.489  1.00  0.00     0.072 C 
ATOM     15  C   UNL A   1      32.916  26.444  22.219  1.00  0.00     0.191 C 
BRANCH  11  16
ATOM     16  N   UNL A   1      31.360  23.047  22.750  1.00  0.00    -0.332 N 
ATOM     17  H   UNL A   1      30.569  22.747  23.320  1.00  0.00     0.347 HD
ATOM     18  H   UNL A   1      31.138  23.075  21.755  1.00  0.00     0.347 HD
BRANCH  16  19
ATOM     19  C   UNL A   1      32.444  22.073  22.916  1.00  0.00     0.257 C 
ATOM     20  C   UNL A   1      32.000  20.715  22.392  1.00  0.00     0.071 C 
ENDBRANCH  16  19
ENDBRANCH  11  16
BRANCH  15  21
ATOM     21  N   UNL A   1      32.422  27.830  22.155  1.00  0.00    -0.332 N 
ATOM     22  C   UNL A   1      33.393  28.897  22.415  1.00  0.00     0.262 C 
ATOM     23  C   UNL A   1      31.171  28.175  22.812  1.00  0.00     0.262 C 
ATOM     24  H   UNL A   1      32.219  27.793  21.157  1.00  0.00     0.348 HD
ATOM     25  C   UNL A   1      33.666  29.198  23.899  1.00  0.00     0.066 C 
ATOM     26  C   UNL A   1      31.300  28.274  24.321  1.00  0.00     0.066 C 
ATOM     27  C   UNL A   1      32.432  29.169  24.840  1.00  0.00     0.005 C 
BRANCH  27  28
ATOM     28  C   UNL A   1      32.774  28.850  26.362  1.00  0.00    -0.035 C 
ATOM     29  C   UNL A   1      31.840  27.740  26.870  1.00  0.00     0.011 C 
ATOM     30  C   UNL A   1      34.236  28.363  26.507  1.00  0.00     0.011 C 
ATOM     31  C   UNL A   1      32.628  30.048  27.330  1.00  0.00     0.011 C 
ENDBRANCH  27  28
ENDBRANCH  15  21
ENDBRANCH   9  11
ENDBRANCH   8   9
ENDBRANCH   7   8
ENDBRANCH   6   7
ENDBRANCH   5   6
ENDBRANCH   4   5
ENDBRANCH   3   4
ENDBRANCH   2   3
ENDBRANCH   1   2
BRANCH   1  32
ATOM     32  C   UNL A   1      37.312  21.806  24.607  1.00  0.00     0.188 C 
BRANCH  32  33
ATOM     33  O   UNL A   1      37.490  20.448  24.221  1.00  0.00    -0.376 OA
BRANCH  33  34
ATOM     34  C   UNL A   1      37.984  19.497  25.143  1.00  0.00     0.202 C 
BRANCH  34  35
ATOM     35  C   UNL A   1      39.424  19.613  25.666  1.00  0.00     0.261 C 
BRANCH  35  36
ATOM     36  O   UNL A   1      39.834  20.891  26.162  1.00  0.00    -0.460 OA
BRANCH  36  37
ATOM     37  C   UNL A   1      40.626  20.869  27.254  1.00  0.00     0.338 C 
ATOM     38  O   UNL A   1      41.024  19.886  27.868  1.00  0.00    -0.246 OA
BRANCH  37  39
ATOM     39  C   UNL A   1      41.027  22.252  27.566  1.00  0.00     0.060 A 
ATOM     40  C   UNL A   1      40.421  23.315  26.886  1.00  0.00     0.016 A 
ATOM     41  C   UNL A   1      42.034  22.493  28.505  1.00  0.00     0.016 A 
ATOM     42  C   UNL A   1      40.816  24.626  27.145  1.00  0.00     0.010 A 
ATOM     43  C   UNL A   1      42.451  23.805  28.739  1.00  0.00     0.010 A 
ATOM     44  C   UNL A   1      41.854  24.876  28.050  1.00  0.00    -0.014 A 
BRANCH  44  45
ATOM     45  C   UNL A   1      42.408  26.241  28.190  1.00  0.00     0.031 A 
ATOM     46  C   UNL A   1      43.550  26.654  27.304  1.00  0.00     0.074 A 
ATOM     47  C   UNL A   1      41.903  27.093  29.101  1.00  0.00     0.049 A 
ATOM     48  N   UNL A   1      44.256  27.753  27.327  1.00  0.00    -0.248 NA
ATOM     49  C   UNL A   1      43.949  25.702  26.252  1.00  0.00     0.031 C 
ATOM     50  C   UNL A   1      40.756  26.823  29.969  1.00  0.00     0.029 A 
ATOM     51  N   UNL A   1      42.305  28.356  29.459  1.00  0.00    -0.354 N 
ATOM     52  C   UNL A   1      45.198  27.617  26.313  1.00  0.00     0.074 A 
ATOM     53  C   UNL A   1      44.976  26.328  25.696  1.00  0.00     0.031 C 
ATOM     54  C   UNL A   1      40.557  27.883  30.771  1.00  0.00     0.029 A 
ATOM     55  C   UNL A   1      41.592  28.882  30.510  1.00  0.00     0.049 A 
ATOM     56  H   UNL A   1      43.032  28.839  29.005  1.00  0.00     0.167 HD
ATOM     57  C   UNL A   1      46.165  28.487  25.941  1.00  0.00     0.031 A 
ATOM     58  C   UNL A   1      41.783  30.020  31.208  1.00  0.00     0.031 A 
ATOM     59  C   UNL A   1      46.379  29.765  26.568  1.00  0.00     0.049 A 
ATOM     60  C   UNL A   1      42.933  30.923  30.834  1.00  0.00     0.074 A 
ATOM     61  C   UNL A   1      47.310  30.736  26.240  1.00  0.00     0.029 A 
ATOM     62  N   UNL A   1      45.668  30.243  27.656  1.00  0.00    -0.354 N 
ATOM     63  N   UNL A   1      43.789  30.805  29.847  1.00  0.00    -0.248 NA
ATOM     64  C   UNL A   1      43.149  32.109  31.676  1.00  0.00     0.031 C 
ATOM     65  C   UNL A   1      47.213  31.766  27.180  1.00  0.00     0.029 A 
ATOM     66  C   UNL A   1      46.173  31.471  28.048  1.00  0.00     0.049 A 
ATOM     67  H   UNL A   1      44.915  29.778  28.087  1.00  0.00     0.167 HD
ATOM     68  C   UNL A   1      44.629  31.911  29.937  1.00  0.00     0.074 A 
ATOM     69  C   UNL A   1      44.163  32.698  31.058  1.00  0.00     0.031 C 
ATOM     70  C   UNL A   1      45.694  32.243  29.165  1.00  0.00     0.031 A 
BRANCH  57  71
ATOM     71  C   UNL A   1      47.105  28.079  24.838  1.00  0.00    -0.014 A 
ATOM     72  C   UNL A   1      46.780  28.279  23.485  1.00  0.00     0.010 A 
ATOM     73  C   UNL A   1      48.375  27.571  25.170  1.00  0.00     0.010 A 
ATOM     74  C   UNL A   1      47.706  27.968  22.484  1.00  0.00     0.020 A 
ATOM     75  C   UNL A   1      49.311  27.283  24.175  1.00  0.00     0.020 A 
ATOM     76  C   UNL A   1      48.969  27.478  22.836  1.00  0.00     0.054 A 
BRANCH  76  77
ATOM     77  S   UNL A   1      50.174  27.152  21.519  1.00  0.00     0.124 S 
ATOM     78  O   UNL A   1      51.353  26.748  22.282  1.00  0.00    -0.237 OA
ATOM     79  O   UNL A   1      49.528  26.089  20.754  1.00  0.00    -0.237 OA
ATOM     80  O   UNL A   1      50.290  28.433  20.828  1.00  0.00    -0.744 OA
ENDBRANCH  76  77
ENDBRANCH  57  71
BRANCH  58  81
ATOM     81  C   UNL A   1      40.909  30.350  32.368  1.00  0.00    -0.014 A 
ATOM     82  C   UNL A   1      39.800  31.199  32.214  1.00  0.00     0.010 A 
ATOM     83  C   UNL A   1      41.207  29.845  33.649  1.00  0.00     0.010 A 
ATOM     84  C   UNL A   1      39.026  31.564  33.320  1.00  0.00     0.020 A 
ATOM     85  C   UNL A   1      40.416  30.179  34.751  1.00  0.00     0.020 A 
ATOM     86  C   UNL A   1      39.339  31.051  34.582  1.00  0.00     0.054 A 
BRANCH  86  87
ATOM     87  S   UNL A   1      38.308  31.520  35.999  1.00  0.00     0.124 S 
ATOM     88  O   UNL A   1      38.075  30.231  36.644  1.00  0.00    -0.237 OA
ATOM     89  O   UNL A   1      39.176  32.444  36.725  1.00  0.00    -0.237 OA
ATOM     90  O   UNL A   1      37.136  32.133  35.379  1.00  0.00    -0.744 OA
ENDBRANCH  86  87
ENDBRANCH  58  81
BRANCH  70  91
ATOM     91  C   UNL A   1      46.422  33.521  29.491  1.00  0.00    -0.014 A 
ATOM     92  C   UNL A   1      47.548  33.519  30.333  1.00  0.00     0.010 A 
ATOM     93  C   UNL A   1      46.022  34.726  28.885  1.00  0.00     0.010 A 
ATOM     94  C   UNL A   1      48.249  34.703  30.578  1.00  0.00     0.020 A 
ATOM     95  C   UNL A   1      46.739  35.905  29.101  1.00  0.00     0.020 A 
ATOM     96  C   UNL A   1      47.844  35.887  29.955  1.00  0.00     0.054 A 
BRANCH  96  97
ATOM     97  S   UNL A   1      48.813  37.394  30.239  1.00  0.00     0.124 S 
ATOM     98  O   UNL A   1      49.651  37.009  31.372  1.00  0.00    -0.237 OA
ATOM     99  O   UNL A   1      49.514  37.566  28.970  1.00  0.00    -0.237 OA
ATOM    100  O   UNL A   1      47.802  38.408  30.529  1.00  0.00    -0.744 OA
ENDBRANCH  96  97
ENDBRANCH  70  91
ENDBRANCH  44  45
ENDBRANCH  37  39
ENDBRANCH  36  37
ENDBRANCH  35  36
ENDBRANCH  34  35
ENDBRANCH  33  34
ENDBRANCH  32  33
ENDBRANCH   1  32
TORSDOF 27
ENDMDL
MODEL 3
REMARK VINA RESULT:      -7.9      5.697      9.538
REMARK SMILES CC[NH2+][C@@]1(C(=O)OCCOCCOCCOCCOC(=O)c2ccc(-c3c4nc(c(-c5ccc(S(=O)(=O)[O-])cc5)c5ccc([nH]5)c(-c5ccc(S(=O)(=O)[O-])cc5)c5nc(c(-c6ccc(S(=O)(=O)[O-])cc6)c6ccc3[nH]6)C=C5)C=C4)cc2)CC[C@H]([NH+]2CCC(C(C)(C)C)CC2)C1
REMARK SMILES IDX 14 1 13 2 12 3 11 4 10 5 9 6 8 7 7 8 5 9 6 10 4 11 82 12
REMARK SMILES IDX 95 13 83 14 84 15 3 16 2 19 1 20 85 21 86 22 94 23 87 25
REMARK SMILES IDX 93 26 88 27 89 28 90 29 91 30 92 31 15 32 16 33 17 34 18 35
REMARK SMILES IDX 19 36 20 37 21 38 22 39 23 40 81 41 24 42 80 43 25 44 26 45
REMARK SMILES IDX 27 46 74 47 28 48 79 49 73 50 75 51 29 52 78 53 72 54 71 55
REMARK SMILES IDX 30 57 60 58 41 59 59 60 42 61 45 62 58 63 76 64 43 65 44 66
REMARK SMILES IDX 57 68 77 69 46 70 31 71 32 72 40 73 33 74 39 75 34 76 35 77
REMARK SMILES IDX 36 78 37 79 38 80 61 81 62 82 70 83 63 84 69 85 64 86 65 87
REMARK SMILES IDX 66 88 67 89 68 90 47 91 48 92 56 93 49 94 55 95 50 96 51 97
REMARK SMILES IDX 52 98 53 99 54 100
REMARK H PARENT 3 17 3 18 85 24 75 56 45 67
REMARK Flexibility Score: inf
ROOT
ATOM      1  C   UNL A   1      36.114  30.988  30.996  1.00  0.00     0.188 C 
ENDROOT
BRANCH   1   2
ATOM      2  O   UNL A   1      35.236  32.088  30.913  1.00  0.00    -0.377 OA
BRANCH   2   3
ATOM      3  C   UNL A   1      35.032  32.791  29.701  1.00  0.00     0.188 C 
BRANCH   3   4
ATOM      4  C   UNL A   1      33.980  32.444  28.638  1.00  0.00     0.188 C 
BRANCH   4   5
ATOM      5  O   UNL A   1      34.270  31.367  27.782  1.00  0.00    -0.376 OA
BRANCH   5   6
ATOM      6  C   UNL A   1      33.249  30.624  27.143  1.00  0.00     0.202 C 
BRANCH   6   7
ATOM      7  C   UNL A   1      33.531  29.585  26.049  1.00  0.00     0.261 C 
BRANCH   7   8
ATOM      8  O   UNL A   1      33.274  28.218  26.403  1.00  0.00    -0.459 OA
BRANCH   8   9
ATOM      9  C   UNL A   1      31.965  27.842  26.291  1.00  0.00     0.368 C 
ATOM     10  O   UNL A   1      31.220  27.734  27.264  1.00  0.00    -0.245 OA
BRANCH   9  11
ATOM     11  C   UNL A   1      31.455  27.707  24.814  1.00  0.00     0.200 C 
ATOM     12  C   UNL A   1      30.485  26.519  24.684  1.00  0.00     0.087 C 
ATOM     13  C   UNL A   1      32.505  27.319  23.743  1.00  0.00     0.146 C 
ATOM     14  C   UNL A   1      31.380  25.302  24.465  1.00  0.00     0.072 C 
ATOM     15  C   UNL A   1      32.630  25.778  23.726  1.00  0.00     0.191 C 
BRANCH  11  16
ATOM     16  N   UNL A   1      30.800  29.002  24.436  1.00  0.00    -0.332 N 
ATOM     17  H   UNL A   1      30.047  29.185  25.099  1.00  0.00     0.347 HD
ATOM     18  H   UNL A   1      31.527  29.719  24.459  1.00  0.00     0.347 HD
BRANCH  16  19
ATOM     19  C   UNL A   1      30.237  29.012  23.082  1.00  0.00     0.257 C 
ATOM     20  C   UNL A   1      28.980  29.869  23.054  1.00  0.00     0.071 C 
ENDBRANCH  16  19
ENDBRANCH  11  16
BRANCH  15  21
ATOM     21  N   UNL A   1      33.942  25.211  24.083  1.00  0.00    -0.332 N 
ATOM     22  C   UNL A   1      34.535  24.256  23.142  1.00  0.00     0.262 C 
ATOM     23  C   UNL A   1      34.168  24.726  25.435  1.00  0.00     0.262 C 
ATOM     24  H   UNL A   1      34.431  26.102  24.015  1.00  0.00     0.348 HD
ATOM     25  C   UNL A   1      34.023  22.810  23.254  1.00  0.00     0.066 C 
ATOM     26  C   UNL A   1      33.500  23.391  25.708  1.00  0.00     0.066 C 
ATOM     27  C   UNL A   1      33.790  22.278  24.693  1.00  0.00     0.005 C 
BRANCH  27  28
ATOM     28  C   UNL A   1      32.716  21.106  24.793  1.00  0.00    -0.035 C 
ATOM     29  C   UNL A   1      31.468  21.623  25.526  1.00  0.00     0.011 C 
ATOM     30  C   UNL A   1      32.293  20.624  23.385  1.00  0.00     0.011 C 
ATOM     31  C   UNL A   1      33.196  19.843  25.547  1.00  0.00     0.011 C 
ENDBRANCH  27  28
ENDBRANCH  15  21
ENDBRANCH   9  11
ENDBRANCH   8   9
ENDBRANCH   7   8
ENDBRANCH   6   7
ENDBRANCH   5   6
ENDBRANCH   4   5
ENDBRANCH   3   4
ENDBRANCH   2   3
ENDBRANCH   1   2
BRANCH   1  32
ATOM     32  C   UNL A   1      37.398  31.097  30.155  1.00  0.00     0.188 C 
BRANCH  32  33
ATOM     33  O   UNL A   1      38.298  30.005  30.007  1.00  0.00    -0.376 OA
BRANCH  33  34
ATOM     34  C   UNL A   1      37.999  28.940  29.126  1.00  0.00     0.202 C 
BRANCH  34  35
ATOM     35  C   UNL A   1      39.122  28.275  28.318  1.00  0.00     0.261 C 
BRANCH  35  36
ATOM     36  O   UNL A   1      39.654  27.049  28.832  1.00  0.00    -0.460 OA
BRANCH  36  37
ATOM     37  C   UNL A   1      40.520  26.402  28.024  1.00  0.00     0.338 C 
ATOM     38  O   UNL A   1      40.341  26.056  26.862  1.00  0.00    -0.246 OA
BRANCH  37  39
ATOM     39  C   UNL A   1      41.794  26.236  28.744  1.00  0.00     0.060 A 
ATOM     40  C   UNL A   1      42.241  27.254  29.596  1.00  0.00     0.016 A 
ATOM     41  C   UNL A   1      42.566  25.089  28.544  1.00  0.00     0.016 A 
ATOM     42  C   UNL A   1      43.461  27.126  30.256  1.00  0.00     0.010 A 
ATOM     43  C   UNL A   1      43.804  24.977  29.181  1.00  0.00     0.010 A 
ATOM     44  C   UNL A   1      44.264  26.001  30.028  1.00  0.00    -0.014 A 
BRANCH  44  45
ATOM     45  C   UNL A   1      45.639  25.945  30.572  1.00  0.00     0.031 A 
ATOM     46  C   UNL A   1      46.774  26.450  29.726  1.00  0.00     0.074 A 
ATOM     47  C   UNL A   1      45.868  25.440  31.798  1.00  0.00     0.049 A 
ATOM     48  N   UNL A   1      48.060  26.399  29.954  1.00  0.00    -0.248 NA
ATOM     49  C   UNL A   1      46.412  27.101  28.455  1.00  0.00     0.031 C 
ATOM     50  C   UNL A   1      44.839  24.980  32.731  1.00  0.00     0.029 A 
ATOM     51  N   UNL A   1      47.048  25.215  32.462  1.00  0.00    -0.354 N 
ATOM     52  C   UNL A   1      48.662  26.985  28.847  1.00  0.00     0.074 A 
ATOM     53  C   UNL A   1      47.603  27.383  27.946  1.00  0.00     0.031 C 
ATOM     54  C   UNL A   1      45.434  24.511  33.842  1.00  0.00     0.029 A 
ATOM     55  C   UNL A   1      46.885  24.590  33.677  1.00  0.00     0.049 A 
ATOM     56  H   UNL A   1      47.927  25.478  32.105  1.00  0.00     0.167 HD
ATOM     57  C   UNL A   1      49.982  27.165  28.604  1.00  0.00     0.031 A 
ATOM     58  C   UNL A   1      47.804  24.100  34.533  1.00  0.00     0.031 A 
ATOM     59  C   UNL A   1      51.026  26.759  29.507  1.00  0.00     0.049 A 
ATOM     60  C   UNL A   1      49.267  24.225  34.186  1.00  0.00     0.074 A 
ATOM     61  C   UNL A   1      52.393  26.929  29.369  1.00  0.00     0.029 A 
ATOM     62  N   UNL A   1      50.824  26.090  30.703  1.00  0.00    -0.354 N 
ATOM     63  N   UNL A   1      49.825  24.820  33.159  1.00  0.00    -0.248 NA
ATOM     64  C   UNL A   1      50.226  23.602  35.112  1.00  0.00     0.031 C 
ATOM     65  C   UNL A   1      53.021  26.294  30.444  1.00  0.00     0.029 A 
ATOM     66  C   UNL A   1      52.043  25.792  31.289  1.00  0.00     0.049 A 
ATOM     67  H   UNL A   1      49.945  25.861  31.081  1.00  0.00     0.167 HD
ATOM     68  C   UNL A   1      51.197  24.662  33.327  1.00  0.00     0.074 A 
ATOM     69  C   UNL A   1      51.386  23.939  34.567  1.00  0.00     0.031 C 
ATOM     70  C   UNL A   1      52.211  25.074  32.526  1.00  0.00     0.031 A 
BRANCH  57  71
ATOM     71  C   UNL A   1      50.387  27.783  27.293  1.00  0.00    -0.014 A 
ATOM     72  C   UNL A   1      50.682  29.153  27.186  1.00  0.00     0.010 A 
ATOM     73  C   UNL A   1      50.563  26.955  26.168  1.00  0.00     0.010 A 
ATOM     74  C   UNL A   1      51.137  29.685  25.975  1.00  0.00     0.020 A 
ATOM     75  C   UNL A   1      51.040  27.478  24.964  1.00  0.00     0.020 A 
ATOM     76  C   UNL A   1      51.320  28.842  24.874  1.00  0.00     0.054 A 
BRANCH  76  77
ATOM     77  S   UNL A   1      51.979  29.548  23.338  1.00  0.00     0.124 S 
ATOM     78  O   UNL A   1      53.305  28.937  23.269  1.00  0.00    -0.237 OA
ATOM     79  O   UNL A   1      51.022  29.083  22.338  1.00  0.00    -0.237 OA
ATOM     80  O   UNL A   1      51.971  30.987  23.583  1.00  0.00    -0.744 OA
ENDBRANCH  76  77
ENDBRANCH  57  71
BRANCH  58  81
ATOM     81  C   UNL A   1      47.378  23.392  35.773  1.00  0.00    -0.014 A 
ATOM     82  C   UNL A   1      47.144  24.102  36.962  1.00  0.00     0.010 A 
ATOM     83  C   UNL A   1      47.241  21.990  35.780  1.00  0.00     0.010 A 
ATOM     84  C   UNL A   1      46.816  23.426  38.141  1.00  0.00     0.020 A 
ATOM     85  C   UNL A   1      46.879  21.312  36.947  1.00  0.00     0.020 A 
ATOM     86  C   UNL A   1      46.685  22.034  38.125  1.00  0.00     0.054 A 
BRANCH  86  87
ATOM     87  S   UNL A   1      46.237  21.179  39.661  1.00  0.00     0.124 S 
ATOM     88  O   UNL A   1      45.820  19.870  39.168  1.00  0.00    -0.237 OA
ATOM     89  O   UNL A   1      47.490  21.204  40.411  1.00  0.00    -0.237 OA
ATOM     90  O   UNL A   1      45.170  22.010  40.215  1.00  0.00    -0.744 OA
ENDBRANCH  86  87
ENDBRANCH  58  81
BRANCH  70  91
ATOM     91  C   UNL A   1      53.619  24.770  32.968  1.00  0.00    -0.014 A 
ATOM     92  C   UNL A   1      54.262  23.583  32.572  1.00  0.00     0.010 A 
ATOM     93  C   UNL A   1      54.334  25.719  33.721  1.00  0.00     0.010 A 
ATOM     94  C   UNL A   1      55.589  23.343  32.940  1.00  0.00     0.020 A 
ATOM     95  C   UNL A   1      55.670  25.497  34.063  1.00  0.00     0.020 A 
ATOM     96  C   UNL A   1      56.287  24.305  33.678  1.00  0.00     0.054 A 
BRANCH  96  97
ATOM     97  S   UNL A   1      58.028  23.995  34.082  1.00  0.00     0.124 S 
ATOM     98  O   UNL A   1      58.003  22.588  34.475  1.00  0.00    -0.237 OA
ATOM     99  O   UNL A   1      58.704  24.284  32.821  1.00  0.00    -0.237 OA
ATOM    100  O   UNL A   1      58.306  24.938  35.164  1.00  0.00    -0.744 OA
ENDBRANCH  96  97
ENDBRANCH  70  91
ENDBRANCH  44  45
ENDBRANCH  37  39
ENDBRANCH  36  37
ENDBRANCH  35  36
ENDBRANCH  34  35
ENDBRANCH  33  34
ENDBRANCH  32  33
ENDBRANCH   1  32
TORSDOF 27
ENDMDL
