MODEL 1
REMARK VINA RESULT:      -7.2      0.000      0.000
REMARK SMILES Cc1ccc(CNC(=O)c2csc(/C=C/C(=O)OCCOCCOCCOCCOC(=O)c3ccc(-c4c5nc(c(-c6ccc(S(=O)(=O)[O-])cc6)c6ccc([nH]6)c(-c6ccc(S(=O)(=O)[O-])cc6)c6nc(c(-c7ccc(S(=O)(=O)[O-])cc7)c7ccc4[nH]7)C=C6)C=C5)cc3)c2)s1
REMARK SMILES IDX 23 1 22 2 21 3 20 4 19 5 18 6 16 7 17 8 15 9 14 10 13 11
REMARK SMILES IDX 10 12 11 13 93 14 12 15 8 16 7 17 9 19 6 20 5 21 1 22 2 23
REMARK SMILES IDX 3 24 94 25 4 26 24 27 25 28 26 29 27 30 28 31 29 32 30 33
REMARK SMILES IDX 31 34 32 35 33 36 34 37 92 38 35 39 91 40 36 41 37 42 38 43
REMARK SMILES IDX 85 44 39 45 90 46 84 47 86 48 40 49 89 50 83 51 82 52 41 54
REMARK SMILES IDX 71 55 52 56 70 57 53 58 56 59 69 60 87 61 54 62 55 63 68 65
REMARK SMILES IDX 88 66 57 67 42 68 43 69 51 70 44 71 50 72 45 73 46 74 47 75
REMARK SMILES IDX 48 76 49 77 72 78 73 79 81 80 74 81 80 82 75 83 76 84 77 85
REMARK SMILES IDX 78 86 79 87 58 88 59 89 67 90 60 91 66 92 61 93 62 94 63 95
REMARK SMILES IDX 64 96 65 97
REMARK H PARENT 7 18 86 53 56 64
REMARK Flexibility Score: inf
ROOT
ATOM      1  C   UNL A   1      34.587  32.844  30.245  1.00  0.00     0.188 C 
ENDROOT
BRANCH   1   2
ATOM      2  C   UNL A   1      35.351  32.910  28.909  1.00  0.00     0.188 C 
BRANCH   2   3
ATOM      3  O   UNL A   1      35.059  31.834  28.037  1.00  0.00    -0.376 OA
BRANCH   3   4
ATOM      4  C   UNL A   1      35.996  30.790  27.833  1.00  0.00     0.202 C 
BRANCH   4   5
ATOM      5  C   UNL A   1      36.341  29.758  28.922  1.00  0.00     0.261 C 
BRANCH   5   6
ATOM      6  O   UNL A   1      37.398  30.097  29.821  1.00  0.00    -0.460 OA
BRANCH   6   7
ATOM      7  C   UNL A   1      37.957  29.096  30.526  1.00  0.00     0.330 C 
ATOM      8  O   UNL A   1      37.962  28.979  31.741  1.00  0.00    -0.247 OA
BRANCH   7   9
ATOM      9  C   UNL A   1      38.438  28.028  29.620  1.00  0.00     0.095 C 
ATOM     10  C   UNL A   1      39.600  28.078  28.948  1.00  0.00     0.026 C 
BRANCH  10  11
ATOM     11  C   UNL A   1      40.034  27.030  28.081  1.00  0.00     0.028 A 
ATOM     12  C   UNL A   1      40.128  24.896  27.088  1.00  0.00     0.051 A 
ATOM     13  C   UNL A   1      40.813  25.665  26.167  1.00  0.00     0.079 A 
ATOM     14  C   UNL A   1      39.857  25.669  28.267  1.00  0.00     0.033 A 
ATOM     15  S   UNL A   1      40.921  27.303  26.630  1.00  0.00    -0.144 S 
BRANCH  12  16
ATOM     16  C   UNL A   1      39.792  23.500  26.825  1.00  0.00     0.252 C 
ATOM     17  N   UNL A   1      38.485  23.170  26.566  1.00  0.00    -0.347 N 
ATOM     18  H   UNL A   1      38.300  22.207  26.487  1.00  0.00     0.164 HD
ATOM     19  O   UNL A   1      40.652  22.624  26.773  1.00  0.00    -0.269 OA
BRANCH  17  20
ATOM     20  C   UNL A   1      37.338  24.039  26.392  1.00  0.00     0.163 C 
BRANCH  20  21
ATOM     21  C   UNL A   1      36.629  23.740  25.112  1.00  0.00     0.024 A 
ATOM     22  C   UNL A   1      33.628  23.488  22.599  1.00  0.00     0.056 C 
ATOM     23  C   UNL A   1      34.900  23.442  23.372  1.00  0.00     0.002 A 
ATOM     24  C   UNL A   1      36.062  22.763  23.074  1.00  0.00     0.015 A 
ATOM     25  S   UNL A   1      35.027  24.293  24.849  1.00  0.00    -0.144 S 
ATOM     26  C   UNL A   1      37.061  22.939  24.074  1.00  0.00     0.017 A 
ENDBRANCH  20  21
ENDBRANCH  17  20
ENDBRANCH  12  16
ENDBRANCH  10  11
ENDBRANCH   7   9
ENDBRANCH   6   7
ENDBRANCH   5   6
ENDBRANCH   4   5
ENDBRANCH   3   4
ENDBRANCH   2   3
ENDBRANCH   1   2
BRANCH   1  27
ATOM     27  O   UNL A   1      33.886  34.017  30.619  1.00  0.00    -0.377 OA
BRANCH  27  28
ATOM     28  C   UNL A   1      34.388  34.830  31.681  1.00  0.00     0.188 C 
BRANCH  28  29
ATOM     29  C   UNL A   1      35.872  34.826  32.128  1.00  0.00     0.188 C 
BRANCH  29  30
ATOM     30  O   UNL A   1      36.081  35.015  33.519  1.00  0.00    -0.376 OA
BRANCH  30  31
ATOM     31  C   UNL A   1      36.019  33.877  34.359  1.00  0.00     0.202 C 
BRANCH  31  32
ATOM     32  C   UNL A   1      37.360  33.231  34.734  1.00  0.00     0.261 C 
BRANCH  32  33
ATOM     33  O   UNL A   1      38.138  32.723  33.641  1.00  0.00    -0.460 OA
BRANCH  33  34
ATOM     34  C   UNL A   1      39.291  33.364  33.353  1.00  0.00     0.338 C 
ATOM     35  O   UNL A   1      39.422  34.539  33.047  1.00  0.00    -0.246 OA
BRANCH  34  36
ATOM     36  C   UNL A   1      40.404  32.441  33.655  1.00  0.00     0.060 A 
ATOM     37  C   UNL A   1      41.719  32.923  33.631  1.00  0.00     0.016 A 
ATOM     38  C   UNL A   1      40.144  31.107  33.975  1.00  0.00     0.016 A 
ATOM     39  C   UNL A   1      42.783  32.060  33.896  1.00  0.00     0.010 A 
ATOM     40  C   UNL A   1      41.212  30.240  34.221  1.00  0.00     0.010 A 
ATOM     41  C   UNL A   1      42.538  30.704  34.151  1.00  0.00    -0.014 A 
BRANCH  41  42
ATOM     42  C   UNL A   1      43.659  29.733  34.154  1.00  0.00     0.031 A 
ATOM     43  C   UNL A   1      44.241  29.318  35.479  1.00  0.00     0.074 A 
ATOM     44  C   UNL A   1      44.148  29.220  33.010  1.00  0.00     0.049 A 
ATOM     45  N   UNL A   1      45.253  28.528  35.731  1.00  0.00    -0.248 NA
ATOM     46  C   UNL A   1      43.594  29.871  36.681  1.00  0.00     0.031 C 
ATOM     47  C   UNL A   1      43.643  29.504  31.668  1.00  0.00     0.029 A 
ATOM     48  N   UNL A   1      45.191  28.351  32.800  1.00  0.00    -0.354 N 
ATOM     49  C   UNL A   1      45.371  28.500  37.116  1.00  0.00     0.074 A 
ATOM     50  C   UNL A   1      44.349  29.374  37.648  1.00  0.00     0.031 C 
ATOM     51  C   UNL A   1      44.384  28.828  30.771  1.00  0.00     0.029 A 
ATOM     52  C   UNL A   1      45.437  28.095  31.472  1.00  0.00     0.049 A 
ATOM     53  H   UNL A   1      45.714  27.950  33.531  1.00  0.00     0.167 HD
ATOM     54  C   UNL A   1      46.249  27.804  37.877  1.00  0.00     0.031 A 
ATOM     55  C   UNL A   1      46.416  27.372  30.888  1.00  0.00     0.031 A 
ATOM     56  C   UNL A   1      47.276  26.950  37.344  1.00  0.00     0.049 A 
ATOM     57  C   UNL A   1      47.436  26.675  31.753  1.00  0.00     0.074 A 
ATOM     58  C   UNL A   1      48.206  26.191  38.032  1.00  0.00     0.029 A 
ATOM     59  N   UNL A   1      47.516  26.748  35.993  1.00  0.00    -0.354 N 
ATOM     60  N   UNL A   1      47.519  26.634  33.062  1.00  0.00    -0.248 NA
ATOM     61  C   UNL A   1      48.490  25.918  31.061  1.00  0.00     0.031 C 
ATOM     62  C   UNL A   1      49.051  25.585  37.099  1.00  0.00     0.029 A 
ATOM     63  C   UNL A   1      48.601  25.904  35.827  1.00  0.00     0.049 A 
ATOM     64  H   UNL A   1      46.993  27.146  35.260  1.00  0.00     0.167 HD
ATOM     65  C   UNL A   1      48.615  25.824  33.349  1.00  0.00     0.074 A 
ATOM     66  C   UNL A   1      49.151  25.384  32.078  1.00  0.00     0.031 C 
ATOM     67  C   UNL A   1      49.127  25.474  34.555  1.00  0.00     0.031 A 
BRANCH  54  68
ATOM     68  C   UNL A   1      46.161  27.974  39.372  1.00  0.00    -0.014 A 
ATOM     69  C   UNL A   1      46.896  28.970  40.041  1.00  0.00     0.010 A 
ATOM     70  C   UNL A   1      45.302  27.144  40.115  1.00  0.00     0.010 A 
ATOM     71  C   UNL A   1      46.801  29.108  41.429  1.00  0.00     0.020 A 
ATOM     72  C   UNL A   1      45.180  27.298  41.498  1.00  0.00     0.020 A 
ATOM     73  C   UNL A   1      45.943  28.270  42.148  1.00  0.00     0.054 A 
BRANCH  73  74
ATOM     74  S   UNL A   1      45.821  28.488  43.945  1.00  0.00     0.124 S 
ATOM     75  O   UNL A   1      44.439  28.091  44.203  1.00  0.00    -0.237 OA
ATOM     76  O   UNL A   1      46.841  27.572  44.447  1.00  0.00    -0.237 OA
ATOM     77  O   UNL A   1      46.109  29.906  44.143  1.00  0.00    -0.744 OA
ENDBRANCH  73  74
ENDBRANCH  54  68
BRANCH  55  78
ATOM     78  C   UNL A   1      46.497  27.289  29.402  1.00  0.00    -0.014 A 
ATOM     79  C   UNL A   1      47.202  28.255  28.662  1.00  0.00     0.010 A 
ATOM     80  C   UNL A   1      45.857  26.239  28.715  1.00  0.00     0.010 A 
ATOM     81  C   UNL A   1      47.252  28.182  27.266  1.00  0.00     0.020 A 
ATOM     82  C   UNL A   1      45.933  26.146  27.323  1.00  0.00     0.020 A 
ATOM     83  C   UNL A   1      46.622  27.124  26.606  1.00  0.00     0.054 A 
BRANCH  83  84
ATOM     84  S   UNL A   1      46.750  27.018  24.799  1.00  0.00     0.124 S 
ATOM     85  O   UNL A   1      45.935  28.150  24.369  1.00  0.00    -0.237 OA
ATOM     86  O   UNL A   1      48.187  27.151  24.579  1.00  0.00    -0.237 OA
ATOM     87  O   UNL A   1      46.200  25.698  24.494  1.00  0.00    -0.744 OA
ENDBRANCH  83  84
ENDBRANCH  55  78
BRANCH  67  88
ATOM     88  C   UNL A   1      50.309  24.536  34.569  1.00  0.00    -0.014 A 
ATOM     89  C   UNL A   1      50.169  23.173  34.251  1.00  0.00     0.010 A 
ATOM     90  C   UNL A   1      51.592  25.044  34.849  1.00  0.00     0.010 A 
ATOM     91  C   UNL A   1      51.286  22.331  34.244  1.00  0.00     0.020 A 
ATOM     92  C   UNL A   1      52.714  24.214  34.810  1.00  0.00     0.020 A 
ATOM     93  C   UNL A   1      52.552  22.858  34.522  1.00  0.00     0.054 A 
BRANCH  93  94
ATOM     94  S   UNL A   1      53.988  21.752  34.464  1.00  0.00     0.124 S 
ATOM     95  O   UNL A   1      54.876  22.354  35.456  1.00  0.00    -0.237 OA
ATOM     96  O   UNL A   1      53.413  20.462  34.837  1.00  0.00    -0.237 OA
ATOM     97  O   UNL A   1      54.446  21.847  33.080  1.00  0.00    -0.744 OA
ENDBRANCH  93  94
ENDBRANCH  67  88
ENDBRANCH  41  42
ENDBRANCH  34  36
ENDBRANCH  33  34
ENDBRANCH  32  33
ENDBRANCH  31  32
ENDBRANCH  30  31
ENDBRANCH  29  30
ENDBRANCH  28  29
ENDBRANCH  27  28
ENDBRANCH   1  27
TORSDOF 27
ENDMDL
MODEL 2
REMARK VINA RESULT:      -6.6      2.980      9.524
REMARK SMILES Cc1ccc(CNC(=O)c2csc(/C=C/C(=O)OCCOCCOCCOCCOC(=O)c3ccc(-c4c5nc(c(-c6ccc(S(=O)(=O)[O-])cc6)c6ccc([nH]6)c(-c6ccc(S(=O)(=O)[O-])cc6)c6nc(c(-c7ccc(S(=O)(=O)[O-])cc7)c7ccc4[nH]7)C=C6)C=C5)cc3)c2)s1
REMARK SMILES IDX 23 1 22 2 21 3 20 4 19 5 18 6 16 7 17 8 15 9 14 10 13 11
REMARK SMILES IDX 10 12 11 13 93 14 12 15 8 16 7 17 9 19 6 20 5 21 1 22 2 23
REMARK SMILES IDX 3 24 94 25 4 26 24 27 25 28 26 29 27 30 28 31 29 32 30 33
REMARK SMILES IDX 31 34 32 35 33 36 34 37 92 38 35 39 91 40 36 41 37 42 38 43
REMARK SMILES IDX 85 44 39 45 90 46 84 47 86 48 40 49 89 50 83 51 82 52 41 54
REMARK SMILES IDX 71 55 52 56 70 57 53 58 56 59 69 60 87 61 54 62 55 63 68 65
REMARK SMILES IDX 88 66 57 67 42 68 43 69 51 70 44 71 50 72 45 73 46 74 47 75
REMARK SMILES IDX 48 76 49 77 72 78 73 79 81 80 74 81 80 82 75 83 76 84 77 85
REMARK SMILES IDX 78 86 79 87 58 88 59 89 67 90 60 91 66 92 61 93 62 94 63 95
REMARK SMILES IDX 64 96 65 97
REMARK H PARENT 7 18 86 53 56 64
REMARK Flexibility Score: inf
ROOT
ATOM      1  C   UNL A   1      33.731  33.404  29.776  1.00  0.00     0.188 C 
ENDROOT
BRANCH   1   2
ATOM      2  C   UNL A   1      33.985  33.274  28.262  1.00  0.00     0.188 C 
BRANCH   2   3
ATOM      3  O   UNL A   1      33.242  32.236  27.651  1.00  0.00    -0.376 OA
BRANCH   3   4
ATOM      4  C   UNL A   1      33.874  31.038  27.234  1.00  0.00     0.202 C 
BRANCH   4   5
ATOM      5  C   UNL A   1      34.947  30.326  28.077  1.00  0.00     0.261 C 
BRANCH   5   6
ATOM      6  O   UNL A   1      36.258  30.891  28.065  1.00  0.00    -0.460 OA
BRANCH   6   7
ATOM      7  C   UNL A   1      37.256  30.153  28.587  1.00  0.00     0.330 C 
ATOM      8  O   UNL A   1      37.329  28.934  28.592  1.00  0.00    -0.247 OA
BRANCH   7   9
ATOM      9  C   UNL A   1      38.374  31.021  29.018  1.00  0.00     0.095 C 
ATOM     10  C   UNL A   1      38.246  32.035  29.891  1.00  0.00     0.026 C 
BRANCH  10  11
ATOM     11  C   UNL A   1      39.346  32.854  30.286  1.00  0.00     0.028 A 
ATOM     12  C   UNL A   1      41.574  33.483  30.722  1.00  0.00     0.051 A 
ATOM     13  C   UNL A   1      40.940  34.710  30.675  1.00  0.00     0.079 A 
ATOM     14  C   UNL A   1      40.602  32.427  30.683  1.00  0.00     0.033 A 
ATOM     15  S   UNL A   1      39.267  34.573  30.376  1.00  0.00    -0.144 S 
BRANCH  12  16
ATOM     16  C   UNL A   1      43.026  33.371  30.820  1.00  0.00     0.252 C 
ATOM     17  N   UNL A   1      43.788  33.628  29.708  1.00  0.00    -0.347 N 
ATOM     18  H   UNL A   1      44.751  33.450  29.805  1.00  0.00     0.164 HD
ATOM     19  O   UNL A   1      43.587  33.110  31.883  1.00  0.00    -0.269 OA
BRANCH  17  20
ATOM     20  C   UNL A   1      43.376  34.126  28.411  1.00  0.00     0.163 C 
BRANCH  20  21
ATOM     21  C   UNL A   1      43.889  35.511  28.181  1.00  0.00     0.024 A 
ATOM     22  C   UNL A   1      46.048  38.360  26.569  1.00  0.00     0.056 C 
ATOM     23  C   UNL A   1      45.161  37.462  27.359  1.00  0.00     0.002 A 
ATOM     24  C   UNL A   1      44.503  37.729  28.541  1.00  0.00     0.015 A 
ATOM     25  S   UNL A   1      44.874  35.865  26.823  1.00  0.00    -0.144 S 
ATOM     26  C   UNL A   1      43.766  36.606  29.013  1.00  0.00     0.017 A 
ENDBRANCH  20  21
ENDBRANCH  17  20
ENDBRANCH  12  16
ENDBRANCH  10  11
ENDBRANCH   7   9
ENDBRANCH   6   7
ENDBRANCH   5   6
ENDBRANCH   4   5
ENDBRANCH   3   4
ENDBRANCH   2   3
ENDBRANCH   1   2
BRANCH   1  27
ATOM     27  O   UNL A   1      33.078  34.589  30.197  1.00  0.00    -0.377 OA
BRANCH  27  28
ATOM     28  C   UNL A   1      33.705  35.434  31.164  1.00  0.00     0.188 C 
BRANCH  28  29
ATOM     29  C   UNL A   1      35.104  35.146  31.767  1.00  0.00     0.188 C 
BRANCH  29  30
ATOM     30  O   UNL A   1      35.234  35.437  33.149  1.00  0.00    -0.376 OA
BRANCH  30  31
ATOM     31  C   UNL A   1      34.852  34.437  34.076  1.00  0.00     0.202 C 
BRANCH  31  32
ATOM     32  C   UNL A   1      35.991  33.656  34.745  1.00  0.00     0.261 C 
BRANCH  32  33
ATOM     33  O   UNL A   1      37.112  33.339  33.906  1.00  0.00    -0.460 OA
BRANCH  33  34
ATOM     34  C   UNL A   1      38.237  34.065  34.077  1.00  0.00     0.338 C 
ATOM     35  O   UNL A   1      38.323  35.280  34.159  1.00  0.00    -0.246 OA
BRANCH  34  36
ATOM     36  C   UNL A   1      39.342  33.121  34.341  1.00  0.00     0.060 A 
ATOM     37  C   UNL A   1      40.663  33.585  34.305  1.00  0.00     0.016 A 
ATOM     38  C   UNL A   1      39.069  31.784  34.639  1.00  0.00     0.016 A 
ATOM     39  C   UNL A   1      41.720  32.702  34.534  1.00  0.00     0.010 A 
ATOM     40  C   UNL A   1      40.129  30.898  34.850  1.00  0.00     0.010 A 
ATOM     41  C   UNL A   1      41.460  31.345  34.766  1.00  0.00    -0.014 A 
BRANCH  41  42
ATOM     42  C   UNL A   1      42.568  30.359  34.730  1.00  0.00     0.031 A 
ATOM     43  C   UNL A   1      42.828  29.627  33.441  1.00  0.00     0.074 A 
ATOM     44  C   UNL A   1      43.334  30.122  35.810  1.00  0.00     0.049 A 
ATOM     45  N   UNL A   1      43.700  28.687  33.181  1.00  0.00    -0.248 NA
ATOM     46  C   UNL A   1      41.989  30.004  32.291  1.00  0.00     0.031 C 
ATOM     47  C   UNL A   1      43.215  30.797  37.101  1.00  0.00     0.029 A 
ATOM     48  N   UNL A   1      44.368  29.235  35.989  1.00  0.00    -0.354 N 
ATOM     49  C   UNL A   1      43.508  28.354  31.845  1.00  0.00     0.074 A 
ATOM     50  C   UNL A   1      42.417  29.169  31.357  1.00  0.00     0.031 C 
ATOM     51  C   UNL A   1      44.135  30.293  37.943  1.00  0.00     0.029 A 
ATOM     52  C   UNL A   1      44.881  29.235  37.264  1.00  0.00     0.049 A 
ATOM     53  H   UNL A   1      44.708  28.653  35.271  1.00  0.00     0.167 HD
ATOM     54  C   UNL A   1      44.182  27.454  31.091  1.00  0.00     0.031 A 
ATOM     55  C   UNL A   1      45.827  28.453  37.825  1.00  0.00     0.031 A 
ATOM     56  C   UNL A   1      45.254  26.633  31.584  1.00  0.00     0.049 A 
ATOM     57  C   UNL A   1      46.505  27.398  36.989  1.00  0.00     0.074 A 
ATOM     58  C   UNL A   1      46.010  25.700  30.895  1.00  0.00     0.029 A 
ATOM     59  N   UNL A   1      45.717  26.636  32.891  1.00  0.00    -0.354 N 
ATOM     60  N   UNL A   1      46.332  27.113  35.719  1.00  0.00    -0.248 NA
ATOM     61  C   UNL A   1      47.514  26.564  37.659  1.00  0.00     0.031 C 
ATOM     62  C   UNL A   1      46.883  25.091  31.801  1.00  0.00     0.029 A 
ATOM     63  C   UNL A   1      46.725  25.697  33.037  1.00  0.00     0.049 A 
ATOM     64  H   UNL A   1      45.380  27.218  33.610  1.00  0.00     0.167 HD
ATOM     65  C   UNL A   1      47.230  26.088  35.433  1.00  0.00     0.074 A 
ATOM     66  C   UNL A   1      47.955  25.816  36.657  1.00  0.00     0.031 C 
ATOM     67  C   UNL A   1      47.439  25.434  34.263  1.00  0.00     0.031 A 
BRANCH  54  68
ATOM     68  C   UNL A   1      43.747  27.282  29.658  1.00  0.00    -0.014 A 
ATOM     69  C   UNL A   1      44.324  28.037  28.621  1.00  0.00     0.010 A 
ATOM     70  C   UNL A   1      42.768  26.323  29.341  1.00  0.00     0.010 A 
ATOM     71  C   UNL A   1      43.904  27.863  27.300  1.00  0.00     0.020 A 
ATOM     72  C   UNL A   1      42.366  26.123  28.017  1.00  0.00     0.020 A 
ATOM     73  C   UNL A   1      42.926  26.907  27.007  1.00  0.00     0.054 A 
BRANCH  73  74
ATOM     74  S   UNL A   1      42.418  26.685  25.279  1.00  0.00     0.124 S 
ATOM     75  O   UNL A   1      43.424  25.746  24.789  1.00  0.00    -0.237 OA
ATOM     76  O   UNL A   1      41.068  26.145  25.412  1.00  0.00    -0.237 OA
ATOM     77  O   UNL A   1      42.497  28.031  24.718  1.00  0.00    -0.744 OA
ENDBRANCH  73  74
ENDBRANCH  54  68
BRANCH  55  78
ATOM     78  C   UNL A   1      46.175  28.620  39.265  1.00  0.00    -0.014 A 
ATOM     79  C   UNL A   1      45.519  27.870  40.258  1.00  0.00     0.010 A 
ATOM     80  C   UNL A   1      47.165  29.543  39.652  1.00  0.00     0.010 A 
ATOM     81  C   UNL A   1      45.835  28.051  41.609  1.00  0.00     0.020 A 
ATOM     82  C   UNL A   1      47.506  29.703  40.998  1.00  0.00     0.020 A 
ATOM     83  C   UNL A   1      46.831  28.962  41.969  1.00  0.00     0.054 A 
BRANCH  83  84
ATOM     84  S   UNL A   1      47.265  29.137  43.723  1.00  0.00     0.124 S 
ATOM     85  O   UNL A   1      45.952  29.196  44.357  1.00  0.00    -0.237 OA
ATOM     86  O   UNL A   1      48.039  27.925  43.976  1.00  0.00    -0.237 OA
ATOM     87  O   UNL A   1      48.036  30.379  43.762  1.00  0.00    -0.744 OA
ENDBRANCH  83  84
ENDBRANCH  55  78
BRANCH  67  88
ATOM     88  C   UNL A   1      48.521  24.384  34.229  1.00  0.00    -0.014 A 
ATOM     89  C   UNL A   1      49.837  24.696  33.843  1.00  0.00     0.010 A 
ATOM     90  C   UNL A   1      48.226  23.073  34.651  1.00  0.00     0.010 A 
ATOM     91  C   UNL A   1      50.828  23.709  33.848  1.00  0.00     0.020 A 
ATOM     92  C   UNL A   1      49.220  22.094  34.688  1.00  0.00     0.020 A 
ATOM     93  C   UNL A   1      50.513  22.415  34.272  1.00  0.00     0.054 A 
BRANCH  93  94
ATOM     94  S   UNL A   1      51.827  21.166  34.309  1.00  0.00     0.124 S 
ATOM     95  O   UNL A   1      51.066  19.926  34.440  1.00  0.00    -0.237 OA
ATOM     96  O   UNL A   1      52.491  21.363  33.022  1.00  0.00    -0.237 OA
ATOM     97  O   UNL A   1      52.625  21.532  35.477  1.00  0.00    -0.744 OA
ENDBRANCH  93  94
ENDBRANCH  67  88
ENDBRANCH  41  42
ENDBRANCH  34  36
ENDBRANCH  33  34
ENDBRANCH  32  33
ENDBRANCH  31  32
ENDBRANCH  30  31
ENDBRANCH  29  30
ENDBRANCH  28  29
ENDBRANCH  27  28
ENDBRANCH   1  27
TORSDOF 27
ENDMDL
MODEL 3
REMARK VINA RESULT:      -6.1      6.158     12.862
REMARK SMILES Cc1ccc(CNC(=O)c2csc(/C=C/C(=O)OCCOCCOCCOCCOC(=O)c3ccc(-c4c5nc(c(-c6ccc(S(=O)(=O)[O-])cc6)c6ccc([nH]6)c(-c6ccc(S(=O)(=O)[O-])cc6)c6nc(c(-c7ccc(S(=O)(=O)[O-])cc7)c7ccc4[nH]7)C=C6)C=C5)cc3)c2)s1
REMARK SMILES IDX 23 1 22 2 21 3 20 4 19 5 18 6 16 7 17 8 15 9 14 10 13 11
REMARK SMILES IDX 10 12 11 13 93 14 12 15 8 16 7 17 9 19 6 20 5 21 1 22 2 23
REMARK SMILES IDX 3 24 94 25 4 26 24 27 25 28 26 29 27 30 28 31 29 32 30 33
REMARK SMILES IDX 31 34 32 35 33 36 34 37 92 38 35 39 91 40 36 41 37 42 38 43
REMARK SMILES IDX 85 44 39 45 90 46 84 47 86 48 40 49 89 50 83 51 82 52 41 54
REMARK SMILES IDX 71 55 52 56 70 57 53 58 56 59 69 60 87 61 54 62 55 63 68 65
REMARK SMILES IDX 88 66 57 67 42 68 43 69 51 70 44 71 50 72 45 73 46 74 47 75
REMARK SMILES IDX 48 76 49 77 72 78 73 79 81 80 74 81 80 82 75 83 76 84 77 85
REMARK SMILES IDX 78 86 79 87 58 88 59 89 67 90 60 91 66 92 61 93 62 94 63 95
REMARK SMILES IDX 64 96 65 97
REMARK H PARENT 7 18 86 53 56 64
REMARK Flexibility Score: inf
ROOT
ATOM      1  C   UNL A   1      43.071  26.713  29.801  1.00  0.00     0.188 C 
ENDROOT
BRANCH   1   2
ATOM      2  C   UNL A   1      42.268  27.863  30.436  1.00  0.00     0.188 C 
BRANCH   2   3
ATOM      3  O   UNL A   1      42.712  28.216  31.732  1.00  0.00    -0.376 OA
BRANCH   3   4
ATOM      4  C   UNL A   1      41.807  28.264  32.822  1.00  0.00     0.202 C 
BRANCH   4   5
ATOM      5  C   UNL A   1      42.068  27.537  34.153  1.00  0.00     0.261 C 
BRANCH   5   6
ATOM      6  O   UNL A   1      41.011  26.724  34.663  1.00  0.00    -0.460 OA
BRANCH   6   7
ATOM      7  C   UNL A   1      41.304  25.895  35.684  1.00  0.00     0.330 C 
ATOM      8  O   UNL A   1      40.578  25.622  36.626  1.00  0.00    -0.247 OA
BRANCH   7   9
ATOM      9  C   UNL A   1      42.586  25.199  35.437  1.00  0.00     0.095 C 
ATOM     10  C   UNL A   1      42.735  23.864  35.464  1.00  0.00     0.026 C 
BRANCH  10  11
ATOM     11  C   UNL A   1      43.987  23.223  35.223  1.00  0.00     0.028 A 
ATOM     12  C   UNL A   1      46.028  22.141  35.685  1.00  0.00     0.051 A 
ATOM     13  C   UNL A   1      45.850  21.847  34.346  1.00  0.00     0.079 A 
ATOM     14  C   UNL A   1      45.039  23.090  36.113  1.00  0.00     0.033 A 
ATOM     15  S   UNL A   1      44.420  22.523  33.710  1.00  0.00    -0.144 S 
BRANCH  12  16
ATOM     16  C   UNL A   1      47.106  21.544  36.467  1.00  0.00     0.252 C 
ATOM     17  N   UNL A   1      48.314  22.193  36.534  1.00  0.00    -0.347 N 
ATOM     18  H   UNL A   1      49.031  21.704  36.998  1.00  0.00     0.164 HD
ATOM     19  O   UNL A   1      46.945  20.511  37.112  1.00  0.00    -0.269 OA
BRANCH  17  20
ATOM     20  C   UNL A   1      48.683  23.497  36.020  1.00  0.00     0.163 C 
BRANCH  20  21
ATOM     21  C   UNL A   1      49.769  23.384  35.001  1.00  0.00     0.024 A 
ATOM     22  C   UNL A   1      52.515  24.591  32.475  1.00  0.00     0.056 C 
ATOM     23  C   UNL A   1      51.512  23.894  33.325  1.00  0.00     0.002 A 
ATOM     24  C   UNL A   1      51.088  22.584  33.254  1.00  0.00     0.015 A 
ATOM     25  S   UNL A   1      50.707  24.751  34.566  1.00  0.00    -0.144 S 
ATOM     26  C   UNL A   1      50.087  22.288  34.224  1.00  0.00     0.017 A 
ENDBRANCH  20  21
ENDBRANCH  17  20
ENDBRANCH  12  16
ENDBRANCH  10  11
ENDBRANCH   7   9
ENDBRANCH   6   7
ENDBRANCH   5   6
ENDBRANCH   4   5
ENDBRANCH   3   4
ENDBRANCH   2   3
ENDBRANCH   1   2
BRANCH   1  27
ATOM     27  O   UNL A   1      42.413  25.986  28.778  1.00  0.00    -0.377 OA
BRANCH  27  28
ATOM     28  C   UNL A   1      41.080  26.340  28.406  1.00  0.00     0.188 C 
BRANCH  28  29
ATOM     29  C   UNL A   1      40.080  25.342  27.768  1.00  0.00     0.188 C 
BRANCH  29  30
ATOM     30  O   UNL A   1      40.433  23.974  27.896  1.00  0.00    -0.376 OA
BRANCH  30  31
ATOM     31  C   UNL A   1      41.286  23.414  26.915  1.00  0.00     0.202 C 
BRANCH  31  32
ATOM     32  C   UNL A   1      42.129  22.208  27.351  1.00  0.00     0.261 C 
BRANCH  32  33
ATOM     33  O   UNL A   1      43.493  22.488  27.697  1.00  0.00    -0.460 OA
BRANCH  33  34
ATOM     34  C   UNL A   1      44.391  22.529  26.689  1.00  0.00     0.338 C 
ATOM     35  O   UNL A   1      44.548  21.694  25.811  1.00  0.00    -0.246 OA
BRANCH  34  36
ATOM     36  C   UNL A   1      45.034  23.857  26.716  1.00  0.00     0.060 A 
ATOM     37  C   UNL A   1      45.092  24.615  25.540  1.00  0.00     0.016 A 
ATOM     38  C   UNL A   1      45.566  24.357  27.907  1.00  0.00     0.016 A 
ATOM     39  C   UNL A   1      45.713  25.865  25.544  1.00  0.00     0.010 A 
ATOM     40  C   UNL A   1      46.204  25.600  27.905  1.00  0.00     0.010 A 
ATOM     41  C   UNL A   1      46.310  26.346  26.718  1.00  0.00    -0.014 A 
BRANCH  41  42
ATOM     42  C   UNL A   1      47.206  27.526  26.666  1.00  0.00     0.031 A 
ATOM     43  C   UNL A   1      48.691  27.291  26.577  1.00  0.00     0.074 A 
ATOM     44  C   UNL A   1      46.720  28.781  26.687  1.00  0.00     0.049 A 
ATOM     45  N   UNL A   1      49.670  28.158  26.573  1.00  0.00    -0.248 NA
ATOM     46  C   UNL A   1      49.128  25.888  26.483  1.00  0.00     0.031 C 
ATOM     47  C   UNL A   1      45.304  29.142  26.724  1.00  0.00     0.029 A 
ATOM     48  N   UNL A   1      47.375  29.988  26.686  1.00  0.00    -0.354 N 
ATOM     49  C   UNL A   1      50.837  27.407  26.488  1.00  0.00     0.074 A 
ATOM     50  C   UNL A   1      50.446  26.015  26.474  1.00  0.00     0.031 C 
ATOM     51  C   UNL A   1      45.197  30.483  26.751  1.00  0.00     0.029 A 
ATOM     52  C   UNL A   1      46.535  31.072  26.772  1.00  0.00     0.049 A 
ATOM     53  H   UNL A   1      48.354  30.069  26.629  1.00  0.00     0.167 HD
ATOM     54  C   UNL A   1      52.119  27.837  26.422  1.00  0.00     0.031 A 
ATOM     55  C   UNL A   1      46.814  32.388  26.881  1.00  0.00     0.031 A 
ATOM     56  C   UNL A   1      52.505  29.222  26.454  1.00  0.00     0.049 A 
ATOM     57  C   UNL A   1      48.253  32.839  26.893  1.00  0.00     0.074 A 
ATOM     58  C   UNL A   1      53.777  29.762  26.379  1.00  0.00     0.029 A 
ATOM     59  N   UNL A   1      51.626  30.287  26.581  1.00  0.00    -0.354 N 
ATOM     60  N   UNL A   1      49.345  32.120  26.784  1.00  0.00    -0.248 NA
ATOM     61  C   UNL A   1      48.496  34.283  27.033  1.00  0.00     0.031 C 
ATOM     62  C   UNL A   1      53.674  31.147  26.530  1.00  0.00     0.029 A 
ATOM     63  C   UNL A   1      52.331  31.479  26.621  1.00  0.00     0.049 A 
ATOM     64  H   UNL A   1      50.646  30.209  26.635  1.00  0.00     0.167 HD
ATOM     65  C   UNL A   1      50.402  33.026  26.812  1.00  0.00     0.074 A 
ATOM     66  C   UNL A   1      49.817  34.345  26.932  1.00  0.00     0.031 C 
ATOM     67  C   UNL A   1      51.736  32.788  26.742  1.00  0.00     0.031 A 
BRANCH  54  68
ATOM     68  C   UNL A   1      53.202  26.791  26.351  1.00  0.00    -0.014 A 
ATOM     69  C   UNL A   1      53.565  26.194  25.131  1.00  0.00     0.010 A 
ATOM     70  C   UNL A   1      53.891  26.426  27.523  1.00  0.00     0.010 A 
ATOM     71  C   UNL A   1      54.571  25.225  25.089  1.00  0.00     0.020 A 
ATOM     72  C   UNL A   1      54.918  25.480  27.481  1.00  0.00     0.020 A 
ATOM     73  C   UNL A   1      55.240  24.874  26.266  1.00  0.00     0.054 A 
BRANCH  73  74
ATOM     74  S   UNL A   1      56.559  23.630  26.177  1.00  0.00     0.124 S 
ATOM     75  O   UNL A   1      57.470  24.084  27.225  1.00  0.00    -0.237 OA
ATOM     76  O   UNL A   1      55.844  22.389  26.460  1.00  0.00    -0.237 OA
ATOM     77  O   UNL A   1      57.066  23.757  24.813  1.00  0.00    -0.744 OA
ENDBRANCH  73  74
ENDBRANCH  54  68
BRANCH  55  78
ATOM     78  C   UNL A   1      45.707  33.378  27.014  1.00  0.00    -0.014 A 
ATOM     79  C   UNL A   1      45.254  33.788  28.280  1.00  0.00     0.010 A 
ATOM     80  C   UNL A   1      45.092  33.910  25.865  1.00  0.00     0.010 A 
ATOM     81  C   UNL A   1      44.198  34.699  28.394  1.00  0.00     0.020 A 
ATOM     82  C   UNL A   1      44.058  34.845  25.976  1.00  0.00     0.020 A 
ATOM     83  C   UNL A   1      43.611  35.226  27.241  1.00  0.00     0.054 A 
BRANCH  83  84
ATOM     84  S   UNL A   1      42.282  36.449  27.415  1.00  0.00     0.124 S 
ATOM     85  O   UNL A   1      42.705  37.493  26.487  1.00  0.00    -0.237 OA
ATOM     86  O   UNL A   1      41.102  35.687  27.018  1.00  0.00    -0.237 OA
ATOM     87  O   UNL A   1      42.334  36.811  28.831  1.00  0.00    -0.744 OA
ENDBRANCH  83  84
ENDBRANCH  55  78
BRANCH  67  88
ATOM     88  C   UNL A   1      52.663  33.978  26.752  1.00  0.00    -0.014 A 
ATOM     89  C   UNL A   1      53.141  34.546  25.558  1.00  0.00     0.010 A 
ATOM     90  C   UNL A   1      53.011  34.573  27.980  1.00  0.00     0.010 A 
ATOM     91  C   UNL A   1      53.977  35.667  25.595  1.00  0.00     0.020 A 
ATOM     92  C   UNL A   1      53.818  35.711  28.019  1.00  0.00     0.020 A 
ATOM     93  C   UNL A   1      54.308  36.244  26.825  1.00  0.00     0.054 A 
BRANCH  93  94
ATOM     94  S   UNL A   1      55.359  37.722  26.841  1.00  0.00     0.124 S 
ATOM     95  O   UNL A   1      54.845  38.449  27.999  1.00  0.00    -0.237 OA
ATOM     96  O   UNL A   1      56.699  37.159  26.995  1.00  0.00    -0.237 OA
ATOM     97  O   UNL A   1      55.099  38.349  25.547  1.00  0.00    -0.744 OA
ENDBRANCH  93  94
ENDBRANCH  67  88
ENDBRANCH  41  42
ENDBRANCH  34  36
ENDBRANCH  33  34
ENDBRANCH  32  33
ENDBRANCH  31  32
ENDBRANCH  30  31
ENDBRANCH  29  30
ENDBRANCH  28  29
ENDBRANCH  27  28
ENDBRANCH   1  27
TORSDOF 27
ENDMDL
