MODEL 1
REMARK VINA RESULT:      -8.0      0.000      0.000
REMARK SMILES CCC(CC)(CC)NC(=O)NC[C@@H]1CC[C@H](C(=O)OCCOCCOCCOCCOC(=O)c2ccc(-c3c4nc(c(-c5ccc(S(=O)(=O)[O-])cc5)c5ccc([nH]5)c(-c5ccc(S(=O)(=O)[O-])cc5)c5nc(c(-c6ccc(S(=O)(=O)[O-])cc6)c6ccc3[nH]6)C=C5)C=C4)cc2)O1
REMARK SMILES IDX 24 1 23 2 22 3 21 4 20 5 19 6 17 7 18 8 16 9 13 10 14 11
REMARK SMILES IDX 94 12 15 13 12 14 11 15 8 16 9 17 10 19 3 21 2 22 1 23 4 24
REMARK SMILES IDX 5 25 6 26 7 27 25 28 26 29 27 30 28 31 29 32 30 33 31 34
REMARK SMILES IDX 32 35 33 36 34 37 35 38 93 39 36 40 92 41 37 42 38 43 39 44
REMARK SMILES IDX 86 45 40 46 91 47 85 48 87 49 41 50 90 51 84 52 83 53 42 55
REMARK SMILES IDX 72 56 53 57 71 58 54 59 57 60 70 61 88 62 55 63 56 64 69 66
REMARK SMILES IDX 89 67 58 68 43 69 44 70 52 71 45 72 51 73 46 74 47 75 48 76
REMARK SMILES IDX 49 77 50 78 73 79 74 80 82 81 75 82 81 83 76 84 77 85 78 86
REMARK SMILES IDX 79 87 80 88 59 89 60 90 68 91 61 92 67 93 62 94 63 95 64 96
REMARK SMILES IDX 65 97 66 98
REMARK H PARENT 8 18 11 20 87 54 57 65
REMARK Flexibility Score: inf
ROOT
ATOM      1  C   UNL A   1      41.840  22.664  26.580  1.00  0.00     0.188 C 
ENDROOT
BRANCH   1   2
ATOM      2  C   UNL A   1      40.398  22.189  26.781  1.00  0.00     0.188 C 
BRANCH   2   3
ATOM      3  O   UNL A   1      39.569  21.992  25.656  1.00  0.00    -0.376 OA
BRANCH   3   4
ATOM      4  C   UNL A   1      38.165  21.819  25.794  1.00  0.00     0.202 C 
BRANCH   4   5
ATOM      5  C   UNL A   1      37.267  21.161  24.730  1.00  0.00     0.261 C 
BRANCH   5   6
ATOM      6  O   UNL A   1      35.841  21.102  24.977  1.00  0.00    -0.461 OA
BRANCH   6   7
ATOM      7  C   UNL A   1      35.267  22.222  25.490  1.00  0.00     0.335 C 
ATOM      8  O   UNL A   1      34.829  22.293  26.640  1.00  0.00    -0.249 OA
BRANCH   7   9
ATOM      9  C   UNL A   1      35.125  23.423  24.511  1.00  0.00     0.228 C 
ATOM     10  C   UNL A   1      33.119  24.639  24.379  1.00  0.00     0.138 C 
ATOM     11  C   UNL A   1      33.114  23.609  23.259  1.00  0.00     0.037 C 
ATOM     12  O   UNL A   1      34.398  24.545  25.022  1.00  0.00    -0.361 OA
ATOM     13  C   UNL A   1      34.570  23.232  23.119  1.00  0.00     0.047 C 
BRANCH  10  14
ATOM     14  C   UNL A   1      31.925  24.594  25.378  1.00  0.00     0.149 C 
BRANCH  14  15
ATOM     15  N   UNL A   1      31.783  25.745  26.270  1.00  0.00    -0.336 N 
ATOM     16  N   UNL A   1      30.967  27.839  25.382  1.00  0.00    -0.333 N 
ATOM     17  C   UNL A   1      31.340  26.990  26.327  1.00  0.00     0.315 C 
ATOM     18  H   UNL A   1      30.684  28.661  25.843  1.00  0.00     0.165 HD
ATOM     19  O   UNL A   1      31.302  27.455  27.478  1.00  0.00    -0.249 OA
ATOM     20  H   UNL A   1      32.150  25.504  27.151  1.00  0.00     0.165 HD
BRANCH  16  21
ATOM     21  C   UNL A   1      30.788  28.092  23.914  1.00  0.00     0.041 C 
BRANCH  21  22
ATOM     22  C   UNL A   1      30.101  29.409  23.550  1.00  0.00     0.025 C 
ATOM     23  C   UNL A   1      30.176  29.652  22.068  1.00  0.00     0.006 C 
ENDBRANCH  21  22
BRANCH  21  24
ATOM     24  C   UNL A   1      29.933  26.881  23.348  1.00  0.00     0.025 C 
ATOM     25  C   UNL A   1      28.507  26.707  23.893  1.00  0.00     0.006 C 
ENDBRANCH  21  24
BRANCH  21  26
ATOM     26  C   UNL A   1      32.181  28.033  23.223  1.00  0.00     0.025 C 
ATOM     27  C   UNL A   1      33.261  28.895  23.864  1.00  0.00     0.006 C 
ENDBRANCH  21  26
ENDBRANCH  16  21
ENDBRANCH  14  15
ENDBRANCH  10  14
ENDBRANCH   7   9
ENDBRANCH   6   7
ENDBRANCH   5   6
ENDBRANCH   4   5
ENDBRANCH   3   4
ENDBRANCH   2   3
ENDBRANCH   1   2
BRANCH   1  28
ATOM     28  O   UNL A   1      42.554  22.129  25.483  1.00  0.00    -0.377 OA
BRANCH  28  29
ATOM     29  C   UNL A   1      43.401  22.961  24.700  1.00  0.00     0.188 C 
BRANCH  29  30
ATOM     30  C   UNL A   1      44.489  22.332  23.815  1.00  0.00     0.188 C 
BRANCH  30  31
ATOM     31  O   UNL A   1      45.603  23.169  23.556  1.00  0.00    -0.376 OA
BRANCH  31  32
ATOM     32  C   UNL A   1      46.539  23.423  24.592  1.00  0.00     0.202 C 
BRANCH  32  33
ATOM     33  C   UNL A   1      46.635  24.838  25.192  1.00  0.00     0.261 C 
BRANCH  33  34
ATOM     34  O   UNL A   1      47.813  25.602  24.888  1.00  0.00    -0.460 OA
BRANCH  34  35
ATOM     35  C   UNL A   1      47.662  26.808  24.295  1.00  0.00     0.338 C 
ATOM     36  O   UNL A   1      47.839  27.080  23.130  1.00  0.00    -0.246 OA
BRANCH  35  37
ATOM     37  C   UNL A   1      47.044  27.717  25.288  1.00  0.00     0.060 A 
ATOM     38  C   UNL A   1      47.877  28.439  26.154  1.00  0.00     0.016 A 
ATOM     39  C   UNL A   1      45.656  27.844  25.372  1.00  0.00     0.016 A 
ATOM     40  C   UNL A   1      47.320  29.254  27.140  1.00  0.00     0.010 A 
ATOM     41  C   UNL A   1      45.100  28.643  26.375  1.00  0.00     0.010 A 
ATOM     42  C   UNL A   1      45.930  29.321  27.287  1.00  0.00    -0.014 A 
BRANCH  42  43
ATOM     43  C   UNL A   1      45.352  29.935  28.507  1.00  0.00     0.031 A 
ATOM     44  C   UNL A   1      45.245  29.091  29.751  1.00  0.00     0.074 A 
ATOM     45  C   UNL A   1      44.960  31.222  28.526  1.00  0.00     0.049 A 
ATOM     46  N   UNL A   1      44.744  29.396  30.919  1.00  0.00    -0.248 NA
ATOM     47  C   UNL A   1      45.773  27.719  29.662  1.00  0.00     0.031 C 
ATOM     48  C   UNL A   1      45.063  32.155  27.405  1.00  0.00     0.029 A 
ATOM     49  N   UNL A   1      44.391  31.965  29.531  1.00  0.00    -0.354 N 
ATOM     50  C   UNL A   1      44.883  28.253  31.699  1.00  0.00     0.074 A 
ATOM     51  C   UNL A   1      45.492  27.240  30.864  1.00  0.00     0.031 C 
ATOM     52  C   UNL A   1      44.561  33.345  27.782  1.00  0.00     0.029 A 
ATOM     53  C   UNL A   1      44.071  33.248  29.155  1.00  0.00     0.049 A 
ATOM     54  H   UNL A   1      44.229  31.611  30.436  1.00  0.00     0.167 HD
ATOM     55  C   UNL A   1      44.539  28.064  32.994  1.00  0.00     0.031 A 
ATOM     56  C   UNL A   1      43.432  34.222  29.835  1.00  0.00     0.031 A 
ATOM     57  C   UNL A   1      43.927  29.072  33.818  1.00  0.00     0.049 A 
ATOM     58  C   UNL A   1      42.987  33.960  31.253  1.00  0.00     0.074 A 
ATOM     59  C   UNL A   1      43.558  28.985  35.149  1.00  0.00     0.029 A 
ATOM     60  N   UNL A   1      43.583  30.346  33.391  1.00  0.00    -0.354 N 
ATOM     61  N   UNL A   1      43.152  32.884  31.987  1.00  0.00    -0.248 NA
ATOM     62  C   UNL A   1      42.278  35.050  31.938  1.00  0.00     0.031 C 
ATOM     63  C   UNL A   1      42.927  30.180  35.507  1.00  0.00     0.029 A 
ATOM     64  C   UNL A   1      42.974  31.041  34.422  1.00  0.00     0.049 A 
ATOM     65  H   UNL A   1      43.748  30.703  32.488  1.00  0.00     0.167 HD
ATOM     66  C   UNL A   1      42.592  33.180  33.227  1.00  0.00     0.074 A 
ATOM     67  C   UNL A   1      42.105  34.541  33.150  1.00  0.00     0.031 C 
ATOM     68  C   UNL A   1      42.491  32.397  34.330  1.00  0.00     0.031 A 
BRANCH  55  69
ATOM     69  C   UNL A   1      44.779  26.703  33.594  1.00  0.00    -0.014 A 
ATOM     70  C   UNL A   1      43.842  25.663  33.457  1.00  0.00     0.010 A 
ATOM     71  C   UNL A   1      45.993  26.444  34.257  1.00  0.00     0.010 A 
ATOM     72  C   UNL A   1      44.103  24.399  33.994  1.00  0.00     0.020 A 
ATOM     73  C   UNL A   1      46.272  25.174  34.768  1.00  0.00     0.020 A 
ATOM     74  C   UNL A   1      45.319  24.163  34.643  1.00  0.00     0.054 A 
BRANCH  74  75
ATOM     75  S   UNL A   1      45.649  22.500  35.289  1.00  0.00     0.124 S 
ATOM     76  O   UNL A   1      44.372  21.828  35.059  1.00  0.00    -0.237 OA
ATOM     77  O   UNL A   1      46.756  22.047  34.452  1.00  0.00    -0.237 OA
ATOM     78  O   UNL A   1      45.985  22.731  36.692  1.00  0.00    -0.744 OA
ENDBRANCH  74  75
ENDBRANCH  55  69
BRANCH  56  79
ATOM     79  C   UNL A   1      43.139  35.527  29.177  1.00  0.00    -0.014 A 
ATOM     80  C   UNL A   1      42.045  35.670  28.305  1.00  0.00     0.010 A 
ATOM     81  C   UNL A   1      43.976  36.637  29.403  1.00  0.00     0.010 A 
ATOM     82  C   UNL A   1      41.810  36.885  27.653  1.00  0.00     0.020 A 
ATOM     83  C   UNL A   1      43.725  37.863  28.780  1.00  0.00     0.020 A 
ATOM     84  C   UNL A   1      42.651  37.975  27.896  1.00  0.00     0.054 A 
BRANCH  84  85
ATOM     85  S   UNL A   1      42.309  39.549  27.062  1.00  0.00     0.124 S 
ATOM     86  O   UNL A   1      43.547  39.777  26.322  1.00  0.00    -0.237 OA
ATOM     87  O   UNL A   1      41.137  39.228  26.250  1.00  0.00    -0.237 OA
ATOM     88  O   UNL A   1      42.060  40.476  28.163  1.00  0.00    -0.744 OA
ENDBRANCH  84  85
ENDBRANCH  56  79
BRANCH  68  89
ATOM     89  C   UNL A   1      41.863  33.002  35.562  1.00  0.00    -0.014 A 
ATOM     90  C   UNL A   1      42.617  33.770  36.469  1.00  0.00     0.010 A 
ATOM     91  C   UNL A   1      40.484  32.840  35.788  1.00  0.00     0.010 A 
ATOM     92  C   UNL A   1      42.010  34.327  37.598  1.00  0.00     0.020 A 
ATOM     93  C   UNL A   1      39.867  33.425  36.896  1.00  0.00     0.020 A 
ATOM     94  C   UNL A   1      40.638  34.151  37.805  1.00  0.00     0.054 A 
BRANCH  94  95
ATOM     95  S   UNL A   1      39.870  34.912  39.261  1.00  0.00     0.124 S 
ATOM     96  O   UNL A   1      39.908  36.331  38.919  1.00  0.00    -0.237 OA
ATOM     97  O   UNL A   1      38.542  34.304  39.276  1.00  0.00    -0.237 OA
ATOM     98  O   UNL A   1      40.744  34.514  40.363  1.00  0.00    -0.744 OA
ENDBRANCH  94  95
ENDBRANCH  68  89
ENDBRANCH  42  43
ENDBRANCH  35  37
ENDBRANCH  34  35
ENDBRANCH  33  34
ENDBRANCH  32  33
ENDBRANCH  31  32
ENDBRANCH  30  31
ENDBRANCH  29  30
ENDBRANCH  28  29
ENDBRANCH   1  28
TORSDOF 29
ENDMDL
MODEL 2
REMARK VINA RESULT:      -7.4      3.809      7.889
REMARK SMILES CCC(CC)(CC)NC(=O)NC[C@@H]1CC[C@H](C(=O)OCCOCCOCCOCCOC(=O)c2ccc(-c3c4nc(c(-c5ccc(S(=O)(=O)[O-])cc5)c5ccc([nH]5)c(-c5ccc(S(=O)(=O)[O-])cc5)c5nc(c(-c6ccc(S(=O)(=O)[O-])cc6)c6ccc3[nH]6)C=C5)C=C4)cc2)O1
REMARK SMILES IDX 24 1 23 2 22 3 21 4 20 5 19 6 17 7 18 8 16 9 13 10 14 11
REMARK SMILES IDX 94 12 15 13 12 14 11 15 8 16 9 17 10 19 3 21 2 22 1 23 4 24
REMARK SMILES IDX 5 25 6 26 7 27 25 28 26 29 27 30 28 31 29 32 30 33 31 34
REMARK SMILES IDX 32 35 33 36 34 37 35 38 93 39 36 40 92 41 37 42 38 43 39 44
REMARK SMILES IDX 86 45 40 46 91 47 85 48 87 49 41 50 90 51 84 52 83 53 42 55
REMARK SMILES IDX 72 56 53 57 71 58 54 59 57 60 70 61 88 62 55 63 56 64 69 66
REMARK SMILES IDX 89 67 58 68 43 69 44 70 52 71 45 72 51 73 46 74 47 75 48 76
REMARK SMILES IDX 49 77 50 78 73 79 74 80 82 81 75 82 81 83 76 84 77 85 78 86
REMARK SMILES IDX 79 87 80 88 59 89 60 90 68 91 61 92 67 93 62 94 63 95 64 96
REMARK SMILES IDX 65 97 66 98
REMARK H PARENT 8 18 11 20 87 54 57 65
REMARK Flexibility Score: inf
ROOT
ATOM      1  C   UNL A   1      42.540  22.160  26.425  1.00  0.00     0.188 C 
ENDROOT
BRANCH   1   2
ATOM      2  C   UNL A   1      41.122  21.611  26.613  1.00  0.00     0.188 C 
BRANCH   2   3
ATOM      3  O   UNL A   1      40.153  21.838  25.613  1.00  0.00    -0.376 OA
BRANCH   3   4
ATOM      4  C   UNL A   1      38.773  21.945  25.934  1.00  0.00     0.202 C 
BRANCH   4   5
ATOM      5  C   UNL A   1      37.645  21.260  25.139  1.00  0.00     0.261 C 
BRANCH   5   6
ATOM      6  O   UNL A   1      36.882  22.058  24.202  1.00  0.00    -0.461 OA
BRANCH   6   7
ATOM      7  C   UNL A   1      35.747  22.635  24.679  1.00  0.00     0.335 C 
ATOM      8  O   UNL A   1      35.566  23.854  24.705  1.00  0.00    -0.249 OA
BRANCH   7   9
ATOM      9  C   UNL A   1      34.683  21.661  25.265  1.00  0.00     0.228 C 
ATOM     10  C   UNL A   1      32.396  22.191  25.190  1.00  0.00     0.138 C 
ATOM     11  C   UNL A   1      32.921  22.587  26.562  1.00  0.00     0.037 C 
ATOM     12  O   UNL A   1      33.477  21.545  24.504  1.00  0.00    -0.361 OA
ATOM     13  C   UNL A   1      34.203  21.800  26.690  1.00  0.00     0.047 C 
BRANCH  10  14
ATOM     14  C   UNL A   1      31.717  23.312  24.348  1.00  0.00     0.149 C 
BRANCH  14  15
ATOM     15  N   UNL A   1      32.547  23.947  23.324  1.00  0.00    -0.336 N 
ATOM     16  N   UNL A   1      32.560  26.356  23.135  1.00  0.00    -0.333 N 
ATOM     17  C   UNL A   1      32.961  25.120  22.877  1.00  0.00     0.315 C 
ATOM     18  H   UNL A   1      33.142  26.952  22.611  1.00  0.00     0.165 HD
ATOM     19  O   UNL A   1      33.870  25.043  22.035  1.00  0.00    -0.249 OA
ATOM     20  H   UNL A   1      32.941  23.242  22.761  1.00  0.00     0.165 HD
BRANCH  16  21
ATOM     21  C   UNL A   1      31.604  27.241  23.879  1.00  0.00     0.041 C 
BRANCH  21  22
ATOM     22  C   UNL A   1      31.795  28.744  23.668  1.00  0.00     0.025 C 
ATOM     23  C   UNL A   1      31.193  29.518  24.807  1.00  0.00     0.006 C 
ENDBRANCH  21  22
BRANCH  21  24
ATOM     24  C   UNL A   1      31.782  26.903  25.420  1.00  0.00     0.025 C 
ATOM     25  C   UNL A   1      33.216  26.741  25.947  1.00  0.00     0.006 C 
ENDBRANCH  21  24
BRANCH  21  26
ATOM     26  C   UNL A   1      30.151  26.849  23.488  1.00  0.00     0.025 C 
ATOM     27  C   UNL A   1      29.300  26.293  24.623  1.00  0.00     0.006 C 
ENDBRANCH  21  26
ENDBRANCH  16  21
ENDBRANCH  14  15
ENDBRANCH  10  14
ENDBRANCH   7   9
ENDBRANCH   6   7
ENDBRANCH   5   6
ENDBRANCH   4   5
ENDBRANCH   3   4
ENDBRANCH   2   3
ENDBRANCH   1   2
BRANCH   1  28
ATOM     28  O   UNL A   1      43.166  21.931  25.178  1.00  0.00    -0.377 OA
BRANCH  28  29
ATOM     29  C   UNL A   1      44.051  22.898  24.628  1.00  0.00     0.188 C 
BRANCH  29  30
ATOM     30  C   UNL A   1      45.571  22.692  24.725  1.00  0.00     0.188 C 
BRANCH  30  31
ATOM     31  O   UNL A   1      46.349  23.689  24.086  1.00  0.00    -0.376 OA
BRANCH  31  32
ATOM     32  C   UNL A   1      46.368  25.005  24.618  1.00  0.00     0.202 C 
BRANCH  32  33
ATOM     33  C   UNL A   1      47.306  25.329  25.795  1.00  0.00     0.261 C 
BRANCH  33  34
ATOM     34  O   UNL A   1      46.696  25.564  27.075  1.00  0.00    -0.460 OA
BRANCH  34  35
ATOM     35  C   UNL A   1      47.495  25.869  28.122  1.00  0.00     0.338 C 
ATOM     36  O   UNL A   1      48.545  25.348  28.420  1.00  0.00    -0.246 OA
BRANCH  35  37
ATOM     37  C   UNL A   1      46.961  27.103  28.744  1.00  0.00     0.060 A 
ATOM     38  C   UNL A   1      45.926  27.792  28.097  1.00  0.00     0.016 A 
ATOM     39  C   UNL A   1      47.487  27.582  29.945  1.00  0.00     0.016 A 
ATOM     40  C   UNL A   1      45.447  28.990  28.627  1.00  0.00     0.010 A 
ATOM     41  C   UNL A   1      47.021  28.795  30.462  1.00  0.00     0.010 A 
ATOM     42  C   UNL A   1      46.026  29.522  29.785  1.00  0.00    -0.014 A 
BRANCH  42  43
ATOM     43  C   UNL A   1      45.732  30.924  30.172  1.00  0.00     0.031 A 
ATOM     44  C   UNL A   1      46.577  32.022  29.581  1.00  0.00     0.074 A 
ATOM     45  C   UNL A   1      44.718  31.222  31.004  1.00  0.00     0.049 A 
ATOM     46  N   UNL A   1      46.533  33.310  29.797  1.00  0.00    -0.248 NA
ATOM     47  C   UNL A   1      47.612  31.609  28.617  1.00  0.00     0.031 C 
ATOM     48  C   UNL A   1      43.796  30.255  31.599  1.00  0.00     0.029 A 
ATOM     49  N   UNL A   1      44.297  32.433  31.496  1.00  0.00    -0.354 N 
ATOM     50  C   UNL A   1      47.538  33.860  29.011  1.00  0.00     0.074 A 
ATOM     51  C   UNL A   1      48.194  32.763  28.331  1.00  0.00     0.031 C 
ATOM     52  C   UNL A   1      42.924  30.911  32.385  1.00  0.00     0.029 A 
ATOM     53  C   UNL A   1      43.247  32.336  32.378  1.00  0.00     0.049 A 
ATOM     54  H   UNL A   1      44.709  33.291  31.240  1.00  0.00     0.167 HD
ATOM     55  C   UNL A   1      47.883  35.160  28.863  1.00  0.00     0.031 A 
ATOM     56  C   UNL A   1      42.636  33.286  33.115  1.00  0.00     0.031 A 
ATOM     57  C   UNL A   1      47.235  36.247  29.548  1.00  0.00     0.049 A 
ATOM     58  C   UNL A   1      43.092  34.720  32.993  1.00  0.00     0.074 A 
ATOM     59  C   UNL A   1      47.498  37.602  29.451  1.00  0.00     0.029 A 
ATOM     60  N   UNL A   1      46.201  36.105  30.462  1.00  0.00    -0.354 N 
ATOM     61  N   UNL A   1      44.026  35.228  32.222  1.00  0.00    -0.248 NA
ATOM     62  C   UNL A   1      42.404  35.709  33.834  1.00  0.00     0.031 C 
ATOM     63  C   UNL A   1      46.673  38.273  30.359  1.00  0.00     0.029 A 
ATOM     64  C   UNL A   1      45.841  37.344  30.963  1.00  0.00     0.049 A 
ATOM     65  H   UNL A   1      45.785  35.249  30.716  1.00  0.00     0.167 HD
ATOM     66  C   UNL A   1      44.015  36.599  32.466  1.00  0.00     0.074 A 
ATOM     67  C   UNL A   1      42.969  36.841  33.438  1.00  0.00     0.031 C 
ATOM     68  C   UNL A   1      44.798  37.570  31.933  1.00  0.00     0.031 A 
BRANCH  55  69
ATOM     69  C   UNL A   1      49.043  35.481  27.956  1.00  0.00    -0.014 A 
ATOM     70  C   UNL A   1      50.359  35.564  28.446  1.00  0.00     0.010 A 
ATOM     71  C   UNL A   1      48.817  35.645  26.577  1.00  0.00     0.010 A 
ATOM     72  C   UNL A   1      51.422  35.830  27.578  1.00  0.00     0.020 A 
ATOM     73  C   UNL A   1      49.879  35.881  25.701  1.00  0.00     0.020 A 
ATOM     74  C   UNL A   1      51.175  35.983  26.210  1.00  0.00     0.054 A 
BRANCH  74  75
ATOM     75  S   UNL A   1      52.580  36.282  25.102  1.00  0.00     0.124 S 
ATOM     76  O   UNL A   1      52.550  37.736  24.963  1.00  0.00    -0.237 OA
ATOM     77  O   UNL A   1      53.705  35.747  25.863  1.00  0.00    -0.237 OA
ATOM     78  O   UNL A   1      52.236  35.536  23.894  1.00  0.00    -0.744 OA
ENDBRANCH  74  75
ENDBRANCH  55  69
BRANCH  56  79
ATOM     79  C   UNL A   1      41.548  32.915  34.064  1.00  0.00    -0.014 A 
ATOM     80  C   UNL A   1      41.840  32.493  35.373  1.00  0.00     0.010 A 
ATOM     81  C   UNL A   1      40.202  32.960  33.650  1.00  0.00     0.010 A 
ATOM     82  C   UNL A   1      40.814  32.097  36.238  1.00  0.00     0.020 A 
ATOM     83  C   UNL A   1      39.172  32.598  34.522  1.00  0.00     0.020 A 
ATOM     84  C   UNL A   1      39.486  32.154  35.807  1.00  0.00     0.054 A 
BRANCH  84  85
ATOM     85  S   UNL A   1      38.170  31.665  36.957  1.00  0.00     0.124 S 
ATOM     86  O   UNL A   1      37.024  32.405  36.440  1.00  0.00    -0.237 OA
ATOM     87  O   UNL A   1      38.120  30.215  36.779  1.00  0.00    -0.237 OA
ATOM     88  O   UNL A   1      38.666  32.109  38.258  1.00  0.00    -0.744 OA
ENDBRANCH  84  85
ENDBRANCH  56  79
BRANCH  68  89
ATOM     89  C   UNL A   1      44.533  38.994  32.358  1.00  0.00    -0.014 A 
ATOM     90  C   UNL A   1      43.555  39.780  31.721  1.00  0.00     0.010 A 
ATOM     91  C   UNL A   1      45.242  39.536  33.446  1.00  0.00     0.010 A 
ATOM     92  C   UNL A   1      43.322  41.094  32.139  1.00  0.00     0.020 A 
ATOM     93  C   UNL A   1      44.987  40.836  33.890  1.00  0.00     0.020 A 
ATOM     94  C   UNL A   1      44.040  41.614  33.221  1.00  0.00     0.054 A 
BRANCH  94  95
ATOM     95  S   UNL A   1      43.695  43.310  33.763  1.00  0.00     0.124 S 
ATOM     96  O   UNL A   1      42.768  43.093  34.870  1.00  0.00    -0.237 OA
ATOM     97  O   UNL A   1      45.019  43.800  34.139  1.00  0.00    -0.237 OA
ATOM     98  O   UNL A   1      43.115  43.942  32.580  1.00  0.00    -0.744 OA
ENDBRANCH  94  95
ENDBRANCH  68  89
ENDBRANCH  42  43
ENDBRANCH  35  37
ENDBRANCH  34  35
ENDBRANCH  33  34
ENDBRANCH  32  33
ENDBRANCH  31  32
ENDBRANCH  30  31
ENDBRANCH  29  30
ENDBRANCH  28  29
ENDBRANCH   1  28
TORSDOF 29
ENDMDL
MODEL 3
REMARK VINA RESULT:      -7.3      4.150      8.337
REMARK SMILES CCC(CC)(CC)NC(=O)NC[C@@H]1CC[C@H](C(=O)OCCOCCOCCOCCOC(=O)c2ccc(-c3c4nc(c(-c5ccc(S(=O)(=O)[O-])cc5)c5ccc([nH]5)c(-c5ccc(S(=O)(=O)[O-])cc5)c5nc(c(-c6ccc(S(=O)(=O)[O-])cc6)c6ccc3[nH]6)C=C5)C=C4)cc2)O1
REMARK SMILES IDX 24 1 23 2 22 3 21 4 20 5 19 6 17 7 18 8 16 9 13 10 14 11
REMARK SMILES IDX 94 12 15 13 12 14 11 15 8 16 9 17 10 19 3 21 2 22 1 23 4 24
REMARK SMILES IDX 5 25 6 26 7 27 25 28 26 29 27 30 28 31 29 32 30 33 31 34
REMARK SMILES IDX 32 35 33 36 34 37 35 38 93 39 36 40 92 41 37 42 38 43 39 44
REMARK SMILES IDX 86 45 40 46 91 47 85 48 87 49 41 50 90 51 84 52 83 53 42 55
REMARK SMILES IDX 72 56 53 57 71 58 54 59 57 60 70 61 88 62 55 63 56 64 69 66
REMARK SMILES IDX 89 67 58 68 43 69 44 70 52 71 45 72 51 73 46 74 47 75 48 76
REMARK SMILES IDX 49 77 50 78 73 79 74 80 82 81 75 82 81 83 76 84 77 85 78 86
REMARK SMILES IDX 79 87 80 88 59 89 60 90 68 91 61 92 67 93 62 94 63 95 64 96
REMARK SMILES IDX 65 97 66 98
REMARK H PARENT 8 18 11 20 87 54 57 65
REMARK Flexibility Score: inf
ROOT
ATOM      1  C   UNL A   1      42.524  22.064  26.489  1.00  0.00     0.188 C 
ENDROOT
BRANCH   1   2
ATOM      2  C   UNL A   1      41.076  21.629  26.734  1.00  0.00     0.188 C 
BRANCH   2   3
ATOM      3  O   UNL A   1      40.116  21.810  25.715  1.00  0.00    -0.376 OA
BRANCH   3   4
ATOM      4  C   UNL A   1      38.737  21.966  26.021  1.00  0.00     0.202 C 
BRANCH   4   5
ATOM      5  C   UNL A   1      37.597  21.268  25.253  1.00  0.00     0.261 C 
BRANCH   5   6
ATOM      6  O   UNL A   1      36.827  22.049  24.308  1.00  0.00    -0.461 OA
BRANCH   6   7
ATOM      7  C   UNL A   1      35.665  22.584  24.767  1.00  0.00     0.335 C 
ATOM      8  O   UNL A   1      35.469  23.798  24.863  1.00  0.00    -0.249 OA
BRANCH   7   9
ATOM      9  C   UNL A   1      34.587  21.566  25.240  1.00  0.00     0.228 C 
ATOM     10  C   UNL A   1      32.299  22.072  25.072  1.00  0.00     0.138 C 
ATOM     11  C   UNL A   1      32.744  22.396  26.491  1.00  0.00     0.037 C 
ATOM     12  O   UNL A   1      33.424  21.479  24.410  1.00  0.00    -0.361 OA
ATOM     13  C   UNL A   1      34.030  21.618  26.643  1.00  0.00     0.047 C 
BRANCH  10  14
ATOM     14  C   UNL A   1      31.649  23.230  24.259  1.00  0.00     0.149 C 
BRANCH  14  15
ATOM     15  N   UNL A   1      32.536  23.970  23.361  1.00  0.00    -0.336 N 
ATOM     16  N   UNL A   1      32.456  26.385  23.341  1.00  0.00    -0.333 N 
ATOM     17  C   UNL A   1      32.934  25.188  23.036  1.00  0.00     0.315 C 
ATOM     18  H   UNL A   1      33.055  27.040  22.915  1.00  0.00     0.165 HD
ATOM     19  O   UNL A   1      33.917  25.208  22.277  1.00  0.00    -0.249 OA
ATOM     20  H   UNL A   1      33.010  23.324  22.789  1.00  0.00     0.165 HD
BRANCH  16  21
ATOM     21  C   UNL A   1      31.399  27.176  24.055  1.00  0.00     0.041 C 
BRANCH  21  22
ATOM     22  C   UNL A   1      31.550  28.696  23.982  1.00  0.00     0.025 C 
ATOM     23  C   UNL A   1      30.588  29.275  22.982  1.00  0.00     0.006 C 
ENDBRANCH  21  22
BRANCH  21  24
ATOM     24  C   UNL A   1      31.441  26.717  25.574  1.00  0.00     0.025 C 
ATOM     25  C   UNL A   1      32.818  26.635  26.250  1.00  0.00     0.006 C 
ENDBRANCH  21  24
BRANCH  21  26
ATOM     26  C   UNL A   1      30.006  26.772  23.491  1.00  0.00     0.025 C 
ATOM     27  C   UNL A   1      29.009  26.265  24.525  1.00  0.00     0.006 C 
ENDBRANCH  21  26
ENDBRANCH  16  21
ENDBRANCH  14  15
ENDBRANCH  10  14
ENDBRANCH   7   9
ENDBRANCH   6   7
ENDBRANCH   5   6
ENDBRANCH   4   5
ENDBRANCH   3   4
ENDBRANCH   2   3
ENDBRANCH   1   2
BRANCH   1  28
ATOM     28  O   UNL A   1      43.145  21.619  25.299  1.00  0.00    -0.377 OA
BRANCH  28  29
ATOM     29  C   UNL A   1      44.189  22.378  24.704  1.00  0.00     0.188 C 
BRANCH  29  30
ATOM     30  C   UNL A   1      45.656  21.980  24.933  1.00  0.00     0.188 C 
BRANCH  30  31
ATOM     31  O   UNL A   1      46.602  22.752  24.214  1.00  0.00    -0.376 OA
BRANCH  31  32
ATOM     32  C   UNL A   1      46.735  24.135  24.502  1.00  0.00     0.202 C 
BRANCH  32  33
ATOM     33  C   UNL A   1      47.550  24.574  25.732  1.00  0.00     0.261 C 
BRANCH  33  34
ATOM     34  O   UNL A   1      46.816  25.079  26.859  1.00  0.00    -0.460 OA
BRANCH  34  35
ATOM     35  C   UNL A   1      47.510  25.543  27.923  1.00  0.00     0.338 C 
ATOM     36  O   UNL A   1      48.421  24.995  28.499  1.00  0.00    -0.246 OA
BRANCH  35  37
ATOM     37  C   UNL A   1      47.092  26.946  28.150  1.00  0.00     0.060 A 
ATOM     38  C   UNL A   1      46.204  27.541  27.243  1.00  0.00     0.016 A 
ATOM     39  C   UNL A   1      47.584  27.670  29.237  1.00  0.00     0.016 A 
ATOM     40  C   UNL A   1      45.843  28.879  27.397  1.00  0.00     0.010 A 
ATOM     41  C   UNL A   1      47.239  29.018  29.375  1.00  0.00     0.010 A 
ATOM     42  C   UNL A   1      46.398  29.637  28.434  1.00  0.00    -0.014 A 
BRANCH  42  43
ATOM     43  C   UNL A   1      46.256  31.114  28.418  1.00  0.00     0.031 A 
ATOM     44  C   UNL A   1      47.372  31.933  27.823  1.00  0.00     0.074 A 
ATOM     45  C   UNL A   1      45.150  31.717  28.889  1.00  0.00     0.049 A 
ATOM     46  N   UNL A   1      47.489  33.232  27.731  1.00  0.00    -0.248 NA
ATOM     47  C   UNL A   1      48.508  31.184  27.257  1.00  0.00     0.031 C 
ATOM     48  C   UNL A   1      43.981  31.032  29.440  1.00  0.00     0.029 A 
ATOM     49  N   UNL A   1      44.834  33.050  28.983  1.00  0.00    -0.354 N 
ATOM     50  C   UNL A   1      48.714  33.457  27.112  1.00  0.00     0.074 A 
ATOM     51  C   UNL A   1      49.314  32.162  26.873  1.00  0.00     0.031 C 
ATOM     52  C   UNL A   1      43.078  31.953  29.824  1.00  0.00     0.029 A 
ATOM     53  C   UNL A   1      43.619  33.288  29.581  1.00  0.00     0.049 A 
ATOM     54  H   UNL A   1      45.423  33.767  28.652  1.00  0.00     0.167 HD
ATOM     55  C   UNL A   1      49.285  34.635  26.769  1.00  0.00     0.031 A 
ATOM     56  C   UNL A   1      43.025  34.452  29.917  1.00  0.00     0.031 A 
ATOM     57  C   UNL A   1      48.689  35.921  27.017  1.00  0.00     0.049 A 
ATOM     58  C   UNL A   1      43.721  35.753  29.596  1.00  0.00     0.074 A 
ATOM     59  C   UNL A   1      49.180  37.172  26.690  1.00  0.00     0.029 A 
ATOM     60  N   UNL A   1      47.476  36.122  27.659  1.00  0.00    -0.354 N 
ATOM     61  N   UNL A   1      44.866  35.950  28.983  1.00  0.00    -0.248 NA
ATOM     62  C   UNL A   1      43.037  36.989  30.002  1.00  0.00     0.031 C 
ATOM     63  C   UNL A   1      48.299  38.133  27.197  1.00  0.00     0.029 A 
ATOM     64  C   UNL A   1      47.220  37.478  27.770  1.00  0.00     0.049 A 
ATOM     65  H   UNL A   1      46.884  35.407  27.987  1.00  0.00     0.167 HD
ATOM     66  C   UNL A   1      45.023  37.332  28.907  1.00  0.00     0.074 A 
ATOM     67  C   UNL A   1      43.847  37.919  29.516  1.00  0.00     0.031 C 
ATOM     68  C   UNL A   1      46.046  38.050  28.381  1.00  0.00     0.031 A 
BRANCH  55  69
ATOM     69  C   UNL A   1      50.647  34.594  26.125  1.00  0.00    -0.014 A 
ATOM     70  C   UNL A   1      51.824  34.563  26.895  1.00  0.00     0.010 A 
ATOM     71  C   UNL A   1      50.746  34.527  24.723  1.00  0.00     0.010 A 
ATOM     72  C   UNL A   1      53.074  34.491  26.273  1.00  0.00     0.020 A 
ATOM     73  C   UNL A   1      51.992  34.424  24.099  1.00  0.00     0.020 A 
ATOM     74  C   UNL A   1      53.149  34.419  24.879  1.00  0.00     0.054 A 
BRANCH  74  75
ATOM     75  S   UNL A   1      54.783  34.280  24.104  1.00  0.00     0.124 S 
ATOM     76  O   UNL A   1      55.104  35.677  23.824  1.00  0.00    -0.237 OA
ATOM     77  O   UNL A   1      55.581  33.650  25.151  1.00  0.00    -0.237 OA
ATOM     78  O   UNL A   1      54.540  33.451  22.926  1.00  0.00    -0.744 OA
ENDBRANCH  74  75
ENDBRANCH  55  69
BRANCH  56  79
ATOM     79  C   UNL A   1      41.716  34.448  30.629  1.00  0.00    -0.014 A 
ATOM     80  C   UNL A   1      41.654  34.382  32.032  1.00  0.00     0.010 A 
ATOM     81  C   UNL A   1      40.513  34.485  29.898  1.00  0.00     0.010 A 
ATOM     82  C   UNL A   1      40.419  34.326  32.687  1.00  0.00     0.020 A 
ATOM     83  C   UNL A   1      39.277  34.464  30.550  1.00  0.00     0.020 A 
ATOM     84  C   UNL A   1      39.238  34.370  31.942  1.00  0.00     0.054 A 
BRANCH  84  85
ATOM     85  S   UNL A   1      37.648  34.326  32.815  1.00  0.00     0.124 S 
ATOM     86  O   UNL A   1      36.738  34.883  31.819  1.00  0.00    -0.237 OA
ATOM     87  O   UNL A   1      37.483  32.902  33.098  1.00  0.00    -0.237 OA
ATOM     88  O   UNL A   1      37.877  35.165  33.989  1.00  0.00    -0.744 OA
ENDBRANCH  84  85
ENDBRANCH  56  79
BRANCH  68  89
ATOM     89  C   UNL A   1      45.928  39.554  28.402  1.00  0.00    -0.014 A 
ATOM     90  C   UNL A   1      45.131  40.241  27.468  1.00  0.00     0.010 A 
ATOM     91  C   UNL A   1      46.588  40.287  29.406  1.00  0.00     0.010 A 
ATOM     92  C   UNL A   1      45.031  41.635  27.514  1.00  0.00     0.020 A 
ATOM     93  C   UNL A   1      46.462  41.677  29.477  1.00  0.00     0.020 A 
ATOM     94  C   UNL A   1      45.697  42.344  28.518  1.00  0.00     0.054 A 
BRANCH  94  95
ATOM     95  S   UNL A   1      45.525  44.149  28.574  1.00  0.00     0.124 S 
ATOM     96  O   UNL A   1      44.485  44.324  29.583  1.00  0.00    -0.237 OA
ATOM     97  O   UNL A   1      46.862  44.585  28.967  1.00  0.00    -0.237 OA
ATOM     98  O   UNL A   1      45.135  44.503  27.211  1.00  0.00    -0.744 OA
ENDBRANCH  94  95
ENDBRANCH  68  89
ENDBRANCH  42  43
ENDBRANCH  35  37
ENDBRANCH  34  35
ENDBRANCH  33  34
ENDBRANCH  32  33
ENDBRANCH  31  32
ENDBRANCH  30  31
ENDBRANCH  29  30
ENDBRANCH  28  29
ENDBRANCH   1  28
TORSDOF 29
ENDMDL
