MODEL 1
REMARK VINA RESULT:      -8.5      0.000      0.000
REMARK SMILES COc1cc(NC(=O)CN2C(=O)c3ccccc3C2=O)c(C(=O)OCCOCCOCCOCCOC(=O)c2ccc(-c3c4nc(c(-c5ccc(S(=O)(=O)[O-])cc5)c5ccc([nH]5)c(-c5ccc(S(=O)(=O)[O-])cc5)c5nc(c(-c6ccc(S(=O)(=O)[O-])cc6)c6ccc3[nH]6)C=C5)C=C4)cc2)cc1OC
REMARK SMILES IDX 30 1 29 2 28 3 27 4 26 5 25 6 24 7 22 8 23 9 21 10 3 11 4 12
REMARK SMILES IDX 100 13 5 14 99 15 2 16 1 17 101 18 102 19 6 20 7 21 8 23
REMARK SMILES IDX 9 24 10 25 11 26 19 27 12 28 13 29 18 30 20 31 14 32 17 33
REMARK SMILES IDX 15 34 16 35 31 36 32 37 33 38 34 39 35 40 36 41 37 42 38 43
REMARK SMILES IDX 39 44 40 45 98 46 41 47 97 48 42 49 43 50 44 51 91 52 45 53
REMARK SMILES IDX 96 54 90 55 92 56 46 57 95 58 89 59 88 60 47 62 77 63 58 64
REMARK SMILES IDX 76 65 59 66 62 67 75 68 93 69 60 70 61 71 74 73 94 74 63 75
REMARK SMILES IDX 48 76 49 77 57 78 50 79 56 80 51 81 52 82 53 83 54 84 55 85
REMARK SMILES IDX 78 86 79 87 87 88 80 89 86 90 81 91 82 92 83 93 84 94 85 95
REMARK SMILES IDX 64 96 65 97 73 98 66 99 72 100 67 101 68 102 69 103 70 104
REMARK SMILES IDX 71 105
REMARK H PARENT 6 22 92 61 62 72
REMARK Flexibility Score: inf
ROOT
ATOM      1  O   UNL A   1      38.949  29.064  28.058  1.00  0.00    -0.377 OA
ENDROOT
BRANCH   1   2
ATOM      2  C   UNL A   1      37.613  28.934  28.515  1.00  0.00     0.188 C 
BRANCH   2   3
ATOM      3  C   UNL A   1      36.528  29.685  27.718  1.00  0.00     0.188 C 
BRANCH   3   4
ATOM      4  O   UNL A   1      35.215  29.241  27.998  1.00  0.00    -0.376 OA
BRANCH   4   5
ATOM      5  C   UNL A   1      34.172  29.451  27.068  1.00  0.00     0.202 C 
BRANCH   5   6
ATOM      6  C   UNL A   1      32.805  30.007  27.492  1.00  0.00     0.261 C 
BRANCH   6   7
ATOM      7  O   UNL A   1      31.645  29.492  26.834  1.00  0.00    -0.460 OA
BRANCH   7   8
ATOM      8  C   UNL A   1      31.455  28.158  26.822  1.00  0.00     0.340 C 
ATOM      9  O   UNL A   1      31.320  27.432  27.793  1.00  0.00    -0.246 OA
BRANCH   8  10
ATOM     10  C   UNL A   1      31.273  27.705  25.418  1.00  0.00     0.087 A 
ATOM     11  C   UNL A   1      31.178  26.920  22.751  1.00  0.00     0.162 A 
ATOM     12  C   UNL A   1      31.031  25.977  23.781  1.00  0.00     0.077 A 
ATOM     13  C   UNL A   1      31.282  28.278  23.046  1.00  0.00     0.161 A 
ATOM     14  C   UNL A   1      30.973  26.359  25.115  1.00  0.00     0.059 A 
ATOM     15  C   UNL A   1      31.370  28.656  24.386  1.00  0.00     0.068 A 
BRANCH  11  16
ATOM     16  O   UNL A   1      31.116  26.474  21.458  1.00  0.00    -0.493 OA
ATOM     17  C   UNL A   1      32.307  25.781  21.081  1.00  0.00     0.278 C 
ENDBRANCH  11  16
BRANCH  13  18
ATOM     18  O   UNL A   1      31.316  29.335  22.183  1.00  0.00    -0.493 OA
ATOM     19  C   UNL A   1      30.094  29.985  21.872  1.00  0.00     0.278 C 
ENDBRANCH  13  18
BRANCH  14  20
ATOM     20  N   UNL A   1      30.567  25.482  26.144  1.00  0.00    -0.324 N 
ATOM     21  C   UNL A   1      30.512  24.126  26.298  1.00  0.00     0.244 C 
ATOM     22  H   UNL A   1      30.246  25.962  26.941  1.00  0.00     0.170 HD
ATOM     23  O   UNL A   1      30.060  23.725  27.381  1.00  0.00    -0.273 OA
BRANCH  21  24
ATOM     24  C   UNL A   1      31.055  23.086  25.312  1.00  0.00     0.229 C 
BRANCH  24  25
ATOM     25  N   UNL A   1      32.487  23.036  25.078  1.00  0.00    -0.265 N 
ATOM     26  C   UNL A   1      33.415  23.572  25.931  1.00  0.00     0.262 C 
ATOM     27  C   UNL A   1      33.045  22.775  23.854  1.00  0.00     0.262 C 
ATOM     28  O   UNL A   1      33.248  24.088  27.014  1.00  0.00    -0.269 OA
ATOM     29  C   UNL A   1      34.711  23.468  25.257  1.00  0.00     0.053 A 
ATOM     30  C   UNL A   1      34.484  22.964  23.991  1.00  0.00     0.053 A 
ATOM     31  O   UNL A   1      32.488  22.505  22.804  1.00  0.00    -0.269 OA
ATOM     32  C   UNL A   1      35.980  23.797  25.694  1.00  0.00     0.015 A 
ATOM     33  C   UNL A   1      35.510  22.744  23.093  1.00  0.00     0.015 A 
ATOM     34  C   UNL A   1      37.038  23.577  24.805  1.00  0.00     0.001 A 
ATOM     35  C   UNL A   1      36.806  23.051  23.517  1.00  0.00     0.001 A 
ENDBRANCH  24  25
ENDBRANCH  21  24
ENDBRANCH  14  20
ENDBRANCH   8  10
ENDBRANCH   7   8
ENDBRANCH   6   7
ENDBRANCH   5   6
ENDBRANCH   4   5
ENDBRANCH   3   4
ENDBRANCH   2   3
ENDBRANCH   1   2
BRANCH   1  36
ATOM     36  C   UNL A   1      39.877  27.999  28.262  1.00  0.00     0.188 C 
BRANCH  36  37
ATOM     37  C   UNL A   1      39.765  26.635  27.535  1.00  0.00     0.188 C 
BRANCH  37  38
ATOM     38  O   UNL A   1      40.671  26.454  26.460  1.00  0.00    -0.376 OA
BRANCH  38  39
ATOM     39  C   UNL A   1      42.037  26.251  26.760  1.00  0.00     0.202 C 
BRANCH  39  40
ATOM     40  C   UNL A   1      42.937  27.493  26.723  1.00  0.00     0.261 C 
BRANCH  40  41
ATOM     41  O   UNL A   1      44.349  27.249  26.780  1.00  0.00    -0.460 OA
BRANCH  41  42
ATOM     42  C   UNL A   1      44.800  26.461  27.781  1.00  0.00     0.338 C 
ATOM     43  O   UNL A   1      45.436  25.428  27.675  1.00  0.00    -0.246 OA
BRANCH  42  44
ATOM     44  C   UNL A   1      44.548  27.175  29.049  1.00  0.00     0.060 A 
ATOM     45  C   UNL A   1      43.896  26.509  30.095  1.00  0.00     0.016 A 
ATOM     46  C   UNL A   1      44.979  28.495  29.207  1.00  0.00     0.016 A 
ATOM     47  C   UNL A   1      43.642  27.177  31.294  1.00  0.00     0.010 A 
ATOM     48  C   UNL A   1      44.706  29.166  30.399  1.00  0.00     0.010 A 
ATOM     49  C   UNL A   1      44.006  28.521  31.434  1.00  0.00    -0.014 A 
BRANCH  49  50
ATOM     50  C   UNL A   1      43.477  29.319  32.565  1.00  0.00     0.031 A 
ATOM     51  C   UNL A   1      44.279  29.362  33.838  1.00  0.00     0.074 A 
ATOM     52  C   UNL A   1      42.318  29.993  32.472  1.00  0.00     0.049 A 
ATOM     53  N   UNL A   1      44.010  29.956  34.971  1.00  0.00    -0.248 NA
ATOM     54  C   UNL A   1      45.556  28.630  33.827  1.00  0.00     0.031 C 
ATOM     55  C   UNL A   1      41.478  30.073  31.279  1.00  0.00     0.029 A 
ATOM     56  N   UNL A   1      41.649  30.740  33.409  1.00  0.00    -0.354 N 
ATOM     57  C   UNL A   1      45.075  29.656  35.813  1.00  0.00     0.074 A 
ATOM     58  C   UNL A   1      45.976  28.802  35.071  1.00  0.00     0.031 C 
ATOM     59  C   UNL A   1      40.404  30.834  31.556  1.00  0.00     0.029 A 
ATOM     60  C   UNL A   1      40.461  31.259  32.954  1.00  0.00     0.049 A 
ATOM     61  H   UNL A   1      41.988  30.890  34.321  1.00  0.00     0.167 HD
ATOM     62  C   UNL A   1      45.286  30.057  37.090  1.00  0.00     0.031 A 
ATOM     63  C   UNL A   1      39.522  31.981  33.598  1.00  0.00     0.031 A 
ATOM     64  C   UNL A   1      44.371  30.880  37.834  1.00  0.00     0.049 A 
ATOM     65  C   UNL A   1      39.730  32.336  35.047  1.00  0.00     0.074 A 
ATOM     66  C   UNL A   1      44.497  31.357  39.126  1.00  0.00     0.029 A 
ATOM     67  N   UNL A   1      43.150  31.337  37.356  1.00  0.00    -0.354 N 
ATOM     68  N   UNL A   1      40.752  32.072  35.825  1.00  0.00    -0.248 NA
ATOM     69  C   UNL A   1      38.655  33.094  35.704  1.00  0.00     0.031 C 
ATOM     70  C   UNL A   1      43.319  32.038  39.455  1.00  0.00     0.029 A 
ATOM     71  C   UNL A   1      42.494  32.054  38.341  1.00  0.00     0.049 A 
ATOM     72  H   UNL A   1      42.802  31.173  36.450  1.00  0.00     0.167 HD
ATOM     73  C   UNL A   1      40.461  32.660  37.053  1.00  0.00     0.074 A 
ATOM     74  C   UNL A   1      39.168  33.300  36.910  1.00  0.00     0.031 C 
ATOM     75  C   UNL A   1      41.201  32.677  38.191  1.00  0.00     0.031 A 
BRANCH  62  76
ATOM     76  C   UNL A   1      46.529  29.545  37.773  1.00  0.00    -0.014 A 
ATOM     77  C   UNL A   1      47.762  30.217  37.665  1.00  0.00     0.010 A 
ATOM     78  C   UNL A   1      46.466  28.354  38.520  1.00  0.00     0.010 A 
ATOM     79  C   UNL A   1      48.917  29.671  38.230  1.00  0.00     0.020 A 
ATOM     80  C   UNL A   1      47.613  27.825  39.118  1.00  0.00     0.020 A 
ATOM     81  C   UNL A   1      48.837  28.472  38.944  1.00  0.00     0.054 A 
BRANCH  81  82
ATOM     82  S   UNL A   1      50.356  27.772  39.643  1.00  0.00     0.124 S 
ATOM     83  O   UNL A   1      50.198  26.351  39.344  1.00  0.00    -0.237 OA
ATOM     84  O   UNL A   1      51.403  28.458  38.891  1.00  0.00    -0.237 OA
ATOM     85  O   UNL A   1      50.280  28.121  41.060  1.00  0.00    -0.744 OA
ENDBRANCH  81  82
ENDBRANCH  62  76
BRANCH  63  86
ATOM     86  C   UNL A   1      38.304  32.425  32.867  1.00  0.00    -0.014 A 
ATOM     87  C   UNL A   1      38.328  33.604  32.100  1.00  0.00     0.010 A 
ATOM     88  C   UNL A   1      37.126  31.658  32.903  1.00  0.00     0.010 A 
ATOM     89  C   UNL A   1      37.199  34.003  31.377  1.00  0.00     0.020 A 
ATOM     90  C   UNL A   1      36.003  32.039  32.161  1.00  0.00     0.020 A 
ATOM     91  C   UNL A   1      36.047  33.210  31.403  1.00  0.00     0.054 A 
BRANCH  91  92
ATOM     92  S   UNL A   1      34.630  33.702  30.384  1.00  0.00     0.124 S 
ATOM     93  O   UNL A   1      34.077  32.412  29.984  1.00  0.00    -0.237 OA
ATOM     94  O   UNL A   1      33.821  34.474  31.324  1.00  0.00    -0.237 OA
ATOM     95  O   UNL A   1      35.236  34.484  29.308  1.00  0.00    -0.744 OA
ENDBRANCH  91  92
ENDBRANCH  63  86
BRANCH  75  96
ATOM     96  C   UNL A   1      40.652  33.441  39.371  1.00  0.00    -0.014 A 
ATOM     97  C   UNL A   1      40.235  32.785  40.542  1.00  0.00     0.010 A 
ATOM     98  C   UNL A   1      40.611  34.847  39.324  1.00  0.00     0.010 A 
ATOM     99  C   UNL A   1      39.758  33.521  41.632  1.00  0.00     0.020 A 
ATOM    100  C   UNL A   1      40.167  35.587  40.423  1.00  0.00     0.020 A 
ATOM    101  C   UNL A   1      39.730  34.918  41.566  1.00  0.00     0.054 A 
BRANCH 101 102
ATOM    102  S   UNL A   1      39.151  35.849  43.012  1.00  0.00     0.124 S 
ATOM    103  O   UNL A   1      40.013  35.332  44.072  1.00  0.00    -0.237 OA
ATOM    104  O   UNL A   1      39.398  37.234  42.620  1.00  0.00    -0.237 OA
ATOM    105  O   UNL A   1      37.741  35.480  43.120  1.00  0.00    -0.744 OA
ENDBRANCH 101 102
ENDBRANCH  75  96
ENDBRANCH  49  50
ENDBRANCH  42  44
ENDBRANCH  41  42
ENDBRANCH  40  41
ENDBRANCH  39  40
ENDBRANCH  38  39
ENDBRANCH  37  38
ENDBRANCH  36  37
ENDBRANCH   1  36
TORSDOF 28
ENDMDL
MODEL 2
REMARK VINA RESULT:      -8.1      6.071     11.515
REMARK SMILES COc1cc(NC(=O)CN2C(=O)c3ccccc3C2=O)c(C(=O)OCCOCCOCCOCCOC(=O)c2ccc(-c3c4nc(c(-c5ccc(S(=O)(=O)[O-])cc5)c5ccc([nH]5)c(-c5ccc(S(=O)(=O)[O-])cc5)c5nc(c(-c6ccc(S(=O)(=O)[O-])cc6)c6ccc3[nH]6)C=C5)C=C4)cc2)cc1OC
REMARK SMILES IDX 30 1 29 2 28 3 27 4 26 5 25 6 24 7 22 8 23 9 21 10 3 11 4 12
REMARK SMILES IDX 100 13 5 14 99 15 2 16 1 17 101 18 102 19 6 20 7 21 8 23
REMARK SMILES IDX 9 24 10 25 11 26 19 27 12 28 13 29 18 30 20 31 14 32 17 33
REMARK SMILES IDX 15 34 16 35 31 36 32 37 33 38 34 39 35 40 36 41 37 42 38 43
REMARK SMILES IDX 39 44 40 45 98 46 41 47 97 48 42 49 43 50 44 51 91 52 45 53
REMARK SMILES IDX 96 54 90 55 92 56 46 57 95 58 89 59 88 60 47 62 77 63 58 64
REMARK SMILES IDX 76 65 59 66 62 67 75 68 93 69 60 70 61 71 74 73 94 74 63 75
REMARK SMILES IDX 48 76 49 77 57 78 50 79 56 80 51 81 52 82 53 83 54 84 55 85
REMARK SMILES IDX 78 86 79 87 87 88 80 89 86 90 81 91 82 92 83 93 84 94 85 95
REMARK SMILES IDX 64 96 65 97 73 98 66 99 72 100 67 101 68 102 69 103 70 104
REMARK SMILES IDX 71 105
REMARK H PARENT 6 22 92 61 62 72
REMARK Flexibility Score: inf
ROOT
ATOM      1  O   UNL A   1      39.093  24.281  27.021  1.00  0.00    -0.377 OA
ENDROOT
BRANCH   1   2
ATOM      2  C   UNL A   1      37.786  23.903  26.620  1.00  0.00     0.188 C 
BRANCH   2   3
ATOM      3  C   UNL A   1      37.667  23.084  25.320  1.00  0.00     0.188 C 
BRANCH   3   4
ATOM      4  O   UNL A   1      36.743  23.627  24.396  1.00  0.00    -0.376 OA
BRANCH   4   5
ATOM      5  C   UNL A   1      35.515  24.166  24.842  1.00  0.00     0.202 C 
BRANCH   5   6
ATOM      6  C   UNL A   1      34.486  24.759  23.868  1.00  0.00     0.261 C 
BRANCH   6   7
ATOM      7  O   UNL A   1      34.392  26.183  23.788  1.00  0.00    -0.460 OA
BRANCH   7   8
ATOM      8  C   UNL A   1      33.189  26.730  23.524  1.00  0.00     0.340 C 
ATOM      9  O   UNL A   1      32.394  26.368  22.673  1.00  0.00    -0.246 OA
BRANCH   8  10
ATOM     10  C   UNL A   1      32.891  27.767  24.547  1.00  0.00     0.087 A 
ATOM     11  C   UNL A   1      32.496  29.862  26.335  1.00  0.00     0.162 A 
ATOM     12  C   UNL A   1      31.447  29.410  25.518  1.00  0.00     0.077 A 
ATOM     13  C   UNL A   1      33.727  29.208  26.331  1.00  0.00     0.161 A 
ATOM     14  C   UNL A   1      31.592  28.302  24.693  1.00  0.00     0.059 A 
ATOM     15  C   UNL A   1      33.926  28.187  25.401  1.00  0.00     0.068 A 
BRANCH  11  16
ATOM     16  O   UNL A   1      32.239  30.891  27.200  1.00  0.00    -0.493 OA
ATOM     17  C   UNL A   1      31.392  31.879  26.608  1.00  0.00     0.278 C 
ENDBRANCH  11  16
BRANCH  13  18
ATOM     18  O   UNL A   1      34.810  29.432  27.130  1.00  0.00    -0.493 OA
ATOM     19  C   UNL A   1      35.137  30.774  27.455  1.00  0.00     0.278 C 
ENDBRANCH  13  18
BRANCH  14  20
ATOM     20  N   UNL A   1      30.498  27.668  24.066  1.00  0.00    -0.324 N 
ATOM     21  C   UNL A   1      29.797  26.513  24.271  1.00  0.00     0.244 C 
ATOM     22  H   UNL A   1      30.158  28.180  23.298  1.00  0.00     0.170 HD
ATOM     23  O   UNL A   1      28.881  26.289  23.466  1.00  0.00    -0.273 OA
BRANCH  21  24
ATOM     24  C   UNL A   1      29.971  25.554  25.452  1.00  0.00     0.229 C 
BRANCH  24  25
ATOM     25  N   UNL A   1      30.874  24.426  25.302  1.00  0.00    -0.265 N 
ATOM     26  C   UNL A   1      30.920  23.635  24.184  1.00  0.00     0.262 C 
ATOM     27  C   UNL A   1      31.511  23.821  26.353  1.00  0.00     0.262 C 
ATOM     28  O   UNL A   1      30.320  23.754  23.139  1.00  0.00    -0.269 OA
ATOM     29  C   UNL A   1      31.821  22.523  24.497  1.00  0.00     0.053 A 
ATOM     30  C   UNL A   1      32.195  22.649  25.821  1.00  0.00     0.053 A 
ATOM     31  O   UNL A   1      31.485  24.120  27.535  1.00  0.00    -0.269 OA
ATOM     32  C   UNL A   1      32.269  21.481  23.710  1.00  0.00     0.015 A 
ATOM     33  C   UNL A   1      33.049  21.751  26.433  1.00  0.00     0.015 A 
ATOM     34  C   UNL A   1      33.140  20.560  24.303  1.00  0.00     0.001 A 
ATOM     35  C   UNL A   1      33.531  20.697  25.651  1.00  0.00     0.001 A 
ENDBRANCH  24  25
ENDBRANCH  21  24
ENDBRANCH  14  20
ENDBRANCH   8  10
ENDBRANCH   7   8
ENDBRANCH   6   7
ENDBRANCH   5   6
ENDBRANCH   4   5
ENDBRANCH   3   4
ENDBRANCH   2   3
ENDBRANCH   1   2
BRANCH   1  36
ATOM     36  C   UNL A   1      39.398  25.658  27.244  1.00  0.00     0.188 C 
BRANCH  36  37
ATOM     37  C   UNL A   1      40.183  26.156  28.485  1.00  0.00     0.188 C 
BRANCH  37  38
ATOM     38  O   UNL A   1      39.675  27.338  29.079  1.00  0.00    -0.376 OA
BRANCH  38  39
ATOM     39  C   UNL A   1      38.823  27.215  30.200  1.00  0.00     0.202 C 
BRANCH  39  40
ATOM     40  C   UNL A   1      38.148  28.502  30.690  1.00  0.00     0.261 C 
BRANCH  40  41
ATOM     41  O   UNL A   1      38.715  29.101  31.864  1.00  0.00    -0.460 OA
BRANCH  41  42
ATOM     42  C   UNL A   1      39.143  30.378  31.760  1.00  0.00     0.338 C 
ATOM     43  O   UNL A   1      38.587  31.377  32.177  1.00  0.00    -0.246 OA
BRANCH  42  44
ATOM     44  C   UNL A   1      40.515  30.338  31.212  1.00  0.00     0.060 A 
ATOM     45  C   UNL A   1      40.762  30.870  29.941  1.00  0.00     0.016 A 
ATOM     46  C   UNL A   1      41.556  29.794  31.969  1.00  0.00     0.016 A 
ATOM     47  C   UNL A   1      42.052  30.828  29.407  1.00  0.00     0.010 A 
ATOM     48  C   UNL A   1      42.840  29.735  31.426  1.00  0.00     0.010 A 
ATOM     49  C   UNL A   1      43.085  30.220  30.129  1.00  0.00    -0.014 A 
BRANCH  49  50
ATOM     50  C   UNL A   1      44.367  29.897  29.460  1.00  0.00     0.031 A 
ATOM     51  C   UNL A   1      45.475  30.914  29.523  1.00  0.00     0.074 A 
ATOM     52  C   UNL A   1      44.553  28.733  28.815  1.00  0.00     0.049 A 
ATOM     53  N   UNL A   1      46.667  30.879  28.988  1.00  0.00    -0.248 NA
ATOM     54  C   UNL A   1      45.192  32.138  30.291  1.00  0.00     0.031 C 
ATOM     55  C   UNL A   1      43.579  27.647  28.730  1.00  0.00     0.029 A 
ATOM     56  N   UNL A   1      45.635  28.274  28.107  1.00  0.00    -0.354 N 
ATOM     57  C   UNL A   1      47.272  32.081  29.340  1.00  0.00     0.074 A 
ATOM     58  C   UNL A   1      46.302  32.834  30.106  1.00  0.00     0.031 C 
ATOM     59  C   UNL A   1      44.111  26.643  28.011  1.00  0.00     0.029 A 
ATOM     60  C   UNL A   1      45.444  27.032  27.553  1.00  0.00     0.049 A 
ATOM     61  H   UNL A   1      46.469  28.788  28.005  1.00  0.00     0.167 HD
ATOM     62  C   UNL A   1      48.521  32.519  29.055  1.00  0.00     0.031 A 
ATOM     63  C   UNL A   1      46.249  26.300  26.755  1.00  0.00     0.031 A 
ATOM     64  C   UNL A   1      49.469  31.778  28.267  1.00  0.00     0.049 A 
ATOM     65  C   UNL A   1      47.600  26.846  26.369  1.00  0.00     0.074 A 
ATOM     66  C   UNL A   1      50.767  32.123  27.933  1.00  0.00     0.029 A 
ATOM     67  N   UNL A   1      49.217  30.549  27.674  1.00  0.00    -0.354 N 
ATOM     68  N   UNL A   1      48.171  27.970  26.731  1.00  0.00    -0.248 NA
ATOM     69  C   UNL A   1      48.416  26.018  25.469  1.00  0.00     0.031 C 
ATOM     70  C   UNL A   1      51.271  31.137  27.077  1.00  0.00     0.029 A 
ATOM     71  C   UNL A   1      50.318  30.140  26.942  1.00  0.00     0.049 A 
ATOM     72  H   UNL A   1      48.377  30.042  27.761  1.00  0.00     0.167 HD
ATOM     73  C   UNL A   1      49.427  27.970  26.132  1.00  0.00     0.074 A 
ATOM     74  C   UNL A   1      49.533  26.729  25.390  1.00  0.00     0.031 C 
ATOM     75  C   UNL A   1      50.408  28.907  26.198  1.00  0.00     0.031 A 
BRANCH  62  76
ATOM     76  C   UNL A   1      48.896  33.893  29.549  1.00  0.00    -0.014 A 
ATOM     77  C   UNL A   1      48.633  35.049  28.790  1.00  0.00     0.010 A 
ATOM     78  C   UNL A   1      49.544  34.027  30.791  1.00  0.00     0.010 A 
ATOM     79  C   UNL A   1      49.073  36.300  29.230  1.00  0.00     0.020 A 
ATOM     80  C   UNL A   1      49.953  35.281  31.251  1.00  0.00     0.020 A 
ATOM     81  C   UNL A   1      49.740  36.407  30.453  1.00  0.00     0.054 A 
BRANCH  81  82
ATOM     82  S   UNL A   1      50.326  38.038  30.986  1.00  0.00     0.124 S 
ATOM     83  O   UNL A   1      49.081  38.688  31.385  1.00  0.00    -0.237 OA
ATOM     84  O   UNL A   1      51.241  37.711  32.076  1.00  0.00    -0.237 OA
ATOM     85  O   UNL A   1      50.958  38.588  29.789  1.00  0.00    -0.744 OA
ENDBRANCH  81  82
ENDBRANCH  62  76
BRANCH  63  86
ATOM     86  C   UNL A   1      45.798  24.964  26.279  1.00  0.00    -0.014 A 
ATOM     87  C   UNL A   1      45.137  24.836  25.044  1.00  0.00     0.010 A 
ATOM     88  C   UNL A   1      46.055  23.808  27.039  1.00  0.00     0.010 A 
ATOM     89  C   UNL A   1      44.749  23.577  24.575  1.00  0.00     0.020 A 
ATOM     90  C   UNL A   1      45.692  22.545  26.561  1.00  0.00     0.020 A 
ATOM     91  C   UNL A   1      45.041  22.438  25.331  1.00  0.00     0.054 A 
BRANCH  91  92
ATOM     92  S   UNL A   1      44.610  20.811  24.655  1.00  0.00     0.124 S 
ATOM     93  O   UNL A   1      45.698  19.975  25.151  1.00  0.00    -0.237 OA
ATOM     94  O   UNL A   1      43.299  20.563  25.250  1.00  0.00    -0.237 OA
ATOM     95  O   UNL A   1      44.597  21.032  23.211  1.00  0.00    -0.744 OA
ENDBRANCH  91  92
ENDBRANCH  63  86
BRANCH  75  96
ATOM     96  C   UNL A   1      51.702  28.618  25.478  1.00  0.00    -0.014 A 
ATOM     97  C   UNL A   1      51.866  28.912  24.113  1.00  0.00     0.010 A 
ATOM     98  C   UNL A   1      52.792  28.098  26.200  1.00  0.00     0.010 A 
ATOM     99  C   UNL A   1      53.086  28.661  23.477  1.00  0.00     0.020 A 
ATOM    100  C   UNL A   1      54.023  27.877  25.577  1.00  0.00     0.020 A 
ATOM    101  C   UNL A   1      54.158  28.148  24.215  1.00  0.00     0.054 A 
BRANCH 101 102
ATOM    102  S   UNL A   1      55.744  27.876  23.376  1.00  0.00     0.124 S 
ATOM    103  O   UNL A   1      56.669  28.619  24.228  1.00  0.00    -0.237 OA
ATOM    104  O   UNL A   1      55.882  26.423  23.416  1.00  0.00    -0.237 OA
ATOM    105  O   UNL A   1      55.534  28.440  22.045  1.00  0.00    -0.744 OA
ENDBRANCH 101 102
ENDBRANCH  75  96
ENDBRANCH  49  50
ENDBRANCH  42  44
ENDBRANCH  41  42
ENDBRANCH  40  41
ENDBRANCH  39  40
ENDBRANCH  38  39
ENDBRANCH  37  38
ENDBRANCH  36  37
ENDBRANCH   1  36
TORSDOF 28
ENDMDL
MODEL 3
REMARK VINA RESULT:      -7.4      4.440      9.653
REMARK SMILES COc1cc(NC(=O)CN2C(=O)c3ccccc3C2=O)c(C(=O)OCCOCCOCCOCCOC(=O)c2ccc(-c3c4nc(c(-c5ccc(S(=O)(=O)[O-])cc5)c5ccc([nH]5)c(-c5ccc(S(=O)(=O)[O-])cc5)c5nc(c(-c6ccc(S(=O)(=O)[O-])cc6)c6ccc3[nH]6)C=C5)C=C4)cc2)cc1OC
REMARK SMILES IDX 30 1 29 2 28 3 27 4 26 5 25 6 24 7 22 8 23 9 21 10 3 11 4 12
REMARK SMILES IDX 100 13 5 14 99 15 2 16 1 17 101 18 102 19 6 20 7 21 8 23
REMARK SMILES IDX 9 24 10 25 11 26 19 27 12 28 13 29 18 30 20 31 14 32 17 33
REMARK SMILES IDX 15 34 16 35 31 36 32 37 33 38 34 39 35 40 36 41 37 42 38 43
REMARK SMILES IDX 39 44 40 45 98 46 41 47 97 48 42 49 43 50 44 51 91 52 45 53
REMARK SMILES IDX 96 54 90 55 92 56 46 57 95 58 89 59 88 60 47 62 77 63 58 64
REMARK SMILES IDX 76 65 59 66 62 67 75 68 93 69 60 70 61 71 74 73 94 74 63 75
REMARK SMILES IDX 48 76 49 77 57 78 50 79 56 80 51 81 52 82 53 83 54 84 55 85
REMARK SMILES IDX 78 86 79 87 87 88 80 89 86 90 81 91 82 92 83 93 84 94 85 95
REMARK SMILES IDX 64 96 65 97 73 98 66 99 72 100 67 101 68 102 69 103 70 104
REMARK SMILES IDX 71 105
REMARK H PARENT 6 22 92 61 62 72
REMARK Flexibility Score: inf
ROOT
ATOM      1  O   UNL A   1      38.991  24.230  26.956  1.00  0.00    -0.377 OA
ENDROOT
BRANCH   1   2
ATOM      2  C   UNL A   1      37.696  24.068  26.401  1.00  0.00     0.188 C 
BRANCH   2   3
ATOM      3  C   UNL A   1      37.513  22.926  25.382  1.00  0.00     0.188 C 
BRANCH   3   4
ATOM      4  O   UNL A   1      36.775  23.306  24.237  1.00  0.00    -0.376 OA
BRANCH   4   5
ATOM      5  C   UNL A   1      35.555  24.008  24.370  1.00  0.00     0.202 C 
BRANCH   5   6
ATOM      6  C   UNL A   1      34.610  24.227  23.179  1.00  0.00     0.261 C 
BRANCH   6   7
ATOM      7  O   UNL A   1      34.596  25.521  22.571  1.00  0.00    -0.460 OA
BRANCH   7   8
ATOM      8  C   UNL A   1      33.404  26.074  22.273  1.00  0.00     0.340 C 
ATOM      9  O   UNL A   1      32.766  25.919  21.245  1.00  0.00    -0.246 OA
BRANCH   8  10
ATOM     10  C   UNL A   1      32.889  26.795  23.467  1.00  0.00     0.087 A 
ATOM     11  C   UNL A   1      31.944  28.359  25.564  1.00  0.00     0.162 A 
ATOM     12  C   UNL A   1      31.112  27.413  24.945  1.00  0.00     0.077 A 
ATOM     13  C   UNL A   1      33.285  28.467  25.200  1.00  0.00     0.161 A 
ATOM     14  C   UNL A   1      31.591  26.551  23.967  1.00  0.00     0.059 A 
ATOM     15  C   UNL A   1      33.737  27.707  24.120  1.00  0.00     0.068 A 
BRANCH  11  16
ATOM     16  O   UNL A   1      31.425  29.095  26.595  1.00  0.00    -0.493 OA
ATOM     17  C   UNL A   1      31.422  28.359  27.819  1.00  0.00     0.278 C 
ENDBRANCH  11  16
BRANCH  13  18
ATOM     18  O   UNL A   1      34.259  29.239  25.763  1.00  0.00    -0.493 OA
ATOM     19  C   UNL A   1      34.898  28.761  26.935  1.00  0.00     0.278 C 
ENDBRANCH  13  18
BRANCH  14  20
ATOM     20  N   UNL A   1      30.865  25.427  23.517  1.00  0.00    -0.324 N 
ATOM     21  C   UNL A   1      30.991  24.073  23.650  1.00  0.00     0.244 C 
ATOM     22  H   UNL A   1      30.080  25.678  22.978  1.00  0.00     0.170 HD
ATOM     23  O   UNL A   1      30.131  23.393  23.070  1.00  0.00    -0.273 OA
BRANCH  21  24
ATOM     24  C   UNL A   1      32.015  23.348  24.529  1.00  0.00     0.229 C 
BRANCH  24  25
ATOM     25  N   UNL A   1      32.100  21.901  24.443  1.00  0.00    -0.265 N 
ATOM     26  C   UNL A   1      32.364  21.092  25.517  1.00  0.00     0.262 C 
ATOM     27  C   UNL A   1      32.276  21.222  23.267  1.00  0.00     0.262 C 
ATOM     28  O   UNL A   1      32.490  21.388  26.684  1.00  0.00    -0.269 OA
ATOM     29  C   UNL A   1      32.538  19.738  24.986  1.00  0.00     0.053 A 
ATOM     30  C   UNL A   1      32.466  19.817  23.608  1.00  0.00     0.053 A 
ATOM     31  O   UNL A   1      32.343  21.665  22.132  1.00  0.00    -0.269 OA
ATOM     32  C   UNL A   1      32.755  18.539  25.635  1.00  0.00     0.015 A 
ATOM     33  C   UNL A   1      32.594  18.704  22.800  1.00  0.00     0.015 A 
ATOM     34  C   UNL A   1      32.880  17.394  24.840  1.00  0.00     0.001 A 
ATOM     35  C   UNL A   1      32.795  17.475  23.434  1.00  0.00     0.001 A 
ENDBRANCH  24  25
ENDBRANCH  21  24
ENDBRANCH  14  20
ENDBRANCH   8  10
ENDBRANCH   7   8
ENDBRANCH   6   7
ENDBRANCH   5   6
ENDBRANCH   4   5
ENDBRANCH   3   4
ENDBRANCH   2   3
ENDBRANCH   1   2
BRANCH   1  36
ATOM     36  C   UNL A   1      39.545  25.538  27.095  1.00  0.00     0.188 C 
BRANCH  36  37
ATOM     37  C   UNL A   1      39.831  26.189  28.473  1.00  0.00     0.188 C 
BRANCH  37  38
ATOM     38  O   UNL A   1      39.651  27.594  28.520  1.00  0.00    -0.376 OA
BRANCH  38  39
ATOM     39  C   UNL A   1      38.332  28.103  28.521  1.00  0.00     0.202 C 
BRANCH  39  40
ATOM     40  C   UNL A   1      38.186  29.621  28.683  1.00  0.00     0.261 C 
BRANCH  40  41
ATOM     41  O   UNL A   1      37.651  30.071  29.935  1.00  0.00    -0.460 OA
BRANCH  41  42
ATOM     42  C   UNL A   1      38.251  31.132  30.519  1.00  0.00     0.338 C 
ATOM     43  O   UNL A   1      37.725  32.171  30.873  1.00  0.00    -0.246 OA
BRANCH  42  44
ATOM     44  C   UNL A   1      39.639  30.734  30.829  1.00  0.00     0.060 A 
ATOM     45  C   UNL A   1      40.700  31.405  30.206  1.00  0.00     0.016 A 
ATOM     46  C   UNL A   1      39.887  29.716  31.753  1.00  0.00     0.016 A 
ATOM     47  C   UNL A   1      42.017  31.031  30.483  1.00  0.00     0.010 A 
ATOM     48  C   UNL A   1      41.203  29.331  32.012  1.00  0.00     0.010 A 
ATOM     49  C   UNL A   1      42.271  29.964  31.352  1.00  0.00    -0.014 A 
BRANCH  49  50
ATOM     50  C   UNL A   1      43.625  29.366  31.416  1.00  0.00     0.031 A 
ATOM     51  C   UNL A   1      44.587  29.898  32.443  1.00  0.00     0.074 A 
ATOM     52  C   UNL A   1      43.997  28.373  30.590  1.00  0.00     0.049 A 
ATOM     53  N   UNL A   1      45.832  29.565  32.668  1.00  0.00    -0.248 NA
ATOM     54  C   UNL A   1      44.073  30.953  33.331  1.00  0.00     0.031 C 
ATOM     55  C   UNL A   1      43.142  27.736  29.591  1.00  0.00     0.029 A 
ATOM     56  N   UNL A   1      45.202  27.728  30.465  1.00  0.00    -0.354 N 
ATOM     57  C   UNL A   1      46.254  30.380  33.713  1.00  0.00     0.074 A 
ATOM     58  C   UNL A   1      45.144  31.244  34.053  1.00  0.00     0.031 C 
ATOM     59  C   UNL A   1      43.850  26.785  28.956  1.00  0.00     0.029 A 
ATOM     60  C   UNL A   1      45.217  26.775  29.475  1.00  0.00     0.049 A 
ATOM     61  H   UNL A   1      45.983  27.930  31.031  1.00  0.00     0.167 HD
ATOM     62  C   UNL A   1      47.457  30.408  34.336  1.00  0.00     0.031 A 
ATOM     63  C   UNL A   1      46.224  25.996  29.030  1.00  0.00     0.031 A 
ATOM     64  C   UNL A   1      48.566  29.568  33.972  1.00  0.00     0.049 A 
ATOM     65  C   UNL A   1      47.583  26.108  29.673  1.00  0.00     0.074 A 
ATOM     66  C   UNL A   1      49.822  29.504  34.548  1.00  0.00     0.029 A 
ATOM     67  N   UNL A   1      48.560  28.657  32.925  1.00  0.00    -0.354 N 
ATOM     68  N   UNL A   1      47.963  26.861  30.677  1.00  0.00    -0.248 NA
ATOM     69  C   UNL A   1      48.648  25.258  29.121  1.00  0.00     0.031 C 
ATOM     70  C   UNL A   1      50.597  28.609  33.803  1.00  0.00     0.029 A 
ATOM     71  C   UNL A   1      49.802  28.056  32.812  1.00  0.00     0.049 A 
ATOM     72  H   UNL A   1      47.785  28.467  32.347  1.00  0.00     0.167 HD
ATOM     73  C   UNL A   1      49.301  26.552  30.902  1.00  0.00     0.074 A 
ATOM     74  C   UNL A   1      49.662  25.537  29.931  1.00  0.00     0.031 C 
ATOM     75  C   UNL A   1      50.152  27.055  31.833  1.00  0.00     0.031 A 
BRANCH  62  76
ATOM     76  C   UNL A   1      47.640  31.430  35.429  1.00  0.00    -0.014 A 
ATOM     77  C   UNL A   1      48.123  32.724  35.157  1.00  0.00     0.010 A 
ATOM     78  C   UNL A   1      47.341  31.079  36.759  1.00  0.00     0.010 A 
ATOM     79  C   UNL A   1      48.370  33.620  36.200  1.00  0.00     0.020 A 
ATOM     80  C   UNL A   1      47.552  31.986  37.801  1.00  0.00     0.020 A 
ATOM     81  C   UNL A   1      48.093  33.241  37.517  1.00  0.00     0.054 A 
BRANCH  81  82
ATOM     82  S   UNL A   1      48.450  34.414  38.854  1.00  0.00     0.124 S 
ATOM     83  O   UNL A   1      49.766  34.917  38.469  1.00  0.00    -0.237 OA
ATOM     84  O   UNL A   1      47.355  35.372  38.742  1.00  0.00    -0.237 OA
ATOM     85  O   UNL A   1      48.430  33.585  40.057  1.00  0.00    -0.744 OA
ENDBRANCH  81  82
ENDBRANCH  62  76
BRANCH  63  86
ATOM     86  C   UNL A   1      45.976  25.031  27.925  1.00  0.00    -0.014 A 
ATOM     87  C   UNL A   1      46.323  25.363  26.603  1.00  0.00     0.010 A 
ATOM     88  C   UNL A   1      45.425  23.764  28.189  1.00  0.00     0.010 A 
ATOM     89  C   UNL A   1      46.130  24.443  25.567  1.00  0.00     0.020 A 
ATOM     90  C   UNL A   1      45.256  22.832  27.161  1.00  0.00     0.020 A 
ATOM     91  C   UNL A   1      45.609  23.178  25.856  1.00  0.00     0.054 A 
BRANCH  91  92
ATOM     92  S   UNL A   1      45.457  21.972  24.509  1.00  0.00     0.124 S 
ATOM     93  O   UNL A   1      46.764  21.324  24.528  1.00  0.00    -0.237 OA
ATOM     94  O   UNL A   1      44.335  21.148  24.953  1.00  0.00    -0.237 OA
ATOM     95  O   UNL A   1      45.186  22.800  23.336  1.00  0.00    -0.744 OA
ENDBRANCH  91  92
ENDBRANCH  63  86
BRANCH  75  96
ATOM     96  C   UNL A   1      51.552  26.494  31.878  1.00  0.00    -0.014 A 
ATOM     97  C   UNL A   1      51.863  25.353  32.638  1.00  0.00     0.010 A 
ATOM     98  C   UNL A   1      52.558  27.087  31.094  1.00  0.00     0.010 A 
ATOM     99  C   UNL A   1      53.163  24.836  32.637  1.00  0.00     0.020 A 
ATOM    100  C   UNL A   1      53.850  26.555  31.064  1.00  0.00     0.020 A 
ATOM    101  C   UNL A   1      54.148  25.439  31.848  1.00  0.00     0.054 A 
BRANCH 101 102
ATOM    102  S   UNL A   1      55.814  24.721  31.829  1.00  0.00     0.124 S 
ATOM    103  O   UNL A   1      55.929  24.185  33.183  1.00  0.00    -0.237 OA
ATOM    104  O   UNL A   1      55.721  23.726  30.765  1.00  0.00    -0.237 OA
ATOM    105  O   UNL A   1      56.680  25.861  31.535  1.00  0.00    -0.744 OA
ENDBRANCH 101 102
ENDBRANCH  75  96
ENDBRANCH  49  50
ENDBRANCH  42  44
ENDBRANCH  41  42
ENDBRANCH  40  41
ENDBRANCH  39  40
ENDBRANCH  38  39
ENDBRANCH  37  38
ENDBRANCH  36  37
ENDBRANCH   1  36
TORSDOF 28
ENDMDL
