MODEL 1
REMARK VINA RESULT:      -8.2      0.000      0.000
REMARK SMILES CCc1cc(OC(F)(F)F)cc2c1O[C@@H](C(F)(F)F)C(C(=O)OCCOCCOCCOCCOC(=O)c1ccc(-c3c4nc(c(-c5ccc(S(=O)(=O)[O-])cc5)c5ccc([nH]5)c(-c5ccc(S(=O)(=O)[O-])cc5)c5nc(c(-c6ccc(S(=O)(=O)[O-])cc6)c6ccc3[nH]6)C=C5)C=C4)cc1)=C2
REMARK SMILES IDX 30 1 29 2 28 3 27 4 26 5 25 6 24 7 23 8 21 9 22 10 20 11
REMARK SMILES IDX 3 12 4 13 13 14 5 15 12 16 14 17 11 18 98 19 15 20 2 21 1 22
REMARK SMILES IDX 6 23 7 24 8 25 9 26 10 27 16 28 17 29 18 30 19 31 31 32
REMARK SMILES IDX 32 33 33 34 34 35 35 36 36 37 37 38 38 39 39 40 97 41 40 42
REMARK SMILES IDX 96 43 41 44 42 45 43 46 90 47 44 48 95 49 89 50 91 51 45 52
REMARK SMILES IDX 94 53 88 54 87 55 46 57 76 58 57 59 75 60 58 61 61 62 74 63
REMARK SMILES IDX 92 64 59 65 60 66 73 68 93 69 62 70 47 71 48 72 56 73 49 74
REMARK SMILES IDX 55 75 50 76 51 77 52 78 53 79 54 80 77 81 78 82 86 83 79 84
REMARK SMILES IDX 85 85 80 86 81 87 82 88 83 89 84 90 63 91 64 92 72 93 65 94
REMARK SMILES IDX 71 95 66 96 67 97 68 98 69 99 70 100
REMARK H PARENT 91 56 61 67
REMARK Flexibility Score: inf
ROOT
ATOM      1  C   UNL A   1      41.466  19.051  26.218  1.00  0.00     0.188 C 
ENDROOT
BRANCH   1   2
ATOM      2  O   UNL A   1      40.556  20.072  25.825  1.00  0.00    -0.377 OA
BRANCH   2   3
ATOM      3  C   UNL A   1      40.765  21.400  26.265  1.00  0.00     0.188 C 
BRANCH   3   4
ATOM      4  C   UNL A   1      39.605  22.132  26.961  1.00  0.00     0.188 C 
BRANCH   4   5
ATOM      5  O   UNL A   1      39.368  23.456  26.496  1.00  0.00    -0.376 OA
BRANCH   5   6
ATOM      6  C   UNL A   1      38.055  23.725  26.020  1.00  0.00     0.202 C 
BRANCH   6   7
ATOM      7  C   UNL A   1      37.523  22.659  25.058  1.00  0.00     0.261 C 
BRANCH   7   8
ATOM      8  O   UNL A   1      36.089  22.630  24.967  1.00  0.00    -0.460 OA
BRANCH   8   9
ATOM      9  C   UNL A   1      35.525  23.340  23.967  1.00  0.00     0.338 C 
ATOM     10  O   UNL A   1      35.799  23.269  22.781  1.00  0.00    -0.246 OA
BRANCH   9  11
ATOM     11  C   UNL A   1      34.397  24.122  24.500  1.00  0.00     0.087 C 
ATOM     12  C   UNL A   1      31.064  26.475  25.364  1.00  0.00    -0.002 A 
ATOM     13  C   UNL A   1      31.220  27.619  26.164  1.00  0.00     0.054 A 
ATOM     14  C   UNL A   1      32.195  25.705  25.070  1.00  0.00     0.131 A 
ATOM     15  C   UNL A   1      32.481  27.993  26.644  1.00  0.00     0.130 A 
ATOM     16  C   UNL A   1      33.464  26.067  25.543  1.00  0.00     0.021 A 
ATOM     17  O   UNL A   1      32.029  24.628  24.236  1.00  0.00    -0.475 OA
ATOM     18  C   UNL A   1      33.597  27.201  26.346  1.00  0.00     0.058 A 
ATOM     19  C   UNL A   1      34.629  25.308  25.090  1.00  0.00     0.027 C 
ATOM     20  C   UNL A   1      32.995  23.565  24.443  1.00  0.00     0.316 C 
BRANCH  12  21
ATOM     21  C   UNL A   1      29.706  26.116  24.806  1.00  0.00     0.036 C 
ATOM     22  C   UNL A   1      29.301  26.970  23.612  1.00  0.00     0.009 C 
ENDBRANCH  12  21
BRANCH  15  23
ATOM     23  O   UNL A   1      32.752  29.098  27.400  1.00  0.00    -0.406 OA
BRANCH  23  24
ATOM     24  C   UNL A   1      33.243  30.242  26.721  1.00  0.00     0.573 C 
ATOM     25  F   UNL A   1      34.534  30.489  27.033  1.00  0.00    -0.132 F 
ATOM     26  F   UNL A   1      33.128  30.095  25.382  1.00  0.00    -0.132 F 
ATOM     27  F   UNL A   1      32.511  31.317  27.086  1.00  0.00    -0.132 F 
ENDBRANCH  23  24
ENDBRANCH  15  23
BRANCH  20  28
ATOM     28  C   UNL A   1      32.663  22.434  23.457  1.00  0.00     0.430 C 
ATOM     29  F   UNL A   1      33.082  21.230  23.906  1.00  0.00    -0.167 F 
ATOM     30  F   UNL A   1      31.312  22.322  23.327  1.00  0.00    -0.167 F 
ATOM     31  F   UNL A   1      33.160  22.635  22.222  1.00  0.00    -0.167 F 
ENDBRANCH  20  28
ENDBRANCH   9  11
ENDBRANCH   8   9
ENDBRANCH   7   8
ENDBRANCH   6   7
ENDBRANCH   5   6
ENDBRANCH   4   5
ENDBRANCH   3   4
ENDBRANCH   2   3
ENDBRANCH   1   2
BRANCH   1  32
ATOM     32  C   UNL A   1      42.847  19.390  26.822  1.00  0.00     0.188 C 
BRANCH  32  33
ATOM     33  O   UNL A   1      43.835  19.790  25.878  1.00  0.00    -0.376 OA
BRANCH  33  34
ATOM     34  C   UNL A   1      43.985  18.952  24.740  1.00  0.00     0.202 C 
BRANCH  34  35
ATOM     35  C   UNL A   1      44.694  19.642  23.570  1.00  0.00     0.261 C 
BRANCH  35  36
ATOM     36  O   UNL A   1      45.480  20.785  23.937  1.00  0.00    -0.460 OA
BRANCH  36  37
ATOM     37  C   UNL A   1      44.938  21.999  23.690  1.00  0.00     0.338 C 
ATOM     38  O   UNL A   1      44.178  22.298  22.787  1.00  0.00    -0.246 OA
BRANCH  37  39
ATOM     39  C   UNL A   1      45.274  22.880  24.824  1.00  0.00     0.060 A 
ATOM     40  C   UNL A   1      45.119  24.263  24.671  1.00  0.00     0.016 A 
ATOM     41  C   UNL A   1      45.732  22.340  26.029  1.00  0.00     0.016 A 
ATOM     42  C   UNL A   1      45.464  25.117  25.716  1.00  0.00     0.010 A 
ATOM     43  C   UNL A   1      46.094  23.198  27.067  1.00  0.00     0.010 A 
ATOM     44  C   UNL A   1      45.997  24.589  26.901  1.00  0.00    -0.014 A 
BRANCH  44  45
ATOM     45  C   UNL A   1      46.657  25.495  27.868  1.00  0.00     0.031 A 
ATOM     46  C   UNL A   1      47.977  26.102  27.478  1.00  0.00     0.074 A 
ATOM     47  C   UNL A   1      46.097  25.786  29.055  1.00  0.00     0.049 A 
ATOM     48  N   UNL A   1      48.740  26.925  28.147  1.00  0.00    -0.248 NA
ATOM     49  C   UNL A   1      48.505  25.731  26.154  1.00  0.00     0.031 C 
ATOM     50  C   UNL A   1      44.810  25.282  29.534  1.00  0.00     0.029 A 
ATOM     51  N   UNL A   1      46.550  26.582  30.076  1.00  0.00    -0.354 N 
ATOM     52  C   UNL A   1      49.835  27.172  27.328  1.00  0.00     0.074 A 
ATOM     53  C   UNL A   1      49.654  26.387  26.126  1.00  0.00     0.031 C 
ATOM     54  C   UNL A   1      44.580  25.778  30.762  1.00  0.00     0.029 A 
ATOM     55  C   UNL A   1      45.712  26.614  31.164  1.00  0.00     0.049 A 
ATOM     56  H   UNL A   1      47.397  27.083  30.034  1.00  0.00     0.167 HD
ATOM     57  C   UNL A   1      50.895  27.983  27.549  1.00  0.00     0.031 A 
ATOM     58  C   UNL A   1      45.850  27.237  32.351  1.00  0.00     0.031 A 
ATOM     59  C   UNL A   1      51.088  28.743  28.755  1.00  0.00     0.049 A 
ATOM     60  C   UNL A   1      47.074  28.081  32.606  1.00  0.00     0.074 A 
ATOM     61  C   UNL A   1      52.122  29.605  29.071  1.00  0.00     0.029 A 
ATOM     62  N   UNL A   1      50.233  28.721  29.846  1.00  0.00    -0.354 N 
ATOM     63  N   UNL A   1      48.081  28.338  31.803  1.00  0.00    -0.248 NA
ATOM     64  C   UNL A   1      47.174  28.726  33.923  1.00  0.00     0.031 C 
ATOM     65  C   UNL A   1      51.920  30.064  30.377  1.00  0.00     0.029 A 
ATOM     66  C   UNL A   1      50.731  29.533  30.850  1.00  0.00     0.049 A 
ATOM     67  H   UNL A   1      49.397  28.205  29.899  1.00  0.00     0.167 HD
ATOM     68  C   UNL A   1      48.920  29.193  32.510  1.00  0.00     0.074 A 
ATOM     69  C   UNL A   1      48.297  29.421  33.797  1.00  0.00     0.031 C 
ATOM     70  C   UNL A   1      50.100  29.744  32.128  1.00  0.00     0.031 A 
BRANCH  57  71
ATOM     71  C   UNL A   1      51.941  28.059  26.473  1.00  0.00    -0.014 A 
ATOM     72  C   UNL A   1      51.827  28.977  25.413  1.00  0.00     0.010 A 
ATOM     73  C   UNL A   1      53.062  27.212  26.530  1.00  0.00     0.010 A 
ATOM     74  C   UNL A   1      52.798  29.021  24.410  1.00  0.00     0.020 A 
ATOM     75  C   UNL A   1      54.048  27.270  25.542  1.00  0.00     0.020 A 
ATOM     76  C   UNL A   1      53.900  28.163  24.478  1.00  0.00     0.054 A 
BRANCH  76  77
ATOM     77  S   UNL A   1      55.155  28.252  23.171  1.00  0.00     0.124 S 
ATOM     78  O   UNL A   1      54.568  29.229  22.258  1.00  0.00    -0.237 OA
ATOM     79  O   UNL A   1      56.341  28.702  23.895  1.00  0.00    -0.237 OA
ATOM     80  O   UNL A   1      55.222  26.884  22.662  1.00  0.00    -0.744 OA
ENDBRANCH  76  77
ENDBRANCH  57  71
BRANCH  58  81
ATOM     81  C   UNL A   1      44.808  27.078  33.402  1.00  0.00    -0.014 A 
ATOM     82  C   UNL A   1      43.823  28.062  33.593  1.00  0.00     0.010 A 
ATOM     83  C   UNL A   1      44.803  25.938  34.227  1.00  0.00     0.010 A 
ATOM     84  C   UNL A   1      42.861  27.918  34.598  1.00  0.00     0.020 A 
ATOM     85  C   UNL A   1      43.829  25.778  35.216  1.00  0.00     0.020 A 
ATOM     86  C   UNL A   1      42.870  26.775  35.403  1.00  0.00     0.054 A 
BRANCH  86  87
ATOM     87  S   UNL A   1      41.582  26.581  36.666  1.00  0.00     0.124 S 
ATOM     88  O   UNL A   1      40.760  25.517  36.100  1.00  0.00    -0.237 OA
ATOM     89  O   UNL A   1      42.355  26.221  37.852  1.00  0.00    -0.237 OA
ATOM     90  O   UNL A   1      40.955  27.899  36.719  1.00  0.00    -0.744 OA
ENDBRANCH  86  87
ENDBRANCH  58  81
BRANCH  70  91
ATOM     91  C   UNL A   1      50.783  30.669  33.099  1.00  0.00    -0.014 A 
ATOM     92  C   UNL A   1      51.739  30.190  34.013  1.00  0.00     0.010 A 
ATOM     93  C   UNL A   1      50.508  32.049  33.055  1.00  0.00     0.010 A 
ATOM     94  C   UNL A   1      52.383  31.070  34.887  1.00  0.00     0.020 A 
ATOM     95  C   UNL A   1      51.169  32.935  33.908  1.00  0.00     0.020 A 
ATOM     96  C   UNL A   1      52.093  32.437  34.831  1.00  0.00     0.054 A 
BRANCH  96  97
ATOM     97  S   UNL A   1      52.971  33.566  35.947  1.00  0.00     0.124 S 
ATOM     98  O   UNL A   1      53.711  34.405  35.009  1.00  0.00    -0.237 OA
ATOM     99  O   UNL A   1      51.880  34.229  36.657  1.00  0.00    -0.237 OA
ATOM    100  O   UNL A   1      53.789  32.675  36.767  1.00  0.00    -0.744 OA
ENDBRANCH  96  97
ENDBRANCH  70  91
ENDBRANCH  44  45
ENDBRANCH  37  39
ENDBRANCH  36  37
ENDBRANCH  35  36
ENDBRANCH  34  35
ENDBRANCH  33  34
ENDBRANCH  32  33
ENDBRANCH   1  32
TORSDOF 27
ENDMDL
MODEL 2
REMARK VINA RESULT:      -8.1      4.852      7.076
REMARK SMILES CCc1cc(OC(F)(F)F)cc2c1O[C@@H](C(F)(F)F)C(C(=O)OCCOCCOCCOCCOC(=O)c1ccc(-c3c4nc(c(-c5ccc(S(=O)(=O)[O-])cc5)c5ccc([nH]5)c(-c5ccc(S(=O)(=O)[O-])cc5)c5nc(c(-c6ccc(S(=O)(=O)[O-])cc6)c6ccc3[nH]6)C=C5)C=C4)cc1)=C2
REMARK SMILES IDX 30 1 29 2 28 3 27 4 26 5 25 6 24 7 23 8 21 9 22 10 20 11
REMARK SMILES IDX 3 12 4 13 13 14 5 15 12 16 14 17 11 18 98 19 15 20 2 21 1 22
REMARK SMILES IDX 6 23 7 24 8 25 9 26 10 27 16 28 17 29 18 30 19 31 31 32
REMARK SMILES IDX 32 33 33 34 34 35 35 36 36 37 37 38 38 39 39 40 97 41 40 42
REMARK SMILES IDX 96 43 41 44 42 45 43 46 90 47 44 48 95 49 89 50 91 51 45 52
REMARK SMILES IDX 94 53 88 54 87 55 46 57 76 58 57 59 75 60 58 61 61 62 74 63
REMARK SMILES IDX 92 64 59 65 60 66 73 68 93 69 62 70 47 71 48 72 56 73 49 74
REMARK SMILES IDX 55 75 50 76 51 77 52 78 53 79 54 80 77 81 78 82 86 83 79 84
REMARK SMILES IDX 85 85 80 86 81 87 82 88 83 89 84 90 63 91 64 92 72 93 65 94
REMARK SMILES IDX 71 95 66 96 67 97 68 98 69 99 70 100
REMARK H PARENT 91 56 61 67
REMARK Flexibility Score: inf
ROOT
ATOM      1  C   UNL A   1      40.462  19.802  26.054  1.00  0.00     0.188 C 
ENDROOT
BRANCH   1   2
ATOM      2  O   UNL A   1      40.028  21.034  26.619  1.00  0.00    -0.377 OA
BRANCH   2   3
ATOM      3  C   UNL A   1      40.871  22.168  26.552  1.00  0.00     0.188 C 
BRANCH   3   4
ATOM      4  C   UNL A   1      41.560  22.646  27.841  1.00  0.00     0.188 C 
BRANCH   4   5
ATOM      5  O   UNL A   1      42.541  23.661  27.653  1.00  0.00    -0.376 OA
BRANCH   5   6
ATOM      6  C   UNL A   1      42.298  24.894  28.319  1.00  0.00     0.202 C 
BRANCH   6   7
ATOM      7  C   UNL A   1      41.987  26.052  27.368  1.00  0.00     0.261 C 
BRANCH   7   8
ATOM      8  O   UNL A   1      41.310  27.151  28.000  1.00  0.00    -0.460 OA
BRANCH   8   9
ATOM      9  C   UNL A   1      41.215  28.298  27.295  1.00  0.00     0.338 C 
ATOM     10  O   UNL A   1      40.336  28.595  26.505  1.00  0.00    -0.246 OA
BRANCH   9  11
ATOM     11  C   UNL A   1      42.265  29.231  27.736  1.00  0.00     0.087 C 
ATOM     12  C   UNL A   1      44.799  32.357  28.831  1.00  0.00    -0.002 A 
ATOM     13  C   UNL A   1      46.040  32.493  28.187  1.00  0.00     0.054 A 
ATOM     14  C   UNL A   1      43.953  31.313  28.441  1.00  0.00     0.131 A 
ATOM     15  C   UNL A   1      46.417  31.615  27.164  1.00  0.00     0.130 A 
ATOM     16  C   UNL A   1      44.318  30.425  27.418  1.00  0.00     0.021 A 
ATOM     17  O   UNL A   1      42.722  31.237  29.041  1.00  0.00    -0.475 OA
ATOM     18  C   UNL A   1      45.560  30.570  26.797  1.00  0.00     0.058 A 
ATOM     19  C   UNL A   1      43.340  29.441  26.956  1.00  0.00     0.027 C 
ATOM     20  C   UNL A   1      42.169  29.896  29.088  1.00  0.00     0.316 C 
BRANCH  12  21
ATOM     21  C   UNL A   1      44.381  33.347  29.894  1.00  0.00     0.036 C 
ATOM     22  C   UNL A   1      44.008  34.713  29.331  1.00  0.00     0.009 C 
ENDBRANCH  12  21
BRANCH  15  23
ATOM     23  O   UNL A   1      47.581  31.674  26.450  1.00  0.00    -0.406 OA
BRANCH  23  24
ATOM     24  C   UNL A   1      48.335  32.872  26.539  1.00  0.00     0.573 C 
ATOM     25  F   UNL A   1      49.559  32.731  25.984  1.00  0.00    -0.132 F 
ATOM     26  F   UNL A   1      47.687  33.895  25.938  1.00  0.00    -0.132 F 
ATOM     27  F   UNL A   1      48.500  33.190  27.841  1.00  0.00    -0.132 F 
ENDBRANCH  23  24
ENDBRANCH  15  23
BRANCH  20  28
ATOM     28  C   UNL A   1      40.811  29.977  29.804  1.00  0.00     0.430 C 
ATOM     29  F   UNL A   1      40.453  28.792  30.349  1.00  0.00    -0.167 F 
ATOM     30  F   UNL A   1      40.894  30.846  30.849  1.00  0.00    -0.167 F 
ATOM     31  F   UNL A   1      39.812  30.411  29.011  1.00  0.00    -0.167 F 
ENDBRANCH  20  28
ENDBRANCH   9  11
ENDBRANCH   8   9
ENDBRANCH   7   8
ENDBRANCH   6   7
ENDBRANCH   5   6
ENDBRANCH   4   5
ENDBRANCH   3   4
ENDBRANCH   2   3
ENDBRANCH   1   2
BRANCH   1  32
ATOM     32  C   UNL A   1      41.926  19.328  26.180  1.00  0.00     0.188 C 
BRANCH  32  33
ATOM     33  O   UNL A   1      42.816  19.853  25.200  1.00  0.00    -0.376 OA
BRANCH  33  34
ATOM     34  C   UNL A   1      43.949  19.051  24.895  1.00  0.00     0.202 C 
BRANCH  34  35
ATOM     35  C   UNL A   1      45.124  19.855  24.328  1.00  0.00     0.261 C 
BRANCH  35  36
ATOM     36  O   UNL A   1      45.390  21.089  25.012  1.00  0.00    -0.460 OA
BRANCH  36  37
ATOM     37  C   UNL A   1      44.858  22.209  24.471  1.00  0.00     0.338 C 
ATOM     38  O   UNL A   1      44.080  22.279  23.537  1.00  0.00    -0.246 OA
BRANCH  37  39
ATOM     39  C   UNL A   1      45.235  23.345  25.331  1.00  0.00     0.060 A 
ATOM     40  C   UNL A   1      44.928  24.643  24.904  1.00  0.00     0.016 A 
ATOM     41  C   UNL A   1      45.879  23.128  26.551  1.00  0.00     0.016 A 
ATOM     42  C   UNL A   1      45.305  25.734  25.683  1.00  0.00     0.010 A 
ATOM     43  C   UNL A   1      46.273  24.222  27.320  1.00  0.00     0.010 A 
ATOM     44  C   UNL A   1      46.021  25.529  26.871  1.00  0.00    -0.014 A 
BRANCH  44  45
ATOM     45  C   UNL A   1      46.697  26.675  27.522  1.00  0.00     0.031 A 
ATOM     46  C   UNL A   1      48.002  27.146  26.941  1.00  0.00     0.074 A 
ATOM     47  C   UNL A   1      46.162  27.294  28.588  1.00  0.00     0.049 A 
ATOM     48  N   UNL A   1      48.774  28.127  27.327  1.00  0.00    -0.248 NA
ATOM     49  C   UNL A   1      48.502  26.410  25.767  1.00  0.00     0.031 C 
ATOM     50  C   UNL A   1      44.891  26.947  29.223  1.00  0.00     0.029 A 
ATOM     51  N   UNL A   1      46.632  28.350  29.327  1.00  0.00    -0.354 N 
ATOM     52  C   UNL A   1      49.848  28.128  26.445  1.00  0.00     0.074 A 
ATOM     53  C   UNL A   1      49.645  27.031  25.524  1.00  0.00     0.031 C 
ATOM     54  C   UNL A   1      44.685  27.775  30.263  1.00  0.00     0.029 A 
ATOM     55  C   UNL A   1      45.819  28.692  30.380  1.00  0.00     0.049 A 
ATOM     56  H   UNL A   1      47.473  28.818  29.122  1.00  0.00     0.167 HD
ATOM     57  C   UNL A   1      50.906  28.970  26.398  1.00  0.00     0.031 A 
ATOM     58  C   UNL A   1      45.980  29.630  31.335  1.00  0.00     0.031 A 
ATOM     59  C   UNL A   1      51.121  30.044  27.330  1.00  0.00     0.049 A 
ATOM     60  C   UNL A   1      47.203  30.512  31.306  1.00  0.00     0.074 A 
ATOM     61  C   UNL A   1      52.155  30.962  27.360  1.00  0.00     0.029 A 
ATOM     62  N   UNL A   1      50.292  30.336  28.402  1.00  0.00    -0.354 N 
ATOM     63  N   UNL A   1      48.189  30.528  30.439  1.00  0.00    -0.248 NA
ATOM     64  C   UNL A   1      47.328  31.508  32.379  1.00  0.00     0.031 C 
ATOM     65  C   UNL A   1      51.980  31.776  28.484  1.00  0.00     0.029 A 
ATOM     66  C   UNL A   1      50.807  31.402  29.118  1.00  0.00     0.049 A 
ATOM     67  H   UNL A   1      49.461  29.856  28.622  1.00  0.00     0.167 HD
ATOM     68  C   UNL A   1      49.038  31.552  30.850  1.00  0.00     0.074 A 
ATOM     69  C   UNL A   1      48.442  32.139  32.033  1.00  0.00     0.031 C 
ATOM     70  C   UNL A   1      50.204  31.971  30.297  1.00  0.00     0.031 A 
BRANCH  57  71
ATOM     71  C   UNL A   1      51.927  28.735  25.320  1.00  0.00    -0.014 A 
ATOM     72  C   UNL A   1      52.916  27.745  25.461  1.00  0.00     0.010 A 
ATOM     73  C   UNL A   1      51.885  29.502  24.143  1.00  0.00     0.010 A 
ATOM     74  C   UNL A   1      53.870  27.553  24.459  1.00  0.00     0.020 A 
ATOM     75  C   UNL A   1      52.822  29.296  23.126  1.00  0.00     0.020 A 
ATOM     76  C   UNL A   1      53.819  28.333  23.299  1.00  0.00     0.054 A 
BRANCH  76  77
ATOM     77  S   UNL A   1      55.059  28.053  22.006  1.00  0.00     0.124 S 
ATOM     78  O   UNL A   1      54.761  29.130  21.065  1.00  0.00    -0.237 OA
ATOM     79  O   UNL A   1      56.319  28.186  22.734  1.00  0.00    -0.237 OA
ATOM     80  O   UNL A   1      54.760  26.706  21.525  1.00  0.00    -0.744 OA
ENDBRANCH  76  77
ENDBRANCH  57  71
BRANCH  58  81
ATOM     81  C   UNL A   1      44.964  29.779  32.412  1.00  0.00    -0.014 A 
ATOM     82  C   UNL A   1      43.883  30.666  32.265  1.00  0.00     0.010 A 
ATOM     83  C   UNL A   1      45.080  29.035  33.601  1.00  0.00     0.010 A 
ATOM     84  C   UNL A   1      42.946  30.818  33.291  1.00  0.00     0.020 A 
ATOM     85  C   UNL A   1      44.131  29.165  34.619  1.00  0.00     0.020 A 
ATOM     86  C   UNL A   1      43.075  30.065  34.461  1.00  0.00     0.054 A 
BRANCH  86  87
ATOM     87  S   UNL A   1      41.819  30.237  35.760  1.00  0.00     0.124 S 
ATOM     88  O   UNL A   1      41.683  31.686  35.859  1.00  0.00    -0.237 OA
ATOM     89  O   UNL A   1      40.675  29.531  35.187  1.00  0.00    -0.237 OA
ATOM     90  O   UNL A   1      42.429  29.582  36.914  1.00  0.00    -0.744 OA
ENDBRANCH  86  87
ENDBRANCH  58  81
BRANCH  70  91
ATOM     91  C   UNL A   1      50.902  33.136  30.945  1.00  0.00    -0.014 A 
ATOM     92  C   UNL A   1      50.607  34.460  30.574  1.00  0.00     0.010 A 
ATOM     93  C   UNL A   1      51.824  32.904  31.984  1.00  0.00     0.010 A 
ATOM     94  C   UNL A   1      51.246  35.530  31.208  1.00  0.00     0.020 A 
ATOM     95  C   UNL A   1      52.443  33.971  32.638  1.00  0.00     0.020 A 
ATOM     96  C   UNL A   1      52.162  35.278  32.235  1.00  0.00     0.054 A 
BRANCH  96  97
ATOM     97  S   UNL A   1      52.948  36.683  33.071  1.00  0.00     0.124 S 
ATOM     98  O   UNL A   1      54.083  36.960  32.196  1.00  0.00    -0.237 OA
ATOM     99  O   UNL A   1      51.891  37.692  33.067  1.00  0.00    -0.237 OA
ATOM    100  O   UNL A   1      53.289  36.154  34.390  1.00  0.00    -0.744 OA
ENDBRANCH  96  97
ENDBRANCH  70  91
ENDBRANCH  44  45
ENDBRANCH  37  39
ENDBRANCH  36  37
ENDBRANCH  35  36
ENDBRANCH  34  35
ENDBRANCH  33  34
ENDBRANCH  32  33
ENDBRANCH   1  32
TORSDOF 27
ENDMDL
MODEL 3
REMARK VINA RESULT:      -7.9      3.596      4.532
REMARK SMILES CCc1cc(OC(F)(F)F)cc2c1O[C@@H](C(F)(F)F)C(C(=O)OCCOCCOCCOCCOC(=O)c1ccc(-c3c4nc(c(-c5ccc(S(=O)(=O)[O-])cc5)c5ccc([nH]5)c(-c5ccc(S(=O)(=O)[O-])cc5)c5nc(c(-c6ccc(S(=O)(=O)[O-])cc6)c6ccc3[nH]6)C=C5)C=C4)cc1)=C2
REMARK SMILES IDX 30 1 29 2 28 3 27 4 26 5 25 6 24 7 23 8 21 9 22 10 20 11
REMARK SMILES IDX 3 12 4 13 13 14 5 15 12 16 14 17 11 18 98 19 15 20 2 21 1 22
REMARK SMILES IDX 6 23 7 24 8 25 9 26 10 27 16 28 17 29 18 30 19 31 31 32
REMARK SMILES IDX 32 33 33 34 34 35 35 36 36 37 37 38 38 39 39 40 97 41 40 42
REMARK SMILES IDX 96 43 41 44 42 45 43 46 90 47 44 48 95 49 89 50 91 51 45 52
REMARK SMILES IDX 94 53 88 54 87 55 46 57 76 58 57 59 75 60 58 61 61 62 74 63
REMARK SMILES IDX 92 64 59 65 60 66 73 68 93 69 62 70 47 71 48 72 56 73 49 74
REMARK SMILES IDX 55 75 50 76 51 77 52 78 53 79 54 80 77 81 78 82 86 83 79 84
REMARK SMILES IDX 85 85 80 86 81 87 82 88 83 89 84 90 63 91 64 92 72 93 65 94
REMARK SMILES IDX 71 95 66 96 67 97 68 98 69 99 70 100
REMARK H PARENT 91 56 61 67
REMARK Flexibility Score: inf
ROOT
ATOM      1  C   UNL A   1      41.545  19.183  26.131  1.00  0.00     0.188 C 
ENDROOT
BRANCH   1   2
ATOM      2  O   UNL A   1      40.503  20.107  25.836  1.00  0.00    -0.377 OA
BRANCH   2   3
ATOM      3  C   UNL A   1      40.679  21.477  26.140  1.00  0.00     0.188 C 
BRANCH   3   4
ATOM      4  C   UNL A   1      39.570  22.202  26.921  1.00  0.00     0.188 C 
BRANCH   4   5
ATOM      5  O   UNL A   1      39.280  23.518  26.463  1.00  0.00    -0.376 OA
BRANCH   5   6
ATOM      6  C   UNL A   1      37.952  23.741  26.006  1.00  0.00     0.202 C 
BRANCH   6   7
ATOM      7  C   UNL A   1      37.405  22.605  25.138  1.00  0.00     0.261 C 
BRANCH   7   8
ATOM      8  O   UNL A   1      35.970  22.579  25.061  1.00  0.00    -0.460 OA
BRANCH   8   9
ATOM      9  C   UNL A   1      35.405  23.162  23.983  1.00  0.00     0.338 C 
ATOM     10  O   UNL A   1      35.621  22.892  22.814  1.00  0.00    -0.246 OA
BRANCH   9  11
ATOM     11  C   UNL A   1      34.349  24.088  24.426  1.00  0.00     0.087 C 
ATOM     12  C   UNL A   1      31.063  26.568  25.093  1.00  0.00    -0.002 A 
ATOM     13  C   UNL A   1      31.271  27.941  25.301  1.00  0.00     0.054 A 
ATOM     14  C   UNL A   1      32.175  25.752  24.855  1.00  0.00     0.131 A 
ATOM     15  C   UNL A   1      32.559  28.488  25.252  1.00  0.00     0.130 A 
ATOM     16  C   UNL A   1      33.471  26.285  24.804  1.00  0.00     0.021 A 
ATOM     17  O   UNL A   1      31.943  24.425  24.594  1.00  0.00    -0.475 OA
ATOM     18  C   UNL A   1      33.658  27.651  25.023  1.00  0.00     0.058 A 
ATOM     19  C   UNL A   1      34.578  25.413  24.412  1.00  0.00     0.027 C 
ATOM     20  C   UNL A   1      33.042  23.550  24.956  1.00  0.00     0.316 C 
BRANCH  12  21
ATOM     21  C   UNL A   1      29.662  26.001  25.092  1.00  0.00     0.036 C 
ATOM     22  C   UNL A   1      28.812  26.501  23.931  1.00  0.00     0.009 C 
ENDBRANCH  12  21
BRANCH  15  23
ATOM     23  O   UNL A   1      32.871  29.809  25.407  1.00  0.00    -0.406 OA
BRANCH  23  24
ATOM     24  C   UNL A   1      32.869  30.324  26.728  1.00  0.00     0.573 C 
ATOM     25  F   UNL A   1      31.871  31.216  26.912  1.00  0.00    -0.132 F 
ATOM     26  F   UNL A   1      32.750  29.328  27.634  1.00  0.00    -0.132 F 
ATOM     27  F   UNL A   1      34.042  30.955  26.955  1.00  0.00    -0.132 F 
ENDBRANCH  23  24
ENDBRANCH  15  23
BRANCH  20  28
ATOM     28  C   UNL A   1      32.620  22.109  24.625  1.00  0.00     0.430 C 
ATOM     29  F   UNL A   1      33.351  21.197  25.305  1.00  0.00    -0.167 F 
ATOM     30  F   UNL A   1      31.332  21.907  25.019  1.00  0.00    -0.167 F 
ATOM     31  F   UNL A   1      32.678  21.821  23.311  1.00  0.00    -0.167 F 
ENDBRANCH  20  28
ENDBRANCH   9  11
ENDBRANCH   8   9
ENDBRANCH   7   8
ENDBRANCH   6   7
ENDBRANCH   5   6
ENDBRANCH   4   5
ENDBRANCH   3   4
ENDBRANCH   2   3
ENDBRANCH   1   2
BRANCH   1  32
ATOM     32  C   UNL A   1      42.905  19.653  26.690  1.00  0.00     0.188 C 
BRANCH  32  33
ATOM     33  O   UNL A   1      43.710  20.391  25.777  1.00  0.00    -0.376 OA
BRANCH  33  34
ATOM     34  C   UNL A   1      44.463  19.622  24.849  1.00  0.00     0.202 C 
BRANCH  34  35
ATOM     35  C   UNL A   1      45.805  20.263  24.480  1.00  0.00     0.261 C 
BRANCH  35  36
ATOM     36  O   UNL A   1      46.162  21.404  25.275  1.00  0.00    -0.460 OA
BRANCH  36  37
ATOM     37  C   UNL A   1      45.890  22.619  24.750  1.00  0.00     0.338 C 
ATOM     38  O   UNL A   1      45.704  22.891  23.577  1.00  0.00    -0.246 OA
BRANCH  37  39
ATOM     39  C   UNL A   1      45.664  23.552  25.869  1.00  0.00     0.060 A 
ATOM     40  C   UNL A   1      45.854  24.922  25.652  1.00  0.00     0.016 A 
ATOM     41  C   UNL A   1      45.262  23.075  27.119  1.00  0.00     0.016 A 
ATOM     42  C   UNL A   1      45.682  25.819  26.704  1.00  0.00     0.010 A 
ATOM     43  C   UNL A   1      45.108  23.972  28.175  1.00  0.00     0.010 A 
ATOM     44  C   UNL A   1      45.354  25.341  27.981  1.00  0.00    -0.014 A 
BRANCH  44  45
ATOM     45  C   UNL A   1      45.488  26.239  29.150  1.00  0.00     0.031 A 
ATOM     46  C   UNL A   1      46.822  26.301  29.842  1.00  0.00     0.074 A 
ATOM     47  C   UNL A   1      44.462  26.993  29.580  1.00  0.00     0.049 A 
ATOM     48  N   UNL A   1      47.187  27.011  30.876  1.00  0.00    -0.248 NA
ATOM     49  C   UNL A   1      47.888  25.445  29.291  1.00  0.00     0.031 C 
ATOM     50  C   UNL A   1      43.131  27.041  28.976  1.00  0.00     0.029 A 
ATOM     51  N   UNL A   1      44.386  27.867  30.635  1.00  0.00    -0.354 N 
ATOM     52  C   UNL A   1      48.522  26.692  31.099  1.00  0.00     0.074 A 
ATOM     53  C   UNL A   1      48.893  25.699  30.114  1.00  0.00     0.031 C 
ATOM     54  C   UNL A   1      42.367  27.897  29.678  1.00  0.00     0.029 A 
ATOM     55  C   UNL A   1      43.147  28.439  30.791  1.00  0.00     0.049 A 
ATOM     56  H   UNL A   1      45.148  28.064  31.227  1.00  0.00     0.167 HD
ATOM     57  C   UNL A   1      49.366  27.183  32.035  1.00  0.00     0.031 A 
ATOM     58  C   UNL A   1      42.693  29.291  31.731  1.00  0.00     0.031 A 
ATOM     59  C   UNL A   1      48.990  28.149  33.030  1.00  0.00     0.049 A 
ATOM     60  C   UNL A   1      43.633  29.772  32.808  1.00  0.00     0.074 A 
ATOM     61  C   UNL A   1      49.776  28.720  34.014  1.00  0.00     0.029 A 
ATOM     62  N   UNL A   1      47.716  28.678  33.175  1.00  0.00    -0.354 N 
ATOM     63  N   UNL A   1      44.904  29.492  32.980  1.00  0.00    -0.248 NA
ATOM     64  C   UNL A   1      43.078  30.692  33.812  1.00  0.00     0.031 C 
ATOM     65  C   UNL A   1      48.963  29.555  34.789  1.00  0.00     0.029 A 
ATOM     66  C   UNL A   1      47.687  29.547  34.251  1.00  0.00     0.049 A 
ATOM     67  H   UNL A   1      46.947  28.466  32.598  1.00  0.00     0.167 HD
ATOM     68  C   UNL A   1      45.305  30.221  34.096  1.00  0.00     0.074 A 
ATOM     69  C   UNL A   1      44.147  30.963  34.548  1.00  0.00     0.031 C 
ATOM     70  C   UNL A   1      46.523  30.274  34.691  1.00  0.00     0.031 A 
BRANCH  57  71
ATOM     71  C   UNL A   1      50.773  26.651  32.040  1.00  0.00    -0.014 A 
ATOM     72  C   UNL A   1      51.774  27.242  31.249  1.00  0.00     0.010 A 
ATOM     73  C   UNL A   1      51.101  25.557  32.859  1.00  0.00     0.010 A 
ATOM     74  C   UNL A   1      53.071  26.723  31.249  1.00  0.00     0.020 A 
ATOM     75  C   UNL A   1      52.403  25.051  32.882  1.00  0.00     0.020 A 
ATOM     76  C   UNL A   1      53.376  25.628  32.063  1.00  0.00     0.054 A 
BRANCH  76  77
ATOM     77  S   UNL A   1      55.072  24.983  32.058  1.00  0.00     0.124 S 
ATOM     78  O   UNL A   1      55.672  25.728  30.953  1.00  0.00    -0.237 OA
ATOM     79  O   UNL A   1      55.554  25.339  33.390  1.00  0.00    -0.237 OA
ATOM     80  O   UNL A   1      54.898  23.552  31.822  1.00  0.00    -0.744 OA
ENDBRANCH  76  77
ENDBRANCH  57  71
BRANCH  58  81
ATOM     81  C   UNL A   1      41.274  29.738  31.709  1.00  0.00    -0.014 A 
ATOM     82  C   UNL A   1      40.893  30.891  31.000  1.00  0.00     0.010 A 
ATOM     83  C   UNL A   1      40.292  29.012  32.410  1.00  0.00     0.010 A 
ATOM     84  C   UNL A   1      39.562  31.318  31.004  1.00  0.00     0.020 A 
ATOM     85  C   UNL A   1      38.957  29.422  32.395  1.00  0.00     0.020 A 
ATOM     86  C   UNL A   1      38.602  30.580  31.701  1.00  0.00     0.054 A 
BRANCH  86  87
ATOM     87  S   UNL A   1      36.870  31.121  31.649  1.00  0.00     0.124 S 
ATOM     88  O   UNL A   1      36.248  30.072  30.850  1.00  0.00    -0.237 OA
ATOM     89  O   UNL A   1      36.504  31.143  33.064  1.00  0.00    -0.237 OA
ATOM     90  O   UNL A   1      36.943  32.435  31.015  1.00  0.00    -0.744 OA
ENDBRANCH  86  87
ENDBRANCH  58  81
BRANCH  70  91
ATOM     91  C   UNL A   1      46.677  31.184  35.880  1.00  0.00    -0.014 A 
ATOM     92  C   UNL A   1      47.280  32.448  35.757  1.00  0.00     0.010 A 
ATOM     93  C   UNL A   1      46.156  30.791  37.128  1.00  0.00     0.010 A 
ATOM     94  C   UNL A   1      47.388  33.290  36.868  1.00  0.00     0.020 A 
ATOM     95  C   UNL A   1      46.238  31.640  38.233  1.00  0.00     0.020 A 
ATOM     96  C   UNL A   1      46.868  32.880  38.100  1.00  0.00     0.054 A 
BRANCH  96  97
ATOM     97  S   UNL A   1      46.983  34.006  39.518  1.00  0.00     0.124 S 
ATOM     98  O   UNL A   1      45.664  34.633  39.515  1.00  0.00    -0.237 OA
ATOM     99  O   UNL A   1      47.242  33.096  40.631  1.00  0.00    -0.237 OA
ATOM    100  O   UNL A   1      48.095  34.887  39.170  1.00  0.00    -0.744 OA
ENDBRANCH  96  97
ENDBRANCH  70  91
ENDBRANCH  44  45
ENDBRANCH  37  39
ENDBRANCH  36  37
ENDBRANCH  35  36
ENDBRANCH  34  35
ENDBRANCH  33  34
ENDBRANCH  32  33
ENDBRANCH   1  32
TORSDOF 27
ENDMDL
