MODEL 1
REMARK VINA RESULT:      -8.0      0.000      0.000
REMARK SMILES CC(C)(C)c1ccc(NS(=O)(=O)c2cccc(C(=O)OCCOCCOCCOCCOC(=O)c3ccc(-c4c5nc(c(-c6ccc(S(=O)(=O)[O-])cc6)c6ccc([nH]6)c(-c6ccc(S(=O)(=O)[O-])cc6)c6nc(c(-c7ccc(S(=O)(=O)[O-])cc7)c7ccc4[nH]7)C=C6)C=C5)cc3)c2)cc1
REMARK SMILES IDX 25 1 24 2 23 3 22 4 21 5 20 6 18 7 19 8 17 9 13 10 14 11
REMARK SMILES IDX 95 12 15 13 16 14 10 15 11 16 12 17 9 18 8 20 5 21 6 22
REMARK SMILES IDX 97 23 7 24 96 25 2 26 1 27 3 28 4 29 26 30 27 31 28 32 29 33
REMARK SMILES IDX 30 34 31 35 32 36 33 37 34 38 35 39 36 40 94 41 37 42 93 43
REMARK SMILES IDX 38 44 39 45 40 46 87 47 41 48 92 49 86 50 88 51 42 52 91 53
REMARK SMILES IDX 85 54 84 55 43 57 73 58 54 59 72 60 55 61 58 62 71 63 89 64
REMARK SMILES IDX 56 65 57 66 70 68 90 69 59 70 44 71 45 72 53 73 46 74 52 75
REMARK SMILES IDX 47 76 48 77 49 78 50 79 51 80 74 81 75 82 83 83 76 84 82 85
REMARK SMILES IDX 77 86 78 87 79 88 80 89 81 90 60 91 61 92 69 93 62 94 68 95
REMARK SMILES IDX 63 96 64 97 65 98 66 99 67 100
REMARK H PARENT 9 19 88 56 58 67
REMARK Flexibility Score: inf
ROOT
ATOM      1  C   UNL A   1      39.999  26.378  27.466  1.00  0.00     0.188 C 
ENDROOT
BRANCH   1   2
ATOM      2  C   UNL A   1      38.862  25.343  27.514  1.00  0.00     0.188 C 
BRANCH   2   3
ATOM      3  O   UNL A   1      39.129  24.182  26.748  1.00  0.00    -0.376 OA
BRANCH   3   4
ATOM      4  C   UNL A   1      38.070  23.372  26.257  1.00  0.00     0.202 C 
BRANCH   4   5
ATOM      5  C   UNL A   1      38.209  22.209  25.250  1.00  0.00     0.261 C 
BRANCH   5   6
ATOM      6  O   UNL A   1      37.019  21.654  24.694  1.00  0.00    -0.460 OA
BRANCH   6   7
ATOM      7  C   UNL A   1      36.204  22.436  23.964  1.00  0.00     0.338 C 
ATOM      8  O   UNL A   1      36.482  23.101  22.982  1.00  0.00    -0.246 OA
BRANCH   7   9
ATOM      9  C   UNL A   1      34.833  22.140  24.441  1.00  0.00     0.061 A 
ATOM     10  C   UNL A   1      32.808  22.795  25.576  1.00  0.00     0.088 A 
ATOM     11  C   UNL A   1      32.331  21.480  25.520  1.00  0.00     0.022 A 
ATOM     12  C   UNL A   1      34.084  23.119  25.098  1.00  0.00     0.038 A 
ATOM     13  C   UNL A   1      33.101  20.501  24.886  1.00  0.00     0.002 A 
ATOM     14  C   UNL A   1      34.332  20.838  24.313  1.00  0.00     0.016 A 
BRANCH  10  15
ATOM     15  S   UNL A   1      31.704  24.145  25.934  1.00  0.00     0.261 S 
ATOM     16  O   UNL A   1      31.426  24.134  27.353  1.00  0.00    -0.201 OA
ATOM     17  O   UNL A   1      30.643  24.099  24.951  1.00  0.00    -0.201 OA
BRANCH  15  18
ATOM     18  N   UNL A   1      32.576  25.535  25.612  1.00  0.00    -0.280 N 
ATOM     19  H   UNL A   1      33.490  25.570  25.978  1.00  0.00     0.180 HD
BRANCH  18  20
ATOM     20  C   UNL A   1      32.150  26.675  24.869  1.00  0.00     0.049 A 
ATOM     21  C   UNL A   1      30.543  28.645  23.607  1.00  0.00    -0.042 A 
ATOM     22  C   UNL A   1      31.202  27.661  22.863  1.00  0.00     0.006 A 
ATOM     23  C   UNL A   1      30.857  28.722  24.976  1.00  0.00     0.006 A 
ATOM     24  C   UNL A   1      32.032  26.720  23.485  1.00  0.00     0.027 A 
ATOM     25  C   UNL A   1      31.629  27.737  25.602  1.00  0.00     0.027 A 
BRANCH  21  26
ATOM     26  C   UNL A   1      29.498  29.588  22.992  1.00  0.00    -0.013 C 
ATOM     27  C   UNL A   1      28.069  28.995  22.948  1.00  0.00     0.016 C 
ATOM     28  C   UNL A   1      29.911  29.940  21.553  1.00  0.00     0.016 C 
ATOM     29  C   UNL A   1      29.406  30.882  23.836  1.00  0.00     0.016 C 
ENDBRANCH  21  26
ENDBRANCH  18  20
ENDBRANCH  15  18
ENDBRANCH  10  15
ENDBRANCH   7   9
ENDBRANCH   6   7
ENDBRANCH   5   6
ENDBRANCH   4   5
ENDBRANCH   3   4
ENDBRANCH   2   3
ENDBRANCH   1   2
BRANCH   1  30
ATOM     30  O   UNL A   1      39.982  27.227  28.604  1.00  0.00    -0.377 OA
BRANCH  30  31
ATOM     31  C   UNL A   1      40.120  28.620  28.342  1.00  0.00     0.188 C 
BRANCH  31  32
ATOM     32  C   UNL A   1      39.679  29.630  29.421  1.00  0.00     0.188 C 
BRANCH  32  33
ATOM     33  O   UNL A   1      38.339  30.107  29.258  1.00  0.00    -0.376 OA
BRANCH  33  34
ATOM     34  C   UNL A   1      37.791  30.858  30.337  1.00  0.00     0.202 C 
BRANCH  34  35
ATOM     35  C   UNL A   1      38.808  31.236  31.424  1.00  0.00     0.261 C 
BRANCH  35  36
ATOM     36  O   UNL A   1      38.468  32.397  32.194  1.00  0.00    -0.460 OA
BRANCH  36  37
ATOM     37  C   UNL A   1      38.144  33.512  31.503  1.00  0.00     0.338 C 
ATOM     38  O   UNL A   1      37.047  34.035  31.427  1.00  0.00    -0.246 OA
BRANCH  37  39
ATOM     39  C   UNL A   1      39.390  34.119  31.000  1.00  0.00     0.060 A 
ATOM     40  C   UNL A   1      39.484  34.412  29.634  1.00  0.00     0.016 A 
ATOM     41  C   UNL A   1      40.463  34.364  31.859  1.00  0.00     0.016 A 
ATOM     42  C   UNL A   1      40.683  34.892  29.110  1.00  0.00     0.010 A 
ATOM     43  C   UNL A   1      41.668  34.831  31.332  1.00  0.00     0.010 A 
ATOM     44  C   UNL A   1      41.795  35.048  29.949  1.00  0.00    -0.014 A 
BRANCH  44  45
ATOM     45  C   UNL A   1      43.139  35.202  29.349  1.00  0.00     0.031 A 
ATOM     46  C   UNL A   1      43.935  33.955  29.070  1.00  0.00     0.074 A 
ATOM     47  C   UNL A   1      43.637  36.411  29.041  1.00  0.00     0.049 A 
ATOM     48  N   UNL A   1      45.123  33.830  28.538  1.00  0.00    -0.248 NA
ATOM     49  C   UNL A   1      43.304  32.678  29.445  1.00  0.00     0.031 C 
ATOM     50  C   UNL A   1      42.954  37.686  29.243  1.00  0.00     0.029 A 
ATOM     51  N   UNL A   1      44.847  36.757  28.493  1.00  0.00    -0.354 N 
ATOM     52  C   UNL A   1      45.383  32.464  28.519  1.00  0.00     0.074 A 
ATOM     53  C   UNL A   1      44.245  31.806  29.121  1.00  0.00     0.031 C 
ATOM     54  C   UNL A   1      43.761  38.680  28.831  1.00  0.00     0.029 A 
ATOM     55  C   UNL A   1      45.023  38.111  28.358  1.00  0.00     0.049 A 
ATOM     56  H   UNL A   1      45.525  36.095  28.223  1.00  0.00     0.167 HD
ATOM     57  C   UNL A   1      46.470  31.815  28.042  1.00  0.00     0.031 A 
ATOM     58  C   UNL A   1      46.085  38.810  27.912  1.00  0.00     0.031 A 
ATOM     59  C   UNL A   1      47.611  32.473  27.469  1.00  0.00     0.049 A 
ATOM     60  C   UNL A   1      47.306  38.072  27.428  1.00  0.00     0.074 A 
ATOM     61  C   UNL A   1      48.757  31.905  26.940  1.00  0.00     0.029 A 
ATOM     62  N   UNL A   1      47.759  33.848  27.366  1.00  0.00    -0.354 N 
ATOM     63  N   UNL A   1      47.520  36.777  27.374  1.00  0.00    -0.248 NA
ATOM     64  C   UNL A   1      48.422  38.888  26.931  1.00  0.00     0.031 C 
ATOM     65  C   UNL A   1      49.620  32.941  26.563  1.00  0.00     0.029 A 
ATOM     66  C   UNL A   1      48.986  34.151  26.804  1.00  0.00     0.049 A 
ATOM     67  H   UNL A   1      47.089  34.510  27.649  1.00  0.00     0.167 HD
ATOM     68  C   UNL A   1      48.783  36.624  26.811  1.00  0.00     0.074 A 
ATOM     69  C   UNL A   1      49.281  37.958  26.535  1.00  0.00     0.031 C 
ATOM     70  C   UNL A   1      49.467  35.484  26.541  1.00  0.00     0.031 A 
BRANCH  57  71
ATOM     71  C   UNL A   1      46.477  30.314  28.167  1.00  0.00    -0.014 A 
ATOM     72  C   UNL A   1      45.855  29.498  27.205  1.00  0.00     0.010 A 
ATOM     73  C   UNL A   1      47.106  29.714  29.273  1.00  0.00     0.010 A 
ATOM     74  C   UNL A   1      45.813  28.112  27.377  1.00  0.00     0.020 A 
ATOM     75  C   UNL A   1      47.088  28.327  29.434  1.00  0.00     0.020 A 
ATOM     76  C   UNL A   1      46.421  27.536  28.497  1.00  0.00     0.054 A 
BRANCH  76  77
ATOM     77  S   UNL A   1      46.342  25.736  28.704  1.00  0.00     0.124 S 
ATOM     78  O   UNL A   1      47.480  25.485  29.585  1.00  0.00    -0.237 OA
ATOM     79  O   UNL A   1      45.027  25.537  29.306  1.00  0.00    -0.237 OA
ATOM     80  O   UNL A   1      46.484  25.225  27.343  1.00  0.00    -0.744 OA
ENDBRANCH  76  77
ENDBRANCH  57  71
BRANCH  58  81
ATOM     81  C   UNL A   1      46.034  40.297  27.902  1.00  0.00    -0.014 A 
ATOM     82  C   UNL A   1      46.577  41.041  28.964  1.00  0.00     0.010 A 
ATOM     83  C   UNL A   1      45.464  40.978  26.810  1.00  0.00     0.010 A 
ATOM     84  C   UNL A   1      46.548  42.439  28.936  1.00  0.00     0.020 A 
ATOM     85  C   UNL A   1      45.455  42.375  26.767  1.00  0.00     0.020 A 
ATOM     86  C   UNL A   1      45.993  43.097  27.834  1.00  0.00     0.054 A 
BRANCH  86  87
ATOM     87  S   UNL A   1      46.037  44.911  27.785  1.00  0.00     0.124 S 
ATOM     88  O   UNL A   1      45.590  45.190  26.424  1.00  0.00    -0.237 OA
ATOM     89  O   UNL A   1      45.102  45.278  28.845  1.00  0.00    -0.237 OA
ATOM     90  O   UNL A   1      47.436  45.227  28.063  1.00  0.00    -0.744 OA
ENDBRANCH  86  87
ENDBRANCH  58  81
BRANCH  70  91
ATOM     91  C   UNL A   1      50.815  35.621  25.882  1.00  0.00    -0.014 A 
ATOM     92  C   UNL A   1      51.999  35.658  26.638  1.00  0.00     0.010 A 
ATOM     93  C   UNL A   1      50.897  35.655  24.478  1.00  0.00     0.010 A 
ATOM     94  C   UNL A   1      53.240  35.762  26.002  1.00  0.00     0.020 A 
ATOM     95  C   UNL A   1      52.136  35.732  23.838  1.00  0.00     0.020 A 
ATOM     96  C   UNL A   1      53.301  35.800  24.605  1.00  0.00     0.054 A 
BRANCH  96  97
ATOM     97  S   UNL A   1      54.923  35.898  23.800  1.00  0.00     0.124 S 
ATOM     98  O   UNL A   1      55.833  35.789  24.937  1.00  0.00    -0.237 OA
ATOM     99  O   UNL A   1      54.904  34.749  22.897  1.00  0.00    -0.237 OA
ATOM    100  O   UNL A   1      54.904  37.201  23.139  1.00  0.00    -0.744 OA
ENDBRANCH  96  97
ENDBRANCH  70  91
ENDBRANCH  44  45
ENDBRANCH  37  39
ENDBRANCH  36  37
ENDBRANCH  35  36
ENDBRANCH  34  35
ENDBRANCH  33  34
ENDBRANCH  32  33
ENDBRANCH  31  32
ENDBRANCH  30  31
ENDBRANCH   1  30
TORSDOF 27
ENDMDL
MODEL 2
REMARK VINA RESULT:      -7.9      7.166     15.463
REMARK SMILES CC(C)(C)c1ccc(NS(=O)(=O)c2cccc(C(=O)OCCOCCOCCOCCOC(=O)c3ccc(-c4c5nc(c(-c6ccc(S(=O)(=O)[O-])cc6)c6ccc([nH]6)c(-c6ccc(S(=O)(=O)[O-])cc6)c6nc(c(-c7ccc(S(=O)(=O)[O-])cc7)c7ccc4[nH]7)C=C6)C=C5)cc3)c2)cc1
REMARK SMILES IDX 25 1 24 2 23 3 22 4 21 5 20 6 18 7 19 8 17 9 13 10 14 11
REMARK SMILES IDX 95 12 15 13 16 14 10 15 11 16 12 17 9 18 8 20 5 21 6 22
REMARK SMILES IDX 97 23 7 24 96 25 2 26 1 27 3 28 4 29 26 30 27 31 28 32 29 33
REMARK SMILES IDX 30 34 31 35 32 36 33 37 34 38 35 39 36 40 94 41 37 42 93 43
REMARK SMILES IDX 38 44 39 45 40 46 87 47 41 48 92 49 86 50 88 51 42 52 91 53
REMARK SMILES IDX 85 54 84 55 43 57 73 58 54 59 72 60 55 61 58 62 71 63 89 64
REMARK SMILES IDX 56 65 57 66 70 68 90 69 59 70 44 71 45 72 53 73 46 74 52 75
REMARK SMILES IDX 47 76 48 77 49 78 50 79 51 80 74 81 75 82 83 83 76 84 82 85
REMARK SMILES IDX 77 86 78 87 79 88 80 89 81 90 60 91 61 92 69 93 62 94 68 95
REMARK SMILES IDX 63 96 64 97 65 98 66 99 67 100
REMARK H PARENT 9 19 88 56 58 67
REMARK Flexibility Score: inf
ROOT
ATOM      1  C   UNL A   1      43.810  23.248  24.401  1.00  0.00     0.188 C 
ENDROOT
BRANCH   1   2
ATOM      2  C   UNL A   1      45.182  23.433  25.072  1.00  0.00     0.188 C 
BRANCH   2   3
ATOM      3  O   UNL A   1      45.887  24.569  24.602  1.00  0.00    -0.376 OA
BRANCH   3   4
ATOM      4  C   UNL A   1      45.496  25.880  24.984  1.00  0.00     0.202 C 
BRANCH   4   5
ATOM      5  C   UNL A   1      46.072  26.690  26.167  1.00  0.00     0.261 C 
BRANCH   5   6
ATOM      6  O   UNL A   1      47.478  26.925  26.199  1.00  0.00    -0.460 OA
BRANCH   6   7
ATOM      7  C   UNL A   1      47.935  28.176  26.391  1.00  0.00     0.338 C 
ATOM      8  O   UNL A   1      47.483  29.217  25.949  1.00  0.00    -0.246 OA
BRANCH   7   9
ATOM      9  C   UNL A   1      48.962  28.066  27.453  1.00  0.00     0.061 A 
ATOM     10  C   UNL A   1      49.746  27.150  29.542  1.00  0.00     0.088 A 
ATOM     11  C   UNL A   1      50.823  28.045  29.550  1.00  0.00     0.022 A 
ATOM     12  C   UNL A   1      48.778  27.198  28.532  1.00  0.00     0.038 A 
ATOM     13  C   UNL A   1      50.983  28.930  28.480  1.00  0.00     0.002 A 
ATOM     14  C   UNL A   1      50.077  28.914  27.415  1.00  0.00     0.016 A 
BRANCH  10  15
ATOM     15  S   UNL A   1      49.751  25.719  30.601  1.00  0.00     0.261 S 
ATOM     16  O   UNL A   1      50.212  24.588  29.828  1.00  0.00    -0.201 OA
ATOM     17  O   UNL A   1      48.481  25.700  31.295  1.00  0.00    -0.201 OA
BRANCH  15  18
ATOM     18  N   UNL A   1      50.912  26.028  31.765  1.00  0.00    -0.280 N 
ATOM     19  H   UNL A   1      51.621  26.664  31.515  1.00  0.00     0.180 HD
BRANCH  18  20
ATOM     20  C   UNL A   1      50.995  25.476  33.076  1.00  0.00     0.049 A 
ATOM     21  C   UNL A   1      51.939  24.187  35.423  1.00  0.00    -0.042 A 
ATOM     22  C   UNL A   1      51.026  23.561  34.569  1.00  0.00     0.006 A 
ATOM     23  C   UNL A   1      52.224  25.541  35.164  1.00  0.00     0.006 A 
ATOM     24  C   UNL A   1      50.526  24.218  33.438  1.00  0.00     0.027 A 
ATOM     25  C   UNL A   1      51.778  26.168  33.996  1.00  0.00     0.027 A 
BRANCH  21  26
ATOM     26  C   UNL A   1      52.637  23.449  36.575  1.00  0.00    -0.013 C 
ATOM     27  C   UNL A   1      53.247  24.390  37.642  1.00  0.00     0.016 C 
ATOM     28  C   UNL A   1      53.769  22.574  36.010  1.00  0.00     0.016 C 
ATOM     29  C   UNL A   1      51.613  22.557  37.316  1.00  0.00     0.016 C 
ENDBRANCH  21  26
ENDBRANCH  18  20
ENDBRANCH  15  18
ENDBRANCH  10  15
ENDBRANCH   7   9
ENDBRANCH   6   7
ENDBRANCH   5   6
ENDBRANCH   4   5
ENDBRANCH   3   4
ENDBRANCH   2   3
ENDBRANCH   1   2
BRANCH   1  30
ATOM     30  O   UNL A   1      43.416  21.884  24.385  1.00  0.00    -0.377 OA
BRANCH  30  31
ATOM     31  C   UNL A   1      43.891  21.089  25.466  1.00  0.00     0.188 C 
BRANCH  31  32
ATOM     32  C   UNL A   1      43.281  19.688  25.686  1.00  0.00     0.188 C 
BRANCH  32  33
ATOM     33  O   UNL A   1      42.360  19.621  26.779  1.00  0.00    -0.376 OA
BRANCH  33  34
ATOM     34  C   UNL A   1      40.980  19.777  26.464  1.00  0.00     0.202 C 
BRANCH  34  35
ATOM     35  C   UNL A   1      40.532  21.236  26.295  1.00  0.00     0.261 C 
BRANCH  35  36
ATOM     36  O   UNL A   1      40.750  22.073  27.440  1.00  0.00    -0.460 OA
BRANCH  36  37
ATOM     37  C   UNL A   1      40.421  23.377  27.313  1.00  0.00     0.338 C 
ATOM     38  O   UNL A   1      39.368  23.832  26.907  1.00  0.00    -0.246 OA
BRANCH  37  39
ATOM     39  C   UNL A   1      41.489  24.181  27.936  1.00  0.00     0.060 A 
ATOM     40  C   UNL A   1      42.798  23.686  27.909  1.00  0.00     0.016 A 
ATOM     41  C   UNL A   1      41.196  25.393  28.565  1.00  0.00     0.016 A 
ATOM     42  C   UNL A   1      43.812  24.372  28.574  1.00  0.00     0.010 A 
ATOM     43  C   UNL A   1      42.209  26.073  29.244  1.00  0.00     0.010 A 
ATOM     44  C   UNL A   1      43.508  25.538  29.291  1.00  0.00    -0.014 A 
BRANCH  44  45
ATOM     45  C   UNL A   1      44.482  26.055  30.278  1.00  0.00     0.031 A 
ATOM     46  C   UNL A   1      45.086  27.412  30.030  1.00  0.00     0.074 A 
ATOM     47  C   UNL A   1      44.811  25.353  31.375  1.00  0.00     0.049 A 
ATOM     48  N   UNL A   1      45.946  28.081  30.752  1.00  0.00    -0.248 NA
ATOM     49  C   UNL A   1      44.664  28.101  28.799  1.00  0.00     0.031 C 
ATOM     50  C   UNL A   1      44.277  24.042  31.735  1.00  0.00     0.029 A 
ATOM     51  N   UNL A   1      45.685  25.654  32.389  1.00  0.00    -0.354 N 
ATOM     52  C   UNL A   1      46.171  29.267  30.061  1.00  0.00     0.074 A 
ATOM     53  C   UNL A   1      45.383  29.210  28.850  1.00  0.00     0.031 C 
ATOM     54  C   UNL A   1      44.843  23.645  32.888  1.00  0.00     0.029 A 
ATOM     55  C   UNL A   1      45.793  24.664  33.334  1.00  0.00     0.049 A 
ATOM     56  H   UNL A   1      46.188  26.499  32.434  1.00  0.00     0.167 HD
ATOM     57  C   UNL A   1      46.959  30.312  30.404  1.00  0.00     0.031 A 
ATOM     58  C   UNL A   1      46.577  24.587  34.428  1.00  0.00     0.031 A 
ATOM     59  C   UNL A   1      47.763  30.354  31.595  1.00  0.00     0.049 A 
ATOM     60  C   UNL A   1      47.485  25.740  34.769  1.00  0.00     0.074 A 
ATOM     61  C   UNL A   1      48.584  31.373  32.044  1.00  0.00     0.029 A 
ATOM     62  N   UNL A   1      47.858  29.324  32.518  1.00  0.00    -0.354 N 
ATOM     63  N   UNL A   1      47.653  26.875  34.131  1.00  0.00    -0.248 NA
ATOM     64  C   UNL A   1      48.296  25.608  35.986  1.00  0.00     0.031 C 
ATOM     65  C   UNL A   1      49.216  30.937  33.214  1.00  0.00     0.029 A 
ATOM     66  C   UNL A   1      48.743  29.671  33.524  1.00  0.00     0.049 A 
ATOM     67  H   UNL A   1      47.368  28.472  32.467  1.00  0.00     0.167 HD
ATOM     68  C   UNL A   1      48.569  27.603  34.885  1.00  0.00     0.074 A 
ATOM     69  C   UNL A   1      48.911  26.782  36.030  1.00  0.00     0.031 C 
ATOM     70  C   UNL A   1      49.076  28.840  34.654  1.00  0.00     0.031 A 
BRANCH  57  71
ATOM     71  C   UNL A   1      47.014  31.470  29.444  1.00  0.00    -0.014 A 
ATOM     72  C   UNL A   1      47.980  31.526  28.422  1.00  0.00     0.010 A 
ATOM     73  C   UNL A   1      46.093  32.524  29.576  1.00  0.00     0.010 A 
ATOM     74  C   UNL A   1      48.058  32.642  27.586  1.00  0.00     0.020 A 
ATOM     75  C   UNL A   1      46.151  33.630  28.723  1.00  0.00     0.020 A 
ATOM     76  C   UNL A   1      47.149  33.693  27.749  1.00  0.00     0.054 A 
BRANCH  76  77
ATOM     77  S   UNL A   1      47.279  35.137  26.659  1.00  0.00     0.124 S 
ATOM     78  O   UNL A   1      47.627  34.518  25.382  1.00  0.00    -0.237 OA
ATOM     79  O   UNL A   1      45.942  35.718  26.732  1.00  0.00    -0.237 OA
ATOM     80  O   UNL A   1      48.337  35.937  27.271  1.00  0.00    -0.744 OA
ENDBRANCH  76  77
ENDBRANCH  57  71
BRANCH  58  81
ATOM     81  C   UNL A   1      46.531  23.368  35.280  1.00  0.00    -0.014 A 
ATOM     82  C   UNL A   1      47.260  22.219  34.929  1.00  0.00     0.010 A 
ATOM     83  C   UNL A   1      45.775  23.364  36.467  1.00  0.00     0.010 A 
ATOM     84  C   UNL A   1      47.232  21.086  35.749  1.00  0.00     0.020 A 
ATOM     85  C   UNL A   1      45.764  22.242  37.301  1.00  0.00     0.020 A 
ATOM     86  C   UNL A   1      46.489  21.107  36.933  1.00  0.00     0.054 A 
BRANCH  86  87
ATOM     87  S   UNL A   1      46.531  19.653  38.018  1.00  0.00     0.124 S 
ATOM     88  O   UNL A   1      45.762  18.678  37.251  1.00  0.00    -0.237 OA
ATOM     89  O   UNL A   1      47.962  19.384  38.129  1.00  0.00    -0.237 OA
ATOM     90  O   UNL A   1      45.897  20.125  39.247  1.00  0.00    -0.744 OA
ENDBRANCH  86  87
ENDBRANCH  58  81
BRANCH  70  91
ATOM     91  C   UNL A   1      50.029  29.403  35.676  1.00  0.00    -0.014 A 
ATOM     92  C   UNL A   1      51.389  29.598  35.379  1.00  0.00     0.010 A 
ATOM     93  C   UNL A   1      49.539  29.793  36.935  1.00  0.00     0.010 A 
ATOM     94  C   UNL A   1      52.249  30.145  36.336  1.00  0.00     0.020 A 
ATOM     95  C   UNL A   1      50.390  30.364  37.885  1.00  0.00     0.020 A 
ATOM     96  C   UNL A   1      51.744  30.522  37.585  1.00  0.00     0.054 A 
BRANCH  96  97
ATOM     97  S   UNL A   1      52.871  31.262  38.799  1.00  0.00     0.124 S 
ATOM     98  O   UNL A   1      53.985  30.318  38.794  1.00  0.00    -0.237 OA
ATOM     99  O   UNL A   1      53.155  32.573  38.218  1.00  0.00    -0.237 OA
ATOM    100  O   UNL A   1      52.083  31.291  40.029  1.00  0.00    -0.744 OA
ENDBRANCH  96  97
ENDBRANCH  70  91
ENDBRANCH  44  45
ENDBRANCH  37  39
ENDBRANCH  36  37
ENDBRANCH  35  36
ENDBRANCH  34  35
ENDBRANCH  33  34
ENDBRANCH  32  33
ENDBRANCH  31  32
ENDBRANCH  30  31
ENDBRANCH   1  30
TORSDOF 27
ENDMDL
MODEL 3
REMARK VINA RESULT:      -7.6      7.229     12.871
REMARK SMILES CC(C)(C)c1ccc(NS(=O)(=O)c2cccc(C(=O)OCCOCCOCCOCCOC(=O)c3ccc(-c4c5nc(c(-c6ccc(S(=O)(=O)[O-])cc6)c6ccc([nH]6)c(-c6ccc(S(=O)(=O)[O-])cc6)c6nc(c(-c7ccc(S(=O)(=O)[O-])cc7)c7ccc4[nH]7)C=C6)C=C5)cc3)c2)cc1
REMARK SMILES IDX 25 1 24 2 23 3 22 4 21 5 20 6 18 7 19 8 17 9 13 10 14 11
REMARK SMILES IDX 95 12 15 13 16 14 10 15 11 16 12 17 9 18 8 20 5 21 6 22
REMARK SMILES IDX 97 23 7 24 96 25 2 26 1 27 3 28 4 29 26 30 27 31 28 32 29 33
REMARK SMILES IDX 30 34 31 35 32 36 33 37 34 38 35 39 36 40 94 41 37 42 93 43
REMARK SMILES IDX 38 44 39 45 40 46 87 47 41 48 92 49 86 50 88 51 42 52 91 53
REMARK SMILES IDX 85 54 84 55 43 57 73 58 54 59 72 60 55 61 58 62 71 63 89 64
REMARK SMILES IDX 56 65 57 66 70 68 90 69 59 70 44 71 45 72 53 73 46 74 52 75
REMARK SMILES IDX 47 76 48 77 49 78 50 79 51 80 74 81 75 82 83 83 76 84 82 85
REMARK SMILES IDX 77 86 78 87 79 88 80 89 81 90 60 91 61 92 69 93 62 94 68 95
REMARK SMILES IDX 63 96 64 97 65 98 66 99 67 100
REMARK H PARENT 9 19 88 56 58 67
REMARK Flexibility Score: inf
ROOT
ATOM      1  C   UNL A   1      43.924  30.734  27.036  1.00  0.00     0.188 C 
ENDROOT
BRANCH   1   2
ATOM      2  C   UNL A   1      45.283  31.431  26.851  1.00  0.00     0.188 C 
BRANCH   2   3
ATOM      3  O   UNL A   1      45.167  32.810  26.547  1.00  0.00    -0.376 OA
BRANCH   3   4
ATOM      4  C   UNL A   1      44.187  33.275  25.630  1.00  0.00     0.202 C 
BRANCH   4   5
ATOM      5  C   UNL A   1      43.357  34.571  25.768  1.00  0.00     0.261 C 
BRANCH   5   6
ATOM      6  O   UNL A   1      43.529  35.356  26.946  1.00  0.00    -0.460 OA
BRANCH   6   7
ATOM      7  C   UNL A   1      44.472  36.316  26.968  1.00  0.00     0.338 C 
ATOM      8  O   UNL A   1      45.666  36.201  26.757  1.00  0.00    -0.246 OA
BRANCH   7   9
ATOM      9  C   UNL A   1      43.734  37.597  27.062  1.00  0.00     0.061 A 
ATOM     10  C   UNL A   1      43.652  40.001  26.880  1.00  0.00     0.088 A 
ATOM     11  C   UNL A   1      42.376  40.018  27.457  1.00  0.00     0.022 A 
ATOM     12  C   UNL A   1      44.362  38.802  26.740  1.00  0.00     0.038 A 
ATOM     13  C   UNL A   1      41.767  38.809  27.802  1.00  0.00     0.002 A 
ATOM     14  C   UNL A   1      42.428  37.598  27.569  1.00  0.00     0.016 A 
BRANCH  10  15
ATOM     15  S   UNL A   1      44.269  41.424  26.006  1.00  0.00     0.261 S 
ATOM     16  O   UNL A   1      45.334  40.987  25.132  1.00  0.00    -0.201 OA
ATOM     17  O   UNL A   1      44.470  42.471  26.985  1.00  0.00    -0.201 OA
BRANCH  15  18
ATOM     18  N   UNL A   1      43.008  41.932  25.032  1.00  0.00    -0.280 N 
ATOM     19  H   UNL A   1      42.115  41.584  25.259  1.00  0.00     0.180 HD
BRANCH  18  20
ATOM     20  C   UNL A   1      43.076  42.810  23.911  1.00  0.00     0.049 A 
ATOM     21  C   UNL A   1      43.752  43.969  21.409  1.00  0.00    -0.042 A 
ATOM     22  C   UNL A   1      44.245  44.494  22.609  1.00  0.00     0.006 A 
ATOM     23  C   UNL A   1      42.772  42.965  21.512  1.00  0.00     0.006 A 
ATOM     24  C   UNL A   1      43.871  43.948  23.843  1.00  0.00     0.027 A 
ATOM     25  C   UNL A   1      42.457  42.378  22.742  1.00  0.00     0.027 A 
BRANCH  21  26
ATOM     26  C   UNL A   1      44.262  44.425  20.034  1.00  0.00    -0.013 C 
ATOM     27  C   UNL A   1      44.807  45.873  20.018  1.00  0.00     0.016 C 
ATOM     28  C   UNL A   1      43.118  44.335  19.010  1.00  0.00     0.016 C 
ATOM     29  C   UNL A   1      45.431  43.515  19.586  1.00  0.00     0.016 C 
ENDBRANCH  21  26
ENDBRANCH  18  20
ENDBRANCH  15  18
ENDBRANCH  10  15
ENDBRANCH   7   9
ENDBRANCH   6   7
ENDBRANCH   5   6
ENDBRANCH   4   5
ENDBRANCH   3   4
ENDBRANCH   2   3
ENDBRANCH   1   2
BRANCH   1  30
ATOM     30  O   UNL A   1      44.081  29.384  27.448  1.00  0.00    -0.377 OA
BRANCH  30  31
ATOM     31  C   UNL A   1      44.149  28.420  26.403  1.00  0.00     0.188 C 
BRANCH  31  32
ATOM     32  C   UNL A   1      45.504  27.748  26.093  1.00  0.00     0.188 C 
BRANCH  32  33
ATOM     33  O   UNL A   1      45.633  26.428  26.631  1.00  0.00    -0.376 OA
BRANCH  33  34
ATOM     34  C   UNL A   1      46.819  25.713  26.296  1.00  0.00     0.202 C 
BRANCH  34  35
ATOM     35  C   UNL A   1      47.322  24.775  27.403  1.00  0.00     0.261 C 
BRANCH  35  36
ATOM     36  O   UNL A   1      46.983  25.176  28.738  1.00  0.00    -0.460 OA
BRANCH  36  37
ATOM     37  C   UNL A   1      47.976  25.701  29.488  1.00  0.00     0.338 C 
ATOM     38  O   UNL A   1      49.110  25.274  29.606  1.00  0.00    -0.246 OA
BRANCH  37  39
ATOM     39  C   UNL A   1      47.521  27.006  30.002  1.00  0.00     0.060 A 
ATOM     40  C   UNL A   1      46.256  27.469  29.620  1.00  0.00     0.016 A 
ATOM     41  C   UNL A   1      48.346  27.777  30.824  1.00  0.00     0.016 A 
ATOM     42  C   UNL A   1      45.839  28.741  30.006  1.00  0.00     0.010 A 
ATOM     43  C   UNL A   1      47.934  29.056  31.199  1.00  0.00     0.010 A 
ATOM     44  C   UNL A   1      46.701  29.559  30.750  1.00  0.00    -0.014 A 
BRANCH  44  45
ATOM     45  C   UNL A   1      46.417  31.009  30.847  1.00  0.00     0.031 A 
ATOM     46  C   UNL A   1      45.259  31.446  31.703  1.00  0.00     0.074 A 
ATOM     47  C   UNL A   1      47.174  31.917  30.210  1.00  0.00     0.049 A 
ATOM     48  N   UNL A   1      44.823  32.653  31.956  1.00  0.00    -0.248 NA
ATOM     49  C   UNL A   1      44.488  30.376  32.358  1.00  0.00     0.031 C 
ATOM     50  C   UNL A   1      48.334  31.618  29.372  1.00  0.00     0.029 A 
ATOM     51  N   UNL A   1      47.071  33.285  30.170  1.00  0.00    -0.354 N 
ATOM     52  C   UNL A   1      43.726  32.486  32.794  1.00  0.00     0.074 A 
ATOM     53  C   UNL A   1      43.544  31.063  32.980  1.00  0.00     0.031 C 
ATOM     54  C   UNL A   1      48.831  32.771  28.892  1.00  0.00     0.029 A 
ATOM     55  C   UNL A   1      48.013  33.885  29.372  1.00  0.00     0.049 A 
ATOM     56  H   UNL A   1      46.385  33.788  30.667  1.00  0.00     0.167 HD
ATOM     57  C   UNL A   1      42.941  33.431  33.361  1.00  0.00     0.031 A 
ATOM     58  C   UNL A   1      48.186  35.184  29.057  1.00  0.00     0.031 A 
ATOM     59  C   UNL A   1      43.107  34.843  33.153  1.00  0.00     0.049 A 
ATOM     60  C   UNL A   1      47.273  36.219  29.661  1.00  0.00     0.074 A 
ATOM     61  C   UNL A   1      42.375  35.886  33.694  1.00  0.00     0.029 A 
ATOM     62  N   UNL A   1      44.062  35.411  32.323  1.00  0.00    -0.354 N 
ATOM     63  N   UNL A   1      46.268  36.051  30.489  1.00  0.00    -0.248 NA
ATOM     64  C   UNL A   1      47.527  37.620  29.300  1.00  0.00     0.031 C 
ATOM     65  C   UNL A   1      42.857  37.082  33.151  1.00  0.00     0.029 A 
ATOM     66  C   UNL A   1      43.925  36.787  32.317  1.00  0.00     0.049 A 
ATOM     67  H   UNL A   1      44.738  34.908  31.814  1.00  0.00     0.167 HD
ATOM     68  C   UNL A   1      45.788  37.327  30.769  1.00  0.00     0.074 A 
ATOM     69  C   UNL A   1      46.620  38.256  30.028  1.00  0.00     0.031 C 
ATOM     70  C   UNL A   1      44.758  37.697  31.570  1.00  0.00     0.031 A 
BRANCH  57  71
ATOM     71  C   UNL A   1      41.807  32.948  34.225  1.00  0.00    -0.014 A 
ATOM     72  C   UNL A   1      40.479  32.963  33.762  1.00  0.00     0.010 A 
ATOM     73  C   UNL A   1      42.075  32.485  35.525  1.00  0.00     0.010 A 
ATOM     74  C   UNL A   1      39.433  32.575  34.604  1.00  0.00     0.020 A 
ATOM     75  C   UNL A   1      41.034  32.071  36.361  1.00  0.00     0.020 A 
ATOM     76  C   UNL A   1      39.717  32.143  35.903  1.00  0.00     0.054 A 
BRANCH  76  77
ATOM     77  S   UNL A   1      38.342  31.658  36.982  1.00  0.00     0.124 S 
ATOM     78  O   UNL A   1      37.209  32.321  36.340  1.00  0.00    -0.237 OA
ATOM     79  O   UNL A   1      38.353  30.201  36.885  1.00  0.00    -0.237 OA
ATOM     80  O   UNL A   1      38.720  32.195  38.286  1.00  0.00    -0.744 OA
ENDBRANCH  76  77
ENDBRANCH  57  71
BRANCH  58  81
ATOM     81  C   UNL A   1      49.277  35.574  28.124  1.00  0.00    -0.014 A 
ATOM     82  C   UNL A   1      50.562  35.875  28.606  1.00  0.00     0.010 A 
ATOM     83  C   UNL A   1      49.038  35.619  26.737  1.00  0.00     0.010 A 
ATOM     84  C   UNL A   1      51.589  36.217  27.720  1.00  0.00     0.020 A 
ATOM     85  C   UNL A   1      50.068  35.936  25.846  1.00  0.00     0.020 A 
ATOM     86  C   UNL A   1      51.336  36.238  26.345  1.00  0.00     0.054 A 
BRANCH  86  87
ATOM     87  S   UNL A   1      52.703  36.608  25.210  1.00  0.00     0.124 S 
ATOM     88  O   UNL A   1      52.052  36.515  23.907  1.00  0.00    -0.237 OA
ATOM     89  O   UNL A   1      53.101  37.951  25.623  1.00  0.00    -0.237 OA
ATOM     90  O   UNL A   1      53.680  35.561  25.499  1.00  0.00    -0.744 OA
ENDBRANCH  86  87
ENDBRANCH  58  81
BRANCH  70  91
ATOM     91  C   UNL A   1      44.489  39.172  31.721  1.00  0.00    -0.014 A 
ATOM     92  C   UNL A   1      43.564  39.835  30.896  1.00  0.00     0.010 A 
ATOM     93  C   UNL A   1      45.133  39.890  32.744  1.00  0.00     0.010 A 
ATOM     94  C   UNL A   1      43.313  41.199  31.071  1.00  0.00     0.020 A 
ATOM     95  C   UNL A   1      44.866  41.247  32.939  1.00  0.00     0.020 A 
ATOM     96  C   UNL A   1      43.968  41.898  32.091  1.00  0.00     0.054 A 
BRANCH  96  97
ATOM     97  S   UNL A   1      43.602  43.659  32.323  1.00  0.00     0.124 S 
ATOM     98  O   UNL A   1      42.670  43.922  31.229  1.00  0.00    -0.237 OA
ATOM     99  O   UNL A   1      43.022  43.693  33.664  1.00  0.00    -0.237 OA
ATOM    100  O   UNL A   1      44.907  44.304  32.199  1.00  0.00    -0.744 OA
ENDBRANCH  96  97
ENDBRANCH  70  91
ENDBRANCH  44  45
ENDBRANCH  37  39
ENDBRANCH  36  37
ENDBRANCH  35  36
ENDBRANCH  34  35
ENDBRANCH  33  34
ENDBRANCH  32  33
ENDBRANCH  31  32
ENDBRANCH  30  31
ENDBRANCH   1  30
TORSDOF 27
ENDMDL
