MODEL 1
REMARK VINA RESULT:      -7.1      0.000      0.000
REMARK SMILES C=C[C@@H]1[C@@H](O)C[C@H]2[C@]3(CC[C@]4(C)[C@@H]([C@H](C)CCC=C(C)C)CC[C@]24C)C[C@]13CCC(=O)OCCOCCOCCOCCOC(=O)c1ccc(-c2c3nc(c(-c4ccc(S(=O)(=O)[O-])cc4)c4ccc([nH]4)c(-c4ccc(S(=O)(=O)[O-])cc4)c4nc(c(-c5ccc(S(=O)(=O)[O-])cc5)c5ccc2[nH]5)C=C4)C=C3)cc1
REMARK SMILES IDX 36 1 35 2 34 3 33 4 32 5 30 6 31 7 29 8 28 9 27 10 3 11 4 12
REMARK SMILES IDX 6 13 8 14 26 15 7 16 9 17 24 18 10 19 11 20 23 21 25 22
REMARK SMILES IDX 13 23 12 24 22 25 2 26 1 27 5 28 14 30 15 31 16 32 17 33
REMARK SMILES IDX 18 34 19 35 20 36 21 37 37 38 38 39 39 40 40 41 41 42 42 43
REMARK SMILES IDX 43 44 44 45 45 46 46 47 47 48 48 49 106 50 49 51 105 52
REMARK SMILES IDX 50 53 51 54 52 55 99 56 53 57 104 58 98 59 100 60 54 61
REMARK SMILES IDX 103 62 97 63 96 64 55 66 85 67 66 68 84 69 67 70 70 71 83 72
REMARK SMILES IDX 101 73 68 74 69 75 82 77 102 78 71 79 56 80 57 81 65 82
REMARK SMILES IDX 58 83 64 84 59 85 60 86 61 87 62 88 63 89 86 90 87 91 95 92
REMARK SMILES IDX 88 93 94 94 89 95 90 96 91 97 92 98 93 99 72 100 73 101
REMARK SMILES IDX 81 102 74 103 80 104 75 105 76 106 77 107 78 108 79 109
REMARK H PARENT 5 29 100 65 70 76
REMARK Flexibility Score: inf
ROOT
ATOM      1  C   UNL A   1      33.464  26.095  26.277  1.00  0.00     0.188 C 
ENDROOT
BRANCH   1   2
ATOM      2  O   UNL A   1      33.040  27.428  26.047  1.00  0.00    -0.376 OA
BRANCH   2   3
ATOM      3  C   UNL A   1      33.967  28.494  26.074  1.00  0.00     0.202 C 
BRANCH   3   4
ATOM      4  C   UNL A   1      34.536  29.046  27.380  1.00  0.00     0.261 C 
BRANCH   4   5
ATOM      5  O   UNL A   1      34.662  30.457  27.554  1.00  0.00    -0.463 OA
BRANCH   5   6
ATOM      6  C   UNL A   1      35.954  30.835  27.752  1.00  0.00     0.305 C 
ATOM      7  O   UNL A   1      36.898  30.051  27.731  1.00  0.00    -0.252 OA
BRANCH   6   8
ATOM      8  C   UNL A   1      36.135  32.318  27.987  1.00  0.00     0.123 C 
BRANCH   8   9
ATOM      9  C   UNL A   1      37.218  32.773  28.954  1.00  0.00     0.020 C 
BRANCH   9  10
ATOM     10  C   UNL A   1      36.989  33.016  30.466  1.00  0.00    -0.014 C 
ATOM     11  C   UNL A   1      35.550  32.487  30.861  1.00  0.00     0.047 C 
ATOM     12  C   UNL A   1      35.527  31.671  32.172  1.00  0.00     0.122 C 
ATOM     13  C   UNL A   1      36.526  32.147  33.214  1.00  0.00     0.037 C 
ATOM     14  C   UNL A   1      38.175  33.121  31.521  1.00  0.00    -0.019 C 
ATOM     15  C   UNL A   1      37.306  34.312  31.181  1.00  0.00     0.016 C 
ATOM     16  C   UNL A   1      37.991  32.161  32.709  1.00  0.00     0.005 C 
ATOM     17  C   UNL A   1      39.626  33.408  31.195  1.00  0.00     0.008 C 
ATOM     18  C   UNL A   1      39.028  32.335  33.907  1.00  0.00    -0.023 C 
ATOM     19  C   UNL A   1      40.534  33.618  32.393  1.00  0.00     0.008 C 
ATOM     20  C   UNL A   1      40.543  32.516  33.459  1.00  0.00    -0.024 C 
ATOM     21  C   UNL A   1      39.092  30.995  34.689  1.00  0.00     0.008 C 
ATOM     22  C   UNL A   1      38.569  33.498  34.814  1.00  0.00     0.012 C 
ATOM     23  C   UNL A   1      40.960  31.058  33.046  1.00  0.00    -0.002 C 
ATOM     24  C   UNL A   1      41.441  32.982  34.634  1.00  0.00     0.012 C 
ATOM     25  C   UNL A   1      40.324  30.233  34.199  1.00  0.00     0.005 C 
BRANCH  11  26
ATOM     26  C   UNL A   1      34.455  33.557  30.905  1.00  0.00    -0.028 C 
ATOM     27  C   UNL A   1      34.195  34.476  29.964  1.00  0.00     0.004 C 
ENDBRANCH  11  26
BRANCH  12  28
ATOM     28  O   UNL A   1      35.761  30.294  31.905  1.00  0.00    -0.392 OA
ATOM     29  H   UNL A   1      36.379  29.937  32.562  1.00  0.00     0.210 HD
ENDBRANCH  12  28
BRANCH  23  30
ATOM     30  C   UNL A   1      42.399  30.483  32.712  1.00  0.00    -0.010 C 
ATOM     31  C   UNL A   1      43.412  31.412  32.006  1.00  0.00     0.008 C 
BRANCH  30  32
ATOM     32  C   UNL A   1      42.690  29.005  32.317  1.00  0.00     0.008 C 
BRANCH  32  33
ATOM     33  C   UNL A   1      41.660  28.063  31.691  1.00  0.00     0.027 C 
BRANCH  33  34
ATOM     34  C   UNL A   1      41.387  28.275  30.234  1.00  0.00    -0.028 C 
ATOM     35  C   UNL A   1      40.311  28.918  29.733  1.00  0.00    -0.080 C 
ATOM     36  C   UNL A   1      40.281  29.363  28.296  1.00  0.00     0.039 C 
ATOM     37  C   UNL A   1      39.117  29.321  30.555  1.00  0.00     0.039 C 
ENDBRANCH  33  34
ENDBRANCH  32  33
ENDBRANCH  30  32
ENDBRANCH  23  30
ENDBRANCH   9  10
ENDBRANCH   8   9
ENDBRANCH   6   8
ENDBRANCH   5   6
ENDBRANCH   4   5
ENDBRANCH   3   4
ENDBRANCH   2   3
ENDBRANCH   1   2
BRANCH   1  38
ATOM     38  C   UNL A   1      34.003  25.320  25.073  1.00  0.00     0.188 C 
BRANCH  38  39
ATOM     39  O   UNL A   1      34.135  23.949  25.382  1.00  0.00    -0.377 OA
BRANCH  39  40
ATOM     40  C   UNL A   1      35.179  23.268  24.707  1.00  0.00     0.188 C 
BRANCH  40  41
ATOM     41  C   UNL A   1      36.437  23.035  25.556  1.00  0.00     0.188 C 
BRANCH  41  42
ATOM     42  O   UNL A   1      36.975  21.745  25.815  1.00  0.00    -0.376 OA
BRANCH  42  43
ATOM     43  C   UNL A   1      38.232  21.372  25.284  1.00  0.00     0.202 C 
BRANCH  43  44
ATOM     44  C   UNL A   1      39.433  21.223  26.243  1.00  0.00     0.261 C 
BRANCH  44  45
ATOM     45  O   UNL A   1      40.379  22.305  26.300  1.00  0.00    -0.460 OA
BRANCH  45  46
ATOM     46  C   UNL A   1      41.669  21.943  26.434  1.00  0.00     0.338 C 
ATOM     47  O   UNL A   1      42.301  21.187  25.695  1.00  0.00    -0.246 OA
BRANCH  46  48
ATOM     48  C   UNL A   1      42.293  22.652  27.572  1.00  0.00     0.060 A 
ATOM     49  C   UNL A   1      41.616  23.744  28.129  1.00  0.00     0.016 A 
ATOM     50  C   UNL A   1      43.581  22.332  28.014  1.00  0.00     0.016 A 
ATOM     51  C   UNL A   1      42.239  24.549  29.088  1.00  0.00     0.010 A 
ATOM     52  C   UNL A   1      44.214  23.154  28.959  1.00  0.00     0.010 A 
ATOM     53  C   UNL A   1      43.564  24.294  29.467  1.00  0.00    -0.014 A 
BRANCH  53  54
ATOM     54  C   UNL A   1      44.329  25.347  30.192  1.00  0.00     0.031 A 
ATOM     55  C   UNL A   1      44.890  25.012  31.547  1.00  0.00     0.074 A 
ATOM     56  C   UNL A   1      44.561  26.565  29.669  1.00  0.00     0.049 A 
ATOM     57  N   UNL A   1      45.570  25.770  32.368  1.00  0.00    -0.248 NA
ATOM     58  C   UNL A   1      44.648  23.647  32.043  1.00  0.00     0.031 C 
ATOM     59  C   UNL A   1      44.099  27.007  28.363  1.00  0.00     0.029 A 
ATOM     60  N   UNL A   1      45.242  27.653  30.164  1.00  0.00    -0.354 N 
ATOM     61  C   UNL A   1      45.816  24.983  33.486  1.00  0.00     0.074 A 
ATOM     62  C   UNL A   1      45.206  23.694  33.243  1.00  0.00     0.031 C 
ATOM     63  C   UNL A   1      44.511  28.268  28.147  1.00  0.00     0.029 A 
ATOM     64  C   UNL A   1      45.226  28.746  29.326  1.00  0.00     0.049 A 
ATOM     65  H   UNL A   1      45.697  27.651  31.037  1.00  0.00     0.167 HD
ATOM     66  C   UNL A   1      46.485  25.308  34.615  1.00  0.00     0.031 A 
ATOM     67  C   UNL A   1      45.701  29.998  29.497  1.00  0.00     0.031 A 
ATOM     68  C   UNL A   1      47.089  26.590  34.861  1.00  0.00     0.049 A 
ATOM     69  C   UNL A   1      46.400  30.346  30.787  1.00  0.00     0.074 A 
ATOM     70  C   UNL A   1      47.813  26.994  35.970  1.00  0.00     0.029 A 
ATOM     71  N   UNL A   1      47.034  27.675  34.001  1.00  0.00    -0.354 N 
ATOM     72  N   UNL A   1      46.659  29.575  31.816  1.00  0.00    -0.248 NA
ATOM     73  C   UNL A   1      46.869  31.732  30.941  1.00  0.00     0.031 C 
ATOM     74  C   UNL A   1      48.137  28.345  35.810  1.00  0.00     0.029 A 
ATOM     75  C   UNL A   1      47.680  28.759  34.570  1.00  0.00     0.049 A 
ATOM     76  H   UNL A   1      46.600  27.675  33.118  1.00  0.00     0.167 HD
ATOM     77  C   UNL A   1      47.344  30.375  32.726  1.00  0.00     0.074 A 
ATOM     78  C   UNL A   1      47.478  31.682  32.118  1.00  0.00     0.031 C 
ATOM     79  C   UNL A   1      47.817  30.055  33.955  1.00  0.00     0.031 A 
BRANCH  66  80
ATOM     80  C   UNL A   1      46.561  24.274  35.703  1.00  0.00    -0.014 A 
ATOM     81  C   UNL A   1      45.519  24.111  36.632  1.00  0.00     0.010 A 
ATOM     82  C   UNL A   1      47.666  23.404  35.747  1.00  0.00     0.010 A 
ATOM     83  C   UNL A   1      45.589  23.102  37.597  1.00  0.00     0.020 A 
ATOM     84  C   UNL A   1      47.727  22.379  36.692  1.00  0.00     0.020 A 
ATOM     85  C   UNL A   1      46.690  22.239  37.616  1.00  0.00     0.054 A 
BRANCH  85  86
ATOM     86  S   UNL A   1      46.721  20.898  38.835  1.00  0.00     0.124 S 
ATOM     87  O   UNL A   1      46.246  21.574  40.040  1.00  0.00    -0.237 OA
ATOM     88  O   UNL A   1      45.801  19.922  38.259  1.00  0.00    -0.237 OA
ATOM     89  O   UNL A   1      48.123  20.488  38.865  1.00  0.00    -0.744 OA
ENDBRANCH  85  86
ENDBRANCH  66  80
BRANCH  67  90
ATOM     90  C   UNL A   1      45.485  31.045  28.453  1.00  0.00    -0.014 A 
ATOM     91  C   UNL A   1      44.351  31.878  28.480  1.00  0.00     0.010 A 
ATOM     92  C   UNL A   1      46.395  31.176  27.388  1.00  0.00     0.010 A 
ATOM     93  C   UNL A   1      44.113  32.790  27.445  1.00  0.00     0.020 A 
ATOM     94  C   UNL A   1      46.181  32.110  26.371  1.00  0.00     0.020 A 
ATOM     95  C   UNL A   1      45.029  32.898  26.395  1.00  0.00     0.054 A 
BRANCH  95  96
ATOM     96  S   UNL A   1      44.713  34.097  25.070  1.00  0.00     0.124 S 
ATOM     97  O   UNL A   1      43.515  34.777  25.554  1.00  0.00    -0.237 OA
ATOM     98  O   UNL A   1      45.937  34.894  25.065  1.00  0.00    -0.237 OA
ATOM     99  O   UNL A   1      44.522  33.257  23.888  1.00  0.00    -0.744 OA
ENDBRANCH  95  96
ENDBRANCH  67  90
BRANCH  79 100
ATOM    100  C   UNL A   1      48.567  31.116  34.717  1.00  0.00    -0.014 A 
ATOM    101  C   UNL A   1      49.966  31.080  34.844  1.00  0.00     0.010 A 
ATOM    102  C   UNL A   1      47.860  32.205  35.260  1.00  0.00     0.010 A 
ATOM    103  C   UNL A   1      50.641  32.095  35.528  1.00  0.00     0.020 A 
ATOM    104  C   UNL A   1      48.533  33.239  35.916  1.00  0.00     0.020 A 
ATOM    105  C   UNL A   1      49.920  33.170  36.058  1.00  0.00     0.054 A 
BRANCH 105 106
ATOM    106  S   UNL A   1      50.823  34.497  36.901  1.00  0.00     0.124 S 
ATOM    107  O   UNL A   1      52.065  34.556  36.134  1.00  0.00    -0.237 OA
ATOM    108  O   UNL A   1      49.932  35.643  36.741  1.00  0.00    -0.237 OA
ATOM    109  O   UNL A   1      50.961  34.008  38.271  1.00  0.00    -0.744 OA
ENDBRANCH 105 106
ENDBRANCH  79 100
ENDBRANCH  53  54
ENDBRANCH  46  48
ENDBRANCH  45  46
ENDBRANCH  44  45
ENDBRANCH  43  44
ENDBRANCH  42  43
ENDBRANCH  41  42
ENDBRANCH  40  41
ENDBRANCH  39  40
ENDBRANCH  38  39
ENDBRANCH   1  38
TORSDOF 31
ENDMDL
MODEL 2
REMARK VINA RESULT:      -6.4      6.221     12.085
REMARK SMILES C=C[C@@H]1[C@@H](O)C[C@H]2[C@]3(CC[C@]4(C)[C@@H]([C@H](C)CCC=C(C)C)CC[C@]24C)C[C@]13CCC(=O)OCCOCCOCCOCCOC(=O)c1ccc(-c2c3nc(c(-c4ccc(S(=O)(=O)[O-])cc4)c4ccc([nH]4)c(-c4ccc(S(=O)(=O)[O-])cc4)c4nc(c(-c5ccc(S(=O)(=O)[O-])cc5)c5ccc2[nH]5)C=C4)C=C3)cc1
REMARK SMILES IDX 36 1 35 2 34 3 33 4 32 5 30 6 31 7 29 8 28 9 27 10 3 11 4 12
REMARK SMILES IDX 6 13 8 14 26 15 7 16 9 17 24 18 10 19 11 20 23 21 25 22
REMARK SMILES IDX 13 23 12 24 22 25 2 26 1 27 5 28 14 30 15 31 16 32 17 33
REMARK SMILES IDX 18 34 19 35 20 36 21 37 37 38 38 39 39 40 40 41 41 42 42 43
REMARK SMILES IDX 43 44 44 45 45 46 46 47 47 48 48 49 106 50 49 51 105 52
REMARK SMILES IDX 50 53 51 54 52 55 99 56 53 57 104 58 98 59 100 60 54 61
REMARK SMILES IDX 103 62 97 63 96 64 55 66 85 67 66 68 84 69 67 70 70 71 83 72
REMARK SMILES IDX 101 73 68 74 69 75 82 77 102 78 71 79 56 80 57 81 65 82
REMARK SMILES IDX 58 83 64 84 59 85 60 86 61 87 62 88 63 89 86 90 87 91 95 92
REMARK SMILES IDX 88 93 94 94 89 95 90 96 91 97 92 98 93 99 72 100 73 101
REMARK SMILES IDX 81 102 74 103 80 104 75 105 76 106 77 107 78 108 79 109
REMARK H PARENT 5 29 100 65 70 76
REMARK Flexibility Score: inf
ROOT
ATOM      1  C   UNL A   1      48.295  29.585  28.369  1.00  0.00     0.188 C 
ENDROOT
BRANCH   1   2
ATOM      2  O   UNL A   1      47.332  28.606  28.017  1.00  0.00    -0.376 OA
BRANCH   2   3
ATOM      3  C   UNL A   1      47.218  28.153  26.684  1.00  0.00     0.202 C 
BRANCH   3   4
ATOM      4  C   UNL A   1      46.829  26.716  26.341  1.00  0.00     0.261 C 
BRANCH   4   5
ATOM      5  O   UNL A   1      46.362  25.846  27.372  1.00  0.00    -0.463 OA
BRANCH   5   6
ATOM      6  C   UNL A   1      47.032  24.662  27.384  1.00  0.00     0.305 C 
ATOM      7  O   UNL A   1      48.254  24.578  27.448  1.00  0.00    -0.252 OA
BRANCH   6   8
ATOM      8  C   UNL A   1      46.135  23.445  27.327  1.00  0.00     0.123 C 
BRANCH   8   9
ATOM      9  C   UNL A   1      45.180  23.303  26.152  1.00  0.00     0.020 C 
BRANCH   9  10
ATOM     10  C   UNL A   1      43.636  23.310  26.278  1.00  0.00    -0.014 C 
ATOM     11  C   UNL A   1      43.173  21.991  27.022  1.00  0.00     0.047 C 
ATOM     12  C   UNL A   1      42.103  22.235  28.108  1.00  0.00     0.122 C 
ATOM     13  C   UNL A   1      41.134  23.358  27.781  1.00  0.00     0.037 C 
ATOM     14  C   UNL A   1      42.769  24.644  26.293  1.00  0.00    -0.019 C 
ATOM     15  C   UNL A   1      42.689  23.657  25.150  1.00  0.00     0.016 C 
ATOM     16  C   UNL A   1      41.828  24.717  27.508  1.00  0.00     0.005 C 
ATOM     17  C   UNL A   1      43.224  26.001  25.799  1.00  0.00     0.008 C 
ATOM     18  C   UNL A   1      40.785  25.924  27.505  1.00  0.00    -0.023 C 
ATOM     19  C   UNL A   1      42.154  27.077  25.772  1.00  0.00     0.008 C 
ATOM     20  C   UNL A   1      41.392  27.330  27.079  1.00  0.00    -0.024 C 
ATOM     21  C   UNL A   1      40.360  26.199  28.972  1.00  0.00     0.008 C 
ATOM     22  C   UNL A   1      39.572  25.546  26.625  1.00  0.00     0.012 C 
ATOM     23  C   UNL A   1      42.194  27.765  28.358  1.00  0.00    -0.002 C 
ATOM     24  C   UNL A   1      40.283  28.377  26.800  1.00  0.00     0.012 C 
ATOM     25  C   UNL A   1      41.189  27.380  29.479  1.00  0.00     0.005 C 
BRANCH  11  26
ATOM     26  C   UNL A   1      42.720  20.852  26.103  1.00  0.00    -0.028 C 
ATOM     27  C   UNL A   1      42.117  19.714  26.475  1.00  0.00     0.004 C 
ENDBRANCH  11  26
BRANCH  12  28
ATOM     28  O   UNL A   1      42.719  22.508  29.360  1.00  0.00    -0.392 OA
ATOM     29  H   UNL A   1      43.184  23.359  29.314  1.00  0.00     0.210 HD
ENDBRANCH  12  28
BRANCH  23  30
ATOM     30  C   UNL A   1      42.859  29.163  28.698  1.00  0.00    -0.010 C 
ATOM     31  C   UNL A   1      43.674  29.873  27.594  1.00  0.00     0.008 C 
BRANCH  30  32
ATOM     32  C   UNL A   1      43.427  29.556  30.094  1.00  0.00     0.008 C 
BRANCH  32  33
ATOM     33  C   UNL A   1      42.743  30.528  31.059  1.00  0.00     0.027 C 
BRANCH  33  34
ATOM     34  C   UNL A   1      41.505  31.193  30.541  1.00  0.00    -0.028 C 
ATOM     35  C   UNL A   1      40.266  31.023  31.047  1.00  0.00    -0.080 C 
ATOM     36  C   UNL A   1      39.149  31.964  30.681  1.00  0.00     0.039 C 
ATOM     37  C   UNL A   1      39.911  29.971  32.062  1.00  0.00     0.039 C 
ENDBRANCH  33  34
ENDBRANCH  32  33
ENDBRANCH  30  32
ENDBRANCH  23  30
ENDBRANCH   9  10
ENDBRANCH   8   9
ENDBRANCH   6   8
ENDBRANCH   5   6
ENDBRANCH   4   5
ENDBRANCH   3   4
ENDBRANCH   2   3
ENDBRANCH   1   2
BRANCH   1  38
ATOM     38  C   UNL A   1      48.956  30.352  27.221  1.00  0.00     0.188 C 
BRANCH  38  39
ATOM     39  O   UNL A   1      49.081  31.720  27.544  1.00  0.00    -0.377 OA
BRANCH  39  40
ATOM     40  C   UNL A   1      48.340  32.153  28.672  1.00  0.00     0.188 C 
BRANCH  40  41
ATOM     41  C   UNL A   1      47.125  33.029  28.334  1.00  0.00     0.188 C 
BRANCH  41  42
ATOM     42  O   UNL A   1      45.790  32.673  28.671  1.00  0.00    -0.376 OA
BRANCH  42  43
ATOM     43  C   UNL A   1      45.390  32.589  30.025  1.00  0.00     0.202 C 
BRANCH  43  44
ATOM     44  C   UNL A   1      46.189  31.681  30.985  1.00  0.00     0.261 C 
BRANCH  44  45
ATOM     45  O   UNL A   1      46.853  32.307  32.097  1.00  0.00    -0.460 OA
BRANCH  45  46
ATOM     46  C   UNL A   1      47.342  31.467  33.030  1.00  0.00     0.338 C 
ATOM     47  O   UNL A   1      48.373  30.798  32.948  1.00  0.00    -0.246 OA
BRANCH  46  48
ATOM     48  C   UNL A   1      46.509  31.503  34.251  1.00  0.00     0.060 A 
ATOM     49  C   UNL A   1      45.714  30.389  34.549  1.00  0.00     0.016 A 
ATOM     50  C   UNL A   1      46.412  32.657  35.034  1.00  0.00     0.016 A 
ATOM     51  C   UNL A   1      44.785  30.441  35.593  1.00  0.00     0.010 A 
ATOM     52  C   UNL A   1      45.463  32.718  36.066  1.00  0.00     0.010 A 
ATOM     53  C   UNL A   1      44.612  31.627  36.321  1.00  0.00    -0.014 A 
BRANCH  53  54
ATOM     54  C   UNL A   1      43.394  31.791  37.165  1.00  0.00     0.031 A 
ATOM     55  C   UNL A   1      43.538  31.653  38.655  1.00  0.00     0.074 A 
ATOM     56  C   UNL A   1      42.188  32.089  36.646  1.00  0.00     0.049 A 
ATOM     57  N   UNL A   1      42.619  31.736  39.583  1.00  0.00    -0.248 NA
ATOM     58  C   UNL A   1      44.891  31.379  39.166  1.00  0.00     0.031 C 
ATOM     59  C   UNL A   1      41.919  32.275  35.229  1.00  0.00     0.029 A 
ATOM     60  N   UNL A   1      40.966  32.289  37.244  1.00  0.00    -0.354 N 
ATOM     61  C   UNL A   1      43.278  31.502  40.783  1.00  0.00     0.074 A 
ATOM     62  C   UNL A   1      44.669  31.264  40.467  1.00  0.00     0.031 C 
ATOM     63  C   UNL A   1      40.619  32.570  35.057  1.00  0.00     0.029 A 
ATOM     64  C   UNL A   1      39.947  32.544  36.352  1.00  0.00     0.049 A 
ATOM     65  H   UNL A   1      40.831  32.253  38.219  1.00  0.00     0.167 HD
ATOM     66  C   UNL A   1      42.767  31.480  42.035  1.00  0.00     0.031 A 
ATOM     67  C   UNL A   1      38.621  32.706  36.548  1.00  0.00     0.031 A 
ATOM     68  C   UNL A   1      41.384  31.712  42.353  1.00  0.00     0.049 A 
ATOM     69  C   UNL A   1      38.073  32.628  37.950  1.00  0.00     0.074 A 
ATOM     70  C   UNL A   1      40.787  31.738  43.601  1.00  0.00     0.029 A 
ATOM     71  N   UNL A   1      40.382  31.945  41.424  1.00  0.00    -0.354 N 
ATOM     72  N   UNL A   1      38.719  32.447  39.077  1.00  0.00    -0.248 NA
ATOM     73  C   UNL A   1      36.618  32.775  38.109  1.00  0.00     0.031 C 
ATOM     74  C   UNL A   1      39.413  31.919  43.423  1.00  0.00     0.029 A 
ATOM     75  C   UNL A   1      39.165  32.080  42.070  1.00  0.00     0.049 A 
ATOM     76  H   UNL A   1      40.516  32.005  40.451  1.00  0.00     0.167 HD
ATOM     77  C   UNL A   1      37.754  32.486  40.078  1.00  0.00     0.074 A 
ATOM     78  C   UNL A   1      36.484  32.728  39.428  1.00  0.00     0.031 C 
ATOM     79  C   UNL A   1      37.906  32.331  41.416  1.00  0.00     0.031 A 
BRANCH  66  80
ATOM     80  C   UNL A   1      43.702  31.146  43.164  1.00  0.00    -0.014 A 
ATOM     81  C   UNL A   1      44.378  32.152  43.877  1.00  0.00     0.010 A 
ATOM     82  C   UNL A   1      43.848  29.804  43.559  1.00  0.00     0.010 A 
ATOM     83  C   UNL A   1      45.195  31.817  44.960  1.00  0.00     0.020 A 
ATOM     84  C   UNL A   1      44.642  29.469  44.657  1.00  0.00     0.020 A 
ATOM     85  C   UNL A   1      45.317  30.478  45.346  1.00  0.00     0.054 A 
BRANCH  85  86
ATOM     86  S   UNL A   1      46.330  30.081  46.796  1.00  0.00     0.124 S 
ATOM     87  O   UNL A   1      45.313  29.802  47.807  1.00  0.00    -0.237 OA
ATOM     88  O   UNL A   1      47.097  28.924  46.342  1.00  0.00    -0.237 OA
ATOM     89  O   UNL A   1      47.110  31.296  47.018  1.00  0.00    -0.744 OA
ENDBRANCH  85  86
ENDBRANCH  66  80
BRANCH  67  90
ATOM     90  C   UNL A   1      37.697  32.896  35.389  1.00  0.00    -0.014 A 
ATOM     91  C   UNL A   1      37.478  31.866  34.455  1.00  0.00     0.010 A 
ATOM     92  C   UNL A   1      37.070  34.138  35.185  1.00  0.00     0.010 A 
ATOM     93  C   UNL A   1      36.684  32.089  33.323  1.00  0.00     0.020 A 
ATOM     94  C   UNL A   1      36.247  34.354  34.076  1.00  0.00     0.020 A 
ATOM     95  C   UNL A   1      36.075  33.333  33.140  1.00  0.00     0.054 A 
BRANCH  95  96
ATOM     96  S   UNL A   1      35.037  33.598  31.675  1.00  0.00     0.124 S 
ATOM     97  O   UNL A   1      36.016  33.547  30.595  1.00  0.00    -0.237 OA
ATOM     98  O   UNL A   1      34.106  32.475  31.741  1.00  0.00    -0.237 OA
ATOM     99  O   UNL A   1      34.436  34.909  31.916  1.00  0.00    -0.744 OA
ENDBRANCH  95  96
ENDBRANCH  67  90
BRANCH  79 100
ATOM    100  C   UNL A   1      36.680  32.464  42.282  1.00  0.00    -0.014 A 
ATOM    101  C   UNL A   1      36.343  33.682  42.897  1.00  0.00     0.010 A 
ATOM    102  C   UNL A   1      35.817  31.362  42.429  1.00  0.00     0.010 A 
ATOM    103  C   UNL A   1      35.182  33.787  43.669  1.00  0.00     0.020 A 
ATOM    104  C   UNL A   1      34.639  31.472  43.173  1.00  0.00     0.020 A 
ATOM    105  C   UNL A   1      34.336  32.682  43.800  1.00  0.00     0.054 A 
BRANCH 105 106
ATOM    106  S   UNL A   1      32.813  32.857  44.769  1.00  0.00     0.124 S 
ATOM    107  O   UNL A   1      31.829  33.164  43.735  1.00  0.00    -0.237 OA
ATOM    108  O   UNL A   1      32.678  31.544  45.394  1.00  0.00    -0.237 OA
ATOM    109  O   UNL A   1      33.111  33.952  45.689  1.00  0.00    -0.744 OA
ENDBRANCH 105 106
ENDBRANCH  79 100
ENDBRANCH  53  54
ENDBRANCH  46  48
ENDBRANCH  45  46
ENDBRANCH  44  45
ENDBRANCH  43  44
ENDBRANCH  42  43
ENDBRANCH  41  42
ENDBRANCH  40  41
ENDBRANCH  39  40
ENDBRANCH  38  39
ENDBRANCH   1  38
TORSDOF 31
ENDMDL
MODEL 3
REMARK VINA RESULT:      -6.4      3.807      5.414
REMARK SMILES C=C[C@@H]1[C@@H](O)C[C@H]2[C@]3(CC[C@]4(C)[C@@H]([C@H](C)CCC=C(C)C)CC[C@]24C)C[C@]13CCC(=O)OCCOCCOCCOCCOC(=O)c1ccc(-c2c3nc(c(-c4ccc(S(=O)(=O)[O-])cc4)c4ccc([nH]4)c(-c4ccc(S(=O)(=O)[O-])cc4)c4nc(c(-c5ccc(S(=O)(=O)[O-])cc5)c5ccc2[nH]5)C=C4)C=C3)cc1
REMARK SMILES IDX 36 1 35 2 34 3 33 4 32 5 30 6 31 7 29 8 28 9 27 10 3 11 4 12
REMARK SMILES IDX 6 13 8 14 26 15 7 16 9 17 24 18 10 19 11 20 23 21 25 22
REMARK SMILES IDX 13 23 12 24 22 25 2 26 1 27 5 28 14 30 15 31 16 32 17 33
REMARK SMILES IDX 18 34 19 35 20 36 21 37 37 38 38 39 39 40 40 41 41 42 42 43
REMARK SMILES IDX 43 44 44 45 45 46 46 47 47 48 48 49 106 50 49 51 105 52
REMARK SMILES IDX 50 53 51 54 52 55 99 56 53 57 104 58 98 59 100 60 54 61
REMARK SMILES IDX 103 62 97 63 96 64 55 66 85 67 66 68 84 69 67 70 70 71 83 72
REMARK SMILES IDX 101 73 68 74 69 75 82 77 102 78 71 79 56 80 57 81 65 82
REMARK SMILES IDX 58 83 64 84 59 85 60 86 61 87 62 88 63 89 86 90 87 91 95 92
REMARK SMILES IDX 88 93 94 94 89 95 90 96 91 97 92 98 93 99 72 100 73 101
REMARK SMILES IDX 81 102 74 103 80 104 75 105 76 106 77 107 78 108 79 109
REMARK H PARENT 5 29 100 65 70 76
REMARK Flexibility Score: inf
ROOT
ATOM      1  C   UNL A   1      32.988  26.321  26.115  1.00  0.00     0.188 C 
ENDROOT
BRANCH   1   2
ATOM      2  O   UNL A   1      33.004  27.675  26.531  1.00  0.00    -0.376 OA
BRANCH   2   3
ATOM      3  C   UNL A   1      34.218  28.397  26.591  1.00  0.00     0.202 C 
BRANCH   3   4
ATOM      4  C   UNL A   1      34.364  29.679  27.407  1.00  0.00     0.261 C 
BRANCH   4   5
ATOM      5  O   UNL A   1      35.614  30.369  27.420  1.00  0.00    -0.463 OA
BRANCH   5   6
ATOM      6  C   UNL A   1      36.267  30.222  28.604  1.00  0.00     0.305 C 
ATOM      7  O   UNL A   1      35.989  30.863  29.613  1.00  0.00    -0.252 OA
BRANCH   6   8
ATOM      8  C   UNL A   1      37.367  29.183  28.578  1.00  0.00     0.123 C 
BRANCH   8   9
ATOM      9  C   UNL A   1      38.758  29.588  29.043  1.00  0.00     0.020 C 
BRANCH   9  10
ATOM     10  C   UNL A   1      39.723  28.656  29.817  1.00  0.00    -0.014 C 
ATOM     11  C   UNL A   1      40.630  27.876  28.779  1.00  0.00     0.047 C 
ATOM     12  C   UNL A   1      42.123  27.829  29.174  1.00  0.00     0.122 C 
ATOM     13  C   UNL A   1      42.364  27.753  30.672  1.00  0.00     0.037 C 
ATOM     14  C   UNL A   1      40.187  28.931  31.313  1.00  0.00    -0.019 C 
ATOM     15  C   UNL A   1      39.307  27.753  30.958  1.00  0.00     0.016 C 
ATOM     16  C   UNL A   1      41.718  28.918  31.464  1.00  0.00     0.005 C 
ATOM     17  C   UNL A   1      39.490  29.841  32.303  1.00  0.00     0.008 C 
ATOM     18  C   UNL A   1      42.267  28.993  32.959  1.00  0.00    -0.023 C 
ATOM     19  C   UNL A   1      40.039  29.807  33.718  1.00  0.00     0.008 C 
ATOM     20  C   UNL A   1      41.542  30.062  33.885  1.00  0.00    -0.024 C 
ATOM     21  C   UNL A   1      43.716  29.551  32.914  1.00  0.00     0.008 C 
ATOM     22  C   UNL A   1      42.223  27.583  33.589  1.00  0.00     0.012 C 
ATOM     23  C   UNL A   1      42.145  31.424  33.384  1.00  0.00    -0.002 C 
ATOM     24  C   UNL A   1      41.904  29.871  35.381  1.00  0.00     0.012 C 
ATOM     25  C   UNL A   1      43.646  31.043  33.239  1.00  0.00     0.005 C 
BRANCH  11  26
ATOM     26  C   UNL A   1      40.148  26.466  28.426  1.00  0.00    -0.028 C 
ATOM     27  C   UNL A   1      39.208  26.142  27.526  1.00  0.00     0.004 C 
ENDBRANCH  11  26
BRANCH  12  28
ATOM     28  O   UNL A   1      42.811  28.958  28.652  1.00  0.00    -0.392 OA
ATOM     29  H   UNL A   1      42.789  28.932  27.682  1.00  0.00     0.210 HD
ENDBRANCH  12  28
BRANCH  23  30
ATOM     30  C   UNL A   1      42.023  32.870  34.021  1.00  0.00    -0.010 C 
ATOM     31  C   UNL A   1      43.109  33.914  33.675  1.00  0.00     0.008 C 
BRANCH  30  32
ATOM     32  C   UNL A   1      41.452  33.167  35.439  1.00  0.00     0.008 C 
BRANCH  32  33
ATOM     33  C   UNL A   1      40.049  32.770  35.902  1.00  0.00     0.027 C 
BRANCH  33  34
ATOM     34  C   UNL A   1      39.690  33.167  37.300  1.00  0.00    -0.028 C 
ATOM     35  C   UNL A   1      38.439  33.432  37.733  1.00  0.00    -0.080 C 
ATOM     36  C   UNL A   1      38.134  33.504  39.205  1.00  0.00     0.039 C 
ATOM     37  C   UNL A   1      37.251  33.584  36.823  1.00  0.00     0.039 C 
ENDBRANCH  33  34
ENDBRANCH  32  33
ENDBRANCH  30  32
ENDBRANCH  23  30
ENDBRANCH   9  10
ENDBRANCH   8   9
ENDBRANCH   6   8
ENDBRANCH   5   6
ENDBRANCH   4   5
ENDBRANCH   3   4
ENDBRANCH   2   3
ENDBRANCH   1   2
BRANCH   1  38
ATOM     38  C   UNL A   1      33.504  26.021  24.706  1.00  0.00     0.188 C 
BRANCH  38  39
ATOM     39  O   UNL A   1      33.627  24.629  24.506  1.00  0.00    -0.377 OA
BRANCH  39  40
ATOM     40  C   UNL A   1      34.838  24.202  23.905  1.00  0.00     0.188 C 
BRANCH  40  41
ATOM     41  C   UNL A   1      35.884  23.668  24.895  1.00  0.00     0.188 C 
BRANCH  41  42
ATOM     42  O   UNL A   1      36.218  22.291  25.007  1.00  0.00    -0.376 OA
BRANCH  42  43
ATOM     43  C   UNL A   1      37.536  21.848  24.747  1.00  0.00     0.202 C 
BRANCH  43  44
ATOM     44  C   UNL A   1      38.512  21.672  25.930  1.00  0.00     0.261 C 
BRANCH  44  45
ATOM     45  O   UNL A   1      39.826  22.240  25.800  1.00  0.00    -0.460 OA
BRANCH  45  46
ATOM     46  C   UNL A   1      40.832  21.502  26.310  1.00  0.00     0.338 C 
ATOM     47  O   UNL A   1      41.034  20.303  26.117  1.00  0.00    -0.246 OA
BRANCH  46  48
ATOM     48  C   UNL A   1      41.754  22.351  27.095  1.00  0.00     0.060 A 
ATOM     49  C   UNL A   1      41.813  23.719  26.803  1.00  0.00     0.016 A 
ATOM     50  C   UNL A   1      42.640  21.799  28.025  1.00  0.00     0.016 A 
ATOM     51  C   UNL A   1      42.787  24.529  27.396  1.00  0.00     0.010 A 
ATOM     52  C   UNL A   1      43.632  22.606  28.602  1.00  0.00     0.010 A 
ATOM     53  C   UNL A   1      43.741  23.966  28.255  1.00  0.00    -0.014 A 
BRANCH  53  54
ATOM     54  C   UNL A   1      44.971  24.740  28.584  1.00  0.00     0.031 A 
ATOM     55  C   UNL A   1      45.228  25.087  30.025  1.00  0.00     0.074 A 
ATOM     56  C   UNL A   1      45.867  25.109  27.650  1.00  0.00     0.049 A 
ATOM     57  N   UNL A   1      46.217  25.766  30.545  1.00  0.00    -0.248 NA
ATOM     58  C   UNL A   1      44.238  24.611  31.006  1.00  0.00     0.031 C 
ATOM     59  C   UNL A   1      45.752  24.816  26.231  1.00  0.00     0.029 A 
ATOM     60  N   UNL A   1      47.049  25.805  27.749  1.00  0.00    -0.354 N 
ATOM     61  C   UNL A   1      45.958  25.820  31.908  1.00  0.00     0.074 A 
ATOM     62  C   UNL A   1      44.716  25.114  32.135  1.00  0.00     0.031 C 
ATOM     63  C   UNL A   1      46.818  25.317  25.584  1.00  0.00     0.029 A 
ATOM     64  C   UNL A   1      47.672  26.015  26.539  1.00  0.00     0.049 A 
ATOM     65  H   UNL A   1      47.415  26.125  28.606  1.00  0.00     0.167 HD
ATOM     66  C   UNL A   1      46.686  26.410  32.883  1.00  0.00     0.031 A 
ATOM     67  C   UNL A   1      48.783  26.715  26.227  1.00  0.00     0.031 A 
ATOM     68  C   UNL A   1      47.919  27.116  32.662  1.00  0.00     0.049 A 
ATOM     69  C   UNL A   1      49.548  27.404  27.328  1.00  0.00     0.074 A 
ATOM     70  C   UNL A   1      48.738  27.719  33.600  1.00  0.00     0.029 A 
ATOM     71  N   UNL A   1      48.505  27.325  31.424  1.00  0.00    -0.354 N 
ATOM     72  N   UNL A   1      49.309  27.408  28.617  1.00  0.00    -0.248 NA
ATOM     73  C   UNL A   1      50.732  28.184  26.934  1.00  0.00     0.031 C 
ATOM     74  C   UNL A   1      49.784  28.353  32.923  1.00  0.00     0.029 A 
ATOM     75  C   UNL A   1      49.657  28.080  31.571  1.00  0.00     0.049 A 
ATOM     76  H   UNL A   1      48.156  26.988  30.568  1.00  0.00     0.167 HD
ATOM     77  C   UNL A   1      50.326  28.166  29.190  1.00  0.00     0.074 A 
ATOM     78  C   UNL A   1      51.195  28.586  28.111  1.00  0.00     0.031 C 
ATOM     79  C   UNL A   1      50.521  28.487  30.492  1.00  0.00     0.031 A 
BRANCH  66  80
ATOM     80  C   UNL A   1      46.144  26.362  34.285  1.00  0.00    -0.014 A 
ATOM     81  C   UNL A   1      46.284  25.215  35.085  1.00  0.00     0.010 A 
ATOM     82  C   UNL A   1      45.549  27.515  34.829  1.00  0.00     0.010 A 
ATOM     83  C   UNL A   1      45.823  25.219  36.404  1.00  0.00     0.020 A 
ATOM     84  C   UNL A   1      45.112  27.530  36.154  1.00  0.00     0.020 A 
ATOM     85  C   UNL A   1      45.246  26.379  36.932  1.00  0.00     0.054 A 
BRANCH  85  86
ATOM     86  S   UNL A   1      44.719  26.375  38.667  1.00  0.00     0.124 S 
ATOM     87  O   UNL A   1      43.269  26.495  38.542  1.00  0.00    -0.237 OA
ATOM     88  O   UNL A   1      45.205  25.084  39.144  1.00  0.00    -0.237 OA
ATOM     89  O   UNL A   1      45.392  27.541  39.236  1.00  0.00    -0.744 OA
ENDBRANCH  85  86
ENDBRANCH  66  80
BRANCH  67  90
ATOM     90  C   UNL A   1      49.218  26.862  24.805  1.00  0.00    -0.014 A 
ATOM     91  C   UNL A   1      50.543  26.590  24.416  1.00  0.00     0.010 A 
ATOM     92  C   UNL A   1      48.311  27.332  23.836  1.00  0.00     0.010 A 
ATOM     93  C   UNL A   1      50.960  26.822  23.099  1.00  0.00     0.020 A 
ATOM     94  C   UNL A   1      48.714  27.532  22.512  1.00  0.00     0.020 A 
ATOM     95  C   UNL A   1      50.042  27.294  22.156  1.00  0.00     0.054 A 
BRANCH  95  96
ATOM     96  S   UNL A   1      50.597  27.574  20.451  1.00  0.00     0.124 S 
ATOM     97  O   UNL A   1      51.744  26.677  20.353  1.00  0.00    -0.237 OA
ATOM     98  O   UNL A   1      49.424  27.192  19.670  1.00  0.00    -0.237 OA
ATOM     99  O   UNL A   1      50.914  29.001  20.426  1.00  0.00    -0.744 OA
ENDBRANCH  95  96
ENDBRANCH  67  90
BRANCH  79 100
ATOM    100  C   UNL A   1      51.744  29.296  30.841  1.00  0.00    -0.014 A 
ATOM    101  C   UNL A   1      51.688  30.695  30.965  1.00  0.00     0.010 A 
ATOM    102  C   UNL A   1      52.955  28.633  31.112  1.00  0.00     0.010 A 
ATOM    103  C   UNL A   1      52.830  31.419  31.322  1.00  0.00     0.020 A 
ATOM    104  C   UNL A   1      54.090  29.349  31.500  1.00  0.00     0.020 A 
ATOM    105  C   UNL A   1      54.024  30.741  31.589  1.00  0.00     0.054 A 
BRANCH 105 106
ATOM    106  S   UNL A   1      55.478  31.698  32.095  1.00  0.00     0.124 S 
ATOM    107  O   UNL A   1      55.012  32.333  33.325  1.00  0.00    -0.237 OA
ATOM    108  O   UNL A   1      56.497  30.666  32.268  1.00  0.00    -0.237 OA
ATOM    109  O   UNL A   1      55.703  32.607  30.973  1.00  0.00    -0.744 OA
ENDBRANCH 105 106
ENDBRANCH  79 100
ENDBRANCH  53  54
ENDBRANCH  46  48
ENDBRANCH  45  46
ENDBRANCH  44  45
ENDBRANCH  43  44
ENDBRANCH  42  43
ENDBRANCH  41  42
ENDBRANCH  40  41
ENDBRANCH  39  40
ENDBRANCH  38  39
ENDBRANCH   1  38
TORSDOF 31
ENDMDL
