MODEL 1
REMARK VINA RESULT:      -8.9      0.000      0.000
REMARK SMILES C[C@H]1CC[C@@]1(C(=O)OCCOCCOCCOCCOC(=O)c1ccc(-c2c3nc(c(-c4ccc(S(=O)(=O)[O-])cc4)c4ccc([nH]4)c(-c4ccc(S(=O)(=O)[O-])cc4)c4nc(c(-c5ccc(S(=O)(=O)[O-])cc5)c5ccc2[nH]5)C=C4)C=C3)cc1)c1ccc(Cl)cc1Cl
REMARK SMILES IDX 15 1 14 2 13 3 12 4 11 5 10 6 9 7 8 8 6 9 7 10 5 11 1 12
REMARK SMILES IDX 2 13 3 14 4 15 83 16 84 17 89 18 85 19 88 20 90 21 86 22
REMARK SMILES IDX 87 23 16 24 17 25 18 26 19 27 20 28 21 29 22 30 23 31 24 32
REMARK SMILES IDX 82 33 25 34 81 35 26 36 27 37 28 38 75 39 29 40 80 41 74 42
REMARK SMILES IDX 76 43 30 44 79 45 73 46 72 47 31 49 61 50 42 51 60 52 43 53
REMARK SMILES IDX 46 54 59 55 77 56 44 57 45 58 58 60 78 61 47 62 32 63 33 64
REMARK SMILES IDX 41 65 34 66 40 67 35 68 36 69 37 70 38 71 39 72 62 73 63 74
REMARK SMILES IDX 71 75 64 76 70 77 65 78 66 79 67 80 68 81 69 82 48 83 49 84
REMARK SMILES IDX 57 85 50 86 56 87 51 88 52 89 53 90 54 91 55 92
REMARK H PARENT 76 48 46 59
REMARK Flexibility Score: inf
ROOT
ATOM      1  C   UNL A   1      42.411  20.241  26.851  1.00  0.00     0.188 C 
ENDROOT
BRANCH   1   2
ATOM      2  O   UNL A   1      41.111  20.648  27.274  1.00  0.00    -0.377 OA
BRANCH   2   3
ATOM      3  C   UNL A   1      40.196  21.205  26.342  1.00  0.00     0.188 C 
BRANCH   3   4
ATOM      4  C   UNL A   1      39.859  22.667  26.654  1.00  0.00     0.188 C 
BRANCH   4   5
ATOM      5  O   UNL A   1      38.496  23.055  26.462  1.00  0.00    -0.376 OA
BRANCH   5   6
ATOM      6  C   UNL A   1      37.691  22.223  25.623  1.00  0.00     0.202 C 
BRANCH   6   7
ATOM      7  C   UNL A   1      36.176  22.461  25.671  1.00  0.00     0.261 C 
BRANCH   7   8
ATOM      8  O   UNL A   1      35.524  22.055  24.449  1.00  0.00    -0.463 OA
BRANCH   8   9
ATOM      9  C   UNL A   1      35.318  23.017  23.505  1.00  0.00     0.316 C 
ATOM     10  O   UNL A   1      36.173  23.255  22.647  1.00  0.00    -0.251 OA
BRANCH   9  11
ATOM     11  C   UNL A   1      33.825  23.699  23.498  1.00  0.00     0.097 C 
ATOM     12  C   UNL A   1      31.390  22.752  24.686  1.00  0.00     0.009 C 
ATOM     13  C   UNL A   1      32.755  22.578  24.030  1.00  0.00     0.008 C 
ATOM     14  C   UNL A   1      32.599  22.141  22.554  1.00  0.00     0.006 C 
ATOM     15  C   UNL A   1      33.119  23.520  22.104  1.00  0.00     0.024 C 
BRANCH  11  16
ATOM     16  C   UNL A   1      33.727  25.257  24.105  1.00  0.00    -0.012 A 
ATOM     17  C   UNL A   1      33.640  25.469  25.508  1.00  0.00     0.008 A 
ATOM     18  C   UNL A   1      33.615  26.462  23.366  1.00  0.00     0.046 A 
ATOM     19  C   UNL A   1      33.629  26.723  26.130  1.00  0.00     0.021 A 
ATOM     20  C   UNL A   1      33.645  27.738  23.974  1.00  0.00     0.041 A 
ATOM     21  Cl  UNL A   1      33.268  26.471  21.671  1.00  0.00    -0.084 Cl
ATOM     22  C   UNL A   1      33.681  27.861  25.353  1.00  0.00     0.042 A 
ATOM     23  Cl  UNL A   1      33.721  29.406  26.103  1.00  0.00    -0.084 Cl
ENDBRANCH  11  16
ENDBRANCH   9  11
ENDBRANCH   8   9
ENDBRANCH   7   8
ENDBRANCH   6   7
ENDBRANCH   5   6
ENDBRANCH   4   5
ENDBRANCH   3   4
ENDBRANCH   2   3
ENDBRANCH   1   2
BRANCH   1  24
ATOM     24  C   UNL A   1      43.212  21.188  25.955  1.00  0.00     0.188 C 
BRANCH  24  25
ATOM     25  O   UNL A   1      43.555  22.462  26.508  1.00  0.00    -0.376 OA
BRANCH  25  26
ATOM     26  C   UNL A   1      44.326  23.364  25.716  1.00  0.00     0.202 C 
BRANCH  26  27
ATOM     27  C   UNL A   1      44.467  24.770  26.291  1.00  0.00     0.261 C 
BRANCH  27  28
ATOM     28  O   UNL A   1      43.718  25.725  25.527  1.00  0.00    -0.460 OA
BRANCH  28  29
ATOM     29  C   UNL A   1      42.457  25.951  25.964  1.00  0.00     0.338 C 
ATOM     30  O   UNL A   1      41.420  25.548  25.474  1.00  0.00    -0.246 OA
BRANCH  29  31
ATOM     31  C   UNL A   1      42.520  26.652  27.259  1.00  0.00     0.060 A 
ATOM     32  C   UNL A   1      41.764  26.150  28.326  1.00  0.00     0.016 A 
ATOM     33  C   UNL A   1      43.241  27.841  27.388  1.00  0.00     0.016 A 
ATOM     34  C   UNL A   1      41.672  26.873  29.513  1.00  0.00     0.010 A 
ATOM     35  C   UNL A   1      43.138  28.570  28.571  1.00  0.00     0.010 A 
ATOM     36  C   UNL A   1      42.315  28.112  29.616  1.00  0.00    -0.014 A 
BRANCH  36  37
ATOM     37  C   UNL A   1      41.965  29.038  30.716  1.00  0.00     0.031 A 
ATOM     38  C   UNL A   1      42.790  28.990  31.972  1.00  0.00     0.074 A 
ATOM     39  C   UNL A   1      40.932  29.887  30.602  1.00  0.00     0.049 A 
ATOM     40  N   UNL A   1      42.608  29.610  33.106  1.00  0.00    -0.248 NA
ATOM     41  C   UNL A   1      43.978  28.118  31.944  1.00  0.00     0.031 C 
ATOM     42  C   UNL A   1      40.103  30.060  29.409  1.00  0.00     0.029 A 
ATOM     43  N   UNL A   1      40.393  30.754  31.517  1.00  0.00    -0.354 N 
ATOM     44  C   UNL A   1      43.643  29.189  33.934  1.00  0.00     0.074 A 
ATOM     45  C   UNL A   1      44.436  28.244  33.180  1.00  0.00     0.031 C 
ATOM     46  C   UNL A   1      39.147  30.966  29.674  1.00  0.00     0.029 A 
ATOM     47  C   UNL A   1      39.269  31.401  31.065  1.00  0.00     0.049 A 
ATOM     48  H   UNL A   1      40.776  30.900  32.413  1.00  0.00     0.167 HD
ATOM     49  C   UNL A   1      43.907  29.558  35.209  1.00  0.00     0.031 A 
ATOM     50  C   UNL A   1      38.417  32.219  31.713  1.00  0.00     0.031 A 
ATOM     51  C   UNL A   1      43.098  30.487  35.953  1.00  0.00     0.049 A 
ATOM     52  C   UNL A   1      38.678  32.548  33.161  1.00  0.00     0.074 A 
ATOM     53  C   UNL A   1      43.277  30.938  37.248  1.00  0.00     0.029 A 
ATOM     54  N   UNL A   1      41.951  31.098  35.469  1.00  0.00    -0.354 N 
ATOM     55  N   UNL A   1      39.665  32.155  33.930  1.00  0.00    -0.248 NA
ATOM     56  C   UNL A   1      37.711  33.433  33.827  1.00  0.00     0.031 C 
ATOM     57  C   UNL A   1      42.202  31.773  37.568  1.00  0.00     0.029 A 
ATOM     58  C   UNL A   1      41.395  31.901  36.447  1.00  0.00     0.049 A 
ATOM     59  H   UNL A   1      41.587  30.979  34.561  1.00  0.00     0.167 HD
ATOM     60  C   UNL A   1      39.459  32.774  35.160  1.00  0.00     0.074 A 
ATOM     61  C   UNL A   1      38.256  33.570  35.029  1.00  0.00     0.031 C 
ATOM     62  C   UNL A   1      40.201  32.696  36.292  1.00  0.00     0.031 A 
BRANCH  49  63
ATOM     63  C   UNL A   1      45.089  28.922  35.893  1.00  0.00    -0.014 A 
ATOM     64  C   UNL A   1      46.357  29.532  35.884  1.00  0.00     0.010 A 
ATOM     65  C   UNL A   1      44.921  27.707  36.581  1.00  0.00     0.010 A 
ATOM     66  C   UNL A   1      47.442  28.919  36.517  1.00  0.00     0.020 A 
ATOM     67  C   UNL A   1      45.996  27.106  37.242  1.00  0.00     0.020 A 
ATOM     68  C   UNL A   1      47.254  27.708  37.191  1.00  0.00     0.054 A 
BRANCH  68  69
ATOM     69  S   UNL A   1      48.675  26.946  38.021  1.00  0.00     0.124 S 
ATOM     70  O   UNL A   1      48.732  27.696  39.273  1.00  0.00    -0.237 OA
ATOM     71  O   UNL A   1      48.265  25.550  38.143  1.00  0.00    -0.237 OA
ATOM     72  O   UNL A   1      49.784  27.188  37.102  1.00  0.00    -0.744 OA
ENDBRANCH  68  69
ENDBRANCH  49  63
BRANCH  50  73
ATOM     73  C   UNL A   1      37.227  32.765  31.004  1.00  0.00    -0.014 A 
ATOM     74  C   UNL A   1      37.288  34.012  30.358  1.00  0.00     0.010 A 
ATOM     75  C   UNL A   1      36.025  32.034  30.963  1.00  0.00     0.010 A 
ATOM     76  C   UNL A   1      36.166  34.523  29.698  1.00  0.00     0.020 A 
ATOM     77  C   UNL A   1      34.912  32.527  30.278  1.00  0.00     0.020 A 
ATOM     78  C   UNL A   1      34.986  33.775  29.658  1.00  0.00     0.054 A 
BRANCH  78  79
ATOM     79  S   UNL A   1      33.562  34.438  28.751  1.00  0.00     0.124 S 
ATOM     80  O   UNL A   1      33.341  33.409  27.739  1.00  0.00    -0.237 OA
ATOM     81  O   UNL A   1      32.542  34.530  29.793  1.00  0.00    -0.237 OA
ATOM     82  O   UNL A   1      34.045  35.721  28.245  1.00  0.00    -0.744 OA
ENDBRANCH  78  79
ENDBRANCH  50  73
BRANCH  62  83
ATOM     83  C   UNL A   1      39.775  33.531  37.472  1.00  0.00    -0.014 A 
ATOM     84  C   UNL A   1      38.963  33.002  38.490  1.00  0.00     0.010 A 
ATOM     85  C   UNL A   1      40.279  34.838  37.605  1.00  0.00     0.010 A 
ATOM     86  C   UNL A   1      38.652  33.773  39.614  1.00  0.00     0.020 A 
ATOM     87  C   UNL A   1      39.995  35.600  38.741  1.00  0.00     0.020 A 
ATOM     88  C   UNL A   1      39.177  35.064  39.736  1.00  0.00     0.054 A 
BRANCH  88  89
ATOM     89  S   UNL A   1      38.821  36.012  41.241  1.00  0.00     0.124 S 
ATOM     90  O   UNL A   1      37.531  35.463  41.648  1.00  0.00    -0.237 OA
ATOM     91  O   UNL A   1      39.949  35.673  42.106  1.00  0.00    -0.237 OA
ATOM     92  O   UNL A   1      38.791  37.397  40.780  1.00  0.00    -0.744 OA
ENDBRANCH  88  89
ENDBRANCH  62  83
ENDBRANCH  36  37
ENDBRANCH  29  31
ENDBRANCH  28  29
ENDBRANCH  27  28
ENDBRANCH  26  27
ENDBRANCH  25  26
ENDBRANCH  24  25
ENDBRANCH   1  24
TORSDOF 24
ENDMDL
MODEL 2
REMARK VINA RESULT:      -8.8      2.533      9.376
REMARK SMILES C[C@H]1CC[C@@]1(C(=O)OCCOCCOCCOCCOC(=O)c1ccc(-c2c3nc(c(-c4ccc(S(=O)(=O)[O-])cc4)c4ccc([nH]4)c(-c4ccc(S(=O)(=O)[O-])cc4)c4nc(c(-c5ccc(S(=O)(=O)[O-])cc5)c5ccc2[nH]5)C=C4)C=C3)cc1)c1ccc(Cl)cc1Cl
REMARK SMILES IDX 15 1 14 2 13 3 12 4 11 5 10 6 9 7 8 8 6 9 7 10 5 11 1 12
REMARK SMILES IDX 2 13 3 14 4 15 83 16 84 17 89 18 85 19 88 20 90 21 86 22
REMARK SMILES IDX 87 23 16 24 17 25 18 26 19 27 20 28 21 29 22 30 23 31 24 32
REMARK SMILES IDX 82 33 25 34 81 35 26 36 27 37 28 38 75 39 29 40 80 41 74 42
REMARK SMILES IDX 76 43 30 44 79 45 73 46 72 47 31 49 61 50 42 51 60 52 43 53
REMARK SMILES IDX 46 54 59 55 77 56 44 57 45 58 58 60 78 61 47 62 32 63 33 64
REMARK SMILES IDX 41 65 34 66 40 67 35 68 36 69 37 70 38 71 39 72 62 73 63 74
REMARK SMILES IDX 71 75 64 76 70 77 65 78 66 79 67 80 68 81 69 82 48 83 49 84
REMARK SMILES IDX 57 85 50 86 56 87 51 88 52 89 53 90 54 91 55 92
REMARK H PARENT 76 48 46 59
REMARK Flexibility Score: inf
ROOT
ATOM      1  C   UNL A   1      35.579  33.769  28.497  1.00  0.00     0.188 C 
ENDROOT
BRANCH   1   2
ATOM      2  O   UNL A   1      35.226  32.530  29.110  1.00  0.00    -0.377 OA
BRANCH   2   3
ATOM      3  C   UNL A   1      35.189  31.336  28.340  1.00  0.00     0.188 C 
BRANCH   3   4
ATOM      4  C   UNL A   1      33.818  31.093  27.703  1.00  0.00     0.188 C 
BRANCH   4   5
ATOM      5  O   UNL A   1      33.777  30.135  26.642  1.00  0.00    -0.376 OA
BRANCH   5   6
ATOM      6  C   UNL A   1      34.160  28.794  26.957  1.00  0.00     0.202 C 
BRANCH   6   7
ATOM      7  C   UNL A   1      34.002  27.754  25.839  1.00  0.00     0.261 C 
BRANCH   7   8
ATOM      8  O   UNL A   1      33.221  26.617  26.264  1.00  0.00    -0.463 OA
BRANCH   8   9
ATOM      9  C   UNL A   1      33.471  25.426  25.648  1.00  0.00     0.316 C 
ATOM     10  O   UNL A   1      34.122  24.544  26.216  1.00  0.00    -0.251 OA
BRANCH   9  11
ATOM     11  C   UNL A   1      32.726  25.201  24.204  1.00  0.00     0.097 C 
ATOM     12  C   UNL A   1      31.784  22.768  23.006  1.00  0.00     0.009 C 
ATOM     13  C   UNL A   1      32.716  23.593  23.885  1.00  0.00     0.008 C 
ATOM     14  C   UNL A   1      34.081  23.804  23.186  1.00  0.00     0.006 C 
ATOM     15  C   UNL A   1      33.746  25.298  23.010  1.00  0.00     0.024 C 
BRANCH  11  16
ATOM     16  C   UNL A   1      31.321  26.078  23.958  1.00  0.00    -0.012 A 
ATOM     17  C   UNL A   1      31.317  27.175  23.054  1.00  0.00     0.008 A 
ATOM     18  C   UNL A   1      30.085  25.932  24.638  1.00  0.00     0.046 A 
ATOM     19  C   UNL A   1      30.187  27.930  22.714  1.00  0.00     0.021 A 
ATOM     20  C   UNL A   1      28.924  26.655  24.281  1.00  0.00     0.041 A 
ATOM     21  Cl  UNL A   1      29.933  24.973  26.071  1.00  0.00    -0.084 Cl
ATOM     22  C   UNL A   1      28.976  27.631  23.300  1.00  0.00     0.042 A 
ATOM     23  Cl  UNL A   1      27.571  28.513  22.854  1.00  0.00    -0.084 Cl
ENDBRANCH  11  16
ENDBRANCH   9  11
ENDBRANCH   8   9
ENDBRANCH   7   8
ENDBRANCH   6   7
ENDBRANCH   5   6
ENDBRANCH   4   5
ENDBRANCH   3   4
ENDBRANCH   2   3
ENDBRANCH   1   2
BRANCH   1  24
ATOM     24  C   UNL A   1      34.458  34.651  27.944  1.00  0.00     0.188 C 
BRANCH  24  25
ATOM     25  O   UNL A   1      33.488  35.123  28.884  1.00  0.00    -0.376 OA
BRANCH  25  26
ATOM     26  C   UNL A   1      33.451  36.517  29.183  1.00  0.00     0.202 C 
BRANCH  26  27
ATOM     27  C   UNL A   1      32.767  36.879  30.498  1.00  0.00     0.261 C 
BRANCH  27  28
ATOM     28  O   UNL A   1      33.592  36.549  31.625  1.00  0.00    -0.460 OA
BRANCH  28  29
ATOM     29  C   UNL A   1      33.257  35.407  32.270  1.00  0.00     0.338 C 
ATOM     30  O   UNL A   1      32.163  35.089  32.693  1.00  0.00    -0.246 OA
BRANCH  29  31
ATOM     31  C   UNL A   1      34.413  34.494  32.254  1.00  0.00     0.060 A 
ATOM     32  C   UNL A   1      34.234  33.184  32.716  1.00  0.00     0.016 A 
ATOM     33  C   UNL A   1      35.676  34.954  31.876  1.00  0.00     0.016 A 
ATOM     34  C   UNL A   1      35.334  32.344  32.866  1.00  0.00     0.010 A 
ATOM     35  C   UNL A   1      36.778  34.118  32.038  1.00  0.00     0.010 A 
ATOM     36  C   UNL A   1      36.616  32.830  32.580  1.00  0.00    -0.014 A 
BRANCH  36  37
ATOM     37  C   UNL A   1      37.809  32.087  33.042  1.00  0.00     0.031 A 
ATOM     38  C   UNL A   1      38.436  32.494  34.347  1.00  0.00     0.074 A 
ATOM     39  C   UNL A   1      38.326  31.086  32.311  1.00  0.00     0.049 A 
ATOM     40  N   UNL A   1      39.545  32.080  34.897  1.00  0.00    -0.248 NA
ATOM     41  C   UNL A   1      37.716  33.512  35.132  1.00  0.00     0.031 C 
ATOM     42  C   UNL A   1      37.765  30.570  31.063  1.00  0.00     0.029 A 
ATOM     43  N   UNL A   1      39.457  30.337  32.510  1.00  0.00    -0.354 N 
ATOM     44  C   UNL A   1      39.668  32.799  36.081  1.00  0.00     0.074 A 
ATOM     45  C   UNL A   1      38.534  33.692  36.158  1.00  0.00     0.031 C 
ATOM     46  C   UNL A   1      38.567  29.597  30.598  1.00  0.00     0.029 A 
ATOM     47  C   UNL A   1      39.718  29.456  31.489  1.00  0.00     0.049 A 
ATOM     48  H   UNL A   1      40.028  30.422  33.309  1.00  0.00     0.167 HD
ATOM     49  C   UNL A   1      40.641  32.721  37.018  1.00  0.00     0.031 A 
ATOM     50  C   UNL A   1      40.783  28.657  31.281  1.00  0.00     0.031 A 
ATOM     51  C   UNL A   1      41.773  31.840  36.919  1.00  0.00     0.049 A 
ATOM     52  C   UNL A   1      41.901  28.651  32.293  1.00  0.00     0.074 A 
ATOM     53  C   UNL A   1      42.815  31.673  37.814  1.00  0.00     0.029 A 
ATOM     54  N   UNL A   1      42.017  30.983  35.855  1.00  0.00    -0.354 N 
ATOM     55  N   UNL A   1      42.001  29.326  33.415  1.00  0.00    -0.248 NA
ATOM     56  C   UNL A   1      43.046  27.774  32.014  1.00  0.00     0.031 C 
ATOM     57  C   UNL A   1      43.720  30.762  37.261  1.00  0.00     0.029 A 
ATOM     58  C   UNL A   1      43.205  30.306  36.057  1.00  0.00     0.049 A 
ATOM     59  H   UNL A   1      41.429  30.873  35.073  1.00  0.00     0.167 HD
ATOM     60  C   UNL A   1      43.203  28.926  33.992  1.00  0.00     0.074 A 
ATOM     61  C   UNL A   1      43.791  27.949  33.098  1.00  0.00     0.031 C 
ATOM     62  C   UNL A   1      43.767  29.326  35.158  1.00  0.00     0.031 A 
BRANCH  49  63
ATOM     63  C   UNL A   1      40.547  33.644  38.205  1.00  0.00    -0.014 A 
ATOM     64  C   UNL A   1      41.188  34.897  38.212  1.00  0.00     0.010 A 
ATOM     65  C   UNL A   1      39.778  33.265  39.320  1.00  0.00     0.010 A 
ATOM     66  C   UNL A   1      41.094  35.733  39.328  1.00  0.00     0.020 A 
ATOM     67  C   UNL A   1      39.656  34.112  40.425  1.00  0.00     0.020 A 
ATOM     68  C   UNL A   1      40.329  35.334  40.429  1.00  0.00     0.054 A 
BRANCH  68  69
ATOM     69  S   UNL A   1      40.209  36.450  41.854  1.00  0.00     0.124 S 
ATOM     70  O   UNL A   1      39.019  37.231  41.525  1.00  0.00    -0.237 OA
ATOM     71  O   UNL A   1      40.062  35.524  42.973  1.00  0.00    -0.237 OA
ATOM     72  O   UNL A   1      41.467  37.190  41.821  1.00  0.00    -0.744 OA
ENDBRANCH  68  69
ENDBRANCH  49  63
BRANCH  50  73
ATOM     73  C   UNL A   1      40.853  27.815  30.056  1.00  0.00    -0.014 A 
ATOM     74  C   UNL A   1      39.846  26.876  29.773  1.00  0.00     0.010 A 
ATOM     75  C   UNL A   1      41.925  27.957  29.155  1.00  0.00     0.010 A 
ATOM     76  C   UNL A   1      39.918  26.085  28.623  1.00  0.00     0.020 A 
ATOM     77  C   UNL A   1      41.986  27.189  27.990  1.00  0.00     0.020 A 
ATOM     78  C   UNL A   1      40.986  26.249  27.736  1.00  0.00     0.054 A 
BRANCH  78  79
ATOM     79  S   UNL A   1      41.029  25.246  26.225  1.00  0.00     0.124 S 
ATOM     80  O   UNL A   1      42.118  24.315  26.509  1.00  0.00    -0.237 OA
ATOM     81  O   UNL A   1      39.689  24.663  26.198  1.00  0.00    -0.237 OA
ATOM     82  O   UNL A   1      41.298  26.222  25.172  1.00  0.00    -0.744 OA
ENDBRANCH  78  79
ENDBRANCH  50  73
BRANCH  62  83
ATOM     83  C   UNL A   1      45.060  28.676  35.575  1.00  0.00    -0.014 A 
ATOM     84  C   UNL A   1      45.076  27.477  36.310  1.00  0.00     0.010 A 
ATOM     85  C   UNL A   1      46.278  29.229  35.138  1.00  0.00     0.010 A 
ATOM     86  C   UNL A   1      46.290  26.853  36.610  1.00  0.00     0.020 A 
ATOM     87  C   UNL A   1      47.491  28.591  35.411  1.00  0.00     0.020 A 
ATOM     88  C   UNL A   1      47.488  27.409  36.152  1.00  0.00     0.054 A 
BRANCH  88  89
ATOM     89  S   UNL A   1      49.042  26.535  36.490  1.00  0.00     0.124 S 
ATOM     90  O   UNL A   1      50.038  27.560  36.194  1.00  0.00    -0.237 OA
ATOM     91  O   UNL A   1      48.907  26.177  37.900  1.00  0.00    -0.237 OA
ATOM     92  O   UNL A   1      49.015  25.408  35.561  1.00  0.00    -0.744 OA
ENDBRANCH  88  89
ENDBRANCH  62  83
ENDBRANCH  36  37
ENDBRANCH  29  31
ENDBRANCH  28  29
ENDBRANCH  27  28
ENDBRANCH  26  27
ENDBRANCH  25  26
ENDBRANCH  24  25
ENDBRANCH   1  24
TORSDOF 24
ENDMDL
MODEL 3
REMARK VINA RESULT:      -8.6      2.783      9.402
REMARK SMILES C[C@H]1CC[C@@]1(C(=O)OCCOCCOCCOCCOC(=O)c1ccc(-c2c3nc(c(-c4ccc(S(=O)(=O)[O-])cc4)c4ccc([nH]4)c(-c4ccc(S(=O)(=O)[O-])cc4)c4nc(c(-c5ccc(S(=O)(=O)[O-])cc5)c5ccc2[nH]5)C=C4)C=C3)cc1)c1ccc(Cl)cc1Cl
REMARK SMILES IDX 15 1 14 2 13 3 12 4 11 5 10 6 9 7 8 8 6 9 7 10 5 11 1 12
REMARK SMILES IDX 2 13 3 14 4 15 83 16 84 17 89 18 85 19 88 20 90 21 86 22
REMARK SMILES IDX 87 23 16 24 17 25 18 26 19 27 20 28 21 29 22 30 23 31 24 32
REMARK SMILES IDX 82 33 25 34 81 35 26 36 27 37 28 38 75 39 29 40 80 41 74 42
REMARK SMILES IDX 76 43 30 44 79 45 73 46 72 47 31 49 61 50 42 51 60 52 43 53
REMARK SMILES IDX 46 54 59 55 77 56 44 57 45 58 58 60 78 61 47 62 32 63 33 64
REMARK SMILES IDX 41 65 34 66 40 67 35 68 36 69 37 70 38 71 39 72 62 73 63 74
REMARK SMILES IDX 71 75 64 76 70 77 65 78 66 79 67 80 68 81 69 82 48 83 49 84
REMARK SMILES IDX 57 85 50 86 56 87 51 88 52 89 53 90 54 91 55 92
REMARK H PARENT 76 48 46 59
REMARK Flexibility Score: inf
ROOT
ATOM      1  C   UNL A   1      34.848  33.222  28.444  1.00  0.00     0.188 C 
ENDROOT
BRANCH   1   2
ATOM      2  O   UNL A   1      34.195  31.978  28.691  1.00  0.00    -0.377 OA
BRANCH   2   3
ATOM      3  C   UNL A   1      34.347  30.896  27.783  1.00  0.00     0.188 C 
BRANCH   3   4
ATOM      4  C   UNL A   1      33.095  30.667  26.931  1.00  0.00     0.188 C 
BRANCH   4   5
ATOM      5  O   UNL A   1      33.251  29.806  25.801  1.00  0.00    -0.376 OA
BRANCH   5   6
ATOM      6  C   UNL A   1      34.264  28.800  25.878  1.00  0.00     0.202 C 
BRANCH   6   7
ATOM      7  C   UNL A   1      33.794  27.343  25.778  1.00  0.00     0.261 C 
BRANCH   7   8
ATOM      8  O   UNL A   1      32.358  27.242  25.670  1.00  0.00    -0.463 OA
BRANCH   8   9
ATOM      9  C   UNL A   1      31.782  26.086  26.106  1.00  0.00     0.316 C 
ATOM     10  O   UNL A   1      30.873  26.108  26.942  1.00  0.00    -0.251 OA
BRANCH   9  11
ATOM     11  C   UNL A   1      32.262  24.717  25.339  1.00  0.00     0.097 C 
ATOM     12  C   UNL A   1      31.125  22.083  25.443  1.00  0.00     0.009 C 
ATOM     13  C   UNL A   1      31.467  23.454  26.016  1.00  0.00     0.008 C 
ATOM     14  C   UNL A   1      32.647  23.349  27.013  1.00  0.00     0.006 C 
ATOM     15  C   UNL A   1      33.544  24.102  26.012  1.00  0.00     0.024 C 
BRANCH  11  16
ATOM     16  C   UNL A   1      32.357  24.806  23.670  1.00  0.00    -0.012 A 
ATOM     17  C   UNL A   1      31.589  25.772  22.964  1.00  0.00     0.008 A 
ATOM     18  C   UNL A   1      33.066  23.937  22.802  1.00  0.00     0.046 A 
ATOM     19  C   UNL A   1      31.646  25.987  21.582  1.00  0.00     0.021 A 
ATOM     20  C   UNL A   1      33.168  24.162  21.410  1.00  0.00     0.041 A 
ATOM     21  Cl  UNL A   1      33.731  22.435  23.347  1.00  0.00    -0.084 Cl
ATOM     22  C   UNL A   1      32.480  25.205  20.812  1.00  0.00     0.042 A 
ATOM     23  Cl  UNL A   1      32.600  25.491  19.122  1.00  0.00    -0.084 Cl
ENDBRANCH  11  16
ENDBRANCH   9  11
ENDBRANCH   8   9
ENDBRANCH   7   8
ENDBRANCH   6   7
ENDBRANCH   5   6
ENDBRANCH   4   5
ENDBRANCH   3   4
ENDBRANCH   2   3
ENDBRANCH   1   2
BRANCH   1  24
ATOM     24  C   UNL A   1      34.002  34.403  27.963  1.00  0.00     0.188 C 
BRANCH  24  25
ATOM     25  O   UNL A   1      33.106  34.983  28.915  1.00  0.00    -0.376 OA
BRANCH  25  26
ATOM     26  C   UNL A   1      33.192  36.385  29.166  1.00  0.00     0.202 C 
BRANCH  26  27
ATOM     27  C   UNL A   1      32.581  36.844  30.487  1.00  0.00     0.261 C 
BRANCH  27  28
ATOM     28  O   UNL A   1      33.418  36.496  31.600  1.00  0.00    -0.460 OA
BRANCH  28  29
ATOM     29  C   UNL A   1      33.124  35.315  32.194  1.00  0.00     0.338 C 
ATOM     30  O   UNL A   1      32.037  34.927  32.576  1.00  0.00    -0.246 OA
BRANCH  29  31
ATOM     31  C   UNL A   1      34.326  34.462  32.176  1.00  0.00     0.060 A 
ATOM     32  C   UNL A   1      34.248  33.190  32.757  1.00  0.00     0.016 A 
ATOM     33  C   UNL A   1      35.536  34.949  31.678  1.00  0.00     0.016 A 
ATOM     34  C   UNL A   1      35.400  32.421  32.902  1.00  0.00     0.010 A 
ATOM     35  C   UNL A   1      36.690  34.185  31.835  1.00  0.00     0.010 A 
ATOM     36  C   UNL A   1      36.632  32.942  32.491  1.00  0.00    -0.014 A 
BRANCH  36  37
ATOM     37  C   UNL A   1      37.890  32.301  32.932  1.00  0.00     0.031 A 
ATOM     38  C   UNL A   1      38.384  32.590  34.323  1.00  0.00     0.074 A 
ATOM     39  C   UNL A   1      38.581  31.495  32.110  1.00  0.00     0.049 A 
ATOM     40  N   UNL A   1      39.508  32.248  34.891  1.00  0.00    -0.248 NA
ATOM     41  C   UNL A   1      37.487  33.379  35.187  1.00  0.00     0.031 C 
ATOM     42  C   UNL A   1      38.165  31.099  30.765  1.00  0.00     0.029 A 
ATOM     43  N   UNL A   1      39.793  30.879  32.286  1.00  0.00    -0.354 N 
ATOM     44  C   UNL A   1      39.465  32.795  36.169  1.00  0.00     0.074 A 
ATOM     45  C   UNL A   1      38.215  33.512  36.285  1.00  0.00     0.031 C 
ATOM     46  C   UNL A   1      39.120  30.318  30.230  1.00  0.00     0.029 A 
ATOM     47  C   UNL A   1      40.229  30.199  31.175  1.00  0.00     0.049 A 
ATOM     48  H   UNL A   1      40.302  30.919  33.128  1.00  0.00     0.167 HD
ATOM     49  C   UNL A   1      40.388  32.707  37.155  1.00  0.00     0.031 A 
ATOM     50  C   UNL A   1      41.405  29.585  30.937  1.00  0.00     0.031 A 
ATOM     51  C   UNL A   1      41.636  32.006  37.019  1.00  0.00     0.049 A 
ATOM     52  C   UNL A   1      42.456  29.576  32.018  1.00  0.00     0.074 A 
ATOM     53  C   UNL A   1      42.641  31.846  37.956  1.00  0.00     0.029 A 
ATOM     54  N   UNL A   1      42.053  31.354  35.867  1.00  0.00    -0.354 N 
ATOM     55  N   UNL A   1      42.401  30.086  33.226  1.00  0.00    -0.248 NA
ATOM     56  C   UNL A   1      43.726  28.906  31.705  1.00  0.00     0.031 C 
ATOM     57  C   UNL A   1      43.692  31.153  37.350  1.00  0.00     0.029 A 
ATOM     58  C   UNL A   1      43.312  30.815  36.060  1.00  0.00     0.049 A 
ATOM     59  H   UNL A   1      41.529  31.285  35.036  1.00  0.00     0.167 HD
ATOM     60  C   UNL A   1      43.614  29.766  33.830  1.00  0.00     0.074 A 
ATOM     61  C   UNL A   1      44.380  29.016  32.855  1.00  0.00     0.031 C 
ATOM     62  C   UNL A   1      44.052  30.060  35.078  1.00  0.00     0.031 A 
BRANCH  49  63
ATOM     63  C   UNL A   1      40.101  33.426  38.448  1.00  0.00    -0.014 A 
ATOM     64  C   UNL A   1      39.305  32.842  39.450  1.00  0.00     0.010 A 
ATOM     65  C   UNL A   1      40.664  34.695  38.676  1.00  0.00     0.010 A 
ATOM     66  C   UNL A   1      39.044  33.532  40.638  1.00  0.00     0.020 A 
ATOM     67  C   UNL A   1      40.432  35.374  39.875  1.00  0.00     0.020 A 
ATOM     68  C   UNL A   1      39.609  34.795  40.842  1.00  0.00     0.054 A 
BRANCH  68  69
ATOM     69  S   UNL A   1      39.270  35.656  42.402  1.00  0.00     0.124 S 
ATOM     70  O   UNL A   1      39.682  37.023  42.088  1.00  0.00    -0.237 OA
ATOM     71  O   UNL A   1      37.834  35.457  42.572  1.00  0.00    -0.237 OA
ATOM     72  O   UNL A   1      40.112  34.962  43.372  1.00  0.00    -0.744 OA
ENDBRANCH  68  69
ENDBRANCH  49  63
BRANCH  50  73
ATOM     73  C   UNL A   1      41.657  28.949  29.616  1.00  0.00    -0.014 A 
ATOM     74  C   UNL A   1      42.154  29.705  28.540  1.00  0.00     0.010 A 
ATOM     75  C   UNL A   1      41.412  27.576  29.428  1.00  0.00     0.010 A 
ATOM     76  C   UNL A   1      42.385  29.104  27.299  1.00  0.00     0.020 A 
ATOM     77  C   UNL A   1      41.670  26.965  28.198  1.00  0.00     0.020 A 
ATOM     78  C   UNL A   1      42.146  27.736  27.137  1.00  0.00     0.054 A 
BRANCH  78  79
ATOM     79  S   UNL A   1      42.503  26.971  25.532  1.00  0.00     0.124 S 
ATOM     80  O   UNL A   1      41.295  26.188  25.293  1.00  0.00    -0.237 OA
ATOM     81  O   UNL A   1      42.686  28.133  24.665  1.00  0.00    -0.237 OA
ATOM     82  O   UNL A   1      43.714  26.193  25.784  1.00  0.00    -0.744 OA
ENDBRANCH  78  79
ENDBRANCH  50  73
BRANCH  62  83
ATOM     83  C   UNL A   1      45.400  29.530  35.495  1.00  0.00    -0.014 A 
ATOM     84  C   UNL A   1      45.544  28.247  36.052  1.00  0.00     0.010 A 
ATOM     85  C   UNL A   1      46.550  30.298  35.233  1.00  0.00     0.010 A 
ATOM     86  C   UNL A   1      46.814  27.749  36.351  1.00  0.00     0.020 A 
ATOM     87  C   UNL A   1      47.823  29.790  35.503  1.00  0.00     0.020 A 
ATOM     88  C   UNL A   1      47.946  28.521  36.068  1.00  0.00     0.054 A 
BRANCH  88  89
ATOM     89  S   UNL A   1      49.586  27.817  36.394  1.00  0.00     0.124 S 
ATOM     90  O   UNL A   1      50.249  28.907  37.105  1.00  0.00    -0.237 OA
ATOM     91  O   UNL A   1      49.274  26.639  37.200  1.00  0.00    -0.237 OA
ATOM     92  O   UNL A   1      50.113  27.532  35.062  1.00  0.00    -0.744 OA
ENDBRANCH  88  89
ENDBRANCH  62  83
ENDBRANCH  36  37
ENDBRANCH  29  31
ENDBRANCH  28  29
ENDBRANCH  27  28
ENDBRANCH  26  27
ENDBRANCH  25  26
ENDBRANCH  24  25
ENDBRANCH   1  24
TORSDOF 24
ENDMDL
