MODEL 1
REMARK VINA RESULT:      -9.5      0.000      0.000
REMARK SMILES Cc1cc(C)c(NS(=O)(=O)c2cccc3cc(C)cnc23)c(C(=O)OCCOCCOCCOCCOC(=O)c2ccc(-c3c4nc(c(-c5ccc(S(=O)(=O)[O-])cc5)c5ccc([nH]5)c(-c5ccc(S(=O)(=O)[O-])cc5)c5nc(c(-c6ccc(S(=O)(=O)[O-])cc6)c6ccc3[nH]6)C=C5)C=C4)cc2)c1
REMARK SMILES IDX 31 1 30 2 29 3 28 4 27 5 26 6 25 7 23 8 24 9 22 10 1 11 2 12
REMARK SMILES IDX 3 13 100 14 4 15 5 16 6 17 7 18 8 20 9 21 10 22 11 23 12 24
REMARK SMILES IDX 21 25 13 26 15 27 20 28 14 29 16 30 19 31 17 32 18 33 32 34
REMARK SMILES IDX 33 35 34 36 35 37 36 38 37 39 38 40 39 41 40 42 41 43 99 44
REMARK SMILES IDX 42 45 98 46 43 47 44 48 45 49 92 50 46 51 97 52 91 53 93 54
REMARK SMILES IDX 47 55 96 56 90 57 89 58 48 60 78 61 59 62 77 63 60 64 63 65
REMARK SMILES IDX 76 66 94 67 61 68 62 69 75 71 95 72 64 73 49 74 50 75 58 76
REMARK SMILES IDX 51 77 57 78 52 79 53 80 54 81 55 82 56 83 79 84 80 85 88 86
REMARK SMILES IDX 81 87 87 88 82 89 83 90 84 91 85 92 86 93 65 94 66 95 74 96
REMARK SMILES IDX 67 97 73 98 68 99 69 100 70 101 71 102 72 103
REMARK H PARENT 7 19 93 59 63 70
REMARK Flexibility Score: inf
ROOT
ATOM      1  O   UNL A   1      36.909  22.058  25.955  1.00  0.00    -0.377 OA
ENDROOT
BRANCH   1   2
ATOM      2  C   UNL A   1      35.825  21.188  25.659  1.00  0.00     0.188 C 
BRANCH   2   3
ATOM      3  C   UNL A   1      34.834  21.573  24.539  1.00  0.00     0.188 C 
BRANCH   3   4
ATOM      4  O   UNL A   1      33.473  21.621  24.939  1.00  0.00    -0.376 OA
BRANCH   4   5
ATOM      5  C   UNL A   1      32.487  21.327  23.968  1.00  0.00     0.202 C 
BRANCH   5   6
ATOM      6  C   UNL A   1      32.425  22.272  22.764  1.00  0.00     0.261 C 
BRANCH   6   7
ATOM      7  O   UNL A   1      32.849  23.620  23.005  1.00  0.00    -0.460 OA
BRANCH   7   8
ATOM      8  C   UNL A   1      32.223  24.610  22.335  1.00  0.00     0.340 C 
ATOM      9  O   UNL A   1      32.191  24.756  21.125  1.00  0.00    -0.246 OA
BRANCH   8  10
ATOM     10  C   UNL A   1      31.500  25.483  23.292  1.00  0.00     0.084 A 
ATOM     11  C   UNL A   1      27.957  26.662  23.895  1.00  0.00     0.044 C 
ATOM     12  C   UNL A   1      29.386  26.284  24.143  1.00  0.00    -0.050 A 
ATOM     13  C   UNL A   1      30.024  26.523  25.364  1.00  0.00     0.009 A 
ATOM     14  C   UNL A   1      30.121  25.674  23.134  1.00  0.00     0.021 A 
ATOM     15  C   UNL A   1      31.416  26.329  25.518  1.00  0.00    -0.026 A 
ATOM     16  C   UNL A   1      31.986  26.281  26.904  1.00  0.00     0.046 C 
ATOM     17  C   UNL A   1      32.191  26.033  24.395  1.00  0.00     0.066 A 
BRANCH  17  18
ATOM     18  N   UNL A   1      33.382  26.784  24.048  1.00  0.00    -0.278 N 
ATOM     19  H   UNL A   1      33.894  26.391  23.305  1.00  0.00     0.180 HD
BRANCH  18  20
ATOM     20  S   UNL A   1      34.055  28.178  24.655  1.00  0.00     0.264 S 
ATOM     21  O   UNL A   1      34.558  27.843  25.975  1.00  0.00    -0.201 OA
ATOM     22  O   UNL A   1      34.988  28.633  23.642  1.00  0.00    -0.201 OA
BRANCH  20  23
ATOM     23  C   UNL A   1      32.902  29.506  24.875  1.00  0.00     0.114 A 
ATOM     24  C   UNL A   1      32.976  30.135  26.139  1.00  0.00     0.024 A 
ATOM     25  C   UNL A   1      31.829  29.708  24.013  1.00  0.00     0.091 A 
ATOM     26  C   UNL A   1      31.909  30.876  26.620  1.00  0.00     0.002 A 
ATOM     27  C   UNL A   1      30.706  30.366  24.575  1.00  0.00     0.002 A 
ATOM     28  N   UNL A   1      31.792  29.247  22.746  1.00  0.00    -0.255 NA
ATOM     29  C   UNL A   1      30.755  30.951  25.854  1.00  0.00     0.010 A 
ATOM     30  C   UNL A   1      29.497  30.341  23.870  1.00  0.00     0.015 A 
ATOM     31  C   UNL A   1      30.615  29.272  22.077  1.00  0.00     0.115 A 
ATOM     32  C   UNL A   1      29.427  29.728  22.623  1.00  0.00    -0.032 A 
ATOM     33  C   UNL A   1      28.109  29.504  21.954  1.00  0.00     0.046 C 
ENDBRANCH  20  23
ENDBRANCH  18  20
ENDBRANCH  17  18
ENDBRANCH   8  10
ENDBRANCH   7   8
ENDBRANCH   6   7
ENDBRANCH   5   6
ENDBRANCH   4   5
ENDBRANCH   3   4
ENDBRANCH   2   3
ENDBRANCH   1   2
BRANCH   1  34
ATOM     34  C   UNL A   1      38.224  21.723  25.518  1.00  0.00     0.188 C 
BRANCH  34  35
ATOM     35  C   UNL A   1      39.465  22.045  26.386  1.00  0.00     0.188 C 
BRANCH  35  36
ATOM     36  O   UNL A   1      40.660  21.408  25.969  1.00  0.00    -0.376 OA
BRANCH  36  37
ATOM     37  C   UNL A   1      41.890  21.945  26.417  1.00  0.00     0.202 C 
BRANCH  37  38
ATOM     38  C   UNL A   1      42.239  23.353  25.922  1.00  0.00     0.261 C 
BRANCH  38  39
ATOM     39  O   UNL A   1      41.494  24.430  26.510  1.00  0.00    -0.460 OA
BRANCH  39  40
ATOM     40  C   UNL A   1      41.801  25.689  26.114  1.00  0.00     0.338 C 
ATOM     41  O   UNL A   1      42.153  26.047  25.008  1.00  0.00    -0.246 OA
BRANCH  40  42
ATOM     42  C   UNL A   1      41.430  26.592  27.224  1.00  0.00     0.060 A 
ATOM     43  C   UNL A   1      42.092  27.819  27.365  1.00  0.00     0.016 A 
ATOM     44  C   UNL A   1      40.407  26.232  28.103  1.00  0.00     0.016 A 
ATOM     45  C   UNL A   1      41.750  28.679  28.408  1.00  0.00     0.010 A 
ATOM     46  C   UNL A   1      40.084  27.080  29.161  1.00  0.00     0.010 A 
ATOM     47  C   UNL A   1      40.777  28.290  29.338  1.00  0.00    -0.014 A 
BRANCH  47  48
ATOM     48  C   UNL A   1      40.635  29.033  30.611  1.00  0.00     0.031 A 
ATOM     49  C   UNL A   1      39.575  30.097  30.691  1.00  0.00     0.074 A 
ATOM     50  C   UNL A   1      41.420  28.772  31.672  1.00  0.00     0.049 A 
ATOM     51  N   UNL A   1      39.295  30.918  31.668  1.00  0.00    -0.248 NA
ATOM     52  C   UNL A   1      38.720  30.258  29.502  1.00  0.00     0.031 C 
ATOM     53  C   UNL A   1      42.449  27.736  31.731  1.00  0.00     0.029 A 
ATOM     54  N   UNL A   1      41.472  29.374  32.904  1.00  0.00    -0.354 N 
ATOM     55  C   UNL A   1      38.239  31.698  31.210  1.00  0.00     0.074 A 
ATOM     56  C   UNL A   1      37.951  31.274  29.858  1.00  0.00     0.031 C 
ATOM     57  C   UNL A   1      43.043  27.784  32.938  1.00  0.00     0.029 A 
ATOM     58  C   UNL A   1      42.460  28.875  33.718  1.00  0.00     0.049 A 
ATOM     59  H   UNL A   1      40.861  30.095  33.179  1.00  0.00     0.167 HD
ATOM     60  C   UNL A   1      37.564  32.676  31.860  1.00  0.00     0.031 A 
ATOM     61  C   UNL A   1      42.862  29.270  34.943  1.00  0.00     0.031 A 
ATOM     62  C   UNL A   1      37.872  33.111  33.195  1.00  0.00     0.049 A 
ATOM     63  C   UNL A   1      42.153  30.417  35.618  1.00  0.00     0.074 A 
ATOM     64  C   UNL A   1      37.248  34.090  33.946  1.00  0.00     0.029 A 
ATOM     65  N   UNL A   1      38.901  32.602  33.975  1.00  0.00    -0.354 N 
ATOM     66  N   UNL A   1      41.141  31.132  35.184  1.00  0.00    -0.248 NA
ATOM     67  C   UNL A   1      42.635  30.805  36.951  1.00  0.00     0.031 C 
ATOM     68  C   UNL A   1      37.939  34.218  35.155  1.00  0.00     0.029 A 
ATOM     69  C   UNL A   1      38.949  33.268  35.187  1.00  0.00     0.049 A 
ATOM     70  H   UNL A   1      39.509  31.876  33.704  1.00  0.00     0.167 HD
ATOM     71  C   UNL A   1      40.846  32.033  36.203  1.00  0.00     0.074 A 
ATOM     72  C   UNL A   1      41.780  31.765  37.278  1.00  0.00     0.031 C 
ATOM     73  C   UNL A   1      39.888  32.992  36.246  1.00  0.00     0.031 A 
BRANCH  60  74
ATOM     74  C   UNL A   1      36.457  33.366  31.107  1.00  0.00    -0.014 A 
ATOM     75  C   UNL A   1      36.675  33.924  29.834  1.00  0.00     0.010 A 
ATOM     76  C   UNL A   1      35.176  33.451  31.680  1.00  0.00     0.010 A 
ATOM     77  C   UNL A   1      35.645  34.596  29.170  1.00  0.00     0.020 A 
ATOM     78  C   UNL A   1      34.134  34.094  31.005  1.00  0.00     0.020 A 
ATOM     79  C   UNL A   1      34.382  34.680  29.764  1.00  0.00     0.054 A 
BRANCH  79  80
ATOM     80  S   UNL A   1      33.062  35.551  28.877  1.00  0.00     0.124 S 
ATOM     81  O   UNL A   1      33.819  36.511  28.076  1.00  0.00    -0.237 OA
ATOM     82  O   UNL A   1      32.417  34.478  28.126  1.00  0.00    -0.237 OA
ATOM     83  O   UNL A   1      32.252  36.135  29.944  1.00  0.00    -0.744 OA
ENDBRANCH  79  80
ENDBRANCH  60  74
BRANCH  61  84
ATOM     84  C   UNL A   1      44.011  28.587  35.601  1.00  0.00    -0.014 A 
ATOM     85  C   UNL A   1      45.336  28.910  35.257  1.00  0.00     0.010 A 
ATOM     86  C   UNL A   1      43.782  27.613  36.591  1.00  0.00     0.010 A 
ATOM     87  C   UNL A   1      46.407  28.270  35.887  1.00  0.00     0.020 A 
ATOM     88  C   UNL A   1      44.850  26.992  37.242  1.00  0.00     0.020 A 
ATOM     89  C   UNL A   1      46.158  27.320  36.881  1.00  0.00     0.054 A 
BRANCH  89  90
ATOM     90  S   UNL A   1      47.565  26.556  37.735  1.00  0.00     0.124 S 
ATOM     91  O   UNL A   1      48.701  27.243  37.128  1.00  0.00    -0.237 OA
ATOM     92  O   UNL A   1      47.299  26.883  39.133  1.00  0.00    -0.237 OA
ATOM     93  O   UNL A   1      47.439  25.138  37.401  1.00  0.00    -0.744 OA
ENDBRANCH  89  90
ENDBRANCH  61  84
BRANCH  73  94
ATOM     94  C   UNL A   1      39.767  33.803  37.512  1.00  0.00    -0.014 A 
ATOM     95  C   UNL A   1      40.415  35.044  37.654  1.00  0.00     0.010 A 
ATOM     96  C   UNL A   1      38.936  33.343  38.551  1.00  0.00     0.010 A 
ATOM     97  C   UNL A   1      40.257  35.793  38.825  1.00  0.00     0.020 A 
ATOM     98  C   UNL A   1      38.752  34.103  39.708  1.00  0.00     0.020 A 
ATOM     99  C   UNL A   1      39.426  35.317  39.844  1.00  0.00     0.054 A 
BRANCH  99 100
ATOM    100  S   UNL A   1      39.206  36.330  41.333  1.00  0.00     0.124 S 
ATOM    101  O   UNL A   1      40.469  36.122  42.033  1.00  0.00    -0.237 OA
ATOM    102  O   UNL A   1      39.005  37.668  40.783  1.00  0.00    -0.237 OA
ATOM    103  O   UNL A   1      38.032  35.746  41.979  1.00  0.00    -0.744 OA
ENDBRANCH  99 100
ENDBRANCH  73  94
ENDBRANCH  47  48
ENDBRANCH  40  42
ENDBRANCH  39  40
ENDBRANCH  38  39
ENDBRANCH  37  38
ENDBRANCH  36  37
ENDBRANCH  35  36
ENDBRANCH  34  35
ENDBRANCH   1  34
TORSDOF 26
ENDMDL
MODEL 2
REMARK VINA RESULT:      -9.0      1.732      2.786
REMARK SMILES Cc1cc(C)c(NS(=O)(=O)c2cccc3cc(C)cnc23)c(C(=O)OCCOCCOCCOCCOC(=O)c2ccc(-c3c4nc(c(-c5ccc(S(=O)(=O)[O-])cc5)c5ccc([nH]5)c(-c5ccc(S(=O)(=O)[O-])cc5)c5nc(c(-c6ccc(S(=O)(=O)[O-])cc6)c6ccc3[nH]6)C=C5)C=C4)cc2)c1
REMARK SMILES IDX 31 1 30 2 29 3 28 4 27 5 26 6 25 7 23 8 24 9 22 10 1 11 2 12
REMARK SMILES IDX 3 13 100 14 4 15 5 16 6 17 7 18 8 20 9 21 10 22 11 23 12 24
REMARK SMILES IDX 21 25 13 26 15 27 20 28 14 29 16 30 19 31 17 32 18 33 32 34
REMARK SMILES IDX 33 35 34 36 35 37 36 38 37 39 38 40 39 41 40 42 41 43 99 44
REMARK SMILES IDX 42 45 98 46 43 47 44 48 45 49 92 50 46 51 97 52 91 53 93 54
REMARK SMILES IDX 47 55 96 56 90 57 89 58 48 60 78 61 59 62 77 63 60 64 63 65
REMARK SMILES IDX 76 66 94 67 61 68 62 69 75 71 95 72 64 73 49 74 50 75 58 76
REMARK SMILES IDX 51 77 57 78 52 79 53 80 54 81 55 82 56 83 79 84 80 85 88 86
REMARK SMILES IDX 81 87 87 88 82 89 83 90 84 91 85 92 86 93 65 94 66 95 74 96
REMARK SMILES IDX 67 97 73 98 68 99 69 100 70 101 71 102 72 103
REMARK H PARENT 7 19 93 59 63 70
REMARK Flexibility Score: inf
ROOT
ATOM      1  O   UNL A   1      36.286  22.302  25.836  1.00  0.00    -0.377 OA
ENDROOT
BRANCH   1   2
ATOM      2  C   UNL A   1      35.361  21.379  26.393  1.00  0.00     0.188 C 
BRANCH   2   3
ATOM      3  C   UNL A   1      33.855  21.721  26.381  1.00  0.00     0.188 C 
BRANCH   3   4
ATOM      4  O   UNL A   1      33.051  20.841  25.610  1.00  0.00    -0.376 OA
BRANCH   4   5
ATOM      5  C   UNL A   1      31.766  21.289  25.221  1.00  0.00     0.202 C 
BRANCH   5   6
ATOM      6  C   UNL A   1      30.998  22.114  26.257  1.00  0.00     0.261 C 
BRANCH   6   7
ATOM      7  O   UNL A   1      30.228  23.207  25.741  1.00  0.00    -0.460 OA
BRANCH   7   8
ATOM      8  C   UNL A   1      30.669  24.461  25.977  1.00  0.00     0.340 C 
ATOM      9  O   UNL A   1      30.178  25.267  26.749  1.00  0.00    -0.246 OA
BRANCH   8  10
ATOM     10  C   UNL A   1      31.908  24.709  25.200  1.00  0.00     0.084 A 
ATOM     11  C   UNL A   1      35.503  25.672  25.878  1.00  0.00     0.044 C 
ATOM     12  C   UNL A   1      34.294  25.088  25.211  1.00  0.00    -0.050 A 
ATOM     13  C   UNL A   1      34.337  24.541  23.925  1.00  0.00     0.009 A 
ATOM     14  C   UNL A   1      33.076  25.084  25.879  1.00  0.00     0.021 A 
ATOM     15  C   UNL A   1      33.157  24.165  23.244  1.00  0.00    -0.026 A 
ATOM     16  C   UNL A   1      33.273  23.296  22.029  1.00  0.00     0.046 C 
ATOM     17  C   UNL A   1      31.917  24.479  23.806  1.00  0.00     0.066 A 
BRANCH  17  18
ATOM     18  N   UNL A   1      30.882  25.181  23.071  1.00  0.00    -0.278 N 
ATOM     19  H   UNL A   1      30.013  24.719  23.076  1.00  0.00     0.180 HD
BRANCH  18  20
ATOM     20  S   UNL A   1      30.872  26.610  22.222  1.00  0.00     0.264 S 
ATOM     21  O   UNL A   1      31.077  26.255  20.830  1.00  0.00    -0.201 OA
ATOM     22  O   UNL A   1      29.642  27.280  22.603  1.00  0.00    -0.201 OA
BRANCH  20  23
ATOM     23  C   UNL A   1      32.178  27.725  22.659  1.00  0.00     0.114 A 
ATOM     24  C   UNL A   1      33.217  27.804  21.703  1.00  0.00     0.024 A 
ATOM     25  C   UNL A   1      32.321  28.234  23.945  1.00  0.00     0.091 A 
ATOM     26  C   UNL A   1      34.468  28.278  22.061  1.00  0.00     0.002 A 
ATOM     27  C   UNL A   1      33.639  28.600  24.319  1.00  0.00     0.002 A 
ATOM     28  N   UNL A   1      31.309  28.312  24.834  1.00  0.00    -0.255 NA
ATOM     29  C   UNL A   1      34.690  28.631  23.383  1.00  0.00     0.010 A 
ATOM     30  C   UNL A   1      33.907  28.836  25.671  1.00  0.00     0.015 A 
ATOM     31  C   UNL A   1      31.598  28.581  26.129  1.00  0.00     0.115 A 
ATOM     32  C   UNL A   1      32.883  28.765  26.611  1.00  0.00    -0.032 A 
ATOM     33  C   UNL A   1      33.184  28.804  28.075  1.00  0.00     0.046 C 
ENDBRANCH  20  23
ENDBRANCH  18  20
ENDBRANCH  17  18
ENDBRANCH   8  10
ENDBRANCH   7   8
ENDBRANCH   6   7
ENDBRANCH   5   6
ENDBRANCH   4   5
ENDBRANCH   3   4
ENDBRANCH   2   3
ENDBRANCH   1   2
BRANCH   1  34
ATOM     34  C   UNL A   1      37.562  21.843  25.393  1.00  0.00     0.188 C 
BRANCH  34  35
ATOM     35  C   UNL A   1      38.870  22.356  26.042  1.00  0.00     0.188 C 
BRANCH  35  36
ATOM     36  O   UNL A   1      39.546  21.402  26.843  1.00  0.00    -0.376 OA
BRANCH  36  37
ATOM     37  C   UNL A   1      40.882  21.677  27.217  1.00  0.00     0.202 C 
BRANCH  37  38
ATOM     38  C   UNL A   1      41.631  22.706  26.362  1.00  0.00     0.261 C 
BRANCH  38  39
ATOM     39  O   UNL A   1      42.534  23.572  27.066  1.00  0.00    -0.460 OA
BRANCH  39  40
ATOM     40  C   UNL A   1      42.749  24.803  26.544  1.00  0.00     0.338 C 
ATOM     41  O   UNL A   1      43.056  25.075  25.401  1.00  0.00    -0.246 OA
BRANCH  40  42
ATOM     42  C   UNL A   1      42.342  25.783  27.573  1.00  0.00     0.060 A 
ATOM     43  C   UNL A   1      43.061  26.979  27.708  1.00  0.00     0.016 A 
ATOM     44  C   UNL A   1      41.232  25.527  28.378  1.00  0.00     0.016 A 
ATOM     45  C   UNL A   1      42.685  27.912  28.675  1.00  0.00     0.010 A 
ATOM     46  C   UNL A   1      40.872  26.448  29.362  1.00  0.00     0.010 A 
ATOM     47  C   UNL A   1      41.618  27.627  29.536  1.00  0.00    -0.014 A 
BRANCH  47  48
ATOM     48  C   UNL A   1      41.416  28.444  30.755  1.00  0.00     0.031 A 
ATOM     49  C   UNL A   1      40.300  29.453  30.748  1.00  0.00     0.074 A 
ATOM     50  C   UNL A   1      42.195  28.297  31.841  1.00  0.00     0.049 A 
ATOM     51  N   UNL A   1      39.961  30.321  31.664  1.00  0.00    -0.248 NA
ATOM     52  C   UNL A   1      39.459  29.488  29.540  1.00  0.00     0.031 C 
ATOM     53  C   UNL A   1      43.276  27.323  31.984  1.00  0.00     0.029 A 
ATOM     54  N   UNL A   1      42.195  28.981  33.031  1.00  0.00    -0.354 N 
ATOM     55  C   UNL A   1      38.873  31.011  31.140  1.00  0.00     0.074 A 
ATOM     56  C   UNL A   1      38.631  30.484  29.816  1.00  0.00     0.031 C 
ATOM     57  C   UNL A   1      43.846  27.483  33.192  1.00  0.00     0.029 A 
ATOM     58  C   UNL A   1      43.193  28.591  33.890  1.00  0.00     0.049 A 
ATOM     59  H   UNL A   1      41.542  29.685  33.248  1.00  0.00     0.167 HD
ATOM     60  C   UNL A   1      38.137  31.993  31.713  1.00  0.00     0.031 A 
ATOM     61  C   UNL A   1      43.553  29.088  35.090  1.00  0.00     0.031 A 
ATOM     62  C   UNL A   1      38.400  32.532  33.020  1.00  0.00     0.049 A 
ATOM     63  C   UNL A   1      42.773  30.238  35.677  1.00  0.00     0.074 A 
ATOM     64  C   UNL A   1      37.712  33.524  33.695  1.00  0.00     0.029 A 
ATOM     65  N   UNL A   1      39.441  32.132  33.846  1.00  0.00    -0.354 N 
ATOM     66  N   UNL A   1      41.733  30.867  35.182  1.00  0.00    -0.248 NA
ATOM     67  C   UNL A   1      43.212  30.739  36.987  1.00  0.00     0.031 C 
ATOM     68  C   UNL A   1      38.375  33.769  34.902  1.00  0.00     0.029 A 
ATOM     69  C   UNL A   1      39.433  32.878  35.012  1.00  0.00     0.049 A 
ATOM     70  H   UNL A   1      40.089  31.422  33.634  1.00  0.00     0.167 HD
ATOM     71  C   UNL A   1      41.374  31.817  36.134  1.00  0.00     0.074 A 
ATOM     72  C   UNL A   1      42.303  31.671  37.237  1.00  0.00     0.031 C 
ATOM     73  C   UNL A   1      40.366  32.724  36.100  1.00  0.00     0.031 A 
BRANCH  60  74
ATOM     74  C   UNL A   1      37.009  32.571  30.901  1.00  0.00    -0.014 A 
ATOM     75  C   UNL A   1      37.219  33.645  30.017  1.00  0.00     0.010 A 
ATOM     76  C   UNL A   1      35.718  32.026  31.019  1.00  0.00     0.010 A 
ATOM     77  C   UNL A   1      36.151  34.194  29.302  1.00  0.00     0.020 A 
ATOM     78  C   UNL A   1      34.653  32.550  30.282  1.00  0.00     0.020 A 
ATOM     79  C   UNL A   1      34.872  33.644  29.444  1.00  0.00     0.054 A 
BRANCH  79  80
ATOM     80  S   UNL A   1      33.505  34.371  28.500  1.00  0.00     0.124 S 
ATOM     81  O   UNL A   1      33.010  33.218  27.751  1.00  0.00    -0.237 OA
ATOM     82  O   UNL A   1      32.618  34.865  29.550  1.00  0.00    -0.237 OA
ATOM     83  O   UNL A   1      34.150  35.405  27.694  1.00  0.00    -0.744 OA
ENDBRANCH  79  80
ENDBRANCH  60  74
BRANCH  61  84
ATOM     84  C   UNL A   1      44.725  28.512  35.808  1.00  0.00    -0.014 A 
ATOM     85  C   UNL A   1      44.564  27.448  36.714  1.00  0.00     0.010 A 
ATOM     86  C   UNL A   1      46.016  29.021  35.578  1.00  0.00     0.010 A 
ATOM     87  C   UNL A   1      45.671  26.909  37.377  1.00  0.00     0.020 A 
ATOM     88  C   UNL A   1      47.128  28.466  36.216  1.00  0.00     0.020 A 
ATOM     89  C   UNL A   1      46.947  27.416  37.118  1.00  0.00     0.054 A 
BRANCH  89  90
ATOM     90  S   UNL A   1      48.375  26.651  37.935  1.00  0.00     0.124 S 
ATOM     91  O   UNL A   1      47.743  25.888  39.006  1.00  0.00    -0.237 OA
ATOM     92  O   UNL A   1      48.968  25.862  36.857  1.00  0.00    -0.237 OA
ATOM     93  O   UNL A   1      49.175  27.796  38.369  1.00  0.00    -0.744 OA
ENDBRANCH  89  90
ENDBRANCH  61  84
BRANCH  73  94
ATOM     94  C   UNL A   1      40.181  33.610  37.306  1.00  0.00    -0.014 A 
ATOM     95  C   UNL A   1      39.429  33.189  38.418  1.00  0.00     0.010 A 
ATOM     96  C   UNL A   1      40.828  34.859  37.352  1.00  0.00     0.010 A 
ATOM     97  C   UNL A   1      39.302  34.016  39.539  1.00  0.00     0.020 A 
ATOM     98  C   UNL A   1      40.730  35.674  38.482  1.00  0.00     0.020 A 
ATOM     99  C   UNL A   1      39.954  35.253  39.564  1.00  0.00     0.054 A 
BRANCH  99 100
ATOM    100  S   UNL A   1      39.809  36.286  41.047  1.00  0.00     0.124 S 
ATOM    101  O   UNL A   1      40.877  35.760  41.892  1.00  0.00    -0.237 OA
ATOM    102  O   UNL A   1      40.027  37.632  40.523  1.00  0.00    -0.237 OA
ATOM    103  O   UNL A   1      38.453  36.022  41.523  1.00  0.00    -0.744 OA
ENDBRANCH  99 100
ENDBRANCH  73  94
ENDBRANCH  47  48
ENDBRANCH  40  42
ENDBRANCH  39  40
ENDBRANCH  38  39
ENDBRANCH  37  38
ENDBRANCH  36  37
ENDBRANCH  35  36
ENDBRANCH  34  35
ENDBRANCH   1  34
TORSDOF 26
ENDMDL
MODEL 3
REMARK VINA RESULT:      -8.8      5.746      8.338
REMARK SMILES Cc1cc(C)c(NS(=O)(=O)c2cccc3cc(C)cnc23)c(C(=O)OCCOCCOCCOCCOC(=O)c2ccc(-c3c4nc(c(-c5ccc(S(=O)(=O)[O-])cc5)c5ccc([nH]5)c(-c5ccc(S(=O)(=O)[O-])cc5)c5nc(c(-c6ccc(S(=O)(=O)[O-])cc6)c6ccc3[nH]6)C=C5)C=C4)cc2)c1
REMARK SMILES IDX 31 1 30 2 29 3 28 4 27 5 26 6 25 7 23 8 24 9 22 10 1 11 2 12
REMARK SMILES IDX 3 13 100 14 4 15 5 16 6 17 7 18 8 20 9 21 10 22 11 23 12 24
REMARK SMILES IDX 21 25 13 26 15 27 20 28 14 29 16 30 19 31 17 32 18 33 32 34
REMARK SMILES IDX 33 35 34 36 35 37 36 38 37 39 38 40 39 41 40 42 41 43 99 44
REMARK SMILES IDX 42 45 98 46 43 47 44 48 45 49 92 50 46 51 97 52 91 53 93 54
REMARK SMILES IDX 47 55 96 56 90 57 89 58 48 60 78 61 59 62 77 63 60 64 63 65
REMARK SMILES IDX 76 66 94 67 61 68 62 69 75 71 95 72 64 73 49 74 50 75 58 76
REMARK SMILES IDX 51 77 57 78 52 79 53 80 54 81 55 82 56 83 79 84 80 85 88 86
REMARK SMILES IDX 81 87 87 88 82 89 83 90 84 91 85 92 86 93 65 94 66 95 74 96
REMARK SMILES IDX 67 97 73 98 68 99 69 100 70 101 71 102 72 103
REMARK H PARENT 7 19 93 59 63 70
REMARK Flexibility Score: inf
ROOT
ATOM      1  O   UNL A   1      34.292  21.985  25.468  1.00  0.00    -0.377 OA
ENDROOT
BRANCH   1   2
ATOM      2  C   UNL A   1      33.150  21.952  24.623  1.00  0.00     0.188 C 
BRANCH   2   3
ATOM      3  C   UNL A   1      31.820  21.396  25.176  1.00  0.00     0.188 C 
BRANCH   3   4
ATOM      4  O   UNL A   1      31.250  22.156  26.230  1.00  0.00    -0.376 OA
BRANCH   4   5
ATOM      5  C   UNL A   1      31.589  23.527  26.316  1.00  0.00     0.202 C 
BRANCH   5   6
ATOM      6  C   UNL A   1      30.416  24.511  26.320  1.00  0.00     0.261 C 
BRANCH   6   7
ATOM      7  O   UNL A   1      29.816  24.774  25.044  1.00  0.00    -0.460 OA
BRANCH   7   8
ATOM      8  C   UNL A   1      30.028  25.982  24.481  1.00  0.00     0.340 C 
ATOM      9  O   UNL A   1      29.268  26.935  24.506  1.00  0.00    -0.246 OA
BRANCH   8  10
ATOM     10  C   UNL A   1      31.379  26.019  23.870  1.00  0.00     0.084 A 
ATOM     11  C   UNL A   1      33.451  23.917  21.505  1.00  0.00     0.044 C 
ATOM     12  C   UNL A   1      32.926  25.102  22.257  1.00  0.00    -0.050 A 
ATOM     13  C   UNL A   1      33.555  26.351  22.224  1.00  0.00     0.009 A 
ATOM     14  C   UNL A   1      31.774  24.975  23.023  1.00  0.00     0.021 A 
ATOM     15  C   UNL A   1      33.153  27.401  23.081  1.00  0.00    -0.026 A 
ATOM     16  C   UNL A   1      33.627  28.792  22.784  1.00  0.00     0.046 C 
ATOM     17  C   UNL A   1      32.209  27.143  24.077  1.00  0.00     0.066 A 
BRANCH  17  18
ATOM     18  N   UNL A   1      32.432  27.481  25.470  1.00  0.00    -0.278 N 
ATOM     19  H   UNL A   1      32.823  26.747  25.997  1.00  0.00     0.180 HD
BRANCH  18  20
ATOM     20  S   UNL A   1      32.157  28.862  26.355  1.00  0.00     0.264 S 
ATOM     21  O   UNL A   1      31.339  29.722  25.520  1.00  0.00    -0.201 OA
ATOM     22  O   UNL A   1      31.629  28.409  27.629  1.00  0.00    -0.201 OA
BRANCH  20  23
ATOM     23  C   UNL A   1      33.623  29.779  26.743  1.00  0.00     0.114 A 
ATOM     24  C   UNL A   1      34.773  28.981  26.937  1.00  0.00     0.024 A 
ATOM     25  C   UNL A   1      33.583  31.117  27.121  1.00  0.00     0.091 A 
ATOM     26  C   UNL A   1      35.862  29.473  27.638  1.00  0.00     0.002 A 
ATOM     27  C   UNL A   1      34.656  31.557  27.938  1.00  0.00     0.002 A 
ATOM     28  N   UNL A   1      32.564  31.949  26.820  1.00  0.00    -0.255 NA
ATOM     29  C   UNL A   1      35.782  30.748  28.178  1.00  0.00     0.010 A 
ATOM     30  C   UNL A   1      34.534  32.788  28.592  1.00  0.00     0.015 A 
ATOM     31  C   UNL A   1      32.496  33.149  27.443  1.00  0.00     0.115 A 
ATOM     32  C   UNL A   1      33.405  33.577  28.395  1.00  0.00    -0.032 A 
ATOM     33  C   UNL A   1      33.159  34.785  29.241  1.00  0.00     0.046 C 
ENDBRANCH  20  23
ENDBRANCH  18  20
ENDBRANCH  17  18
ENDBRANCH   8  10
ENDBRANCH   7   8
ENDBRANCH   6   7
ENDBRANCH   5   6
ENDBRANCH   4   5
ENDBRANCH   3   4
ENDBRANCH   2   3
ENDBRANCH   1   2
BRANCH   1  34
ATOM     34  C   UNL A   1      35.467  21.267  25.096  1.00  0.00     0.188 C 
BRANCH  34  35
ATOM     35  C   UNL A   1      36.767  22.006  24.694  1.00  0.00     0.188 C 
BRANCH  35  36
ATOM     36  O   UNL A   1      37.785  21.991  25.680  1.00  0.00    -0.376 OA
BRANCH  36  37
ATOM     37  C   UNL A   1      38.835  21.055  25.536  1.00  0.00     0.202 C 
BRANCH  37  38
ATOM     38  C   UNL A   1      40.084  21.296  26.391  1.00  0.00     0.261 C 
BRANCH  38  39
ATOM     39  O   UNL A   1      41.016  20.207  26.466  1.00  0.00    -0.460 OA
BRANCH  39  40
ATOM     40  C   UNL A   1      42.264  20.421  25.982  1.00  0.00     0.338 C 
ATOM     41  O   UNL A   1      42.888  19.713  25.218  1.00  0.00    -0.246 OA
BRANCH  40  42
ATOM     42  C   UNL A   1      42.657  21.785  26.395  1.00  0.00     0.060 A 
ATOM     43  C   UNL A   1      42.601  22.830  25.461  1.00  0.00     0.016 A 
ATOM     44  C   UNL A   1      43.049  22.029  27.711  1.00  0.00     0.016 A 
ATOM     45  C   UNL A   1      42.969  24.121  25.839  1.00  0.00     0.010 A 
ATOM     46  C   UNL A   1      43.442  23.314  28.082  1.00  0.00     0.010 A 
ATOM     47  C   UNL A   1      43.436  24.357  27.139  1.00  0.00    -0.014 A 
BRANCH  47  48
ATOM     48  C   UNL A   1      44.125  25.630  27.455  1.00  0.00     0.031 A 
ATOM     49  C   UNL A   1      43.356  26.675  28.218  1.00  0.00     0.074 A 
ATOM     50  C   UNL A   1      45.396  25.856  27.082  1.00  0.00     0.049 A 
ATOM     51  N   UNL A   1      43.716  27.883  28.562  1.00  0.00    -0.248 NA
ATOM     52  C   UNL A   1      41.996  26.304  28.644  1.00  0.00     0.031 C 
ATOM     53  C   UNL A   1      46.257  24.906  26.380  1.00  0.00     0.029 A 
ATOM     54  N   UNL A   1      46.180  26.973  27.238  1.00  0.00    -0.354 N 
ATOM     55  C   UNL A   1      42.625  28.420  29.236  1.00  0.00     0.074 A 
ATOM     56  C   UNL A   1      41.582  27.419  29.224  1.00  0.00     0.031 C 
ATOM     57  C   UNL A   1      47.449  25.486  26.154  1.00  0.00     0.029 A 
ATOM     58  C   UNL A   1      47.422  26.857  26.662  1.00  0.00     0.049 A 
ATOM     59  H   UNL A   1      45.881  27.779  27.717  1.00  0.00     0.167 HD
ATOM     60  C   UNL A   1      42.505  29.636  29.820  1.00  0.00     0.031 A 
ATOM     61  C   UNL A   1      48.413  27.763  26.538  1.00  0.00     0.031 A 
ATOM     62  C   UNL A   1      43.536  30.637  29.805  1.00  0.00     0.049 A 
ATOM     63  C   UNL A   1      48.228  29.142  27.121  1.00  0.00     0.074 A 
ATOM     64  C   UNL A   1      43.518  31.900  30.369  1.00  0.00     0.029 A 
ATOM     65  N   UNL A   1      44.768  30.494  29.183  1.00  0.00    -0.354 N 
ATOM     66  N   UNL A   1      47.201  29.631  27.776  1.00  0.00    -0.248 NA
ATOM     67  C   UNL A   1      49.340  30.089  26.956  1.00  0.00     0.031 C 
ATOM     68  C   UNL A   1      44.713  32.544  30.034  1.00  0.00     0.029 A 
ATOM     69  C   UNL A   1      45.507  31.657  29.323  1.00  0.00     0.049 A 
ATOM     70  H   UNL A   1      45.072  29.685  28.710  1.00  0.00     0.167 HD
ATOM     71  C   UNL A   1      47.555  30.930  28.127  1.00  0.00     0.074 A 
ATOM     72  C   UNL A   1      48.896  31.146  27.620  1.00  0.00     0.031 C 
ATOM     73  C   UNL A   1      46.839  31.858  28.809  1.00  0.00     0.031 A 
BRANCH  60  74
ATOM     74  C   UNL A   1      41.189  29.956  30.479  1.00  0.00    -0.014 A 
ATOM     75  C   UNL A   1      40.266  30.833  29.882  1.00  0.00     0.010 A 
ATOM     76  C   UNL A   1      40.869  29.363  31.713  1.00  0.00     0.010 A 
ATOM     77  C   UNL A   1      39.068  31.148  30.531  1.00  0.00     0.020 A 
ATOM     78  C   UNL A   1      39.659  29.651  32.350  1.00  0.00     0.020 A 
ATOM     79  C   UNL A   1      38.775  30.557  31.764  1.00  0.00     0.054 A 
BRANCH  79  80
ATOM     80  S   UNL A   1      37.212  30.979  32.580  1.00  0.00     0.124 S 
ATOM     81  O   UNL A   1      36.452  31.578  31.485  1.00  0.00    -0.237 OA
ATOM     82  O   UNL A   1      36.730  29.679  33.040  1.00  0.00    -0.237 OA
ATOM     83  O   UNL A   1      37.610  31.903  33.639  1.00  0.00    -0.744 OA
ENDBRANCH  79  80
ENDBRANCH  60  74
BRANCH  61  84
ATOM     84  C   UNL A   1      49.661  27.401  25.811  1.00  0.00    -0.014 A 
ATOM     85  C   UNL A   1      49.752  27.548  24.416  1.00  0.00     0.010 A 
ATOM     86  C   UNL A   1      50.777  26.915  26.519  1.00  0.00     0.010 A 
ATOM     87  C   UNL A   1      50.931  27.214  23.743  1.00  0.00     0.020 A 
ATOM     88  C   UNL A   1      51.966  26.607  25.854  1.00  0.00     0.020 A 
ATOM     89  C   UNL A   1      52.034  26.752  24.468  1.00  0.00     0.054 A 
BRANCH  89  90
ATOM     90  S   UNL A   1      53.576  26.394  23.581  1.00  0.00     0.124 S 
ATOM     91  O   UNL A   1      54.140  27.726  23.397  1.00  0.00    -0.237 OA
ATOM     92  O   UNL A   1      54.284  25.529  24.522  1.00  0.00    -0.237 OA
ATOM     93  O   UNL A   1      53.123  25.730  22.360  1.00  0.00    -0.744 OA
ENDBRANCH  89  90
ENDBRANCH  61  84
BRANCH  73  94
ATOM     94  C   UNL A   1      47.499  33.185  29.088  1.00  0.00    -0.014 A 
ATOM     95  C   UNL A   1      47.345  34.279  28.216  1.00  0.00     0.010 A 
ATOM     96  C   UNL A   1      48.231  33.357  30.278  1.00  0.00     0.010 A 
ATOM     97  C   UNL A   1      47.939  35.509  28.516  1.00  0.00     0.020 A 
ATOM     98  C   UNL A   1      48.798  34.593  30.596  1.00  0.00     0.020 A 
ATOM     99  C   UNL A   1      48.661  35.658  29.705  1.00  0.00     0.054 A 
BRANCH  99 100
ATOM    100  S   UNL A   1      49.383  37.277  30.089  1.00  0.00     0.124 S 
ATOM    101  O   UNL A   1      50.775  36.932  30.366  1.00  0.00    -0.237 OA
ATOM    102  O   UNL A   1      49.156  38.030  28.859  1.00  0.00    -0.237 OA
ATOM    103  O   UNL A   1      48.614  37.735  31.244  1.00  0.00    -0.744 OA
ENDBRANCH  99 100
ENDBRANCH  73  94
ENDBRANCH  47  48
ENDBRANCH  40  42
ENDBRANCH  39  40
ENDBRANCH  38  39
ENDBRANCH  37  38
ENDBRANCH  36  37
ENDBRANCH  35  36
ENDBRANCH  34  35
ENDBRANCH   1  34
TORSDOF 26
ENDMDL
