MODEL 1
REMARK VINA RESULT:      -9.8      0.000      0.000
REMARK SMILES C[C@@H]1CN(c2cc(C(=O)OCCOCCOCCOCCOC(=O)c3ccc(-c4c5nc(c(-c6ccc(S(=O)(=O)[O-])cc6)c6ccc([nH]6)c(-c6ccc(S(=O)(=O)[O-])cc6)c6nc(c(-c7ccc(S(=O)(=O)[O-])cc7)c7ccc4[nH]7)C=C6)C=C5)cc3)c(F)cc2F)S(=O)(=O)C1
REMARK SMILES IDX 17 1 16 2 15 3 14 4 13 5 12 6 11 7 10 8 8 9 9 10 7 11 5 12
REMARK SMILES IDX 6 13 88 14 87 15 89 16 85 17 86 18 4 19 1 20 2 21 3 22 93 23
REMARK SMILES IDX 90 24 91 25 92 26 18 27 19 28 20 29 21 30 22 31 23 32 24 33
REMARK SMILES IDX 25 34 26 35 84 36 27 37 83 38 28 39 29 40 30 41 77 42 31 43
REMARK SMILES IDX 82 44 76 45 78 46 32 47 81 48 75 49 74 50 33 52 63 53 44 54
REMARK SMILES IDX 62 55 45 56 48 57 61 58 79 59 46 60 47 61 60 63 80 64 49 65
REMARK SMILES IDX 34 66 35 67 43 68 36 69 42 70 37 71 38 72 39 73 40 74 41 75
REMARK SMILES IDX 64 76 65 77 73 78 66 79 72 80 67 81 68 82 69 83 70 84 71 85
REMARK SMILES IDX 50 86 51 87 59 88 52 89 58 90 53 91 54 92 55 93 56 94 57 95
REMARK H PARENT 78 51 48 62
REMARK Flexibility Score: inf
ROOT
ATOM      1  C   UNL A   1      34.855  29.844  27.275  1.00  0.00     0.188 C 
ENDROOT
BRANCH   1   2
ATOM      2  O   UNL A   1      34.224  28.587  27.034  1.00  0.00    -0.377 OA
BRANCH   2   3
ATOM      3  C   UNL A   1      33.066  28.512  26.219  1.00  0.00     0.188 C 
BRANCH   3   4
ATOM      4  C   UNL A   1      32.794  29.625  25.185  1.00  0.00     0.188 C 
BRANCH   4   5
ATOM      5  O   UNL A   1      33.517  29.480  23.980  1.00  0.00    -0.376 OA
BRANCH   5   6
ATOM      6  C   UNL A   1      32.933  28.806  22.881  1.00  0.00     0.202 C 
BRANCH   6   7
ATOM      7  C   UNL A   1      33.726  27.758  22.081  1.00  0.00     0.261 C 
BRANCH   7   8
ATOM      8  O   UNL A   1      33.389  26.388  22.318  1.00  0.00    -0.460 OA
BRANCH   8   9
ATOM      9  C   UNL A   1      32.150  25.982  21.975  1.00  0.00     0.341 C 
ATOM     10  O   UNL A   1      31.727  25.795  20.848  1.00  0.00    -0.246 OA
BRANCH   9  11
ATOM     11  C   UNL A   1      31.476  25.502  23.197  1.00  0.00     0.098 A 
ATOM     12  C   UNL A   1      31.464  23.897  25.009  1.00  0.00     0.088 A 
ATOM     13  C   UNL A   1      31.961  24.325  23.779  1.00  0.00     0.048 A 
ATOM     14  C   UNL A   1      30.463  24.642  25.647  1.00  0.00     0.150 A 
ATOM     15  C   UNL A   1      29.957  25.802  25.059  1.00  0.00     0.081 A 
ATOM     16  F   UNL A   1      29.985  24.254  26.839  1.00  0.00    -0.205 F 
ATOM     17  C   UNL A   1      30.472  26.230  23.836  1.00  0.00     0.140 A 
ATOM     18  F   UNL A   1      29.989  27.355  23.295  1.00  0.00    -0.206 F 
BRANCH  12  19
ATOM     19  N   UNL A   1      32.003  22.680  25.518  1.00  0.00    -0.267 N 
ATOM     20  C   UNL A   1      33.651  19.386  24.691  1.00  0.00     0.011 C 
ATOM     21  C   UNL A   1      33.033  20.515  25.497  1.00  0.00     0.023 C 
ATOM     22  C   UNL A   1      32.215  21.505  24.647  1.00  0.00     0.140 C 
ATOM     23  C   UNL A   1      34.082  21.366  26.207  1.00  0.00     0.165 C 
ATOM     24  S   UNL A   1      33.171  22.796  26.755  1.00  0.00     0.235 S 
ATOM     25  O   UNL A   1      33.991  23.975  26.579  1.00  0.00    -0.206 OA
ATOM     26  O   UNL A   1      32.518  22.486  28.004  1.00  0.00    -0.206 OA
ENDBRANCH  12  19
ENDBRANCH   9  11
ENDBRANCH   8   9
ENDBRANCH   7   8
ENDBRANCH   6   7
ENDBRANCH   5   6
ENDBRANCH   4   5
ENDBRANCH   3   4
ENDBRANCH   2   3
ENDBRANCH   1   2
BRANCH   1  27
ATOM     27  C   UNL A   1      34.121  30.995  28.005  1.00  0.00     0.188 C 
BRANCH  27  28
ATOM     28  O   UNL A   1      34.671  32.284  27.791  1.00  0.00    -0.376 OA
BRANCH  28  29
ATOM     29  C   UNL A   1      35.024  33.042  28.935  1.00  0.00     0.202 C 
BRANCH  29  30
ATOM     30  C   UNL A   1      36.520  33.307  29.149  1.00  0.00     0.261 C 
BRANCH  30  31
ATOM     31  O   UNL A   1      37.032  32.997  30.455  1.00  0.00    -0.460 OA
BRANCH  31  32
ATOM     32  C   UNL A   1      36.926  31.710  30.856  1.00  0.00     0.338 C 
ATOM     33  O   UNL A   1      35.971  31.192  31.405  1.00  0.00    -0.246 OA
BRANCH  32  34
ATOM     34  C   UNL A   1      38.097  30.972  30.338  1.00  0.00     0.060 A 
ATOM     35  C   UNL A   1      39.133  30.651  31.224  1.00  0.00     0.016 A 
ATOM     36  C   UNL A   1      38.174  30.605  28.993  1.00  0.00     0.016 A 
ATOM     37  C   UNL A   1      40.272  29.999  30.753  1.00  0.00     0.010 A 
ATOM     38  C   UNL A   1      39.325  29.965  28.520  1.00  0.00     0.010 A 
ATOM     39  C   UNL A   1      40.395  29.696  29.392  1.00  0.00    -0.014 A 
BRANCH  39  40
ATOM     40  C   UNL A   1      41.713  29.255  28.873  1.00  0.00     0.031 A 
ATOM     41  C   UNL A   1      42.833  30.259  28.791  1.00  0.00     0.074 A 
ATOM     42  C   UNL A   1      41.934  27.970  28.545  1.00  0.00     0.049 A 
ATOM     43  N   UNL A   1      44.081  30.082  28.441  1.00  0.00    -0.248 NA
ATOM     44  C   UNL A   1      42.499  31.647  29.150  1.00  0.00     0.031 C 
ATOM     45  C   UNL A   1      40.939  26.900  28.604  1.00  0.00     0.029 A 
ATOM     46  N   UNL A   1      43.074  27.347  28.102  1.00  0.00    -0.354 N 
ATOM     47  C   UNL A   1      44.680  31.334  28.530  1.00  0.00     0.074 A 
ATOM     48  C   UNL A   1      43.650  32.267  28.934  1.00  0.00     0.031 C 
ATOM     49  C   UNL A   1      41.513  25.750  28.214  1.00  0.00     0.029 A 
ATOM     50  C   UNL A   1      42.907  26.007  27.851  1.00  0.00     0.049 A 
ATOM     51  H   UNL A   1      43.930  27.816  27.976  1.00  0.00     0.167 HD
ATOM     52  C   UNL A   1      45.970  31.676  28.302  1.00  0.00     0.031 A 
ATOM     53  C   UNL A   1      43.774  25.092  27.373  1.00  0.00     0.031 A 
ATOM     54  C   UNL A   1      46.988  30.748  27.880  1.00  0.00     0.049 A 
ATOM     55  C   UNL A   1      45.194  25.503  27.086  1.00  0.00     0.074 A 
ATOM     56  C   UNL A   1      48.331  30.989  27.653  1.00  0.00     0.029 A 
ATOM     57  N   UNL A   1      46.771  29.406  27.604  1.00  0.00    -0.354 N 
ATOM     58  N   UNL A   1      45.758  26.680  27.224  1.00  0.00    -0.248 NA
ATOM     59  C   UNL A   1      46.100  24.455  26.596  1.00  0.00     0.031 C 
ATOM     60  C   UNL A   1      48.910  29.812  27.167  1.00  0.00     0.029 A 
ATOM     61  C   UNL A   1      47.948  28.816  27.171  1.00  0.00     0.049 A 
ATOM     62  H   UNL A   1      45.910  28.941  27.701  1.00  0.00     0.167 HD
ATOM     63  C   UNL A   1      47.091  26.509  26.860  1.00  0.00     0.074 A 
ATOM     64  C   UNL A   1      47.250  25.108  26.523  1.00  0.00     0.031 C 
ATOM     65  C   UNL A   1      48.092  27.425  26.811  1.00  0.00     0.031 A 
BRANCH  52  66
ATOM     66  C   UNL A   1      46.340  33.131  28.450  1.00  0.00    -0.014 A 
ATOM     67  C   UNL A   1      46.242  34.034  27.374  1.00  0.00     0.010 A 
ATOM     68  C   UNL A   1      46.775  33.609  29.701  1.00  0.00     0.010 A 
ATOM     69  C   UNL A   1      46.616  35.371  27.534  1.00  0.00     0.020 A 
ATOM     70  C   UNL A   1      47.119  34.952  29.873  1.00  0.00     0.020 A 
ATOM     71  C   UNL A   1      47.055  35.821  28.783  1.00  0.00     0.054 A 
BRANCH  71  72
ATOM     72  S   UNL A   1      47.525  37.563  28.967  1.00  0.00     0.124 S 
ATOM     73  O   UNL A   1      48.593  37.693  27.978  1.00  0.00    -0.237 OA
ATOM     74  O   UNL A   1      46.283  38.263  28.645  1.00  0.00    -0.237 OA
ATOM     75  O   UNL A   1      47.952  37.664  30.360  1.00  0.00    -0.744 OA
ENDBRANCH  71  72
ENDBRANCH  52  66
BRANCH  53  76
ATOM     76  C   UNL A   1      43.311  23.698  27.122  1.00  0.00    -0.014 A 
ATOM     77  C   UNL A   1      43.192  22.770  28.171  1.00  0.00     0.010 A 
ATOM     78  C   UNL A   1      42.968  23.300  25.816  1.00  0.00     0.010 A 
ATOM     79  C   UNL A   1      42.744  21.469  27.917  1.00  0.00     0.020 A 
ATOM     80  C   UNL A   1      42.490  22.012  25.564  1.00  0.00     0.020 A 
ATOM     81  C   UNL A   1      42.386  21.101  26.616  1.00  0.00     0.054 A 
BRANCH  81  82
ATOM     82  S   UNL A   1      41.734  19.434  26.326  1.00  0.00     0.124 S 
ATOM     83  O   UNL A   1      42.152  18.728  27.532  1.00  0.00    -0.237 OA
ATOM     84  O   UNL A   1      40.299  19.678  26.198  1.00  0.00    -0.237 OA
ATOM     85  O   UNL A   1      42.399  19.017  25.094  1.00  0.00    -0.744 OA
ENDBRANCH  81  82
ENDBRANCH  53  76
BRANCH  65  86
ATOM     86  C   UNL A   1      49.458  26.932  26.400  1.00  0.00    -0.014 A 
ATOM     87  C   UNL A   1      49.938  27.099  25.087  1.00  0.00     0.010 A 
ATOM     88  C   UNL A   1      50.278  26.292  27.347  1.00  0.00     0.010 A 
ATOM     89  C   UNL A   1      51.179  26.573  24.715  1.00  0.00     0.020 A 
ATOM     90  C   UNL A   1      51.536  25.800  26.989  1.00  0.00     0.020 A 
ATOM     91  C   UNL A   1      51.966  25.919  25.667  1.00  0.00     0.054 A 
BRANCH  91  92
ATOM     92  S   UNL A   1      53.565  25.231  25.157  1.00  0.00     0.124 S 
ATOM     93  O   UNL A   1      54.476  25.824  26.132  1.00  0.00    -0.237 OA
ATOM     94  O   UNL A   1      53.351  23.793  25.290  1.00  0.00    -0.237 OA
ATOM     95  O   UNL A   1      53.725  25.707  23.785  1.00  0.00    -0.744 OA
ENDBRANCH  91  92
ENDBRANCH  65  86
ENDBRANCH  39  40
ENDBRANCH  32  34
ENDBRANCH  31  32
ENDBRANCH  30  31
ENDBRANCH  29  30
ENDBRANCH  28  29
ENDBRANCH  27  28
ENDBRANCH   1  27
TORSDOF 24
ENDMDL
MODEL 2
REMARK VINA RESULT:      -9.7      1.362      2.134
REMARK SMILES C[C@@H]1CN(c2cc(C(=O)OCCOCCOCCOCCOC(=O)c3ccc(-c4c5nc(c(-c6ccc(S(=O)(=O)[O-])cc6)c6ccc([nH]6)c(-c6ccc(S(=O)(=O)[O-])cc6)c6nc(c(-c7ccc(S(=O)(=O)[O-])cc7)c7ccc4[nH]7)C=C6)C=C5)cc3)c(F)cc2F)S(=O)(=O)C1
REMARK SMILES IDX 17 1 16 2 15 3 14 4 13 5 12 6 11 7 10 8 8 9 9 10 7 11 5 12
REMARK SMILES IDX 6 13 88 14 87 15 89 16 85 17 86 18 4 19 1 20 2 21 3 22 93 23
REMARK SMILES IDX 90 24 91 25 92 26 18 27 19 28 20 29 21 30 22 31 23 32 24 33
REMARK SMILES IDX 25 34 26 35 84 36 27 37 83 38 28 39 29 40 30 41 77 42 31 43
REMARK SMILES IDX 82 44 76 45 78 46 32 47 81 48 75 49 74 50 33 52 63 53 44 54
REMARK SMILES IDX 62 55 45 56 48 57 61 58 79 59 46 60 47 61 60 63 80 64 49 65
REMARK SMILES IDX 34 66 35 67 43 68 36 69 42 70 37 71 38 72 39 73 40 74 41 75
REMARK SMILES IDX 64 76 65 77 73 78 66 79 72 80 67 81 68 82 69 83 70 84 71 85
REMARK SMILES IDX 50 86 51 87 59 88 52 89 58 90 53 91 54 92 55 93 56 94 57 95
REMARK H PARENT 78 51 48 62
REMARK Flexibility Score: inf
ROOT
ATOM      1  C   UNL A   1      35.713  32.302  28.001  1.00  0.00     0.188 C 
ENDROOT
BRANCH   1   2
ATOM      2  O   UNL A   1      34.781  31.241  27.800  1.00  0.00    -0.377 OA
BRANCH   2   3
ATOM      3  C   UNL A   1      35.228  29.896  27.745  1.00  0.00     0.188 C 
BRANCH   3   4
ATOM      4  C   UNL A   1      34.442  28.871  26.901  1.00  0.00     0.188 C 
BRANCH   4   5
ATOM      5  O   UNL A   1      33.244  28.429  27.503  1.00  0.00    -0.376 OA
BRANCH   5   6
ATOM      6  C   UNL A   1      32.034  29.123  27.268  1.00  0.00     0.202 C 
BRANCH   6   7
ATOM      7  C   UNL A   1      31.884  30.074  26.067  1.00  0.00     0.261 C 
BRANCH   7   8
ATOM      8  O   UNL A   1      31.257  29.532  24.901  1.00  0.00    -0.460 OA
BRANCH   8   9
ATOM      9  C   UNL A   1      32.042  28.890  24.012  1.00  0.00     0.341 C 
ATOM     10  O   UNL A   1      33.093  29.288  23.542  1.00  0.00    -0.246 OA
BRANCH   9  11
ATOM     11  C   UNL A   1      31.581  27.489  23.931  1.00  0.00     0.098 A 
ATOM     12  C   UNL A   1      32.022  25.175  24.481  1.00  0.00     0.088 A 
ATOM     13  C   UNL A   1      32.451  26.498  24.399  1.00  0.00     0.048 A 
ATOM     14  C   UNL A   1      30.723  24.842  24.075  1.00  0.00     0.150 A 
ATOM     15  C   UNL A   1      29.860  25.822  23.583  1.00  0.00     0.081 A 
ATOM     16  F   UNL A   1      30.288  23.576  24.163  1.00  0.00    -0.205 F 
ATOM     17  C   UNL A   1      30.294  27.146  23.518  1.00  0.00     0.140 A 
ATOM     18  F   UNL A   1      29.447  28.077  23.061  1.00  0.00    -0.206 F 
BRANCH  12  19
ATOM     19  N   UNL A   1      32.979  24.230  24.952  1.00  0.00    -0.267 N 
ATOM     20  C   UNL A   1      36.561  23.635  25.987  1.00  0.00     0.011 C 
ATOM     21  C   UNL A   1      35.097  23.373  25.681  1.00  0.00     0.023 C 
ATOM     22  C   UNL A   1      34.431  24.481  24.844  1.00  0.00     0.140 C 
ATOM     23  C   UNL A   1      34.249  23.261  26.946  1.00  0.00     0.165 C 
ATOM     24  S   UNL A   1      32.574  23.329  26.344  1.00  0.00     0.235 S 
ATOM     25  O   UNL A   1      31.776  24.122  27.255  1.00  0.00    -0.206 OA
ATOM     26  O   UNL A   1      32.176  22.011  25.912  1.00  0.00    -0.206 OA
ENDBRANCH  12  19
ENDBRANCH   9  11
ENDBRANCH   8   9
ENDBRANCH   7   8
ENDBRANCH   6   7
ENDBRANCH   5   6
ENDBRANCH   4   5
ENDBRANCH   3   4
ENDBRANCH   2   3
ENDBRANCH   1   2
BRANCH   1  27
ATOM     27  C   UNL A   1      35.488  33.387  29.081  1.00  0.00     0.188 C 
BRANCH  27  28
ATOM     28  O   UNL A   1      34.438  33.113  29.994  1.00  0.00    -0.376 OA
BRANCH  28  29
ATOM     29  C   UNL A   1      34.699  33.320  31.371  1.00  0.00     0.202 C 
BRANCH  29  30
ATOM     30  C   UNL A   1      35.403  32.177  32.116  1.00  0.00     0.261 C 
BRANCH  30  31
ATOM     31  O   UNL A   1      36.696  31.804  31.615  1.00  0.00    -0.460 OA
BRANCH  31  32
ATOM     32  C   UNL A   1      36.840  30.523  31.206  1.00  0.00     0.338 C 
ATOM     33  O   UNL A   1      35.960  29.688  31.097  1.00  0.00    -0.246 OA
BRANCH  32  34
ATOM     34  C   UNL A   1      38.224  30.352  30.719  1.00  0.00     0.060 A 
ATOM     35  C   UNL A   1      38.440  30.225  29.341  1.00  0.00     0.016 A 
ATOM     36  C   UNL A   1      39.298  30.315  31.612  1.00  0.00     0.016 A 
ATOM     37  C   UNL A   1      39.729  30.013  28.857  1.00  0.00     0.010 A 
ATOM     38  C   UNL A   1      40.589  30.086  31.124  1.00  0.00     0.010 A 
ATOM     39  C   UNL A   1      40.803  29.895  29.748  1.00  0.00    -0.014 A 
BRANCH  39  40
ATOM     40  C   UNL A   1      42.107  29.404  29.236  1.00  0.00     0.031 A 
ATOM     41  C   UNL A   1      43.280  30.348  29.219  1.00  0.00     0.074 A 
ATOM     42  C   UNL A   1      42.264  28.125  28.855  1.00  0.00     0.049 A 
ATOM     43  N   UNL A   1      44.524  30.117  28.885  1.00  0.00    -0.248 NA
ATOM     44  C   UNL A   1      43.016  31.735  29.632  1.00  0.00     0.031 C 
ATOM     45  C   UNL A   1      41.211  27.110  28.849  1.00  0.00     0.029 A 
ATOM     46  N   UNL A   1      43.378  27.459  28.407  1.00  0.00    -0.354 N 
ATOM     47  C   UNL A   1      45.188  31.329  29.041  1.00  0.00     0.074 A 
ATOM     48  C   UNL A   1      44.202  32.300  29.465  1.00  0.00     0.031 C 
ATOM     49  C   UNL A   1      41.731  25.947  28.419  1.00  0.00     0.029 A 
ATOM     50  C   UNL A   1      43.143  26.142  28.095  1.00  0.00     0.049 A 
ATOM     51  H   UNL A   1      44.261  27.885  28.319  1.00  0.00     0.167 HD
ATOM     52  C   UNL A   1      46.500  31.609  28.852  1.00  0.00     0.031 A 
ATOM     53  C   UNL A   1      43.969  25.202  27.594  1.00  0.00     0.031 A 
ATOM     54  C   UNL A   1      47.474  30.645  28.410  1.00  0.00     0.049 A 
ATOM     55  C   UNL A   1      45.416  25.546  27.352  1.00  0.00     0.074 A 
ATOM     56  C   UNL A   1      48.834  30.821  28.219  1.00  0.00     0.029 A 
ATOM     57  N   UNL A   1      47.191  29.330  28.070  1.00  0.00    -0.354 N 
ATOM     58  N   UNL A   1      46.040  26.683  27.552  1.00  0.00    -0.248 NA
ATOM     59  C   UNL A   1      46.273  24.472  26.834  1.00  0.00     0.031 C 
ATOM     60  C   UNL A   1      49.358  29.635  27.692  1.00  0.00     0.029 A 
ATOM     61  C   UNL A   1      48.343  28.694  27.634  1.00  0.00     0.049 A 
ATOM     62  H   UNL A   1      46.304  28.910  28.131  1.00  0.00     0.167 HD
ATOM     63  C   UNL A   1      47.368  26.454  27.206  1.00  0.00     0.074 A 
ATOM     64  C   UNL A   1      47.459  25.062  26.811  1.00  0.00     0.031 C 
ATOM     65  C   UNL A   1      48.418  27.315  27.216  1.00  0.00     0.031 A 
BRANCH  52  66
ATOM     66  C   UNL A   1      46.945  33.034  29.071  1.00  0.00    -0.014 A 
ATOM     67  C   UNL A   1      47.192  33.543  30.360  1.00  0.00     0.010 A 
ATOM     68  C   UNL A   1      47.140  33.874  27.959  1.00  0.00     0.010 A 
ATOM     69  C   UNL A   1      47.578  34.875  30.534  1.00  0.00     0.020 A 
ATOM     70  C   UNL A   1      47.557  35.197  28.127  1.00  0.00     0.020 A 
ATOM     71  C   UNL A   1      47.756  35.694  29.415  1.00  0.00     0.054 A 
BRANCH  71  72
ATOM     72  S   UNL A   1      48.267  37.416  29.668  1.00  0.00     0.124 S 
ATOM     73  O   UNL A   1      48.527  37.858  28.299  1.00  0.00    -0.237 OA
ATOM     74  O   UNL A   1      47.093  38.007  30.306  1.00  0.00    -0.237 OA
ATOM     75  O   UNL A   1      49.449  37.308  30.520  1.00  0.00    -0.744 OA
ENDBRANCH  71  72
ENDBRANCH  52  66
BRANCH  53  76
ATOM     76  C   UNL A   1      43.437  23.848  27.273  1.00  0.00    -0.014 A 
ATOM     77  C   UNL A   1      43.392  23.377  25.950  1.00  0.00     0.010 A 
ATOM     78  C   UNL A   1      42.984  23.011  28.311  1.00  0.00     0.010 A 
ATOM     79  C   UNL A   1      42.898  22.098  25.670  1.00  0.00     0.020 A 
ATOM     80  C   UNL A   1      42.521  21.722  28.039  1.00  0.00     0.020 A 
ATOM     81  C   UNL A   1      42.475  21.274  26.718  1.00  0.00     0.054 A 
BRANCH  81  82
ATOM     82  S   UNL A   1      41.914  19.592  26.338  1.00  0.00     0.124 S 
ATOM     83  O   UNL A   1      42.633  19.302  25.103  1.00  0.00    -0.237 OA
ATOM     84  O   UNL A   1      42.349  18.844  27.516  1.00  0.00    -0.237 OA
ATOM     85  O   UNL A   1      40.467  19.737  26.202  1.00  0.00    -0.744 OA
ENDBRANCH  81  82
ENDBRANCH  53  76
BRANCH  65  86
ATOM     86  C   UNL A   1      49.764  26.765  26.810  1.00  0.00    -0.014 A 
ATOM     87  C   UNL A   1      50.732  26.403  27.766  1.00  0.00     0.010 A 
ATOM     88  C   UNL A   1      50.065  26.605  25.445  1.00  0.00     0.010 A 
ATOM     89  C   UNL A   1      51.994  25.959  27.363  1.00  0.00     0.020 A 
ATOM     90  C   UNL A   1      51.312  26.124  25.038  1.00  0.00     0.020 A 
ATOM     91  C   UNL A   1      52.280  25.831  26.000  1.00  0.00     0.054 A 
BRANCH  91  92
ATOM     92  S   UNL A   1      53.931  25.271  25.501  1.00  0.00     0.124 S 
ATOM     93  O   UNL A   1      54.431  24.666  26.733  1.00  0.00    -0.237 OA
ATOM     94  O   UNL A   1      53.639  24.339  24.416  1.00  0.00    -0.237 OA
ATOM     95  O   UNL A   1      54.606  26.501  25.093  1.00  0.00    -0.744 OA
ENDBRANCH  91  92
ENDBRANCH  65  86
ENDBRANCH  39  40
ENDBRANCH  32  34
ENDBRANCH  31  32
ENDBRANCH  30  31
ENDBRANCH  29  30
ENDBRANCH  28  29
ENDBRANCH  27  28
ENDBRANCH   1  27
TORSDOF 24
ENDMDL
MODEL 3
REMARK VINA RESULT:      -9.7      1.524      2.047
REMARK SMILES C[C@@H]1CN(c2cc(C(=O)OCCOCCOCCOCCOC(=O)c3ccc(-c4c5nc(c(-c6ccc(S(=O)(=O)[O-])cc6)c6ccc([nH]6)c(-c6ccc(S(=O)(=O)[O-])cc6)c6nc(c(-c7ccc(S(=O)(=O)[O-])cc7)c7ccc4[nH]7)C=C6)C=C5)cc3)c(F)cc2F)S(=O)(=O)C1
REMARK SMILES IDX 17 1 16 2 15 3 14 4 13 5 12 6 11 7 10 8 8 9 9 10 7 11 5 12
REMARK SMILES IDX 6 13 88 14 87 15 89 16 85 17 86 18 4 19 1 20 2 21 3 22 93 23
REMARK SMILES IDX 90 24 91 25 92 26 18 27 19 28 20 29 21 30 22 31 23 32 24 33
REMARK SMILES IDX 25 34 26 35 84 36 27 37 83 38 28 39 29 40 30 41 77 42 31 43
REMARK SMILES IDX 82 44 76 45 78 46 32 47 81 48 75 49 74 50 33 52 63 53 44 54
REMARK SMILES IDX 62 55 45 56 48 57 61 58 79 59 46 60 47 61 60 63 80 64 49 65
REMARK SMILES IDX 34 66 35 67 43 68 36 69 42 70 37 71 38 72 39 73 40 74 41 75
REMARK SMILES IDX 64 76 65 77 73 78 66 79 72 80 67 81 68 82 69 83 70 84 71 85
REMARK SMILES IDX 50 86 51 87 59 88 52 89 58 90 53 91 54 92 55 93 56 94 57 95
REMARK H PARENT 78 51 48 62
REMARK Flexibility Score: inf
ROOT
ATOM      1  C   UNL A   1      34.849  31.473  28.115  1.00  0.00     0.188 C 
ENDROOT
BRANCH   1   2
ATOM      2  O   UNL A   1      34.301  30.161  28.007  1.00  0.00    -0.377 OA
BRANCH   2   3
ATOM      3  C   UNL A   1      33.960  29.629  26.737  1.00  0.00     0.188 C 
BRANCH   3   4
ATOM      4  C   UNL A   1      32.529  29.106  26.495  1.00  0.00     0.188 C 
BRANCH   4   5
ATOM      5  O   UNL A   1      32.355  28.463  25.250  1.00  0.00    -0.376 OA
BRANCH   5   6
ATOM      6  C   UNL A   1      31.262  28.810  24.420  1.00  0.00     0.202 C 
BRANCH   6   7
ATOM      7  C   UNL A   1      31.443  28.989  22.903  1.00  0.00     0.261 C 
BRANCH   7   8
ATOM      8  O   UNL A   1      31.799  27.818  22.162  1.00  0.00    -0.460 OA
BRANCH   8   9
ATOM      9  C   UNL A   1      33.111  27.538  22.031  1.00  0.00     0.341 C 
ATOM     10  O   UNL A   1      34.037  28.329  22.079  1.00  0.00    -0.246 OA
BRANCH   9  11
ATOM     11  C   UNL A   1      33.274  26.074  22.126  1.00  0.00     0.098 A 
ATOM     12  C   UNL A   1      33.793  24.179  23.538  1.00  0.00     0.088 A 
ATOM     13  C   UNL A   1      33.752  25.557  23.335  1.00  0.00     0.048 A 
ATOM     14  C   UNL A   1      33.371  23.316  22.518  1.00  0.00     0.150 A 
ATOM     15  C   UNL A   1      32.917  23.825  21.301  1.00  0.00     0.081 A 
ATOM     16  F   UNL A   1      33.388  21.988  22.702  1.00  0.00    -0.205 F 
ATOM     17  C   UNL A   1      32.866  25.206  21.113  1.00  0.00     0.140 A 
ATOM     18  F   UNL A   1      32.410  25.678  19.945  1.00  0.00    -0.206 F 
BRANCH  12  19
ATOM     19  N   UNL A   1      34.311  23.742  24.792  1.00  0.00    -0.267 N 
ATOM     20  C   UNL A   1      33.756  21.590  27.844  1.00  0.00     0.011 C 
ATOM     21  C   UNL A   1      34.408  22.565  26.879  1.00  0.00     0.023 C 
ATOM     22  C   UNL A   1      33.444  23.116  25.811  1.00  0.00     0.140 C 
ATOM     23  C   UNL A   1      35.554  21.929  26.096  1.00  0.00     0.165 C 
ATOM     24  S   UNL A   1      35.898  23.113  24.809  1.00  0.00     0.235 S 
ATOM     25  O   UNL A   1      36.183  22.405  23.579  1.00  0.00    -0.206 OA
ATOM     26  O   UNL A   1      36.769  24.137  25.333  1.00  0.00    -0.206 OA
ENDBRANCH  12  19
ENDBRANCH   9  11
ENDBRANCH   8   9
ENDBRANCH   7   8
ENDBRANCH   6   7
ENDBRANCH   5   6
ENDBRANCH   4   5
ENDBRANCH   3   4
ENDBRANCH   2   3
ENDBRANCH   1   2
BRANCH   1  27
ATOM     27  C   UNL A   1      33.961  32.736  27.999  1.00  0.00     0.188 C 
BRANCH  27  28
ATOM     28  O   UNL A   1      34.081  33.652  29.075  1.00  0.00    -0.376 OA
BRANCH  28  29
ATOM     29  C   UNL A   1      35.385  34.074  29.432  1.00  0.00     0.202 C 
BRANCH  29  30
ATOM     30  C   UNL A   1      35.839  33.766  30.865  1.00  0.00     0.261 C 
BRANCH  30  31
ATOM     31  O   UNL A   1      37.078  33.051  30.991  1.00  0.00    -0.460 OA
BRANCH  31  32
ATOM     32  C   UNL A   1      36.991  31.748  31.345  1.00  0.00     0.338 C 
ATOM     33  O   UNL A   1      36.069  31.210  31.928  1.00  0.00    -0.246 OA
BRANCH  32  34
ATOM     34  C   UNL A   1      38.127  31.032  30.729  1.00  0.00     0.060 A 
ATOM     35  C   UNL A   1      39.090  30.454  31.565  1.00  0.00     0.016 A 
ATOM     36  C   UNL A   1      38.242  30.933  29.340  1.00  0.00     0.016 A 
ATOM     37  C   UNL A   1      40.197  29.815  31.011  1.00  0.00     0.010 A 
ATOM     38  C   UNL A   1      39.363  30.305  28.786  1.00  0.00     0.010 A 
ATOM     39  C   UNL A   1      40.364  29.778  29.621  1.00  0.00    -0.014 A 
BRANCH  39  40
ATOM     40  C   UNL A   1      41.669  29.338  29.068  1.00  0.00     0.031 A 
ATOM     41  C   UNL A   1      42.795  30.335  28.988  1.00  0.00     0.074 A 
ATOM     42  C   UNL A   1      41.873  28.060  28.706  1.00  0.00     0.049 A 
ATOM     43  N   UNL A   1      44.036  30.156  28.612  1.00  0.00    -0.248 NA
ATOM     44  C   UNL A   1      42.481  31.717  29.386  1.00  0.00     0.031 C 
ATOM     45  C   UNL A   1      40.869  26.997  28.759  1.00  0.00     0.029 A 
ATOM     46  N   UNL A   1      42.999  27.437  28.228  1.00  0.00    -0.354 N 
ATOM     47  C   UNL A   1      44.647  31.400  28.719  1.00  0.00     0.074 A 
ATOM     48  C   UNL A   1      43.633  32.332  29.163  1.00  0.00     0.031 C 
ATOM     49  C   UNL A   1      41.427  25.851  28.332  1.00  0.00     0.029 A 
ATOM     50  C   UNL A   1      42.815  26.105  27.950  1.00  0.00     0.049 A 
ATOM     51  H   UNL A   1      43.857  27.903  28.098  1.00  0.00     0.167 HD
ATOM     52  C   UNL A   1      45.936  31.737  28.475  1.00  0.00     0.031 A 
ATOM     53  C   UNL A   1      43.666  25.194  27.435  1.00  0.00     0.031 A 
ATOM     54  C   UNL A   1      46.937  30.810  28.014  1.00  0.00     0.049 A 
ATOM     55  C   UNL A   1      45.084  25.600  27.131  1.00  0.00     0.074 A 
ATOM     56  C   UNL A   1      48.279  31.046  27.767  1.00  0.00     0.029 A 
ATOM     57  N   UNL A   1      46.705  29.477  27.710  1.00  0.00    -0.354 N 
ATOM     58  N   UNL A   1      45.661  26.769  27.286  1.00  0.00    -0.248 NA
ATOM     59  C   UNL A   1      45.971  24.557  26.601  1.00  0.00     0.031 C 
ATOM     60  C   UNL A   1      48.839  29.875  27.244  1.00  0.00     0.029 A 
ATOM     61  C   UNL A   1      47.868  28.887  27.242  1.00  0.00     0.049 A 
ATOM     62  H   UNL A   1      45.841  29.017  27.813  1.00  0.00     0.167 HD
ATOM     63  C   UNL A   1      46.985  26.595  26.894  1.00  0.00     0.074 A 
ATOM     64  C   UNL A   1      47.126  25.201  26.522  1.00  0.00     0.031 C 
ATOM     65  C   UNL A   1      47.993  27.504  26.847  1.00  0.00     0.031 A 
BRANCH  52  66
ATOM     66  C   UNL A   1      46.321  33.185  28.650  1.00  0.00    -0.014 A 
ATOM     67  C   UNL A   1      46.808  33.679  29.875  1.00  0.00     0.010 A 
ATOM     68  C   UNL A   1      46.212  34.065  27.557  1.00  0.00     0.010 A 
ATOM     69  C   UNL A   1      47.132  35.031  30.015  1.00  0.00     0.020 A 
ATOM     70  C   UNL A   1      46.566  35.410  27.684  1.00  0.00     0.020 A 
ATOM     71  C   UNL A   1      47.006  35.889  28.918  1.00  0.00     0.054 A 
BRANCH  71  72
ATOM     72  S   UNL A   1      47.443  37.638  29.124  1.00  0.00     0.124 S 
ATOM     73  O   UNL A   1      47.863  37.681  30.523  1.00  0.00    -0.237 OA
ATOM     74  O   UNL A   1      48.511  37.817  28.143  1.00  0.00    -0.237 OA
ATOM     75  O   UNL A   1      46.201  38.345  28.825  1.00  0.00    -0.744 OA
ENDBRANCH  71  72
ENDBRANCH  52  66
BRANCH  53  76
ATOM     76  C   UNL A   1      43.186  23.811  27.160  1.00  0.00    -0.014 A 
ATOM     77  C   UNL A   1      42.901  23.384  25.852  1.00  0.00     0.010 A 
ATOM     78  C   UNL A   1      43.029  22.902  28.224  1.00  0.00     0.010 A 
ATOM     79  C   UNL A   1      42.462  22.078  25.613  1.00  0.00     0.020 A 
ATOM     80  C   UNL A   1      42.623  21.587  27.986  1.00  0.00     0.020 A 
ATOM     81  C   UNL A   1      42.335  21.184  26.681  1.00  0.00     0.054 A 
BRANCH  81  82
ATOM     82  S   UNL A   1      41.841  19.473  26.337  1.00  0.00     0.124 S 
ATOM     83  O   UNL A   1      42.582  19.181  25.115  1.00  0.00    -0.237 OA
ATOM     84  O   UNL A   1      42.293  18.770  27.536  1.00  0.00    -0.237 OA
ATOM     85  O   UNL A   1      40.391  19.559  26.186  1.00  0.00    -0.744 OA
ENDBRANCH  81  82
ENDBRANCH  53  76
BRANCH  65  86
ATOM     86  C   UNL A   1      49.347  27.009  26.400  1.00  0.00    -0.014 A 
ATOM     87  C   UNL A   1      49.771  27.129  25.063  1.00  0.00     0.010 A 
ATOM     88  C   UNL A   1      50.212  26.416  27.337  1.00  0.00     0.010 A 
ATOM     89  C   UNL A   1      51.002  26.602  24.661  1.00  0.00     0.020 A 
ATOM     90  C   UNL A   1      51.461  25.923  26.947  1.00  0.00     0.020 A 
ATOM     91  C   UNL A   1      51.835  25.994  25.605  1.00  0.00     0.054 A 
BRANCH  91  92
ATOM     92  S   UNL A   1      53.420  25.303  25.056  1.00  0.00     0.124 S 
ATOM     93  O   UNL A   1      53.255  23.885  25.367  1.00  0.00    -0.237 OA
ATOM     94  O   UNL A   1      53.440  25.637  23.635  1.00  0.00    -0.237 OA
ATOM     95  O   UNL A   1      54.407  26.008  25.870  1.00  0.00    -0.744 OA
ENDBRANCH  91  92
ENDBRANCH  65  86
ENDBRANCH  39  40
ENDBRANCH  32  34
ENDBRANCH  31  32
ENDBRANCH  30  31
ENDBRANCH  29  30
ENDBRANCH  28  29
ENDBRANCH  27  28
ENDBRANCH   1  27
TORSDOF 24
ENDMDL
