MODEL 1
REMARK VINA RESULT:      -9.0      0.000      0.000
REMARK SMILES Cc1cnc(C)c(N2CCC[C@@](CC3CC3)(C(=O)OCCOCCOCCOCCOC(=O)c3ccc(-c4c5nc(c(-c6ccc(S(=O)(=O)[O-])cc6)c6ccc([nH]6)c(-c6ccc(S(=O)(=O)[O-])cc6)c6nc(c(-c7ccc(S(=O)(=O)[O-])cc7)c7ccc4[nH]7)C=C6)C=C5)cc3)C2)n1
REMARK SMILES IDX 26 1 25 2 24 3 23 4 22 5 21 6 20 7 19 8 17 9 18 10 12 11
REMARK SMILES IDX 8 12 9 13 94 14 10 15 11 16 7 17 1 18 2 19 3 20 95 21 4 22
REMARK SMILES IDX 5 23 6 24 13 25 14 26 15 27 16 28 27 29 28 30 29 31 30 32
REMARK SMILES IDX 31 33 32 34 33 35 34 36 35 37 93 38 36 39 92 40 37 41 38 42
REMARK SMILES IDX 39 43 86 44 40 45 91 46 85 47 87 48 41 49 90 50 84 51 83 52
REMARK SMILES IDX 42 54 72 55 53 56 71 57 54 58 57 59 70 60 88 61 55 62 56 63
REMARK SMILES IDX 69 65 89 66 58 67 43 68 44 69 52 70 45 71 51 72 46 73 47 74
REMARK SMILES IDX 48 75 49 76 50 77 73 78 74 79 82 80 75 81 81 82 76 83 77 84
REMARK SMILES IDX 78 85 79 86 80 87 59 88 60 89 68 90 61 91 67 92 62 93 63 94
REMARK SMILES IDX 64 95 65 96 66 97
REMARK H PARENT 87 53 57 64
REMARK Flexibility Score: inf
ROOT
ATOM      1  C   UNL A   1      33.193  35.645  30.392  1.00  0.00     0.188 C 
ENDROOT
BRANCH   1   2
ATOM      2  O   UNL A   1      33.413  35.896  29.009  1.00  0.00    -0.377 OA
BRANCH   2   3
ATOM      3  C   UNL A   1      33.960  34.891  28.179  1.00  0.00     0.188 C 
BRANCH   3   4
ATOM      4  C   UNL A   1      33.153  33.609  27.935  1.00  0.00     0.188 C 
BRANCH   4   5
ATOM      5  O   UNL A   1      33.838  32.391  27.768  1.00  0.00    -0.376 OA
BRANCH   5   6
ATOM      6  C   UNL A   1      33.158  31.187  27.447  1.00  0.00     0.202 C 
BRANCH   6   7
ATOM      7  C   UNL A   1      33.731  30.022  26.625  1.00  0.00     0.261 C 
BRANCH   7   8
ATOM      8  O   UNL A   1      32.804  29.162  25.942  1.00  0.00    -0.463 OA
BRANCH   8   9
ATOM      9  C   UNL A   1      33.214  27.881  25.831  1.00  0.00     0.313 C 
ATOM     10  O   UNL A   1      34.157  27.439  26.490  1.00  0.00    -0.252 OA
BRANCH   9  11
ATOM     11  C   UNL A   1      32.474  26.999  24.814  1.00  0.00     0.086 C 
ATOM     12  N   UNL A   1      30.824  27.515  23.026  1.00  0.00    -0.354 N 
ATOM     13  C   UNL A   1      31.512  26.843  21.943  1.00  0.00     0.118 C 
ATOM     14  C   UNL A   1      31.662  28.098  24.058  1.00  0.00     0.137 C 
ATOM     15  C   UNL A   1      32.290  25.684  22.567  1.00  0.00     0.023 C 
ATOM     16  C   UNL A   1      33.199  26.135  23.734  1.00  0.00     0.022 C 
BRANCH  12  17
ATOM     17  C   UNL A   1      29.676  28.242  22.745  1.00  0.00     0.150 A 
ATOM     18  C   UNL A   1      28.767  31.594  21.515  1.00  0.00     0.068 C 
ATOM     19  C   UNL A   1      28.670  30.221  22.105  1.00  0.00     0.058 A 
ATOM     20  C   UNL A   1      27.457  29.763  22.601  1.00  0.00     0.135 A 
ATOM     21  N   UNL A   1      29.794  29.464  22.168  1.00  0.00    -0.233 NA
ATOM     22  N   UNL A   1      27.302  28.542  23.150  1.00  0.00    -0.256 NA
ATOM     23  C   UNL A   1      28.431  27.786  23.218  1.00  0.00     0.080 A 
ATOM     24  C   UNL A   1      28.314  26.493  23.972  1.00  0.00     0.071 C 
ENDBRANCH  12  17
BRANCH  11  25
ATOM     25  C   UNL A   1      31.549  26.105  25.677  1.00  0.00     0.024 C 
BRANCH  25  26
ATOM     26  C   UNL A   1      31.820  24.613  25.719  1.00  0.00    -0.010 C 
ATOM     27  C   UNL A   1      31.939  23.728  26.946  1.00  0.00     0.004 C 
ATOM     28  C   UNL A   1      30.718  23.641  26.084  1.00  0.00     0.004 C 
ENDBRANCH  25  26
ENDBRANCH  11  25
ENDBRANCH   9  11
ENDBRANCH   8   9
ENDBRANCH   7   8
ENDBRANCH   6   7
ENDBRANCH   5   6
ENDBRANCH   4   5
ENDBRANCH   3   4
ENDBRANCH   2   3
ENDBRANCH   1   2
BRANCH   1  29
ATOM     29  C   UNL A   1      34.245  34.891  31.226  1.00  0.00     0.188 C 
BRANCH  29  30
ATOM     30  O   UNL A   1      33.723  33.893  32.083  1.00  0.00    -0.376 OA
BRANCH  30  31
ATOM     31  C   UNL A   1      34.521  32.756  32.371  1.00  0.00     0.202 C 
BRANCH  31  32
ATOM     32  C   UNL A   1      35.496  32.249  31.295  1.00  0.00     0.261 C 
BRANCH  32  33
ATOM     33  O   UNL A   1      36.552  31.379  31.733  1.00  0.00    -0.460 OA
BRANCH  33  34
ATOM     34  C   UNL A   1      37.706  31.935  32.165  1.00  0.00     0.338 C 
ATOM     35  O   UNL A   1      37.858  32.679  33.110  1.00  0.00    -0.246 OA
BRANCH  34  36
ATOM     36  C   UNL A   1      38.807  31.317  31.394  1.00  0.00     0.060 A 
ATOM     37  C   UNL A   1      39.636  30.379  32.024  1.00  0.00     0.016 A 
ATOM     38  C   UNL A   1      39.019  31.671  30.061  1.00  0.00     0.016 A 
ATOM     39  C   UNL A   1      40.705  29.816  31.329  1.00  0.00     0.010 A 
ATOM     40  C   UNL A   1      40.105  31.125  29.374  1.00  0.00     0.010 A 
ATOM     41  C   UNL A   1      40.973  30.222  30.016  1.00  0.00    -0.014 A 
BRANCH  41  42
ATOM     42  C   UNL A   1      42.263  29.861  29.382  1.00  0.00     0.031 A 
ATOM     43  C   UNL A   1      42.428  28.465  28.846  1.00  0.00     0.074 A 
ATOM     44  C   UNL A   1      43.264  30.751  29.274  1.00  0.00     0.049 A 
ATOM     45  N   UNL A   1      43.478  27.902  28.309  1.00  0.00    -0.248 NA
ATOM     46  C   UNL A   1      41.249  27.588  28.937  1.00  0.00     0.031 C 
ATOM     47  C   UNL A   1      43.210  32.143  29.716  1.00  0.00     0.029 A 
ATOM     48  N   UNL A   1      44.532  30.604  28.770  1.00  0.00    -0.354 N 
ATOM     49  C   UNL A   1      43.091  26.600  28.008  1.00  0.00     0.074 A 
ATOM     50  C   UNL A   1      41.723  26.450  28.454  1.00  0.00     0.031 C 
ATOM     51  C   UNL A   1      44.402  32.718  29.484  1.00  0.00     0.029 A 
ATOM     52  C   UNL A   1      45.313  31.725  28.915  1.00  0.00     0.049 A 
ATOM     53  H   UNL A   1      44.851  29.776  28.345  1.00  0.00     0.167 HD
ATOM     54  C   UNL A   1      43.809  25.618  27.412  1.00  0.00     0.031 A 
ATOM     55  C   UNL A   1      46.621  31.918  28.652  1.00  0.00     0.031 A 
ATOM     56  C   UNL A   1      45.180  25.765  27.000  1.00  0.00     0.049 A 
ATOM     57  C   UNL A   1      47.430  30.791  28.062  1.00  0.00     0.074 A 
ATOM     58  C   UNL A   1      45.996  24.838  26.377  1.00  0.00     0.029 A 
ATOM     59  N   UNL A   1      45.944  26.909  27.186  1.00  0.00    -0.354 N 
ATOM     60  N   UNL A   1      47.045  29.575  27.752  1.00  0.00    -0.248 NA
ATOM     61  C   UNL A   1      48.845  31.065  27.779  1.00  0.00     0.031 C 
ATOM     62  C   UNL A   1      47.272  25.396  26.251  1.00  0.00     0.029 A 
ATOM     63  C   UNL A   1      47.233  26.698  26.724  1.00  0.00     0.049 A 
ATOM     64  H   UNL A   1      45.618  27.747  27.588  1.00  0.00     0.167 HD
ATOM     65  C   UNL A   1      48.165  28.945  27.218  1.00  0.00     0.074 A 
ATOM     66  C   UNL A   1      49.237  29.921  27.232  1.00  0.00     0.031 C 
ATOM     67  C   UNL A   1      48.295  27.676  26.755  1.00  0.00     0.031 A 
BRANCH  54  68
ATOM     68  C   UNL A   1      43.131  24.284  27.228  1.00  0.00    -0.014 A 
ATOM     69  C   UNL A   1      42.255  24.047  26.153  1.00  0.00     0.010 A 
ATOM     70  C   UNL A   1      43.372  23.251  28.152  1.00  0.00     0.010 A 
ATOM     71  C   UNL A   1      41.584  22.826  26.043  1.00  0.00     0.020 A 
ATOM     72  C   UNL A   1      42.731  22.016  28.025  1.00  0.00     0.020 A 
ATOM     73  C   UNL A   1      41.821  21.820  26.984  1.00  0.00     0.054 A 
BRANCH  73  74
ATOM     74  S   UNL A   1      40.926  20.251  26.826  1.00  0.00     0.124 S 
ATOM     75  O   UNL A   1      40.637  19.928  28.221  1.00  0.00    -0.237 OA
ATOM     76  O   UNL A   1      39.769  20.624  26.016  1.00  0.00    -0.237 OA
ATOM     77  O   UNL A   1      41.885  19.368  26.169  1.00  0.00    -0.744 OA
ENDBRANCH  73  74
ENDBRANCH  54  68
BRANCH  55  78
ATOM     78  C   UNL A   1      47.249  33.226  28.984  1.00  0.00    -0.014 A 
ATOM     79  C   UNL A   1      47.255  34.284  28.059  1.00  0.00     0.010 A 
ATOM     80  C   UNL A   1      47.814  33.429  30.258  1.00  0.00     0.010 A 
ATOM     81  C   UNL A   1      47.810  35.521  28.403  1.00  0.00     0.020 A 
ATOM     82  C   UNL A   1      48.344  34.672  30.615  1.00  0.00     0.020 A 
ATOM     83  C   UNL A   1      48.340  35.711  29.683  1.00  0.00     0.054 A 
BRANCH  83  84
ATOM     84  S   UNL A   1      48.969  37.351  30.137  1.00  0.00     0.124 S 
ATOM     85  O   UNL A   1      50.349  37.057  30.510  1.00  0.00    -0.237 OA
ATOM     86  O   UNL A   1      48.794  38.106  28.898  1.00  0.00    -0.237 OA
ATOM     87  O   UNL A   1      48.096  37.760  31.235  1.00  0.00    -0.744 OA
ENDBRANCH  83  84
ENDBRANCH  55  78
BRANCH  67  88
ATOM     88  C   UNL A   1      49.635  27.267  26.200  1.00  0.00    -0.014 A 
ATOM     89  C   UNL A   1      49.923  27.367  24.827  1.00  0.00     0.010 A 
ATOM     90  C   UNL A   1      50.647  26.836  27.079  1.00  0.00     0.010 A 
ATOM     91  C   UNL A   1      51.185  27.016  24.340  1.00  0.00     0.020 A 
ATOM     92  C   UNL A   1      51.922  26.516  26.601  1.00  0.00     0.020 A 
ATOM     93  C   UNL A   1      52.178  26.596  25.232  1.00  0.00     0.054 A 
BRANCH  93  94
ATOM     94  S   UNL A   1      53.823  26.194  24.580  1.00  0.00     0.124 S 
ATOM     95  O   UNL A   1      54.607  27.355  24.994  1.00  0.00    -0.237 OA
ATOM     96  O   UNL A   1      54.141  24.944  25.266  1.00  0.00    -0.237 OA
ATOM     97  O   UNL A   1      53.606  26.071  23.141  1.00  0.00    -0.744 OA
ENDBRANCH  93  94
ENDBRANCH  67  88
ENDBRANCH  41  42
ENDBRANCH  34  36
ENDBRANCH  33  34
ENDBRANCH  32  33
ENDBRANCH  31  32
ENDBRANCH  30  31
ENDBRANCH  29  30
ENDBRANCH   1  29
TORSDOF 26
ENDMDL
MODEL 2
REMARK VINA RESULT:      -8.2      1.511      1.970
REMARK SMILES Cc1cnc(C)c(N2CCC[C@@](CC3CC3)(C(=O)OCCOCCOCCOCCOC(=O)c3ccc(-c4c5nc(c(-c6ccc(S(=O)(=O)[O-])cc6)c6ccc([nH]6)c(-c6ccc(S(=O)(=O)[O-])cc6)c6nc(c(-c7ccc(S(=O)(=O)[O-])cc7)c7ccc4[nH]7)C=C6)C=C5)cc3)C2)n1
REMARK SMILES IDX 26 1 25 2 24 3 23 4 22 5 21 6 20 7 19 8 17 9 18 10 12 11
REMARK SMILES IDX 8 12 9 13 94 14 10 15 11 16 7 17 1 18 2 19 3 20 95 21 4 22
REMARK SMILES IDX 5 23 6 24 13 25 14 26 15 27 16 28 27 29 28 30 29 31 30 32
REMARK SMILES IDX 31 33 32 34 33 35 34 36 35 37 93 38 36 39 92 40 37 41 38 42
REMARK SMILES IDX 39 43 86 44 40 45 91 46 85 47 87 48 41 49 90 50 84 51 83 52
REMARK SMILES IDX 42 54 72 55 53 56 71 57 54 58 57 59 70 60 88 61 55 62 56 63
REMARK SMILES IDX 69 65 89 66 58 67 43 68 44 69 52 70 45 71 51 72 46 73 47 74
REMARK SMILES IDX 48 75 49 76 50 77 73 78 74 79 82 80 75 81 81 82 76 83 77 84
REMARK SMILES IDX 78 85 79 86 80 87 59 88 60 89 68 90 61 91 67 92 62 93 63 94
REMARK SMILES IDX 64 95 65 96 66 97
REMARK H PARENT 87 53 57 64
REMARK Flexibility Score: inf
ROOT
ATOM      1  C   UNL A   1      33.015  35.824  30.312  1.00  0.00     0.188 C 
ENDROOT
BRANCH   1   2
ATOM      2  O   UNL A   1      33.523  35.964  28.990  1.00  0.00    -0.377 OA
BRANCH   2   3
ATOM      3  C   UNL A   1      34.157  34.876  28.349  1.00  0.00     0.188 C 
BRANCH   3   4
ATOM      4  C   UNL A   1      33.309  33.672  27.920  1.00  0.00     0.188 C 
BRANCH   4   5
ATOM      5  O   UNL A   1      33.907  32.399  27.863  1.00  0.00    -0.376 OA
BRANCH   5   6
ATOM      6  C   UNL A   1      33.192  31.252  27.429  1.00  0.00     0.202 C 
BRANCH   6   7
ATOM      7  C   UNL A   1      33.786  30.053  26.675  1.00  0.00     0.261 C 
BRANCH   7   8
ATOM      8  O   UNL A   1      32.883  29.198  25.955  1.00  0.00    -0.463 OA
BRANCH   8   9
ATOM      9  C   UNL A   1      33.274  27.908  25.889  1.00  0.00     0.313 C 
ATOM     10  O   UNL A   1      34.187  27.466  26.589  1.00  0.00    -0.252 OA
BRANCH   9  11
ATOM     11  C   UNL A   1      32.552  27.013  24.870  1.00  0.00     0.086 C 
ATOM     12  N   UNL A   1      30.904  27.502  23.071  1.00  0.00    -0.354 N 
ATOM     13  C   UNL A   1      31.608  26.838  21.994  1.00  0.00     0.118 C 
ATOM     14  C   UNL A   1      31.728  28.099  24.107  1.00  0.00     0.137 C 
ATOM     15  C   UNL A   1      32.400  25.692  22.624  1.00  0.00     0.023 C 
ATOM     16  C   UNL A   1      33.295  26.159  23.795  1.00  0.00     0.022 C 
BRANCH  12  17
ATOM     17  C   UNL A   1      29.747  28.212  22.784  1.00  0.00     0.150 A 
ATOM     18  C   UNL A   1      28.796  31.540  21.522  1.00  0.00     0.068 C 
ATOM     19  C   UNL A   1      28.716  30.172  22.125  1.00  0.00     0.058 A 
ATOM     20  C   UNL A   1      27.509  29.703  22.624  1.00  0.00     0.135 A 
ATOM     21  N   UNL A   1      29.850  29.430  22.196  1.00  0.00    -0.233 NA
ATOM     22  N   UNL A   1      27.369  28.485  23.184  1.00  0.00    -0.256 NA
ATOM     23  C   UNL A   1      28.507  27.744  23.260  1.00  0.00     0.080 A 
ATOM     24  C   UNL A   1      28.407  26.457  24.025  1.00  0.00     0.071 C 
ENDBRANCH  12  17
BRANCH  11  25
ATOM     25  C   UNL A   1      31.636  26.107  25.729  1.00  0.00     0.024 C 
BRANCH  25  26
ATOM     26  C   UNL A   1      31.928  24.619  25.774  1.00  0.00    -0.010 C 
ATOM     27  C   UNL A   1      31.279  23.576  26.664  1.00  0.00     0.004 C 
ATOM     28  C   UNL A   1      30.938  23.624  25.207  1.00  0.00     0.004 C 
ENDBRANCH  25  26
ENDBRANCH  11  25
ENDBRANCH   9  11
ENDBRANCH   8   9
ENDBRANCH   7   8
ENDBRANCH   6   7
ENDBRANCH   5   6
ENDBRANCH   4   5
ENDBRANCH   3   4
ENDBRANCH   2   3
ENDBRANCH   1   2
BRANCH   1  29
ATOM     29  C   UNL A   1      33.860  35.143  31.404  1.00  0.00     0.188 C 
BRANCH  29  30
ATOM     30  O   UNL A   1      33.119  34.401  32.355  1.00  0.00    -0.376 OA
BRANCH  30  31
ATOM     31  C   UNL A   1      33.776  33.376  33.083  1.00  0.00     0.202 C 
BRANCH  31  32
ATOM     32  C   UNL A   1      34.941  32.629  32.413  1.00  0.00     0.261 C 
BRANCH  32  33
ATOM     33  O   UNL A   1      35.886  31.984  33.284  1.00  0.00    -0.460 OA
BRANCH  33  34
ATOM     34  C   UNL A   1      36.975  32.680  33.679  1.00  0.00     0.338 C 
ATOM     35  O   UNL A   1      37.056  33.463  34.600  1.00  0.00    -0.246 OA
BRANCH  34  36
ATOM     36  C   UNL A   1      38.127  32.168  32.904  1.00  0.00     0.060 A 
ATOM     37  C   UNL A   1      38.923  31.157  33.457  1.00  0.00     0.016 A 
ATOM     38  C   UNL A   1      38.419  32.693  31.645  1.00  0.00     0.016 A 
ATOM     39  C   UNL A   1      40.039  30.690  32.763  1.00  0.00     0.010 A 
ATOM     40  C   UNL A   1      39.550  32.242  30.962  1.00  0.00     0.010 A 
ATOM     41  C   UNL A   1      40.384  31.264  31.534  1.00  0.00    -0.014 A 
BRANCH  41  42
ATOM     42  C   UNL A   1      41.714  30.990  30.941  1.00  0.00     0.031 A 
ATOM     43  C   UNL A   1      41.914  29.690  30.210  1.00  0.00     0.074 A 
ATOM     44  C   UNL A   1      42.721  31.875  31.038  1.00  0.00     0.049 A 
ATOM     45  N   UNL A   1      42.998  29.204  29.664  1.00  0.00    -0.248 NA
ATOM     46  C   UNL A   1      40.731  28.823  30.085  1.00  0.00     0.031 C 
ATOM     47  C   UNL A   1      42.637  33.183  31.683  1.00  0.00     0.029 A 
ATOM     48  N   UNL A   1      44.020  31.792  30.604  1.00  0.00    -0.354 N 
ATOM     49  C   UNL A   1      42.632  27.968  29.141  1.00  0.00     0.074 A 
ATOM     50  C   UNL A   1      41.236  27.767  29.466  1.00  0.00     0.031 C 
ATOM     51  C   UNL A   1      43.844  33.774  31.623  1.00  0.00     0.029 A 
ATOM     52  C   UNL A   1      44.790  32.869  30.971  1.00  0.00     0.049 A 
ATOM     53  H   UNL A   1      44.367  31.035  30.080  1.00  0.00     0.167 HD
ATOM     54  C   UNL A   1      43.388  27.081  28.452  1.00  0.00     0.031 A 
ATOM     55  C   UNL A   1      46.113  33.085  30.829  1.00  0.00     0.031 A 
ATOM     56  C   UNL A   1      44.783  27.274  28.161  1.00  0.00     0.049 A 
ATOM     57  C   UNL A   1      46.960  32.053  30.130  1.00  0.00     0.074 A 
ATOM     58  C   UNL A   1      45.640  26.443  27.460  1.00  0.00     0.029 A 
ATOM     59  N   UNL A   1      45.534  28.367  28.571  1.00  0.00    -0.354 N 
ATOM     60  N   UNL A   1      46.596  30.902  29.611  1.00  0.00    -0.248 NA
ATOM     61  C   UNL A   1      48.392  32.350  29.988  1.00  0.00     0.031 C 
ATOM     62  C   UNL A   1      46.922  26.999  27.507  1.00  0.00     0.029 A 
ATOM     63  C   UNL A   1      46.851  28.215  28.170  1.00  0.00     0.049 A 
ATOM     64  H   UNL A   1      45.182  29.137  29.074  1.00  0.00     0.167 HD
ATOM     65  C   UNL A   1      47.749  30.349  29.064  1.00  0.00     0.074 A 
ATOM     66  C   UNL A   1      48.818  31.300  29.299  1.00  0.00     0.031 C 
ATOM     67  C   UNL A   1      47.909  29.164  28.422  1.00  0.00     0.031 A 
BRANCH  54  68
ATOM     68  C   UNL A   1      42.723  25.798  28.021  1.00  0.00    -0.014 A 
ATOM     69  C   UNL A   1      42.148  25.662  26.744  1.00  0.00     0.010 A 
ATOM     70  C   UNL A   1      42.668  24.712  28.913  1.00  0.00     0.010 A 
ATOM     71  C   UNL A   1      41.476  24.488  26.392  1.00  0.00     0.020 A 
ATOM     72  C   UNL A   1      42.028  23.523  28.552  1.00  0.00     0.020 A 
ATOM     73  C   UNL A   1      41.414  23.428  27.301  1.00  0.00     0.054 A 
BRANCH  73  74
ATOM     74  S   UNL A   1      40.522  21.923  26.825  1.00  0.00     0.124 S 
ATOM     75  O   UNL A   1      40.805  21.036  27.951  1.00  0.00    -0.237 OA
ATOM     76  O   UNL A   1      39.141  22.388  26.724  1.00  0.00    -0.237 OA
ATOM     77  O   UNL A   1      41.141  21.538  25.560  1.00  0.00    -0.744 OA
ENDBRANCH  73  74
ENDBRANCH  54  68
BRANCH  55  78
ATOM     78  C   UNL A   1      46.718  34.320  31.399  1.00  0.00    -0.014 A 
ATOM     79  C   UNL A   1      46.757  35.516  30.662  1.00  0.00     0.010 A 
ATOM     80  C   UNL A   1      47.227  34.310  32.712  1.00  0.00     0.010 A 
ATOM     81  C   UNL A   1      47.289  36.679  31.230  1.00  0.00     0.020 A 
ATOM     82  C   UNL A   1      47.733  35.476  33.292  1.00  0.00     0.020 A 
ATOM     83  C   UNL A   1      47.763  36.654  32.545  1.00  0.00     0.054 A 
BRANCH  83  84
ATOM     84  S   UNL A   1      48.361  38.197  33.290  1.00  0.00     0.124 S 
ATOM     85  O   UNL A   1      47.563  38.277  34.510  1.00  0.00    -0.237 OA
ATOM     86  O   UNL A   1      49.783  37.921  33.479  1.00  0.00    -0.237 OA
ATOM     87  O   UNL A   1      48.060  39.205  32.276  1.00  0.00    -0.744 OA
ENDBRANCH  83  84
ENDBRANCH  55  78
BRANCH  67  88
ATOM     88  C   UNL A   1      49.285  28.830  27.902  1.00  0.00    -0.014 A 
ATOM     89  C   UNL A   1      50.003  27.722  28.385  1.00  0.00     0.010 A 
ATOM     90  C   UNL A   1      49.839  29.602  26.864  1.00  0.00     0.010 A 
ATOM     91  C   UNL A   1      51.261  27.410  27.861  1.00  0.00     0.020 A 
ATOM     92  C   UNL A   1      51.082  29.274  26.314  1.00  0.00     0.020 A 
ATOM     93  C   UNL A   1      51.791  28.187  26.826  1.00  0.00     0.054 A 
BRANCH  93  94
ATOM     94  S   UNL A   1      53.404  27.732  26.130  1.00  0.00     0.124 S 
ATOM     95  O   UNL A   1      54.329  28.390  27.050  1.00  0.00    -0.237 OA
ATOM     96  O   UNL A   1      53.380  26.273  26.199  1.00  0.00    -0.237 OA
ATOM     97  O   UNL A   1      53.369  28.287  24.780  1.00  0.00    -0.744 OA
ENDBRANCH  93  94
ENDBRANCH  67  88
ENDBRANCH  41  42
ENDBRANCH  34  36
ENDBRANCH  33  34
ENDBRANCH  32  33
ENDBRANCH  31  32
ENDBRANCH  30  31
ENDBRANCH  29  30
ENDBRANCH   1  29
TORSDOF 26
ENDMDL
MODEL 3
REMARK VINA RESULT:      -8.0      6.310     14.041
REMARK SMILES Cc1cnc(C)c(N2CCC[C@@](CC3CC3)(C(=O)OCCOCCOCCOCCOC(=O)c3ccc(-c4c5nc(c(-c6ccc(S(=O)(=O)[O-])cc6)c6ccc([nH]6)c(-c6ccc(S(=O)(=O)[O-])cc6)c6nc(c(-c7ccc(S(=O)(=O)[O-])cc7)c7ccc4[nH]7)C=C6)C=C5)cc3)C2)n1
REMARK SMILES IDX 26 1 25 2 24 3 23 4 22 5 21 6 20 7 19 8 17 9 18 10 12 11
REMARK SMILES IDX 8 12 9 13 94 14 10 15 11 16 7 17 1 18 2 19 3 20 95 21 4 22
REMARK SMILES IDX 5 23 6 24 13 25 14 26 15 27 16 28 27 29 28 30 29 31 30 32
REMARK SMILES IDX 31 33 32 34 33 35 34 36 35 37 93 38 36 39 92 40 37 41 38 42
REMARK SMILES IDX 39 43 86 44 40 45 91 46 85 47 87 48 41 49 90 50 84 51 83 52
REMARK SMILES IDX 42 54 72 55 53 56 71 57 54 58 57 59 70 60 88 61 55 62 56 63
REMARK SMILES IDX 69 65 89 66 58 67 43 68 44 69 52 70 45 71 51 72 46 73 47 74
REMARK SMILES IDX 48 75 49 76 50 77 73 78 74 79 82 80 75 81 81 82 76 83 77 84
REMARK SMILES IDX 78 85 79 86 80 87 59 88 60 89 68 90 61 91 67 92 62 93 63 94
REMARK SMILES IDX 64 95 65 96 66 97
REMARK H PARENT 87 53 57 64
REMARK Flexibility Score: inf
ROOT
ATOM      1  C   UNL A   1      47.873  26.633  26.945  1.00  0.00     0.188 C 
ENDROOT
BRANCH   1   2
ATOM      2  O   UNL A   1      47.774  28.037  26.739  1.00  0.00    -0.377 OA
BRANCH   2   3
ATOM      3  C   UNL A   1      48.019  28.934  27.803  1.00  0.00     0.188 C 
BRANCH   3   4
ATOM      4  C   UNL A   1      46.831  29.466  28.614  1.00  0.00     0.188 C 
BRANCH   4   5
ATOM      5  O   UNL A   1      47.077  30.263  29.747  1.00  0.00    -0.376 OA
BRANCH   5   6
ATOM      6  C   UNL A   1      46.141  31.227  30.204  1.00  0.00     0.202 C 
BRANCH   6   7
ATOM      7  C   UNL A   1      44.685  30.946  30.609  1.00  0.00     0.261 C 
BRANCH   7   8
ATOM      8  O   UNL A   1      43.660  31.785  30.056  1.00  0.00    -0.463 OA
BRANCH   8   9
ATOM      9  C   UNL A   1      42.912  32.429  30.976  1.00  0.00     0.313 C 
ATOM     10  O   UNL A   1      42.673  31.938  32.081  1.00  0.00    -0.252 OA
BRANCH   9  11
ATOM     11  C   UNL A   1      42.334  33.794  30.574  1.00  0.00     0.086 C 
ATOM     12  N   UNL A   1      42.766  35.300  28.641  1.00  0.00    -0.354 N 
ATOM     13  C   UNL A   1      41.388  35.462  28.225  1.00  0.00     0.118 C 
ATOM     14  C   UNL A   1      43.112  34.023  29.239  1.00  0.00     0.137 C 
ATOM     15  C   UNL A   1      40.529  35.331  29.482  1.00  0.00     0.023 C 
ATOM     16  C   UNL A   1      40.821  34.035  30.273  1.00  0.00     0.022 C 
BRANCH  12  17
ATOM     17  C   UNL A   1      43.773  35.859  27.868  1.00  0.00     0.150 A 
ATOM     18  C   UNL A   1      46.344  34.756  25.470  1.00  0.00     0.068 C 
ATOM     19  C   UNL A   1      45.550  35.607  26.413  1.00  0.00     0.058 A 
ATOM     20  C   UNL A   1      45.969  36.898  26.702  1.00  0.00     0.135 A 
ATOM     21  N   UNL A   1      44.444  35.073  26.990  1.00  0.00    -0.233 NA
ATOM     22  N   UNL A   1      45.305  37.714  27.545  1.00  0.00    -0.256 NA
ATOM     23  C   UNL A   1      44.200  37.175  28.128  1.00  0.00     0.080 A 
ATOM     24  C   UNL A   1      43.543  38.007  29.190  1.00  0.00     0.071 C 
ENDBRANCH  12  17
BRANCH  11  25
ATOM     25  C   UNL A   1      42.815  34.761  31.682  1.00  0.00     0.024 C 
BRANCH  25  26
ATOM     26  C   UNL A   1      41.981  34.891  32.942  1.00  0.00    -0.010 C 
ATOM     27  C   UNL A   1      42.400  34.576  34.366  1.00  0.00     0.004 C 
ATOM     28  C   UNL A   1      42.252  36.002  33.934  1.00  0.00     0.004 C 
ENDBRANCH  25  26
ENDBRANCH  11  25
ENDBRANCH   9  11
ENDBRANCH   8   9
ENDBRANCH   7   8
ENDBRANCH   6   7
ENDBRANCH   5   6
ENDBRANCH   4   5
ENDBRANCH   3   4
ENDBRANCH   2   3
ENDBRANCH   1   2
BRANCH   1  29
ATOM     29  C   UNL A   1      46.755  25.872  27.680  1.00  0.00     0.188 C 
BRANCH  29  30
ATOM     30  O   UNL A   1      46.864  24.460  27.634  1.00  0.00    -0.376 OA
BRANCH  30  31
ATOM     31  C   UNL A   1      45.689  23.692  27.429  1.00  0.00     0.202 C 
BRANCH  31  32
ATOM     32  C   UNL A   1      44.643  24.200  26.424  1.00  0.00     0.261 C 
BRANCH  32  33
ATOM     33  O   UNL A   1      43.347  24.532  26.947  1.00  0.00    -0.460 OA
BRANCH  33  34
ATOM     34  C   UNL A   1      42.638  25.509  26.339  1.00  0.00     0.338 C 
ATOM     35  O   UNL A   1      42.306  25.564  25.174  1.00  0.00    -0.246 OA
BRANCH  34  36
ATOM     36  C   UNL A   1      42.158  26.426  27.396  1.00  0.00     0.060 A 
ATOM     37  C   UNL A   1      42.829  27.638  27.602  1.00  0.00     0.016 A 
ATOM     38  C   UNL A   1      41.056  26.082  28.180  1.00  0.00     0.016 A 
ATOM     39  C   UNL A   1      42.419  28.498  28.621  1.00  0.00     0.010 A 
ATOM     40  C   UNL A   1      40.662  26.931  29.216  1.00  0.00     0.010 A 
ATOM     41  C   UNL A   1      41.364  28.125  29.463  1.00  0.00    -0.014 A 
BRANCH  41  42
ATOM     42  C   UNL A   1      41.120  28.879  30.715  1.00  0.00     0.031 A 
ATOM     43  C   UNL A   1      40.001  29.883  30.737  1.00  0.00     0.074 A 
ATOM     44  C   UNL A   1      41.866  28.673  31.814  1.00  0.00     0.049 A 
ATOM     45  N   UNL A   1      39.637  30.701  31.690  1.00  0.00    -0.248 NA
ATOM     46  C   UNL A   1      39.187  29.979  29.513  1.00  0.00     0.031 C 
ATOM     47  C   UNL A   1      42.950  27.699  31.930  1.00  0.00     0.029 A 
ATOM     48  N   UNL A   1      41.832  29.290  33.039  1.00  0.00    -0.354 N 
ATOM     49  C   UNL A   1      38.561  31.418  31.178  1.00  0.00     0.074 A 
ATOM     50  C   UNL A   1      38.355  30.962  29.820  1.00  0.00     0.031 C 
ATOM     51  C   UNL A   1      43.494  27.800  33.155  1.00  0.00     0.029 A 
ATOM     52  C   UNL A   1      42.824  28.871  33.892  1.00  0.00     0.049 A 
ATOM     53  H   UNL A   1      41.161  29.968  33.283  1.00  0.00     0.167 HD
ATOM     54  C   UNL A   1      37.811  32.370  31.783  1.00  0.00     0.031 A 
ATOM     55  C   UNL A   1      43.173  29.322  35.114  1.00  0.00     0.031 A 
ATOM     56  C   UNL A   1      38.043  32.841  33.123  1.00  0.00     0.049 A 
ATOM     57  C   UNL A   1      42.379  30.437  35.744  1.00  0.00     0.074 A 
ATOM     58  C   UNL A   1      37.336  33.793  33.836  1.00  0.00     0.029 A 
ATOM     59  N   UNL A   1      39.073  32.408  33.947  1.00  0.00    -0.354 N 
ATOM     60  N   UNL A   1      41.343  31.085  35.264  1.00  0.00    -0.248 NA
ATOM     61  C   UNL A   1      42.794  30.875  37.084  1.00  0.00     0.031 C 
ATOM     62  C   UNL A   1      37.980  33.986  35.062  1.00  0.00     0.029 A 
ATOM     63  C   UNL A   1      39.043  33.100  35.147  1.00  0.00     0.049 A 
ATOM     64  H   UNL A   1      39.729  31.712  33.713  1.00  0.00     0.167 HD
ATOM     65  C   UNL A   1      40.971  31.993  36.250  1.00  0.00     0.074 A 
ATOM     66  C   UNL A   1      41.882  31.797  37.361  1.00  0.00     0.031 C 
ATOM     67  C   UNL A   1      39.964  32.904  36.240  1.00  0.00     0.031 A 
BRANCH  54  68
ATOM     68  C   UNL A   1      36.708  32.997  30.970  1.00  0.00    -0.014 A 
ATOM     69  C   UNL A   1      36.983  33.925  29.949  1.00  0.00     0.010 A 
ATOM     70  C   UNL A   1      35.369  32.656  31.239  1.00  0.00     0.010 A 
ATOM     71  C   UNL A   1      35.939  34.546  29.257  1.00  0.00     0.020 A 
ATOM     72  C   UNL A   1      34.325  33.248  30.524  1.00  0.00     0.020 A 
ATOM     73  C   UNL A   1      34.616  34.208  29.554  1.00  0.00     0.054 A 
BRANCH  73  74
ATOM     74  S   UNL A   1      33.281  35.041  28.651  1.00  0.00     0.124 S 
ATOM     75  O   UNL A   1      32.433  35.518  29.741  1.00  0.00    -0.237 OA
ATOM     76  O   UNL A   1      33.995  36.078  27.911  1.00  0.00    -0.237 OA
ATOM     77  O   UNL A   1      32.702  33.980  27.831  1.00  0.00    -0.744 OA
ENDBRANCH  73  74
ENDBRANCH  54  68
BRANCH  55  78
ATOM     78  C   UNL A   1      44.358  28.737  35.798  1.00  0.00    -0.014 A 
ATOM     79  C   UNL A   1      45.641  29.283  35.623  1.00  0.00     0.010 A 
ATOM     80  C   UNL A   1      44.195  27.641  36.668  1.00  0.00     0.010 A 
ATOM     81  C   UNL A   1      46.737  28.747  36.308  1.00  0.00     0.020 A 
ATOM     82  C   UNL A   1      45.283  27.123  37.376  1.00  0.00     0.020 A 
ATOM     83  C   UNL A   1      46.549  27.678  37.189  1.00  0.00     0.054 A 
BRANCH  83  84
ATOM     84  S   UNL A   1      47.970  27.063  38.136  1.00  0.00     0.124 S 
ATOM     85  O   UNL A   1      48.313  25.843  37.412  1.00  0.00    -0.237 OA
ATOM     86  O   UNL A   1      48.924  28.163  38.016  1.00  0.00    -0.237 OA
ATOM     87  O   UNL A   1      47.425  26.864  39.478  1.00  0.00    -0.744 OA
ENDBRANCH  83  84
ENDBRANCH  55  78
BRANCH  67  88
ATOM     88  C   UNL A   1      39.771  33.747  37.475  1.00  0.00    -0.014 A 
ATOM     89  C   UNL A   1      38.956  33.318  38.537  1.00  0.00     0.010 A 
ATOM     90  C   UNL A   1      40.471  34.962  37.600  1.00  0.00     0.010 A 
ATOM     91  C   UNL A   1      38.822  34.101  39.688  1.00  0.00     0.020 A 
ATOM     92  C   UNL A   1      40.366  35.733  38.762  1.00  0.00     0.020 A 
ATOM     93  C   UNL A   1      39.531  35.302  39.794  1.00  0.00     0.054 A 
BRANCH  93  94
ATOM     94  S   UNL A   1      39.377  36.275  41.318  1.00  0.00     0.124 S 
ATOM     95  O   UNL A   1      38.885  37.555  40.814  1.00  0.00    -0.237 OA
ATOM     96  O   UNL A   1      38.418  35.496  42.097  1.00  0.00    -0.237 OA
ATOM     97  O   UNL A   1      40.735  36.298  41.854  1.00  0.00    -0.744 OA
ENDBRANCH  93  94
ENDBRANCH  67  88
ENDBRANCH  41  42
ENDBRANCH  34  36
ENDBRANCH  33  34
ENDBRANCH  32  33
ENDBRANCH  31  32
ENDBRANCH  30  31
ENDBRANCH  29  30
ENDBRANCH   1  29
TORSDOF 26
ENDMDL
