MODEL 1
REMARK VINA RESULT:      -8.4      0.000      0.000
REMARK SMILES CC(=O)N[C@@H](C(=O)N(CC(=O)OCCOCCOCCOCCOC(=O)c1ccc(-c2c3nc(c(-c4ccc(S(=O)(=O)[O-])cc4)c4ccc([nH]4)c(-c4ccc(S(=O)(=O)[O-])cc4)c4nc(c(-c5ccc(S(=O)(=O)[O-])cc5)c5ccc2[nH]5)C=C4)C=C3)cc1)C(C)(C)C)C(C)C
REMARK SMILES IDX 17 1 16 2 15 3 14 4 13 5 12 6 10 7 11 8 9 9 8 10 6 11 7 12
REMARK SMILES IDX 5 13 4 14 1 15 2 16 3 17 91 19 92 20 93 21 87 22 88 23 89 24
REMARK SMILES IDX 90 25 18 26 19 27 20 28 21 29 22 30 23 31 24 32 25 33 26 34
REMARK SMILES IDX 27 35 28 36 86 37 29 38 85 39 30 40 31 41 32 42 79 43 33 44
REMARK SMILES IDX 84 45 78 46 80 47 34 48 83 49 77 50 76 51 35 53 65 54 46 55
REMARK SMILES IDX 64 56 47 57 50 58 63 59 81 60 48 61 49 62 62 64 82 65 51 66
REMARK SMILES IDX 36 67 37 68 45 69 38 70 44 71 39 72 40 73 41 74 42 75 43 76
REMARK SMILES IDX 66 77 67 78 75 79 68 80 74 81 69 82 70 83 71 84 72 85 73 86
REMARK SMILES IDX 52 87 53 88 61 89 54 90 60 91 55 92 56 93 57 94 58 95 59 96
REMARK H PARENT 4 18 80 52 50 63
REMARK Flexibility Score: inf
ROOT
ATOM      1  C   UNL A   1      34.583  20.272  25.032  1.00  0.00     0.188 C 
ENDROOT
BRANCH   1   2
ATOM      2  C   UNL A   1      33.335  20.293  24.134  1.00  0.00     0.188 C 
BRANCH   2   3
ATOM      3  O   UNL A   1      32.386  21.348  24.237  1.00  0.00    -0.376 OA
BRANCH   3   4
ATOM      4  C   UNL A   1      32.387  22.381  23.263  1.00  0.00     0.202 C 
BRANCH   4   5
ATOM      5  C   UNL A   1      33.355  23.563  23.478  1.00  0.00     0.261 C 
BRANCH   5   6
ATOM      6  O   UNL A   1      32.758  24.884  23.575  1.00  0.00    -0.462 OA
BRANCH   6   7
ATOM      7  C   UNL A   1      33.465  25.924  23.072  1.00  0.00     0.325 C 
ATOM      8  O   UNL A   1      33.973  25.935  21.952  1.00  0.00    -0.250 OA
BRANCH   7   9
ATOM      9  C   UNL A   1      33.574  27.186  23.985  1.00  0.00     0.242 C 
BRANCH   9  10
ATOM     10  N   UNL A   1      32.554  27.716  24.935  1.00  0.00    -0.325 N 
BRANCH  10  11
ATOM     11  C   UNL A   1      31.217  27.268  24.908  1.00  0.00     0.246 C 
ATOM     12  O   UNL A   1      30.752  26.605  25.840  1.00  0.00    -0.272 OA
BRANCH  11  13
ATOM     13  C   UNL A   1      30.328  27.552  23.660  1.00  0.00     0.174 C 
BRANCH  13  14
ATOM     14  N   UNL A   1      29.622  28.807  23.903  1.00  0.00    -0.344 N 
ATOM     15  C   UNL A   1      30.213  29.920  21.778  1.00  0.00     0.114 C 
ATOM     16  C   UNL A   1      29.516  29.910  23.112  1.00  0.00     0.217 C 
ATOM     17  O   UNL A   1      28.898  30.889  23.521  1.00  0.00    -0.275 OA
ATOM     18  H   UNL A   1      29.154  28.864  24.767  1.00  0.00     0.164 HD
ENDBRANCH  13  14
BRANCH  13  19
ATOM     19  C   UNL A   1      29.336  26.372  23.417  1.00  0.00     0.015 C 
ATOM     20  C   UNL A   1      29.779  25.071  24.092  1.00  0.00     0.010 C 
ATOM     21  C   UNL A   1      27.920  26.711  23.916  1.00  0.00     0.010 C 
ENDBRANCH  13  19
ENDBRANCH  11  13
ENDBRANCH  10  11
BRANCH  10  22
ATOM     22  C   UNL A   1      32.953  28.582  26.125  1.00  0.00     0.035 C 
ATOM     23  C   UNL A   1      34.489  28.582  26.350  1.00  0.00     0.034 C 
ATOM     24  C   UNL A   1      32.522  30.053  25.874  1.00  0.00     0.034 C 
ATOM     25  C   UNL A   1      32.258  28.212  27.460  1.00  0.00     0.034 C 
ENDBRANCH  10  22
ENDBRANCH   9  10
ENDBRANCH   7   9
ENDBRANCH   6   7
ENDBRANCH   5   6
ENDBRANCH   4   5
ENDBRANCH   3   4
ENDBRANCH   2   3
ENDBRANCH   1   2
BRANCH   1  26
ATOM     26  O   UNL A   1      34.731  21.430  25.824  1.00  0.00    -0.377 OA
BRANCH  26  27
ATOM     27  C   UNL A   1      35.902  22.180  25.586  1.00  0.00     0.188 C 
BRANCH  27  28
ATOM     28  C   UNL A   1      37.040  21.381  24.930  1.00  0.00     0.188 C 
BRANCH  28  29
ATOM     29  O   UNL A   1      38.323  21.859  25.304  1.00  0.00    -0.376 OA
BRANCH  29  30
ATOM     30  C   UNL A   1      39.171  21.133  26.171  1.00  0.00     0.202 C 
BRANCH  30  31
ATOM     31  C   UNL A   1      39.839  19.793  25.810  1.00  0.00     0.261 C 
BRANCH  31  32
ATOM     32  O   UNL A   1      41.034  19.427  26.497  1.00  0.00    -0.460 OA
BRANCH  32  33
ATOM     33  C   UNL A   1      42.198  19.767  25.900  1.00  0.00     0.338 C 
ATOM     34  O   UNL A   1      42.767  19.149  25.013  1.00  0.00    -0.246 OA
BRANCH  33  35
ATOM     35  C   UNL A   1      42.573  21.127  26.340  1.00  0.00     0.060 A 
ATOM     36  C   UNL A   1      42.770  22.105  25.357  1.00  0.00     0.016 A 
ATOM     37  C   UNL A   1      42.714  21.447  27.693  1.00  0.00     0.016 A 
ATOM     38  C   UNL A   1      43.114  23.405  25.720  1.00  0.00     0.010 A 
ATOM     39  C   UNL A   1      43.107  22.742  28.053  1.00  0.00     0.010 A 
ATOM     40  C   UNL A   1      43.331  23.718  27.067  1.00  0.00    -0.014 A 
BRANCH  40  41
ATOM     41  C   UNL A   1      43.986  25.004  27.407  1.00  0.00     0.031 A 
ATOM     42  C   UNL A   1      43.125  26.114  27.944  1.00  0.00     0.074 A 
ATOM     43  C   UNL A   1      45.315  25.169  27.281  1.00  0.00     0.049 A 
ATOM     44  N   UNL A   1      43.461  27.329  28.288  1.00  0.00    -0.248 NA
ATOM     45  C   UNL A   1      41.694  25.811  28.123  1.00  0.00     0.031 C 
ATOM     46  C   UNL A   1      46.257  24.148  26.828  1.00  0.00     0.029 A 
ATOM     47  N   UNL A   1      46.099  26.270  27.519  1.00  0.00    -0.354 N 
ATOM     48  C   UNL A   1      42.285  27.940  28.708  1.00  0.00     0.074 A 
ATOM     49  C   UNL A   1      41.224  26.968  28.566  1.00  0.00     0.031 C 
ATOM     50  C   UNL A   1      47.493  24.678  26.800  1.00  0.00     0.029 A 
ATOM     51  C   UNL A   1      47.423  26.084  27.199  1.00  0.00     0.049 A 
ATOM     52  H   UNL A   1      45.747  27.113  27.886  1.00  0.00     0.167 HD
ATOM     53  C   UNL A   1      42.105  29.199  29.167  1.00  0.00     0.031 A 
ATOM     54  C   UNL A   1      48.451  26.957  27.197  1.00  0.00     0.031 A 
ATOM     55  C   UNL A   1      43.163  30.166  29.293  1.00  0.00     0.049 A 
ATOM     56  C   UNL A   1      48.208  28.380  27.637  1.00  0.00     0.074 A 
ATOM     57  C   UNL A   1      43.085  31.462  29.771  1.00  0.00     0.029 A 
ATOM     58  N   UNL A   1      44.481  29.951  28.925  1.00  0.00    -0.354 N 
ATOM     59  N   UNL A   1      47.099  28.932  28.072  1.00  0.00    -0.248 NA
ATOM     60  C   UNL A   1      49.356  29.298  27.593  1.00  0.00     0.031 C 
ATOM     61  C   UNL A   1      44.342  32.055  29.624  1.00  0.00     0.029 A 
ATOM     62  C   UNL A   1      45.220  31.104  29.127  1.00  0.00     0.049 A 
ATOM     63  H   UNL A   1      44.839  29.104  28.573  1.00  0.00     0.167 HD
ATOM     64  C   UNL A   1      47.424  30.251  28.377  1.00  0.00     0.074 A 
ATOM     65  C   UNL A   1      48.835  30.409  28.096  1.00  0.00     0.031 C 
ATOM     66  C   UNL A   1      46.627  31.243  28.846  1.00  0.00     0.031 A 
BRANCH  53  67
ATOM     67  C   UNL A   1      40.707  29.626  29.523  1.00  0.00    -0.014 A 
ATOM     68  C   UNL A   1      39.783  30.011  28.536  1.00  0.00     0.010 A 
ATOM     69  C   UNL A   1      40.292  29.571  30.866  1.00  0.00     0.010 A 
ATOM     70  C   UNL A   1      38.473  30.350  28.889  1.00  0.00     0.020 A 
ATOM     71  C   UNL A   1      38.978  29.883  31.221  1.00  0.00     0.020 A 
ATOM     72  C   UNL A   1      38.078  30.277  30.230  1.00  0.00     0.054 A 
BRANCH  72  73
ATOM     73  S   UNL A   1      36.357  30.664  30.650  1.00  0.00     0.124 S 
ATOM     74  O   UNL A   1      36.375  32.125  30.686  1.00  0.00    -0.237 OA
ATOM     75  O   UNL A   1      35.616  30.073  29.538  1.00  0.00    -0.237 OA
ATOM     76  O   UNL A   1      36.159  30.014  31.942  1.00  0.00    -0.744 OA
ENDBRANCH  72  73
ENDBRANCH  53  67
BRANCH  54  77
ATOM     77  C   UNL A   1      49.797  26.534  26.712  1.00  0.00    -0.014 A 
ATOM     78  C   UNL A   1      50.104  26.517  25.340  1.00  0.00     0.010 A 
ATOM     79  C   UNL A   1      50.773  26.106  27.632  1.00  0.00     0.010 A 
ATOM     80  C   UNL A   1      51.347  26.051  24.897  1.00  0.00     0.020 A 
ATOM     81  C   UNL A   1      52.027  25.671  27.196  1.00  0.00     0.020 A 
ATOM     82  C   UNL A   1      52.299  25.629  25.829  1.00  0.00     0.054 A 
BRANCH  82  83
ATOM     83  S   UNL A   1      53.910  25.043  25.232  1.00  0.00     0.124 S 
ATOM     84  O   UNL A   1      54.205  25.999  24.169  1.00  0.00    -0.237 OA
ATOM     85  O   UNL A   1      54.745  25.148  26.426  1.00  0.00    -0.237 OA
ATOM     86  O   UNL A   1      53.636  23.678  24.788  1.00  0.00    -0.744 OA
ENDBRANCH  82  83
ENDBRANCH  54  77
BRANCH  66  87
ATOM     87  C   UNL A   1      47.262  32.581  29.123  1.00  0.00    -0.014 A 
ATOM     88  C   UNL A   1      48.162  32.760  30.189  1.00  0.00     0.010 A 
ATOM     89  C   UNL A   1      47.008  33.661  28.255  1.00  0.00     0.010 A 
ATOM     90  C   UNL A   1      48.772  33.999  30.399  1.00  0.00     0.020 A 
ATOM     91  C   UNL A   1      47.641  34.892  28.443  1.00  0.00     0.020 A 
ATOM     92  C   UNL A   1      48.509  35.057  29.523  1.00  0.00     0.054 A 
BRANCH  92  93
ATOM     93  S   UNL A   1      49.354  36.640  29.788  1.00  0.00     0.124 S 
ATOM     94  O   UNL A   1      50.448  36.256  30.677  1.00  0.00    -0.237 OA
ATOM     95  O   UNL A   1      49.749  37.023  28.435  1.00  0.00    -0.237 OA
ATOM     96  O   UNL A   1      48.328  37.486  30.394  1.00  0.00    -0.744 OA
ENDBRANCH  92  93
ENDBRANCH  66  87
ENDBRANCH  40  41
ENDBRANCH  33  35
ENDBRANCH  32  33
ENDBRANCH  31  32
ENDBRANCH  30  31
ENDBRANCH  29  30
ENDBRANCH  28  29
ENDBRANCH  27  28
ENDBRANCH  26  27
ENDBRANCH   1  26
TORSDOF 29
ENDMDL
MODEL 2
REMARK VINA RESULT:      -8.1      5.070      9.739
REMARK SMILES CC(=O)N[C@@H](C(=O)N(CC(=O)OCCOCCOCCOCCOC(=O)c1ccc(-c2c3nc(c(-c4ccc(S(=O)(=O)[O-])cc4)c4ccc([nH]4)c(-c4ccc(S(=O)(=O)[O-])cc4)c4nc(c(-c5ccc(S(=O)(=O)[O-])cc5)c5ccc2[nH]5)C=C4)C=C3)cc1)C(C)(C)C)C(C)C
REMARK SMILES IDX 17 1 16 2 15 3 14 4 13 5 12 6 10 7 11 8 9 9 8 10 6 11 7 12
REMARK SMILES IDX 5 13 4 14 1 15 2 16 3 17 91 19 92 20 93 21 87 22 88 23 89 24
REMARK SMILES IDX 90 25 18 26 19 27 20 28 21 29 22 30 23 31 24 32 25 33 26 34
REMARK SMILES IDX 27 35 28 36 86 37 29 38 85 39 30 40 31 41 32 42 79 43 33 44
REMARK SMILES IDX 84 45 78 46 80 47 34 48 83 49 77 50 76 51 35 53 65 54 46 55
REMARK SMILES IDX 64 56 47 57 50 58 63 59 81 60 48 61 49 62 62 64 82 65 51 66
REMARK SMILES IDX 36 67 37 68 45 69 38 70 44 71 39 72 40 73 41 74 42 75 43 76
REMARK SMILES IDX 66 77 67 78 75 79 68 80 74 81 69 82 70 83 71 84 72 85 73 86
REMARK SMILES IDX 52 87 53 88 61 89 54 90 60 91 55 92 56 93 57 94 58 95 59 96
REMARK H PARENT 4 18 80 52 50 63
REMARK Flexibility Score: inf
ROOT
ATOM      1  C   UNL A   1      37.582  21.244  24.746  1.00  0.00     0.188 C 
ENDROOT
BRANCH   1   2
ATOM      2  C   UNL A   1      36.137  21.138  25.261  1.00  0.00     0.188 C 
BRANCH   2   3
ATOM      3  O   UNL A   1      35.038  21.265  24.367  1.00  0.00    -0.376 OA
BRANCH   3   4
ATOM      4  C   UNL A   1      33.925  20.394  24.506  1.00  0.00     0.202 C 
BRANCH   4   5
ATOM      5  C   UNL A   1      32.534  20.951  24.139  1.00  0.00     0.261 C 
BRANCH   5   6
ATOM      6  O   UNL A   1      32.381  21.488  22.798  1.00  0.00    -0.462 OA
BRANCH   6   7
ATOM      7  C   UNL A   1      32.727  22.784  22.604  1.00  0.00     0.325 C 
ATOM      8  O   UNL A   1      33.549  23.161  21.770  1.00  0.00    -0.250 OA
BRANCH   7   9
ATOM      9  C   UNL A   1      31.972  23.833  23.479  1.00  0.00     0.242 C 
BRANCH   9  10
ATOM     10  N   UNL A   1      32.556  24.791  24.463  1.00  0.00    -0.325 N 
BRANCH  10  11
ATOM     11  C   UNL A   1      32.800  26.138  24.126  1.00  0.00     0.246 C 
ATOM     12  O   UNL A   1      33.843  26.469  23.553  1.00  0.00    -0.272 OA
BRANCH  11  13
ATOM     13  C   UNL A   1      31.777  27.240  24.539  1.00  0.00     0.174 C 
BRANCH  13  14
ATOM     14  N   UNL A   1      30.531  26.965  23.829  1.00  0.00    -0.344 N 
ATOM     15  C   UNL A   1      29.324  25.908  25.709  1.00  0.00     0.114 C 
ATOM     16  C   UNL A   1      29.387  26.380  24.281  1.00  0.00     0.217 C 
ATOM     17  O   UNL A   1      28.451  26.206  23.505  1.00  0.00    -0.275 OA
ATOM     18  H   UNL A   1      30.515  27.242  22.885  1.00  0.00     0.164 HD
ENDBRANCH  13  14
BRANCH  13  19
ATOM     19  C   UNL A   1      32.333  28.656  24.196  1.00  0.00     0.015 C 
ATOM     20  C   UNL A   1      31.873  29.164  22.827  1.00  0.00     0.010 C 
ATOM     21  C   UNL A   1      31.923  29.697  25.254  1.00  0.00     0.010 C 
ENDBRANCH  13  19
ENDBRANCH  11  13
ENDBRANCH  10  11
BRANCH  10  22
ATOM     22  C   UNL A   1      32.696  24.426  25.937  1.00  0.00     0.035 C 
ATOM     23  C   UNL A   1      32.337  25.618  26.863  1.00  0.00     0.034 C 
ATOM     24  C   UNL A   1      31.730  23.261  26.285  1.00  0.00     0.034 C 
ATOM     25  C   UNL A   1      34.091  23.887  26.344  1.00  0.00     0.034 C 
ENDBRANCH  10  22
ENDBRANCH   9  10
ENDBRANCH   7   9
ENDBRANCH   6   7
ENDBRANCH   5   6
ENDBRANCH   4   5
ENDBRANCH   3   4
ENDBRANCH   2   3
ENDBRANCH   1   2
BRANCH   1  26
ATOM     26  O   UNL A   1      38.545  20.761  25.657  1.00  0.00    -0.377 OA
BRANCH  26  27
ATOM     27  C   UNL A   1      39.425  21.734  26.178  1.00  0.00     0.188 C 
BRANCH  27  28
ATOM     28  C   UNL A   1      40.590  21.156  26.998  1.00  0.00     0.188 C 
BRANCH  28  29
ATOM     29  O   UNL A   1      41.786  21.902  26.840  1.00  0.00    -0.376 OA
BRANCH  29  30
ATOM     30  C   UNL A   1      42.626  21.747  25.715  1.00  0.00     0.202 C 
BRANCH  30  31
ATOM     31  C   UNL A   1      44.147  21.989  25.727  1.00  0.00     0.261 C 
BRANCH  31  32
ATOM     32  O   UNL A   1      44.649  23.104  26.461  1.00  0.00    -0.460 OA
BRANCH  32  33
ATOM     33  C   UNL A   1      44.492  24.319  25.888  1.00  0.00     0.338 C 
ATOM     34  O   UNL A   1      44.652  24.592  24.709  1.00  0.00    -0.246 OA
BRANCH  33  35
ATOM     35  C   UNL A   1      43.885  25.231  26.880  1.00  0.00     0.060 A 
ATOM     36  C   UNL A   1      44.088  26.608  26.719  1.00  0.00     0.016 A 
ATOM     37  C   UNL A   1      43.116  24.751  27.944  1.00  0.00     0.016 A 
ATOM     38  C   UNL A   1      43.529  27.510  27.619  1.00  0.00     0.010 A 
ATOM     39  C   UNL A   1      42.595  25.657  28.876  1.00  0.00     0.010 A 
ATOM     40  C   UNL A   1      42.819  27.037  28.729  1.00  0.00    -0.014 A 
BRANCH  40  41
ATOM     41  C   UNL A   1      42.498  27.978  29.828  1.00  0.00     0.031 A 
ATOM     42  C   UNL A   1      43.366  27.952  31.057  1.00  0.00     0.074 A 
ATOM     43  C   UNL A   1      41.489  28.862  29.723  1.00  0.00     0.049 A 
ATOM     44  N   UNL A   1      43.270  28.656  32.153  1.00  0.00    -0.248 NA
ATOM     45  C   UNL A   1      44.495  27.005  31.045  1.00  0.00     0.031 C 
ATOM     46  C   UNL A   1      40.619  29.021  28.560  1.00  0.00     0.029 A 
ATOM     47  N   UNL A   1      41.024  29.790  30.622  1.00  0.00    -0.354 N 
ATOM     48  C   UNL A   1      44.315  28.231  32.966  1.00  0.00     0.074 A 
ATOM     49  C   UNL A   1      45.025  27.198  32.244  1.00  0.00     0.031 C 
ATOM     50  C   UNL A   1      39.709  29.976  28.825  1.00  0.00     0.029 A 
ATOM     51  C   UNL A   1      39.911  30.469  30.187  1.00  0.00     0.049 A 
ATOM     52  H   UNL A   1      41.449  29.954  31.495  1.00  0.00     0.167 HD
ATOM     53  C   UNL A   1      44.649  28.659  34.204  1.00  0.00     0.031 A 
ATOM     54  C   UNL A   1      39.128  31.361  30.828  1.00  0.00     0.031 A 
ATOM     55  C   UNL A   1      43.930  29.677  34.922  1.00  0.00     0.049 A 
ATOM     56  C   UNL A   1      39.476  31.764  32.240  1.00  0.00     0.074 A 
ATOM     57  C   UNL A   1      44.205  30.198  36.175  1.00  0.00     0.029 A 
ATOM     58  N   UNL A   1      42.788  30.315  34.463  1.00  0.00    -0.354 N 
ATOM     59  N   UNL A   1      40.491  31.384  32.981  1.00  0.00    -0.248 NA
ATOM     60  C   UNL A   1      38.576  32.720  32.903  1.00  0.00     0.031 C 
ATOM     61  C   UNL A   1      43.187  31.098  36.503  1.00  0.00     0.029 A 
ATOM     62  C   UNL A   1      42.323  31.195  35.424  1.00  0.00     0.049 A 
ATOM     63  H   UNL A   1      42.372  30.164  33.584  1.00  0.00     0.167 HD
ATOM     64  C   UNL A   1      40.364  32.075  34.183  1.00  0.00     0.074 A 
ATOM     65  C   UNL A   1      39.188  32.909  34.063  1.00  0.00     0.031 C 
ATOM     66  C   UNL A   1      41.151  32.023  35.288  1.00  0.00     0.031 A 
BRANCH  53  67
ATOM     67  C   UNL A   1      45.815  27.998  34.888  1.00  0.00    -0.014 A 
ATOM     68  C   UNL A   1      45.651  26.830  35.653  1.00  0.00     0.010 A 
ATOM     69  C   UNL A   1      47.108  28.518  34.698  1.00  0.00     0.010 A 
ATOM     70  C   UNL A   1      46.760  26.204  36.231  1.00  0.00     0.020 A 
ATOM     71  C   UNL A   1      48.222  27.882  35.252  1.00  0.00     0.020 A 
ATOM     72  C   UNL A   1      48.039  26.732  36.021  1.00  0.00     0.054 A 
BRANCH  72  73
ATOM     73  S   UNL A   1      49.464  25.865  36.733  1.00  0.00     0.124 S 
ATOM     74  O   UNL A   1      48.904  24.547  37.021  1.00  0.00    -0.237 OA
ATOM     75  O   UNL A   1      50.440  25.909  35.646  1.00  0.00    -0.237 OA
ATOM     76  O   UNL A   1      49.807  26.664  37.907  1.00  0.00    -0.744 OA
ENDBRANCH  72  73
ENDBRANCH  53  67
BRANCH  54  77
ATOM     77  C   UNL A   1      37.904  31.898  30.167  1.00  0.00    -0.014 A 
ATOM     78  C   UNL A   1      37.948  33.078  29.402  1.00  0.00     0.010 A 
ATOM     79  C   UNL A   1      36.669  31.244  30.335  1.00  0.00     0.010 A 
ATOM     80  C   UNL A   1      36.777  33.607  28.847  1.00  0.00     0.020 A 
ATOM     81  C   UNL A   1      35.504  31.751  29.755  1.00  0.00     0.020 A 
ATOM     82  C   UNL A   1      35.562  32.940  29.029  1.00  0.00     0.054 A 
BRANCH  82  83
ATOM     83  S   UNL A   1      34.060  33.637  28.287  1.00  0.00     0.124 S 
ATOM     84  O   UNL A   1      33.377  34.194  29.450  1.00  0.00    -0.237 OA
ATOM     85  O   UNL A   1      34.598  34.611  27.342  1.00  0.00    -0.237 OA
ATOM     86  O   UNL A   1      33.411  32.478  27.676  1.00  0.00    -0.744 OA
ENDBRANCH  82  83
ENDBRANCH  54  77
BRANCH  66  87
ATOM     87  C   UNL A   1      40.792  32.917  36.446  1.00  0.00    -0.014 A 
ATOM     88  C   UNL A   1      41.405  34.171  36.623  1.00  0.00     0.010 A 
ATOM     89  C   UNL A   1      39.770  32.526  37.333  1.00  0.00     0.010 A 
ATOM     90  C   UNL A   1      41.025  35.002  37.680  1.00  0.00     0.020 A 
ATOM     91  C   UNL A   1      39.364  33.368  38.371  1.00  0.00     0.020 A 
ATOM     92  C   UNL A   1      40.004  34.595  38.546  1.00  0.00     0.054 A 
BRANCH  92  93
ATOM     93  S   UNL A   1      39.494  35.715  39.879  1.00  0.00     0.124 S 
ATOM     94  O   UNL A   1      38.544  34.891  40.621  1.00  0.00    -0.237 OA
ATOM     95  O   UNL A   1      40.754  35.993  40.564  1.00  0.00    -0.237 OA
ATOM     96  O   UNL A   1      38.911  36.854  39.173  1.00  0.00    -0.744 OA
ENDBRANCH  92  93
ENDBRANCH  66  87
ENDBRANCH  40  41
ENDBRANCH  33  35
ENDBRANCH  32  33
ENDBRANCH  31  32
ENDBRANCH  30  31
ENDBRANCH  29  30
ENDBRANCH  28  29
ENDBRANCH  27  28
ENDBRANCH  26  27
ENDBRANCH   1  26
TORSDOF 29
ENDMDL
MODEL 3
REMARK VINA RESULT:      -7.4      6.611     10.417
REMARK SMILES CC(=O)N[C@@H](C(=O)N(CC(=O)OCCOCCOCCOCCOC(=O)c1ccc(-c2c3nc(c(-c4ccc(S(=O)(=O)[O-])cc4)c4ccc([nH]4)c(-c4ccc(S(=O)(=O)[O-])cc4)c4nc(c(-c5ccc(S(=O)(=O)[O-])cc5)c5ccc2[nH]5)C=C4)C=C3)cc1)C(C)(C)C)C(C)C
REMARK SMILES IDX 17 1 16 2 15 3 14 4 13 5 12 6 10 7 11 8 9 9 8 10 6 11 7 12
REMARK SMILES IDX 5 13 4 14 1 15 2 16 3 17 91 19 92 20 93 21 87 22 88 23 89 24
REMARK SMILES IDX 90 25 18 26 19 27 20 28 21 29 22 30 23 31 24 32 25 33 26 34
REMARK SMILES IDX 27 35 28 36 86 37 29 38 85 39 30 40 31 41 32 42 79 43 33 44
REMARK SMILES IDX 84 45 78 46 80 47 34 48 83 49 77 50 76 51 35 53 65 54 46 55
REMARK SMILES IDX 64 56 47 57 50 58 63 59 81 60 48 61 49 62 62 64 82 65 51 66
REMARK SMILES IDX 36 67 37 68 45 69 38 70 44 71 39 72 40 73 41 74 42 75 43 76
REMARK SMILES IDX 66 77 67 78 75 79 68 80 74 81 69 82 70 83 71 84 72 85 73 86
REMARK SMILES IDX 52 87 53 88 61 89 54 90 60 91 55 92 56 93 57 94 58 95 59 96
REMARK H PARENT 4 18 80 52 50 63
REMARK Flexibility Score: inf
ROOT
ATOM      1  C   UNL A   1      36.674  22.222  24.346  1.00  0.00     0.188 C 
ENDROOT
BRANCH   1   2
ATOM      2  C   UNL A   1      35.484  22.102  25.312  1.00  0.00     0.188 C 
BRANCH   2   3
ATOM      3  O   UNL A   1      34.250  21.545  24.875  1.00  0.00    -0.376 OA
BRANCH   3   4
ATOM      4  C   UNL A   1      33.250  21.233  25.834  1.00  0.00     0.202 C 
BRANCH   4   5
ATOM      5  C   UNL A   1      31.839  21.815  25.607  1.00  0.00     0.261 C 
BRANCH   5   6
ATOM      6  O   UNL A   1      31.770  23.193  25.152  1.00  0.00    -0.462 OA
BRANCH   6   7
ATOM      7  C   UNL A   1      31.903  24.164  26.088  1.00  0.00     0.325 C 
ATOM      8  O   UNL A   1      31.574  24.037  27.266  1.00  0.00    -0.250 OA
BRANCH   7   9
ATOM      9  C   UNL A   1      32.568  25.493  25.608  1.00  0.00     0.242 C 
BRANCH   9  10
ATOM     10  N   UNL A   1      31.905  26.803  25.346  1.00  0.00    -0.325 N 
BRANCH  10  11
ATOM     11  C   UNL A   1      30.690  26.886  24.635  1.00  0.00     0.246 C 
ATOM     12  O   UNL A   1      29.629  26.516  25.148  1.00  0.00    -0.272 OA
BRANCH  11  13
ATOM     13  C   UNL A   1      30.686  27.386  23.159  1.00  0.00     0.174 C 
BRANCH  13  14
ATOM     14  N   UNL A   1      32.076  27.445  22.715  1.00  0.00    -0.344 N 
ATOM     15  C   UNL A   1      32.142  25.242  21.596  1.00  0.00     0.114 C 
ATOM     16  C   UNL A   1      32.799  26.533  22.007  1.00  0.00     0.217 C 
ATOM     17  O   UNL A   1      33.980  26.759  21.761  1.00  0.00    -0.275 OA
ATOM     18  H   UNL A   1      32.562  28.263  22.964  1.00  0.00     0.164 HD
ENDBRANCH  13  14
BRANCH  13  19
ATOM     19  C   UNL A   1      29.991  28.779  23.057  1.00  0.00     0.015 C 
ATOM     20  C   UNL A   1      30.537  29.637  21.913  1.00  0.00     0.010 C 
ATOM     21  C   UNL A   1      28.470  28.641  22.864  1.00  0.00     0.010 C 
ENDBRANCH  13  19
ENDBRANCH  11  13
ENDBRANCH  10  11
BRANCH  10  22
ATOM     22  C   UNL A   1      32.377  28.081  26.030  1.00  0.00     0.035 C 
ATOM     23  C   UNL A   1      31.543  29.314  25.590  1.00  0.00     0.034 C 
ATOM     24  C   UNL A   1      32.222  27.942  27.570  1.00  0.00     0.034 C 
ATOM     25  C   UNL A   1      33.880  28.406  25.834  1.00  0.00     0.034 C 
ENDBRANCH  10  22
ENDBRANCH   9  10
ENDBRANCH   7   9
ENDBRANCH   6   7
ENDBRANCH   5   6
ENDBRANCH   4   5
ENDBRANCH   3   4
ENDBRANCH   2   3
ENDBRANCH   1   2
BRANCH   1  26
ATOM     26  O   UNL A   1      37.834  21.554  24.791  1.00  0.00    -0.377 OA
BRANCH  26  27
ATOM     27  C   UNL A   1      38.539  22.195  25.833  1.00  0.00     0.188 C 
BRANCH  27  28
ATOM     28  C   UNL A   1      39.722  21.383  26.386  1.00  0.00     0.188 C 
BRANCH  28  29
ATOM     29  O   UNL A   1      40.847  22.195  26.678  1.00  0.00    -0.376 OA
BRANCH  29  30
ATOM     30  C   UNL A   1      41.936  22.320  25.785  1.00  0.00     0.202 C 
BRANCH  30  31
ATOM     31  C   UNL A   1      43.415  22.322  26.216  1.00  0.00     0.261 C 
BRANCH  31  32
ATOM     32  O   UNL A   1      43.723  22.621  27.575  1.00  0.00    -0.460 OA
BRANCH  32  33
ATOM     33  C   UNL A   1      44.886  23.273  27.798  1.00  0.00     0.338 C 
ATOM     34  O   UNL A   1      45.855  23.305  27.055  1.00  0.00    -0.246 OA
BRANCH  33  35
ATOM     35  C   UNL A   1      44.725  24.127  28.993  1.00  0.00     0.060 A 
ATOM     36  C   UNL A   1      45.149  25.459  28.913  1.00  0.00     0.016 A 
ATOM     37  C   UNL A   1      44.155  23.638  30.172  1.00  0.00     0.016 A 
ATOM     38  C   UNL A   1      45.010  26.308  30.007  1.00  0.00     0.010 A 
ATOM     39  C   UNL A   1      44.060  24.480  31.288  1.00  0.00     0.010 A 
ATOM     40  C   UNL A   1      44.509  25.810  31.216  1.00  0.00    -0.014 A 
BRANCH  40  41
ATOM     41  C   UNL A   1      44.651  26.629  32.442  1.00  0.00     0.031 A 
ATOM     42  C   UNL A   1      45.794  26.320  33.370  1.00  0.00     0.074 A 
ATOM     43  C   UNL A   1      43.813  27.648  32.707  1.00  0.00     0.049 A 
ATOM     44  N   UNL A   1      46.111  26.877  34.508  1.00  0.00    -0.248 NA
ATOM     45  C   UNL A   1      46.706  25.239  32.953  1.00  0.00     0.031 C 
ATOM     46  C   UNL A   1      42.707  28.079  31.855  1.00  0.00     0.029 A 
ATOM     47  N   UNL A   1      43.764  28.501  33.782  1.00  0.00    -0.354 N 
ATOM     48  C   UNL A   1      47.246  26.208  34.952  1.00  0.00     0.074 A 
ATOM     49  C   UNL A   1      47.557  25.195  33.968  1.00  0.00     0.031 C 
ATOM     50  C   UNL A   1      42.072  29.105  32.452  1.00  0.00     0.029 A 
ATOM     51  C   UNL A   1      42.706  29.377  33.742  1.00  0.00     0.049 A 
ATOM     52  H   UNL A   1      44.425  28.486  34.512  1.00  0.00     0.167 HD
ATOM     53  C   UNL A   1      47.961  26.416  36.080  1.00  0.00     0.031 A 
ATOM     54  C   UNL A   1      42.280  30.273  34.656  1.00  0.00     0.031 A 
ATOM     55  C   UNL A   1      47.638  27.416  37.062  1.00  0.00     0.049 A 
ATOM     56  C   UNL A   1      43.050  30.431  35.945  1.00  0.00     0.074 A 
ATOM     57  C   UNL A   1      48.317  27.721  38.229  1.00  0.00     0.029 A 
ATOM     58  N   UNL A   1      46.540  28.259  37.003  1.00  0.00    -0.354 N 
ATOM     59  N   UNL A   1      44.146  29.820  36.332  1.00  0.00    -0.248 NA
ATOM     60  C   UNL A   1      42.530  31.402  36.919  1.00  0.00     0.031 C 
ATOM     61  C   UNL A   1      47.588  28.699  38.912  1.00  0.00     0.029 A 
ATOM     62  C   UNL A   1      46.498  29.057  38.134  1.00  0.00     0.049 A 
ATOM     63  H   UNL A   1      45.887  28.286  36.267  1.00  0.00     0.167 HD
ATOM     64  C   UNL A   1      44.458  30.354  37.580  1.00  0.00     0.074 A 
ATOM     65  C   UNL A   1      43.449  31.349  37.873  1.00  0.00     0.031 C 
ATOM     66  C   UNL A   1      45.488  30.047  38.409  1.00  0.00     0.031 A 
BRANCH  53  67
ATOM     67  C   UNL A   1      49.138  25.516  36.344  1.00  0.00    -0.014 A 
ATOM     68  C   UNL A   1      48.985  24.277  36.990  1.00  0.00     0.010 A 
ATOM     69  C   UNL A   1      50.409  25.890  35.871  1.00  0.00     0.010 A 
ATOM     70  C   UNL A   1      50.086  23.435  37.173  1.00  0.00     0.020 A 
ATOM     71  C   UNL A   1      51.507  25.041  36.028  1.00  0.00     0.020 A 
ATOM     72  C   UNL A   1      51.339  23.822  36.685  1.00  0.00     0.054 A 
BRANCH  72  73
ATOM     73  S   UNL A   1      52.737  22.683  36.883  1.00  0.00     0.124 S 
ATOM     74  O   UNL A   1      53.480  22.897  35.643  1.00  0.00    -0.237 OA
ATOM     75  O   UNL A   1      53.384  23.181  38.095  1.00  0.00    -0.237 OA
ATOM     76  O   UNL A   1      52.105  21.374  37.011  1.00  0.00    -0.744 OA
ENDBRANCH  72  73
ENDBRANCH  53  67
BRANCH  54  77
ATOM     77  C   UNL A   1      41.033  31.056  34.419  1.00  0.00    -0.014 A 
ATOM     78  C   UNL A   1      41.063  32.281  33.729  1.00  0.00     0.010 A 
ATOM     79  C   UNL A   1      39.804  30.590  34.922  1.00  0.00     0.010 A 
ATOM     80  C   UNL A   1      39.896  33.037  33.576  1.00  0.00     0.020 A 
ATOM     81  C   UNL A   1      38.630  31.326  34.742  1.00  0.00     0.020 A 
ATOM     82  C   UNL A   1      38.687  32.555  34.086  1.00  0.00     0.054 A 
BRANCH  82  83
ATOM     83  S   UNL A   1      37.183  33.545  33.861  1.00  0.00     0.124 S 
ATOM     84  O   UNL A   1      36.226  32.840  34.709  1.00  0.00    -0.237 OA
ATOM     85  O   UNL A   1      37.599  34.862  34.337  1.00  0.00    -0.237 OA
ATOM     86  O   UNL A   1      36.927  33.460  32.425  1.00  0.00    -0.744 OA
ENDBRANCH  82  83
ENDBRANCH  54  77
BRANCH  66  87
ATOM     87  C   UNL A   1      45.602  30.817  39.699  1.00  0.00    -0.014 A 
ATOM     88  C   UNL A   1      45.152  30.278  40.917  1.00  0.00     0.010 A 
ATOM     89  C   UNL A   1      46.240  32.073  39.702  1.00  0.00     0.010 A 
ATOM     90  C   UNL A   1      45.309  30.993  42.108  1.00  0.00     0.020 A 
ATOM     91  C   UNL A   1      46.428  32.776  40.894  1.00  0.00     0.020 A 
ATOM     92  C   UNL A   1      45.949  32.237  42.089  1.00  0.00     0.054 A 
BRANCH  92  93
ATOM     93  S   UNL A   1      46.186  33.120  43.655  1.00  0.00     0.124 S 
ATOM     94  O   UNL A   1      45.307  32.381  44.557  1.00  0.00    -0.237 OA
ATOM     95  O   UNL A   1      47.617  32.960  43.900  1.00  0.00    -0.237 OA
ATOM     96  O   UNL A   1      45.761  34.486  43.353  1.00  0.00    -0.744 OA
ENDBRANCH  92  93
ENDBRANCH  66  87
ENDBRANCH  40  41
ENDBRANCH  33  35
ENDBRANCH  32  33
ENDBRANCH  31  32
ENDBRANCH  30  31
ENDBRANCH  29  30
ENDBRANCH  28  29
ENDBRANCH  27  28
ENDBRANCH  26  27
ENDBRANCH   1  26
TORSDOF 29
ENDMDL
