MODEL 1
REMARK VINA RESULT:      -7.5      0.000      0.000
REMARK SMILES CC[C@@H](C)[C@H](NC(=O)[C@H](C)N1C(=O)N2CCC3=c4cc(OC)ccc4=N[C@H]3[C@@]2(C)C1=O)C(=O)OCCOCCOCCOCCOC(=O)c1ccc(-c2c3nc(c(-c4ccc(S(=O)(=O)[O-])cc4)c4ccc([nH]4)c(-c4ccc(S(=O)(=O)[O-])cc4)c4nc(c(-c5ccc(S(=O)(=O)[O-])cc5)c5ccc2[nH]5)C=C4)C=C3)cc1
REMARK SMILES IDX 39 1 38 2 37 3 36 4 35 5 34 6 32 7 33 8 5 9 3 10 4 11 2 12
REMARK SMILES IDX 1 13 6 14 7 15 8 17 9 18 10 19 11 20 12 21 30 22 14 23 13 24
REMARK SMILES IDX 28 25 31 26 15 27 27 28 29 29 16 30 17 31 26 32 18 33 25 34
REMARK SMILES IDX 19 35 24 36 20 37 23 38 21 39 22 40 40 41 41 42 42 43 43 44
REMARK SMILES IDX 44 45 45 46 46 47 47 48 48 49 49 50 50 51 108 52 51 53
REMARK SMILES IDX 107 54 52 55 53 56 54 57 101 58 55 59 106 60 100 61 102 62
REMARK SMILES IDX 56 63 105 64 99 65 98 66 57 68 87 69 68 70 86 71 69 72 72 73
REMARK SMILES IDX 85 74 103 75 70 76 71 77 84 79 104 80 73 81 58 82 59 83
REMARK SMILES IDX 67 84 60 85 66 86 61 87 62 88 63 89 64 90 65 91 88 92 89 93
REMARK SMILES IDX 97 94 90 95 96 96 91 97 92 98 93 99 94 100 95 101 74 102
REMARK SMILES IDX 75 103 83 104 76 105 82 106 77 107 78 108 79 109 80 110
REMARK SMILES IDX 81 111
REMARK H PARENT 6 16 102 67 72 78
REMARK Flexibility Score: inf
ROOT
ATOM      1  C   UNL A   1      32.466  32.725  26.887  1.00  0.00     0.188 C 
ENDROOT
BRANCH   1   2
ATOM      2  C   UNL A   1      32.909  31.434  27.561  1.00  0.00     0.188 C 
BRANCH   2   3
ATOM      3  O   UNL A   1      32.707  30.178  26.944  1.00  0.00    -0.376 OA
BRANCH   3   4
ATOM      4  C   UNL A   1      33.811  29.433  26.449  1.00  0.00     0.202 C 
BRANCH   4   5
ATOM      5  C   UNL A   1      33.848  29.025  24.962  1.00  0.00     0.261 C 
BRANCH   5   6
ATOM      6  O   UNL A   1      32.616  28.520  24.398  1.00  0.00    -0.462 OA
BRANCH   6   7
ATOM      7  C   UNL A   1      32.633  28.181  23.089  1.00  0.00     0.328 C 
ATOM      8  O   UNL A   1      33.543  28.471  22.313  1.00  0.00    -0.250 OA
BRANCH   7   9
ATOM      9  C   UNL A   1      31.313  27.521  22.581  1.00  0.00     0.195 C 
BRANCH   9  10
ATOM     10  C   UNL A   1      30.234  28.502  23.216  1.00  0.00     0.019 C 
ATOM     11  C   UNL A   1      28.877  27.821  23.442  1.00  0.00     0.010 C 
BRANCH  10  12
ATOM     12  C   UNL A   1      30.099  29.850  22.486  1.00  0.00     0.002 C 
ATOM     13  C   UNL A   1      28.969  30.714  23.053  1.00  0.00     0.004 C 
ENDBRANCH  10  12
ENDBRANCH   9  10
BRANCH   9  14
ATOM     14  N   UNL A   1      30.994  26.065  22.849  1.00  0.00    -0.341 N 
ATOM     15  C   UNL A   1      31.491  24.786  22.695  1.00  0.00     0.243 C 
ATOM     16  H   UNL A   1      30.117  26.012  23.293  1.00  0.00     0.164 HD
ATOM     17  O   UNL A   1      30.675  23.913  23.016  1.00  0.00    -0.273 OA
BRANCH  15  18
ATOM     18  C   UNL A   1      32.901  24.380  22.135  1.00  0.00     0.181 C 
ATOM     19  C   UNL A   1      32.840  24.541  20.581  1.00  0.00     0.042 C 
BRANCH  18  20
ATOM     20  N   UNL A   1      33.644  23.105  22.548  1.00  0.00    -0.250 N 
ATOM     21  C   UNL A   1      34.909  22.793  23.110  1.00  0.00     0.328 C 
ATOM     22  C   UNL A   1      32.872  21.988  22.679  1.00  0.00     0.259 C 
ATOM     23  N   UNL A   1      34.727  21.488  23.862  1.00  0.00    -0.307 N 
ATOM     24  O   UNL A   1      35.937  23.442  23.138  1.00  0.00    -0.248 OA
ATOM     25  C   UNL A   1      33.298  21.388  23.967  1.00  0.00     0.147 C 
ATOM     26  O   UNL A   1      31.930  21.636  21.982  1.00  0.00    -0.271 OA
ATOM     27  C   UNL A   1      35.391  21.120  25.222  1.00  0.00     0.127 C 
ATOM     28  C   UNL A   1      33.054  22.491  25.083  1.00  0.00     0.168 C 
ATOM     29  C   UNL A   1      32.854  19.933  24.117  1.00  0.00     0.048 C 
ATOM     30  C   UNL A   1      34.298  21.221  26.620  1.00  0.00     0.055 C 
ATOM     31  C   UNL A   1      32.987  22.210  26.521  1.00  0.00    -0.032 C 
ATOM     32  N   UNL A   1      33.165  23.961  24.862  1.00  0.00    -0.274 NA
ATOM     33  C   UNL A   1      32.654  23.437  27.071  1.00  0.00     0.005 A 
ATOM     34  C   UNL A   1      33.348  24.352  26.093  1.00  0.00     0.066 A 
ATOM     35  C   UNL A   1      31.257  24.084  26.983  1.00  0.00     0.056 A 
ATOM     36  C   UNL A   1      33.534  25.750  26.443  1.00  0.00     0.032 A 
ATOM     37  C   UNL A   1      31.132  25.415  26.660  1.00  0.00     0.119 A 
ATOM     38  C   UNL A   1      32.317  26.289  26.606  1.00  0.00     0.048 A 
BRANCH  37  39
ATOM     39  O   UNL A   1      29.933  26.046  26.393  1.00  0.00    -0.497 OA
ATOM     40  C   UNL A   1      28.855  25.164  26.039  1.00  0.00     0.278 C 
ENDBRANCH  37  39
ENDBRANCH  18  20
ENDBRANCH  15  18
ENDBRANCH   9  14
ENDBRANCH   7   9
ENDBRANCH   6   7
ENDBRANCH   5   6
ENDBRANCH   4   5
ENDBRANCH   3   4
ENDBRANCH   2   3
ENDBRANCH   1   2
BRANCH   1  41
ATOM     41  O   UNL A   1      32.446  33.894  27.675  1.00  0.00    -0.377 OA
BRANCH  41  42
ATOM     42  C   UNL A   1      33.216  33.911  28.865  1.00  0.00     0.188 C 
BRANCH  42  43
ATOM     43  C   UNL A   1      34.631  34.486  28.692  1.00  0.00     0.188 C 
BRANCH  43  44
ATOM     44  O   UNL A   1      35.302  34.717  29.929  1.00  0.00    -0.376 OA
BRANCH  44  45
ATOM     45  C   UNL A   1      34.680  34.205  31.106  1.00  0.00     0.202 C 
BRANCH  45  46
ATOM     46  C   UNL A   1      35.527  33.265  31.955  1.00  0.00     0.261 C 
BRANCH  46  47
ATOM     47  O   UNL A   1      36.948  33.444  31.936  1.00  0.00    -0.460 OA
BRANCH  47  48
ATOM     48  C   UNL A   1      37.549  34.064  32.971  1.00  0.00     0.338 C 
ATOM     49  O   UNL A   1      37.115  34.995  33.607  1.00  0.00    -0.246 OA
BRANCH  48  50
ATOM     50  C   UNL A   1      38.716  33.219  33.335  1.00  0.00     0.060 A 
ATOM     51  C   UNL A   1      38.559  31.990  33.981  1.00  0.00     0.016 A 
ATOM     52  C   UNL A   1      39.997  33.706  33.056  1.00  0.00     0.016 A 
ATOM     53  C   UNL A   1      39.689  31.231  34.313  1.00  0.00     0.010 A 
ATOM     54  C   UNL A   1      41.123  32.954  33.396  1.00  0.00     0.010 A 
ATOM     55  C   UNL A   1      40.977  31.693  33.995  1.00  0.00    -0.014 A 
BRANCH  55  56
ATOM     56  C   UNL A   1      42.152  30.788  34.060  1.00  0.00     0.031 A 
ATOM     57  C   UNL A   1      42.470  29.800  32.979  1.00  0.00     0.074 A 
ATOM     58  C   UNL A   1      42.891  30.817  35.187  1.00  0.00     0.049 A 
ATOM     59  N   UNL A   1      43.444  28.925  32.932  1.00  0.00    -0.248 NA
ATOM     60  C   UNL A   1      41.584  29.779  31.808  1.00  0.00     0.031 C 
ATOM     61  C   UNL A   1      42.646  31.719  36.313  1.00  0.00     0.029 A 
ATOM     62  N   UNL A   1      43.979  30.079  35.579  1.00  0.00    -0.354 N 
ATOM     63  C   UNL A   1      43.309  28.266  31.716  1.00  0.00     0.074 A 
ATOM     64  C   UNL A   1      42.118  28.801  31.085  1.00  0.00     0.031 C 
ATOM     65  C   UNL A   1      43.568  31.498  37.259  1.00  0.00     0.029 A 
ATOM     66  C   UNL A   1      44.443  30.411  36.830  1.00  0.00     0.049 A 
ATOM     67  H   UNL A   1      44.388  29.380  35.019  1.00  0.00     0.167 HD
ATOM     68  C   UNL A   1      44.119  27.324  31.175  1.00  0.00     0.031 A 
ATOM     69  C   UNL A   1      45.453  29.903  37.561  1.00  0.00     0.031 A 
ATOM     70  C   UNL A   1      45.279  26.777  31.842  1.00  0.00     0.049 A 
ATOM     71  C   UNL A   1      46.305  28.820  36.970  1.00  0.00     0.074 A 
ATOM     72  C   UNL A   1      46.169  25.826  31.374  1.00  0.00     0.029 A 
ATOM     73  N   UNL A   1      45.707  27.123  33.118  1.00  0.00    -0.354 N 
ATOM     74  N   UNL A   1      46.200  28.247  35.794  1.00  0.00    -0.248 NA
ATOM     75  C   UNL A   1      47.421  28.324  37.785  1.00  0.00     0.031 C 
ATOM     76  C   UNL A   1      47.085  25.543  32.390  1.00  0.00     0.029 A 
ATOM     77  C   UNL A   1      46.828  26.382  33.463  1.00  0.00     0.049 A 
ATOM     78  H   UNL A   1      45.278  27.796  33.694  1.00  0.00     0.167 HD
ATOM     79  C   UNL A   1      47.245  27.335  35.719  1.00  0.00     0.074 A 
ATOM     80  C   UNL A   1      47.983  27.446  36.962  1.00  0.00     0.031 C 
ATOM     81  C   UNL A   1      47.556  26.484  34.709  1.00  0.00     0.031 A 
BRANCH  68  82
ATOM     82  C   UNL A   1      43.806  26.829  29.780  1.00  0.00    -0.014 A 
ATOM     83  C   UNL A   1      44.278  27.522  28.650  1.00  0.00     0.010 A 
ATOM     84  C   UNL A   1      42.947  25.730  29.587  1.00  0.00     0.010 A 
ATOM     85  C   UNL A   1      43.887  27.141  27.361  1.00  0.00     0.020 A 
ATOM     86  C   UNL A   1      42.580  25.324  28.301  1.00  0.00     0.020 A 
ATOM     87  C   UNL A   1      43.037  26.045  27.195  1.00  0.00     0.054 A 
BRANCH  87  88
ATOM     88  S   UNL A   1      42.541  25.562  25.517  1.00  0.00     0.124 S 
ATOM     89  O   UNL A   1      43.546  26.227  24.693  1.00  0.00    -0.237 OA
ATOM     90  O   UNL A   1      42.627  24.105  25.568  1.00  0.00    -0.237 OA
ATOM     91  O   UNL A   1      41.183  26.091  25.397  1.00  0.00    -0.744 OA
ENDBRANCH  87  88
ENDBRANCH  68  82
BRANCH  69  92
ATOM     92  C   UNL A   1      45.723  30.498  38.901  1.00  0.00    -0.014 A 
ATOM     93  C   UNL A   1      45.153  29.931  40.058  1.00  0.00     0.010 A 
ATOM     94  C   UNL A   1      46.402  31.723  39.004  1.00  0.00     0.010 A 
ATOM     95  C   UNL A   1      45.175  30.624  41.271  1.00  0.00     0.020 A 
ATOM     96  C   UNL A   1      46.456  32.405  40.224  1.00  0.00     0.020 A 
ATOM     97  C   UNL A   1      45.806  31.869  41.338  1.00  0.00     0.054 A 
BRANCH  97  98
ATOM     98  S   UNL A   1      45.708  32.810  42.888  1.00  0.00     0.124 S 
ATOM     99  O   UNL A   1      44.265  32.955  43.060  1.00  0.00    -0.237 OA
ATOM    100  O   UNL A   1      46.369  31.921  43.840  1.00  0.00    -0.237 OA
ATOM    101  O   UNL A   1      46.428  34.044  42.588  1.00  0.00    -0.744 OA
ENDBRANCH  97  98
ENDBRANCH  69  92
BRANCH  81 102
ATOM    102  C   UNL A   1      48.747  25.574  34.886  1.00  0.00    -0.014 A 
ATOM    103  C   UNL A   1      50.021  25.997  34.460  1.00  0.00     0.010 A 
ATOM    104  C   UNL A   1      48.584  24.252  35.335  1.00  0.00     0.010 A 
ATOM    105  C   UNL A   1      51.094  25.102  34.427  1.00  0.00     0.020 A 
ATOM    106  C   UNL A   1      49.663  23.362  35.337  1.00  0.00     0.020 A 
ATOM    107  C   UNL A   1      50.903  23.785  34.853  1.00  0.00     0.054 A 
BRANCH 107 108
ATOM    108  S   UNL A   1      52.291  22.621  34.737  1.00  0.00     0.124 S 
ATOM    109  O   UNL A   1      53.185  23.102  35.785  1.00  0.00    -0.237 OA
ATOM    110  O   UNL A   1      51.651  21.334  34.997  1.00  0.00    -0.237 OA
ATOM    111  O   UNL A   1      52.777  22.801  33.371  1.00  0.00    -0.744 OA
ENDBRANCH 107 108
ENDBRANCH  81 102
ENDBRANCH  55  56
ENDBRANCH  48  50
ENDBRANCH  47  48
ENDBRANCH  46  47
ENDBRANCH  45  46
ENDBRANCH  44  45
ENDBRANCH  43  44
ENDBRANCH  42  43
ENDBRANCH  41  42
ENDBRANCH   1  41
TORSDOF 29
ENDMDL
MODEL 2
REMARK VINA RESULT:      -7.3      6.242     12.749
REMARK SMILES CC[C@@H](C)[C@H](NC(=O)[C@H](C)N1C(=O)N2CCC3=c4cc(OC)ccc4=N[C@H]3[C@@]2(C)C1=O)C(=O)OCCOCCOCCOCCOC(=O)c1ccc(-c2c3nc(c(-c4ccc(S(=O)(=O)[O-])cc4)c4ccc([nH]4)c(-c4ccc(S(=O)(=O)[O-])cc4)c4nc(c(-c5ccc(S(=O)(=O)[O-])cc5)c5ccc2[nH]5)C=C4)C=C3)cc1
REMARK SMILES IDX 39 1 38 2 37 3 36 4 35 5 34 6 32 7 33 8 5 9 3 10 4 11 2 12
REMARK SMILES IDX 1 13 6 14 7 15 8 17 9 18 10 19 11 20 12 21 30 22 14 23 13 24
REMARK SMILES IDX 28 25 31 26 15 27 27 28 29 29 16 30 17 31 26 32 18 33 25 34
REMARK SMILES IDX 19 35 24 36 20 37 23 38 21 39 22 40 40 41 41 42 42 43 43 44
REMARK SMILES IDX 44 45 45 46 46 47 47 48 48 49 49 50 50 51 108 52 51 53
REMARK SMILES IDX 107 54 52 55 53 56 54 57 101 58 55 59 106 60 100 61 102 62
REMARK SMILES IDX 56 63 105 64 99 65 98 66 57 68 87 69 68 70 86 71 69 72 72 73
REMARK SMILES IDX 85 74 103 75 70 76 71 77 84 79 104 80 73 81 58 82 59 83
REMARK SMILES IDX 67 84 60 85 66 86 61 87 62 88 63 89 64 90 65 91 88 92 89 93
REMARK SMILES IDX 97 94 90 95 96 96 91 97 92 98 93 99 94 100 95 101 74 102
REMARK SMILES IDX 75 103 83 104 76 105 82 106 77 107 78 108 79 109 80 110
REMARK SMILES IDX 81 111
REMARK H PARENT 6 16 102 67 72 78
REMARK Flexibility Score: inf
ROOT
ATOM      1  C   UNL A   1      49.537  28.208  27.290  1.00  0.00     0.188 C 
ENDROOT
BRANCH   1   2
ATOM      2  C   UNL A   1      48.030  28.348  27.455  1.00  0.00     0.188 C 
BRANCH   2   3
ATOM      3  O   UNL A   1      47.464  29.479  28.087  1.00  0.00    -0.376 OA
BRANCH   3   4
ATOM      4  C   UNL A   1      46.577  29.321  29.186  1.00  0.00     0.202 C 
BRANCH   4   5
ATOM      5  C   UNL A   1      46.073  30.567  29.941  1.00  0.00     0.261 C 
BRANCH   5   6
ATOM      6  O   UNL A   1      45.449  31.600  29.144  1.00  0.00    -0.462 OA
BRANCH   6   7
ATOM      7  C   UNL A   1      44.238  31.318  28.610  1.00  0.00     0.328 C 
ATOM      8  O   UNL A   1      43.178  31.391  29.230  1.00  0.00    -0.250 OA
BRANCH   7   9
ATOM      9  C   UNL A   1      44.297  30.724  27.168  1.00  0.00     0.195 C 
BRANCH   9  10
ATOM     10  C   UNL A   1      44.796  31.993  26.350  1.00  0.00     0.019 C 
ATOM     11  C   UNL A   1      46.317  32.000  26.140  1.00  0.00     0.010 C 
BRANCH  10  12
ATOM     12  C   UNL A   1      44.272  33.337  26.884  1.00  0.00     0.002 C 
ATOM     13  C   UNL A   1      44.028  34.358  25.770  1.00  0.00     0.004 C 
ENDBRANCH  10  12
ENDBRANCH   9  10
BRANCH   9  14
ATOM     14  N   UNL A   1      43.095  30.063  26.527  1.00  0.00    -0.341 N 
ATOM     15  C   UNL A   1      42.562  28.831  26.204  1.00  0.00     0.243 C 
ATOM     16  H   UNL A   1      42.468  30.765  26.237  1.00  0.00     0.164 HD
ATOM     17  O   UNL A   1      41.529  28.918  25.528  1.00  0.00    -0.273 OA
BRANCH  15  18
ATOM     18  C   UNL A   1      43.153  27.420  26.563  1.00  0.00     0.181 C 
ATOM     19  C   UNL A   1      44.663  27.440  26.156  1.00  0.00     0.042 C 
BRANCH  18  20
ATOM     20  N   UNL A   1      42.478  26.097  26.190  1.00  0.00    -0.250 N 
ATOM     21  C   UNL A   1      42.863  24.900  25.532  1.00  0.00     0.328 C 
ATOM     22  C   UNL A   1      41.308  25.827  26.838  1.00  0.00     0.259 C 
ATOM     23  N   UNL A   1      41.977  23.805  26.093  1.00  0.00    -0.307 N 
ATOM     24  O   UNL A   1      43.782  24.687  24.764  1.00  0.00    -0.248 OA
ATOM     25  C   UNL A   1      41.441  24.416  27.278  1.00  0.00     0.147 C 
ATOM     26  O   UNL A   1      40.414  26.606  27.136  1.00  0.00    -0.271 OA
ATOM     27  C   UNL A   1      42.417  22.342  26.397  1.00  0.00     0.127 C 
ATOM     28  C   UNL A   1      42.734  24.348  28.197  1.00  0.00     0.168 C 
ATOM     29  C   UNL A   1      40.103  23.789  27.668  1.00  0.00     0.048 C 
ATOM     30  C   UNL A   1      42.672  22.000  28.123  1.00  0.00     0.055 C 
ATOM     31  C   UNL A   1      43.030  23.253  29.127  1.00  0.00    -0.032 C 
ATOM     32  N   UNL A   1      43.944  25.203  28.025  1.00  0.00    -0.274 NA
ATOM     33  C   UNL A   1      44.178  23.682  29.771  1.00  0.00     0.005 A 
ATOM     34  C   UNL A   1      44.819  24.468  28.655  1.00  0.00     0.066 A 
ATOM     35  C   UNL A   1      44.218  24.796  30.838  1.00  0.00     0.056 A 
ATOM     36  C   UNL A   1      46.215  24.855  28.774  1.00  0.00     0.032 A 
ATOM     37  C   UNL A   1      45.188  25.769  30.784  1.00  0.00     0.119 A 
ATOM     38  C   UNL A   1      46.320  25.648  29.850  1.00  0.00     0.048 A 
BRANCH  37  39
ATOM     39  O   UNL A   1      45.212  26.895  31.583  1.00  0.00    -0.497 OA
ATOM     40  C   UNL A   1      46.364  27.002  32.436  1.00  0.00     0.278 C 
ENDBRANCH  37  39
ENDBRANCH  18  20
ENDBRANCH  15  18
ENDBRANCH   9  14
ENDBRANCH   7   9
ENDBRANCH   6   7
ENDBRANCH   5   6
ENDBRANCH   4   5
ENDBRANCH   3   4
ENDBRANCH   2   3
ENDBRANCH   1   2
BRANCH   1  41
ATOM     41  O   UNL A   1      50.327  28.278  28.456  1.00  0.00    -0.377 OA
BRANCH  41  42
ATOM     42  C   UNL A   1      51.550  28.991  28.391  1.00  0.00     0.188 C 
BRANCH  42  43
ATOM     43  C   UNL A   1      51.628  30.195  29.343  1.00  0.00     0.188 C 
BRANCH  43  44
ATOM     44  O   UNL A   1      52.955  30.493  29.771  1.00  0.00    -0.376 OA
BRANCH  44  45
ATOM     45  C   UNL A   1      53.169  30.606  31.177  1.00  0.00     0.202 C 
BRANCH  45  46
ATOM     46  C   UNL A   1      52.738  31.921  31.815  1.00  0.00     0.261 C 
BRANCH  46  47
ATOM     47  O   UNL A   1      52.798  32.023  33.242  1.00  0.00    -0.460 OA
BRANCH  47  48
ATOM     48  C   UNL A   1      52.274  33.106  33.850  1.00  0.00     0.338 C 
ATOM     49  O   UNL A   1      52.883  34.045  34.307  1.00  0.00    -0.246 OA
BRANCH  48  50
ATOM     50  C   UNL A   1      50.808  33.041  33.615  1.00  0.00     0.060 A 
ATOM     51  C   UNL A   1      49.926  33.936  34.226  1.00  0.00     0.016 A 
ATOM     52  C   UNL A   1      50.316  32.022  32.793  1.00  0.00     0.016 A 
ATOM     53  C   UNL A   1      48.551  33.832  33.983  1.00  0.00     0.010 A 
ATOM     54  C   UNL A   1      48.943  31.913  32.558  1.00  0.00     0.010 A 
ATOM     55  C   UNL A   1      48.053  32.839  33.122  1.00  0.00    -0.014 A 
BRANCH  55  56
ATOM     56  C   UNL A   1      46.658  32.895  32.615  1.00  0.00     0.031 A 
ATOM     57  C   UNL A   1      46.159  34.010  31.748  1.00  0.00     0.074 A 
ATOM     58  C   UNL A   1      45.809  31.939  33.042  1.00  0.00     0.049 A 
ATOM     59  N   UNL A   1      44.953  34.198  31.271  1.00  0.00    -0.248 NA
ATOM     60  C   UNL A   1      47.124  35.052  31.375  1.00  0.00     0.031 C 
ATOM     61  C   UNL A   1      46.186  30.827  33.915  1.00  0.00     0.029 A 
ATOM     62  N   UNL A   1      44.470  31.747  32.815  1.00  0.00    -0.354 N 
ATOM     63  C   UNL A   1      45.017  35.363  30.517  1.00  0.00     0.074 A 
ATOM     64  C   UNL A   1      46.367  35.873  30.654  1.00  0.00     0.031 C 
ATOM     65  C   UNL A   1      45.113  30.057  34.133  1.00  0.00     0.029 A 
ATOM     66  C   UNL A   1      43.960  30.641  33.453  1.00  0.00     0.049 A 
ATOM     67  H   UNL A   1      43.927  32.343  32.250  1.00  0.00     0.167 HD
ATOM     68  C   UNL A   1      44.044  35.933  29.765  1.00  0.00     0.031 A 
ATOM     69  C   UNL A   1      42.708  30.145  33.498  1.00  0.00     0.031 A 
ATOM     70  C   UNL A   1      42.693  35.428  29.677  1.00  0.00     0.049 A 
ATOM     71  C   UNL A   1      41.630  30.822  32.705  1.00  0.00     0.074 A 
ATOM     72  C   UNL A   1      41.636  35.929  28.934  1.00  0.00     0.029 A 
ATOM     73  N   UNL A   1      42.207  34.316  30.353  1.00  0.00    -0.354 N 
ATOM     74  N   UNL A   1      41.719  31.891  31.949  1.00  0.00    -0.248 NA
ATOM     75  C   UNL A   1      40.290  30.224  32.749  1.00  0.00     0.031 C 
ATOM     76  C   UNL A   1      40.499  35.169  29.220  1.00  0.00     0.029 A 
ATOM     77  C   UNL A   1      40.861  34.135  30.070  1.00  0.00     0.049 A 
ATOM     78  H   UNL A   1      42.739  33.740  30.947  1.00  0.00     0.167 HD
ATOM     79  C   UNL A   1      40.452  32.086  31.414  1.00  0.00     0.074 A 
ATOM     80  C   UNL A   1      39.618  31.012  31.918  1.00  0.00     0.031 C 
ATOM     81  C   UNL A   1      40.026  33.070  30.583  1.00  0.00     0.031 A 
BRANCH  68  82
ATOM     82  C   UNL A   1      44.396  37.159  28.951  1.00  0.00    -0.014 A 
ATOM     83  C   UNL A   1      44.089  38.448  29.426  1.00  0.00     0.010 A 
ATOM     84  C   UNL A   1      44.939  37.028  27.659  1.00  0.00     0.010 A 
ATOM     85  C   UNL A   1      44.299  39.575  28.623  1.00  0.00     0.020 A 
ATOM     86  C   UNL A   1      45.182  38.153  26.866  1.00  0.00     0.020 A 
ATOM     87  C   UNL A   1      44.842  39.419  27.346  1.00  0.00     0.054 A 
BRANCH  87  88
ATOM     88  S   UNL A   1      45.110  40.891  26.318  1.00  0.00     0.124 S 
ATOM     89  O   UNL A   1      43.780  41.492  26.283  1.00  0.00    -0.237 OA
ATOM     90  O   UNL A   1      46.118  41.629  27.076  1.00  0.00    -0.237 OA
ATOM     91  O   UNL A   1      45.581  40.341  25.049  1.00  0.00    -0.744 OA
ENDBRANCH  87  88
ENDBRANCH  68  82
BRANCH  69  92
ATOM     92  C   UNL A   1      42.471  28.898  34.277  1.00  0.00    -0.014 A 
ATOM     93  C   UNL A   1      42.371  28.945  35.682  1.00  0.00     0.010 A 
ATOM     94  C   UNL A   1      42.520  27.648  33.639  1.00  0.00     0.010 A 
ATOM     95  C   UNL A   1      42.418  27.770  36.436  1.00  0.00     0.020 A 
ATOM     96  C   UNL A   1      42.534  26.467  34.388  1.00  0.00     0.020 A 
ATOM     97  C   UNL A   1      42.525  26.540  35.783  1.00  0.00     0.054 A 
BRANCH  97  98
ATOM     98  S   UNL A   1      42.718  25.038  36.786  1.00  0.00     0.124 S 
ATOM     99  O   UNL A   1      44.143  25.071  37.104  1.00  0.00    -0.237 OA
ATOM    100  O   UNL A   1      41.817  25.289  37.907  1.00  0.00    -0.237 OA
ATOM    101  O   UNL A   1      42.304  23.967  35.884  1.00  0.00    -0.744 OA
ENDBRANCH  97  98
ENDBRANCH  69  92
BRANCH  81 102
ATOM    102  C   UNL A   1      38.579  33.064  30.155  1.00  0.00    -0.014 A 
ATOM    103  C   UNL A   1      38.166  32.238  29.092  1.00  0.00     0.010 A 
ATOM    104  C   UNL A   1      37.661  33.978  30.703  1.00  0.00     0.010 A 
ATOM    105  C   UNL A   1      36.884  32.363  28.549  1.00  0.00     0.020 A 
ATOM    106  C   UNL A   1      36.365  34.082  30.185  1.00  0.00     0.020 A 
ATOM    107  C   UNL A   1      35.997  33.296  29.091  1.00  0.00     0.054 A 
BRANCH 107 108
ATOM    108  S   UNL A   1      34.363  33.492  28.327  1.00  0.00     0.124 S 
ATOM    109  O   UNL A   1      34.602  34.552  27.353  1.00  0.00    -0.237 OA
ATOM    110  O   UNL A   1      34.111  32.166  27.767  1.00  0.00    -0.237 OA
ATOM    111  O   UNL A   1      33.501  33.858  29.449  1.00  0.00    -0.744 OA
ENDBRANCH 107 108
ENDBRANCH  81 102
ENDBRANCH  55  56
ENDBRANCH  48  50
ENDBRANCH  47  48
ENDBRANCH  46  47
ENDBRANCH  45  46
ENDBRANCH  44  45
ENDBRANCH  43  44
ENDBRANCH  42  43
ENDBRANCH  41  42
ENDBRANCH   1  41
TORSDOF 29
ENDMDL
MODEL 3
REMARK VINA RESULT:      -7.2      1.584      2.046
REMARK SMILES CC[C@@H](C)[C@H](NC(=O)[C@H](C)N1C(=O)N2CCC3=c4cc(OC)ccc4=N[C@H]3[C@@]2(C)C1=O)C(=O)OCCOCCOCCOCCOC(=O)c1ccc(-c2c3nc(c(-c4ccc(S(=O)(=O)[O-])cc4)c4ccc([nH]4)c(-c4ccc(S(=O)(=O)[O-])cc4)c4nc(c(-c5ccc(S(=O)(=O)[O-])cc5)c5ccc2[nH]5)C=C4)C=C3)cc1
REMARK SMILES IDX 39 1 38 2 37 3 36 4 35 5 34 6 32 7 33 8 5 9 3 10 4 11 2 12
REMARK SMILES IDX 1 13 6 14 7 15 8 17 9 18 10 19 11 20 12 21 30 22 14 23 13 24
REMARK SMILES IDX 28 25 31 26 15 27 27 28 29 29 16 30 17 31 26 32 18 33 25 34
REMARK SMILES IDX 19 35 24 36 20 37 23 38 21 39 22 40 40 41 41 42 42 43 43 44
REMARK SMILES IDX 44 45 45 46 46 47 47 48 48 49 49 50 50 51 108 52 51 53
REMARK SMILES IDX 107 54 52 55 53 56 54 57 101 58 55 59 106 60 100 61 102 62
REMARK SMILES IDX 56 63 105 64 99 65 98 66 57 68 87 69 68 70 86 71 69 72 72 73
REMARK SMILES IDX 85 74 103 75 70 76 71 77 84 79 104 80 73 81 58 82 59 83
REMARK SMILES IDX 67 84 60 85 66 86 61 87 62 88 63 89 64 90 65 91 88 92 89 93
REMARK SMILES IDX 97 94 90 95 96 96 91 97 92 98 93 99 94 100 95 101 74 102
REMARK SMILES IDX 75 103 83 104 76 105 82 106 77 107 78 108 79 109 80 110
REMARK SMILES IDX 81 111
REMARK H PARENT 6 16 102 67 72 78
REMARK Flexibility Score: inf
ROOT
ATOM      1  C   UNL A   1      32.112  32.004  26.530  1.00  0.00     0.188 C 
ENDROOT
BRANCH   1   2
ATOM      2  C   UNL A   1      32.852  30.888  27.255  1.00  0.00     0.188 C 
BRANCH   2   3
ATOM      3  O   UNL A   1      32.957  29.594  26.696  1.00  0.00    -0.376 OA
BRANCH   3   4
ATOM      4  C   UNL A   1      34.146  29.191  26.031  1.00  0.00     0.202 C 
BRANCH   4   5
ATOM      5  C   UNL A   1      34.087  28.787  24.544  1.00  0.00     0.261 C 
BRANCH   5   6
ATOM      6  O   UNL A   1      32.882  28.120  24.100  1.00  0.00    -0.462 OA
BRANCH   6   7
ATOM      7  C   UNL A   1      32.698  28.007  22.765  1.00  0.00     0.328 C 
ATOM      8  O   UNL A   1      33.441  28.506  21.922  1.00  0.00    -0.250 OA
BRANCH   7   9
ATOM      9  C   UNL A   1      31.357  27.319  22.361  1.00  0.00     0.195 C 
BRANCH   9  10
ATOM     10  C   UNL A   1      30.307  28.356  22.955  1.00  0.00     0.019 C 
ATOM     11  C   UNL A   1      28.968  27.698  23.319  1.00  0.00     0.010 C 
BRANCH  10  12
ATOM     12  C   UNL A   1      30.124  29.627  22.107  1.00  0.00     0.002 C 
ATOM     13  C   UNL A   1      28.690  30.162  22.151  1.00  0.00     0.004 C 
ENDBRANCH  10  12
ENDBRANCH   9  10
BRANCH   9  14
ATOM     14  N   UNL A   1      31.040  25.892  22.754  1.00  0.00    -0.341 N 
ATOM     15  C   UNL A   1      31.543  24.606  22.719  1.00  0.00     0.243 C 
ATOM     16  H   UNL A   1      30.160  25.875  23.194  1.00  0.00     0.164 HD
ATOM     17  O   UNL A   1      30.727  23.762  23.110  1.00  0.00    -0.273 OA
BRANCH  15  18
ATOM     18  C   UNL A   1      32.960  24.158  22.209  1.00  0.00     0.181 C 
ATOM     19  C   UNL A   1      32.903  24.155  20.646  1.00  0.00     0.042 C 
BRANCH  18  20
ATOM     20  N   UNL A   1      33.713  22.941  22.755  1.00  0.00    -0.250 N 
ATOM     21  C   UNL A   1      34.927  22.716  23.454  1.00  0.00     0.328 C 
ATOM     22  C   UNL A   1      32.982  21.794  22.864  1.00  0.00     0.259 C 
ATOM     23  N   UNL A   1      34.729  21.439  24.247  1.00  0.00    -0.307 N 
ATOM     24  O   UNL A   1      35.918  23.416  23.551  1.00  0.00    -0.248 OA
ATOM     25  C   UNL A   1      33.302  21.274  24.216  1.00  0.00     0.147 C 
ATOM     26  O   UNL A   1      32.131  21.366  22.097  1.00  0.00    -0.271 OA
ATOM     27  C   UNL A   1      35.269  21.165  25.682  1.00  0.00     0.127 C 
ATOM     28  C   UNL A   1      32.899  22.412  25.247  1.00  0.00     0.168 C 
ATOM     29  C   UNL A   1      32.911  19.807  24.393  1.00  0.00     0.048 C 
ATOM     30  C   UNL A   1      34.037  21.275  26.959  1.00  0.00     0.055 C 
ATOM     31  C   UNL A   1      32.700  22.193  26.684  1.00  0.00    -0.032 C 
ATOM     32  N   UNL A   1      32.966  23.875  24.965  1.00  0.00    -0.274 NA
ATOM     33  C   UNL A   1      32.259  23.425  27.137  1.00  0.00     0.005 A 
ATOM     34  C   UNL A   1      33.007  24.329  26.188  1.00  0.00     0.066 A 
ATOM     35  C   UNL A   1      30.851  23.999  26.880  1.00  0.00     0.056 A 
ATOM     36  C   UNL A   1      33.094  25.748  26.486  1.00  0.00     0.032 A 
ATOM     37  C   UNL A   1      30.700  25.306  26.481  1.00  0.00     0.119 A 
ATOM     38  C   UNL A   1      31.844  26.233  26.501  1.00  0.00     0.048 A 
BRANCH  37  39
ATOM     39  O   UNL A   1      29.507  25.864  26.066  1.00  0.00    -0.497 OA
ATOM     40  C   UNL A   1      28.330  25.195  26.548  1.00  0.00     0.278 C 
ENDBRANCH  37  39
ENDBRANCH  18  20
ENDBRANCH  15  18
ENDBRANCH   9  14
ENDBRANCH   7   9
ENDBRANCH   6   7
ENDBRANCH   5   6
ENDBRANCH   4   5
ENDBRANCH   3   4
ENDBRANCH   2   3
ENDBRANCH   1   2
BRANCH   1  41
ATOM     41  O   UNL A   1      31.820  33.172  27.264  1.00  0.00    -0.377 OA
BRANCH  41  42
ATOM     42  C   UNL A   1      32.764  33.610  28.225  1.00  0.00     0.188 C 
BRANCH  42  43
ATOM     43  C   UNL A   1      33.952  34.385  27.634  1.00  0.00     0.188 C 
BRANCH  43  44
ATOM     44  O   UNL A   1      35.045  34.524  28.540  1.00  0.00    -0.376 OA
BRANCH  44  45
ATOM     45  C   UNL A   1      35.031  33.692  29.699  1.00  0.00     0.202 C 
BRANCH  45  46
ATOM     46  C   UNL A   1      36.014  32.527  29.696  1.00  0.00     0.261 C 
BRANCH  46  47
ATOM     47  O   UNL A   1      37.234  32.684  28.962  1.00  0.00    -0.460 OA
BRANCH  47  48
ATOM     48  C   UNL A   1      38.172  33.540  29.414  1.00  0.00     0.338 C 
ATOM     49  O   UNL A   1      38.126  34.748  29.377  1.00  0.00    -0.246 OA
BRANCH  48  50
ATOM     50  C   UNL A   1      39.137  32.721  30.191  1.00  0.00     0.060 A 
ATOM     51  C   UNL A   1      38.712  31.802  31.154  1.00  0.00     0.016 A 
ATOM     52  C   UNL A   1      40.503  32.923  29.969  1.00  0.00     0.016 A 
ATOM     53  C   UNL A   1      39.659  31.057  31.869  1.00  0.00     0.010 A 
ATOM     54  C   UNL A   1      41.447  32.187  30.690  1.00  0.00     0.010 A 
ATOM     55  C   UNL A   1      41.032  31.222  31.619  1.00  0.00    -0.014 A 
BRANCH  55  56
ATOM     56  C   UNL A   1      42.025  30.246  32.135  1.00  0.00     0.031 A 
ATOM     57  C   UNL A   1      42.330  28.957  31.434  1.00  0.00     0.074 A 
ATOM     58  C   UNL A   1      42.593  30.517  33.327  1.00  0.00     0.049 A 
ATOM     59  N   UNL A   1      43.148  28.001  31.800  1.00  0.00    -0.248 NA
ATOM     60  C   UNL A   1      41.625  28.698  30.172  1.00  0.00     0.031 C 
ATOM     61  C   UNL A   1      42.340  31.729  34.107  1.00  0.00     0.029 A 
ATOM     62  N   UNL A   1      43.483  29.806  34.092  1.00  0.00    -0.354 N 
ATOM     63  C   UNL A   1      43.081  27.037  30.801  1.00  0.00     0.074 A 
ATOM     64  C   UNL A   1      42.092  27.498  29.845  1.00  0.00     0.031 C 
ATOM     65  C   UNL A   1      43.072  31.690  35.228  1.00  0.00     0.029 A 
ATOM     66  C   UNL A   1      43.813  30.432  35.271  1.00  0.00     0.049 A 
ATOM     67  H   UNL A   1      43.849  28.933  33.823  1.00  0.00     0.167 HD
ATOM     68  C   UNL A   1      43.797  25.892  30.687  1.00  0.00     0.031 A 
ATOM     69  C   UNL A   1      44.616  30.047  36.281  1.00  0.00     0.031 A 
ATOM     70  C   UNL A   1      44.748  25.435  31.675  1.00  0.00     0.049 A 
ATOM     71  C   UNL A   1      45.358  28.749  36.165  1.00  0.00     0.074 A 
ATOM     72  C   UNL A   1      45.532  24.293  31.647  1.00  0.00     0.029 A 
ATOM     73  N   UNL A   1      45.043  26.085  32.866  1.00  0.00    -0.354 N 
ATOM     74  N   UNL A   1      45.329  27.875  35.187  1.00  0.00    -0.248 NA
ATOM     75  C   UNL A   1      46.254  28.387  37.270  1.00  0.00     0.031 C 
ATOM     76  C   UNL A   1      46.238  24.215  32.849  1.00  0.00     0.029 A 
ATOM     77  C   UNL A   1      45.971  25.354  33.593  1.00  0.00     0.049 A 
ATOM     78  H   UNL A   1      44.651  26.941  33.154  1.00  0.00     0.167 HD
ATOM     79  C   UNL A   1      46.213  26.867  35.549  1.00  0.00     0.074 A 
ATOM     80  C   UNL A   1      46.778  27.249  36.828  1.00  0.00     0.031 C 
ATOM     81  C   UNL A   1      46.523  25.730  34.876  1.00  0.00     0.031 A 
BRANCH  68  82
ATOM     82  C   UNL A   1      43.608  25.053  29.443  1.00  0.00    -0.014 A 
ATOM     83  C   UNL A   1      42.743  23.943  29.452  1.00  0.00     0.010 A 
ATOM     84  C   UNL A   1      44.375  25.302  28.289  1.00  0.00     0.010 A 
ATOM     85  C   UNL A   1      42.661  23.091  28.344  1.00  0.00     0.020 A 
ATOM     86  C   UNL A   1      44.271  24.474  27.167  1.00  0.00     0.020 A 
ATOM     87  C   UNL A   1      43.428  23.361  27.209  1.00  0.00     0.054 A 
BRANCH  87  88
ATOM     88  S   UNL A   1      43.308  22.248  25.780  1.00  0.00     0.124 S 
ATOM     89  O   UNL A   1      42.216  21.361  26.169  1.00  0.00    -0.237 OA
ATOM     90  O   UNL A   1      43.016  23.169  24.684  1.00  0.00    -0.237 OA
ATOM     91  O   UNL A   1      44.629  21.625  25.720  1.00  0.00    -0.744 OA
ENDBRANCH  87  88
ENDBRANCH  68  82
BRANCH  69  92
ATOM     92  C   UNL A   1      44.787  30.970  37.438  1.00  0.00    -0.014 A 
ATOM     93  C   UNL A   1      43.848  30.975  38.488  1.00  0.00     0.010 A 
ATOM     94  C   UNL A   1      45.783  31.960  37.408  1.00  0.00     0.010 A 
ATOM     95  C   UNL A   1      43.845  32.006  39.432  1.00  0.00     0.020 A 
ATOM     96  C   UNL A   1      45.805  32.975  38.371  1.00  0.00     0.020 A 
ATOM     97  C   UNL A   1      44.810  33.013  39.351  1.00  0.00     0.054 A 
BRANCH  97  98
ATOM     98  S   UNL A   1      44.707  34.410  40.506  1.00  0.00     0.124 S 
ATOM     99  O   UNL A   1      45.603  33.980  41.576  1.00  0.00    -0.237 OA
ATOM    100  O   UNL A   1      45.186  35.526  39.696  1.00  0.00    -0.237 OA
ATOM    101  O   UNL A   1      43.291  34.460  40.859  1.00  0.00    -0.744 OA
ENDBRANCH  97  98
ENDBRANCH  69  92
BRANCH  81 102
ATOM    102  C   UNL A   1      47.516  24.781  35.502  1.00  0.00    -0.014 A 
ATOM    103  C   UNL A   1      48.871  24.836  35.125  1.00  0.00     0.010 A 
ATOM    104  C   UNL A   1      47.087  23.743  36.349  1.00  0.00     0.010 A 
ATOM    105  C   UNL A   1      49.766  23.843  35.536  1.00  0.00     0.020 A 
ATOM    106  C   UNL A   1      47.986  22.767  36.791  1.00  0.00     0.020 A 
ATOM    107  C   UNL A   1      49.312  22.806  36.355  1.00  0.00     0.054 A 
BRANCH 107 108
ATOM    108  S   UNL A   1      50.473  21.491  36.819  1.00  0.00     0.124 S 
ATOM    109  O   UNL A   1      51.074  22.025  38.036  1.00  0.00    -0.237 OA
ATOM    110  O   UNL A   1      49.593  20.339  37.004  1.00  0.00    -0.237 OA
ATOM    111  O   UNL A   1      51.368  21.400  35.668  1.00  0.00    -0.744 OA
ENDBRANCH 107 108
ENDBRANCH  81 102
ENDBRANCH  55  56
ENDBRANCH  48  50
ENDBRANCH  47  48
ENDBRANCH  46  47
ENDBRANCH  45  46
ENDBRANCH  44  45
ENDBRANCH  43  44
ENDBRANCH  42  43
ENDBRANCH  41  42
ENDBRANCH   1  41
TORSDOF 29
ENDMDL
