MODEL 1
REMARK VINA RESULT:      -6.8      0.000      0.000
REMARK SMILES N#CCC[NH+]1CCN(c2cc(C(=O)OCCOCCOCCOCCOC(=O)c3ccc(-c4c5nc(c(-c6ccc(S(=O)(=O)[O-])cc6)c6ccc([nH]6)c(-c6ccc(S(=O)(=O)[O-])cc6)c6nc(c(-c7ccc(S(=O)(=O)[O-])cc7)c7ccc4[nH]7)C=C6)C=C5)cc3)c3cc(NS(=O)(=O)c4ccccc4Cl)ccc3n2)CC1
REMARK SMILES IDX 19 1 18 2 17 3 16 4 15 5 14 6 12 7 13 8 11 9 9 10 10 11
REMARK SMILES IDX 106 12 105 13 89 14 104 15 90 16 103 17 91 18 8 19 5 20 6 21
REMARK SMILES IDX 108 22 7 24 107 25 4 26 3 27 2 28 1 29 92 30 93 32 94 33
REMARK SMILES IDX 95 34 96 35 97 36 101 37 98 38 100 39 102 40 99 41 20 42
REMARK SMILES IDX 21 43 22 44 23 45 24 46 25 47 26 48 27 49 28 50 29 51 30 52
REMARK SMILES IDX 88 53 31 54 87 55 32 56 33 57 34 58 81 59 35 60 86 61 80 62
REMARK SMILES IDX 82 63 36 64 85 65 79 66 78 67 37 69 67 70 48 71 66 72 49 73
REMARK SMILES IDX 52 74 65 75 83 76 50 77 51 78 64 80 84 81 53 82 38 83 39 84
REMARK SMILES IDX 47 85 40 86 46 87 41 88 42 89 43 90 44 91 45 92 68 93 69 94
REMARK SMILES IDX 77 95 70 96 76 97 71 98 72 99 73 100 74 101 75 102 54 103
REMARK SMILES IDX 55 104 63 105 56 106 62 107 57 108 58 109 59 110 60 111
REMARK SMILES IDX 61 112
REMARK H PARENT 5 23 92 31 82 68 52 79
REMARK Flexibility Score: inf
ROOT
ATOM      1  C   UNL A   1      44.304  23.525  35.223  1.00  0.00     0.188 C 
ENDROOT
BRANCH   1   2
ATOM      2  C   UNL A   1      43.829  24.588  34.212  1.00  0.00     0.188 C 
BRANCH   2   3
ATOM      3  O   UNL A   1      44.193  25.896  34.626  1.00  0.00    -0.376 OA
BRANCH   3   4
ATOM      4  C   UNL A   1      43.162  26.875  34.684  1.00  0.00     0.202 C 
BRANCH   4   5
ATOM      5  C   UNL A   1      42.571  27.259  33.185  1.00  0.00     0.261 C 
BRANCH   5   6
ATOM      6  O   UNL A   1      43.498  27.252  31.386  1.00  0.00    -0.460 OA
BRANCH   6   7
ATOM      7  C   UNL A   1      43.878  27.646  30.047  1.00  0.00     0.339 C 
ATOM      8  O   UNL A   1      44.882  28.239  29.670  1.00  0.00    -0.246 OA
BRANCH   7   9
ATOM      9  C   UNL A   1      43.010  26.990  29.038  1.00  0.00     0.073 A 
ATOM     10  C   UNL A   1      42.570  24.950  27.876  1.00  0.00     0.130 A 
ATOM     11  C   UNL A   1      43.482  25.817  28.456  1.00  0.00     0.063 A 
ATOM     12  N   UNL A   1      41.248  25.242  27.848  1.00  0.00    -0.231 NA
ATOM     13  C   UNL A   1      40.804  26.400  28.389  1.00  0.00     0.074 A 
ATOM     14  C   UNL A   1      41.678  27.353  28.930  1.00  0.00     0.017 A 
ATOM     15  C   UNL A   1      39.444  26.638  28.567  1.00  0.00     0.031 A 
ATOM     16  C   UNL A   1      41.214  28.526  29.522  1.00  0.00     0.038 A 
ATOM     17  C   UNL A   1      38.994  27.664  29.419  1.00  0.00     0.029 A 
ATOM     18  C   UNL A   1      39.919  28.536  29.982  1.00  0.00     0.050 A 
BRANCH  10  19
ATOM     19  N   UNL A   1      43.010  23.710  27.453  1.00  0.00    -0.345 N 
ATOM     20  N   UNL A   1      42.706  21.542  25.508  1.00  0.00    -0.331 N 
ATOM     21  C   UNL A   1      41.728  21.758  26.591  1.00  0.00     0.284 C 
ATOM     22  C   UNL A   1      43.264  22.862  25.134  1.00  0.00     0.284 C 
ATOM     23  H   UNL A   1      42.149  21.110  24.771  1.00  0.00     0.348 HD
ATOM     24  C   UNL A   1      42.258  22.510  27.829  1.00  0.00     0.179 C 
ATOM     25  C   UNL A   1      43.921  23.624  26.312  1.00  0.00     0.179 C 
BRANCH  20  26
ATOM     26  C   UNL A   1      43.718  20.469  25.577  1.00  0.00     0.277 C 
BRANCH  26  27
ATOM     27  C   UNL A   1      44.885  20.255  24.583  1.00  0.00     0.181 C 
BRANCH  27  28
ATOM     28  C   UNL A   1      45.776  19.105  25.022  1.00  0.00     0.068 C 
ATOM     29  N   UNL A   1      46.515  18.151  25.386  1.00  0.00    -0.198 NA
ENDBRANCH  27  28
ENDBRANCH  26  27
ENDBRANCH  20  26
ENDBRANCH  10  19
BRANCH  18  30
ATOM     30  N   UNL A   1      39.610  29.362  31.102  1.00  0.00    -0.280 N 
ATOM     31  H   UNL A   1      39.592  28.988  32.012  1.00  0.00     0.180 HD
BRANCH  30  32
ATOM     32  S   UNL A   1      39.272  31.035  30.826  1.00  0.00     0.263 S 
ATOM     33  O   UNL A   1      38.881  31.587  32.105  1.00  0.00    -0.201 OA
ATOM     34  O   UNL A   1      40.414  31.574  30.119  1.00  0.00    -0.201 OA
BRANCH  32  35
ATOM     35  C   UNL A   1      37.865  31.244  29.762  1.00  0.00     0.106 A 
ATOM     36  C   UNL A   1      36.767  29.838  29.498  1.00  0.00     0.024 A 
ATOM     37  C   UNL A   1      37.497  32.839  29.028  1.00  0.00     0.061 A 
ATOM     38  C   UNL A   1      35.247  30.049  28.525  1.00  0.00     0.002 A 
ATOM     39  C   UNL A   1      36.027  33.043  28.007  1.00  0.00     0.022 A 
ATOM     40  Cl  UNL A   1      38.479  34.221  29.313  1.00  0.00    -0.083 Cl
ATOM     41  C   UNL A   1      34.904  31.644  27.726  1.00  0.00     0.002 A 
ENDBRANCH  32  35
ENDBRANCH  30  32
ENDBRANCH  18  30
ENDBRANCH   7   9
ENDBRANCH   6   7
ENDBRANCH   5   6
ENDBRANCH   4   5
ENDBRANCH   3   4
ENDBRANCH   2   3
ENDBRANCH   1   2
BRANCH   1  42
ATOM     42  O   UNL A   1      45.461  22.771  34.881  1.00  0.00    -0.377 OA
BRANCH  42  43
ATOM     43  C   UNL A   1      45.733  21.588  35.637  1.00  0.00     0.188 C 
BRANCH  43  44
ATOM     44  C   UNL A   1      47.020  20.815  35.296  1.00  0.00     0.188 C 
BRANCH  44  45
ATOM     45  O   UNL A   1      47.972  20.527  36.323  1.00  0.00    -0.376 OA
BRANCH  45  46
ATOM     46  C   UNL A   1      49.282  20.115  35.960  1.00  0.00     0.202 C 
BRANCH  46  47
ATOM     47  C   UNL A   1      50.420  21.069  36.338  1.00  0.00     0.261 C 
BRANCH  47  48
ATOM     48  O   UNL A   1      50.010  22.138  37.199  1.00  0.00    -0.460 OA
BRANCH  48  49
ATOM     49  C   UNL A   1      50.677  23.302  37.010  1.00  0.00     0.338 C 
ATOM     50  O   UNL A   1      51.884  23.447  36.918  1.00  0.00    -0.246 OA
BRANCH  49  51
ATOM     51  C   UNL A   1      49.719  24.411  36.808  1.00  0.00     0.060 A 
ATOM     52  C   UNL A   1      50.216  25.721  36.844  1.00  0.00     0.016 A 
ATOM     53  C   UNL A   1      48.345  24.179  36.693  1.00  0.00     0.016 A 
ATOM     54  C   UNL A   1      49.338  26.802  36.857  1.00  0.00     0.010 A 
ATOM     55  C   UNL A   1      47.464  25.262  36.727  1.00  0.00     0.010 A 
ATOM     56  C   UNL A   1      47.957  26.570  36.873  1.00  0.00    -0.014 A 
BRANCH  56  57
ATOM     57  C   UNL A   1      47.049  27.642  37.348  1.00  0.00     0.031 A 
ATOM     58  C   UNL A   1      46.422  28.534  36.306  1.00  0.00     0.074 A 
ATOM     59  C   UNL A   1      46.774  27.818  38.651  1.00  0.00     0.049 A 
ATOM     60  N   UNL A   1      45.651  29.580  36.462  1.00  0.00    -0.248 NA
ATOM     61  C   UNL A   1      46.704  28.200  34.899  1.00  0.00     0.031 C 
ATOM     62  C   UNL A   1      47.274  26.990  39.747  1.00  0.00     0.029 A 
ATOM     63  N   UNL A   1      45.999  28.768  39.269  1.00  0.00    -0.354 N 
ATOM     64  C   UNL A   1      45.368  30.031  35.178  1.00  0.00     0.074 A 
ATOM     65  C   UNL A   1      46.057  29.158  34.254  1.00  0.00     0.031 C 
ATOM     66  C   UNL A   1      46.797  27.474  40.908  1.00  0.00     0.029 A 
ATOM     67  C   UNL A   1      45.990  28.665  40.639  1.00  0.00     0.049 A 
ATOM     68  H   UNL A   1      45.498  29.458  38.777  1.00  0.00     0.167 HD
ATOM     69  C   UNL A   1      44.607  31.082  34.796  1.00  0.00     0.031 A 
ATOM     70  C   UNL A   1      45.417  29.460  41.565  1.00  0.00     0.031 A 
ATOM     71  C   UNL A   1      43.942  31.967  35.711  1.00  0.00     0.049 A 
ATOM     72  C   UNL A   1      44.635  30.672  41.120  1.00  0.00     0.074 A 
ATOM     73  C   UNL A   1      43.165  33.075  35.427  1.00  0.00     0.029 A 
ATOM     74  N   UNL A   1      43.983  31.844  37.091  1.00  0.00    -0.354 N 
ATOM     75  N   UNL A   1      44.380  31.090  39.902  1.00  0.00    -0.248 NA
ATOM     76  C   UNL A   1      44.067  31.522  42.177  1.00  0.00     0.031 C 
ATOM     77  C   UNL A   1      42.765  33.646  36.639  1.00  0.00     0.029 A 
ATOM     78  C   UNL A   1      43.255  32.865  37.675  1.00  0.00     0.049 A 
ATOM     79  H   UNL A   1      44.459  31.137  37.582  1.00  0.00     0.167 HD
ATOM     80  C   UNL A   1      43.599  32.234  40.049  1.00  0.00     0.074 A 
ATOM     81  C   UNL A   1      43.419  32.439  41.471  1.00  0.00     0.031 C 
ATOM     82  C   UNL A   1      43.077  33.042  39.093  1.00  0.00     0.031 A 
BRANCH  69  83
ATOM     83  C   UNL A   1      44.494  31.348  33.322  1.00  0.00    -0.014 A 
ATOM     84  C   UNL A   1      45.444  32.142  32.653  1.00  0.00     0.010 A 
ATOM     85  C   UNL A   1      43.428  30.792  32.593  1.00  0.00     0.010 A 
ATOM     86  C   UNL A   1      45.308  32.402  31.286  1.00  0.00     0.020 A 
ATOM     87  C   UNL A   1      43.301  31.033  31.223  1.00  0.00     0.020 A 
ATOM     88  C   UNL A   1      44.233  31.852  30.582  1.00  0.00     0.054 A 
BRANCH  88  89
ATOM     89  S   UNL A   1      44.085  32.192  28.806  1.00  0.00     0.124 S 
ATOM     90  O   UNL A   1      43.323  33.440  28.802  1.00  0.00    -0.237 OA
ATOM     91  O   UNL A   1      45.478  32.308  28.382  1.00  0.00    -0.237 OA
ATOM     92  O   UNL A   1      43.373  31.027  28.288  1.00  0.00    -0.744 OA
ENDBRANCH  88  89
ENDBRANCH  69  83
BRANCH  70  93
ATOM     93  C   UNL A   1      45.581  29.160  43.014  1.00  0.00    -0.014 A 
ATOM     94  C   UNL A   1      46.611  29.761  43.758  1.00  0.00     0.010 A 
ATOM     95  C   UNL A   1      44.717  28.252  43.653  1.00  0.00     0.010 A 
ATOM     96  C   UNL A   1      46.790  29.442  45.108  1.00  0.00     0.020 A 
ATOM     97  C   UNL A   1      44.877  27.949  45.008  1.00  0.00     0.020 A 
ATOM     98  C   UNL A   1      45.922  28.535  45.724  1.00  0.00     0.054 A 
BRANCH  98  99
ATOM     99  S   UNL A   1      46.158  28.152  47.483  1.00  0.00     0.124 S 
ATOM    100  O   UNL A   1      45.335  26.957  47.645  1.00  0.00    -0.237 OA
ATOM    101  O   UNL A   1      47.601  27.941  47.572  1.00  0.00    -0.237 OA
ATOM    102  O   UNL A   1      45.666  29.346  48.164  1.00  0.00    -0.744 OA
ENDBRANCH  98  99
ENDBRANCH  70  93
BRANCH  82 103
ATOM    103  C   UNL A   1      42.220  34.195  39.541  1.00  0.00    -0.014 A 
ATOM    104  C   UNL A   1      40.858  34.017  39.838  1.00  0.00     0.010 A 
ATOM    105  C   UNL A   1      42.810  35.455  39.745  1.00  0.00     0.010 A 
ATOM    106  C   UNL A   1      40.095  35.087  40.315  1.00  0.00     0.020 A 
ATOM    107  C   UNL A   1      42.057  36.521  40.242  1.00  0.00     0.020 A 
ATOM    108  C   UNL A   1      40.701  36.333  40.514  1.00  0.00     0.054 A 
BRANCH 108 109
ATOM    109  S   UNL A   1      39.708  37.693  41.190  1.00  0.00     0.124 S 
ATOM    110  O   UNL A   1      38.633  37.803  40.208  1.00  0.00    -0.237 OA
ATOM    111  O   UNL A   1      39.311  37.183  42.501  1.00  0.00    -0.237 OA
ATOM    112  O   UNL A   1      40.640  38.818  41.224  1.00  0.00    -0.744 OA
ENDBRANCH 108 109
ENDBRANCH  82 103
ENDBRANCH  56  57
ENDBRANCH  49  51
ENDBRANCH  48  49
ENDBRANCH  47  48
ENDBRANCH  46  47
ENDBRANCH  45  46
ENDBRANCH  44  45
ENDBRANCH  43  44
ENDBRANCH  42  43
ENDBRANCH   1  42
TORSDOF 30
ENDMDL
MODEL 2
REMARK VINA RESULT:      -6.0      5.243     11.326
REMARK SMILES N#CCC[NH+]1CCN(c2cc(C(=O)OCCOCCOCCOCCOC(=O)c3ccc(-c4c5nc(c(-c6ccc(S(=O)(=O)[O-])cc6)c6ccc([nH]6)c(-c6ccc(S(=O)(=O)[O-])cc6)c6nc(c(-c7ccc(S(=O)(=O)[O-])cc7)c7ccc4[nH]7)C=C6)C=C5)cc3)c3cc(NS(=O)(=O)c4ccccc4Cl)ccc3n2)CC1
REMARK SMILES IDX 19 1 18 2 17 3 16 4 15 5 14 6 12 7 13 8 11 9 9 10 10 11
REMARK SMILES IDX 106 12 105 13 89 14 104 15 90 16 103 17 91 18 8 19 5 20 6 21
REMARK SMILES IDX 108 22 7 24 107 25 4 26 3 27 2 28 1 29 92 30 93 32 94 33
REMARK SMILES IDX 95 34 96 35 97 36 101 37 98 38 100 39 102 40 99 41 20 42
REMARK SMILES IDX 21 43 22 44 23 45 24 46 25 47 26 48 27 49 28 50 29 51 30 52
REMARK SMILES IDX 88 53 31 54 87 55 32 56 33 57 34 58 81 59 35 60 86 61 80 62
REMARK SMILES IDX 82 63 36 64 85 65 79 66 78 67 37 69 67 70 48 71 66 72 49 73
REMARK SMILES IDX 52 74 65 75 83 76 50 77 51 78 64 80 84 81 53 82 38 83 39 84
REMARK SMILES IDX 47 85 40 86 46 87 41 88 42 89 43 90 44 91 45 92 68 93 69 94
REMARK SMILES IDX 77 95 70 96 76 97 71 98 72 99 73 100 74 101 75 102 54 103
REMARK SMILES IDX 55 104 63 105 56 106 62 107 57 108 58 109 59 110 60 111
REMARK SMILES IDX 61 112
REMARK H PARENT 5 23 92 31 82 68 52 79
REMARK Flexibility Score: inf
ROOT
ATOM      1  C   UNL A   1      45.825  33.183  28.692  1.00  0.00     0.188 C 
ENDROOT
BRANCH   1   2
ATOM      2  C   UNL A   1      46.890  34.111  28.073  1.00  0.00     0.188 C 
BRANCH   2   3
ATOM      3  O   UNL A   1      46.307  35.045  27.179  1.00  0.00    -0.376 OA
BRANCH   3   4
ATOM      4  C   UNL A   1      45.692  36.197  27.744  1.00  0.00     0.202 C 
BRANCH   4   5
ATOM      5  C   UNL A   1      46.147  36.448  29.316  1.00  0.00     0.261 C 
BRANCH   5   6
ATOM      6  O   UNL A   1      45.013  36.832  30.949  1.00  0.00    -0.460 OA
BRANCH   6   7
ATOM      7  C   UNL A   1      44.075  36.639  32.032  1.00  0.00     0.339 C 
ATOM      8  O   UNL A   1      43.192  35.798  32.149  1.00  0.00    -0.246 OA
BRANCH   7   9
ATOM      9  C   UNL A   1      44.464  37.442  33.216  1.00  0.00     0.073 A 
ATOM     10  C   UNL A   1      45.564  37.382  35.336  1.00  0.00     0.130 A 
ATOM     11  C   UNL A   1      44.788  36.749  34.379  1.00  0.00     0.063 A 
ATOM     12  N   UNL A   1      45.981  38.659  35.164  1.00  0.00    -0.231 NA
ATOM     13  C   UNL A   1      45.634  39.334  34.045  1.00  0.00     0.074 A 
ATOM     14  C   UNL A   1      44.795  38.778  33.070  1.00  0.00     0.017 A 
ATOM     15  C   UNL A   1      46.211  40.563  33.735  1.00  0.00     0.031 A 
ATOM     16  C   UNL A   1      44.472  39.462  31.899  1.00  0.00     0.038 A 
ATOM     17  C   UNL A   1      46.117  41.100  32.438  1.00  0.00     0.029 A 
ATOM     18  C   UNL A   1      45.322  40.462  31.493  1.00  0.00     0.050 A 
BRANCH  10  19
ATOM     19  N   UNL A   1      46.031  36.644  36.408  1.00  0.00    -0.345 N 
ATOM     20  N   UNL A   1      46.445  33.976  37.541  1.00  0.00    -0.331 N 
ATOM     21  C   UNL A   1      45.106  34.592  37.470  1.00  0.00     0.284 C 
ATOM     22  C   UNL A   1      47.232  34.472  36.390  1.00  0.00     0.284 C 
ATOM     23  H   UNL A   1      46.246  32.977  37.502  1.00  0.00     0.348 HD
ATOM     24  C   UNL A   1      45.082  36.132  37.400  1.00  0.00     0.179 C 
ATOM     25  C   UNL A   1      47.349  36.015  36.325  1.00  0.00     0.179 C 
BRANCH  20  26
ATOM     26  C   UNL A   1      47.209  33.925  38.804  1.00  0.00     0.277 C 
BRANCH  26  27
ATOM     27  C   UNL A   1      48.428  33.016  39.092  1.00  0.00     0.181 C 
BRANCH  27  28
ATOM     28  C   UNL A   1      48.281  31.667  38.406  1.00  0.00     0.068 C 
ATOM     29  N   UNL A   1      48.159  30.549  37.838  1.00  0.00    -0.198 NA
ENDBRANCH  27  28
ENDBRANCH  26  27
ENDBRANCH  20  26
ENDBRANCH  10  19
BRANCH  18  30
ATOM     30  N   UNL A   1      45.437  40.721  30.095  1.00  0.00    -0.280 N 
ATOM     31  H   UNL A   1      45.752  40.021  29.479  1.00  0.00     0.180 HD
BRANCH  30  32
ATOM     32  S   UNL A   1      45.008  42.289  29.508  1.00  0.00     0.263 S 
ATOM     33  O   UNL A   1      43.985  42.792  30.398  1.00  0.00    -0.201 OA
ATOM     34  O   UNL A   1      46.247  43.017  29.338  1.00  0.00    -0.201 OA
BRANCH  32  35
ATOM     35  C   UNL A   1      44.246  42.195  27.906  1.00  0.00     0.106 A 
ATOM     36  C   UNL A   1      44.809  43.324  26.617  1.00  0.00     0.024 A 
ATOM     37  C   UNL A   1      43.001  40.953  27.551  1.00  0.00     0.061 A 
ATOM     38  C   UNL A   1      44.151  43.169  24.930  1.00  0.00     0.002 A 
ATOM     39  C   UNL A   1      42.293  40.835  25.899  1.00  0.00     0.022 A 
ATOM     40  Cl  UNL A   1      42.489  39.814  28.732  1.00  0.00    -0.083 Cl
ATOM     41  C   UNL A   1      42.843  41.958  24.582  1.00  0.00     0.002 A 
ENDBRANCH  32  35
ENDBRANCH  30  32
ENDBRANCH  18  30
ENDBRANCH   7   9
ENDBRANCH   6   7
ENDBRANCH   5   6
ENDBRANCH   4   5
ENDBRANCH   3   4
ENDBRANCH   2   3
ENDBRANCH   1   2
BRANCH   1  42
ATOM     42  O   UNL A   1      45.825  31.823  28.276  1.00  0.00    -0.377 OA
BRANCH  42  43
ATOM     43  C   UNL A   1      45.069  31.482  27.110  1.00  0.00     0.188 C 
BRANCH  43  44
ATOM     44  C   UNL A   1      45.267  30.070  26.532  1.00  0.00     0.188 C 
BRANCH  44  45
ATOM     45  O   UNL A   1      44.244  29.085  26.693  1.00  0.00    -0.376 OA
BRANCH  45  46
ATOM     46  C   UNL A   1      44.507  27.741  26.314  1.00  0.00     0.202 C 
BRANCH  46  47
ATOM     47  C   UNL A   1      43.299  26.800  26.274  1.00  0.00     0.261 C 
BRANCH  47  48
ATOM     48  O   UNL A   1      42.073  27.456  25.928  1.00  0.00    -0.460 OA
BRANCH  48  49
ATOM     49  C   UNL A   1      40.959  26.868  26.426  1.00  0.00     0.338 C 
ATOM     50  O   UNL A   1      40.441  25.834  26.040  1.00  0.00    -0.246 OA
BRANCH  49  51
ATOM     51  C   UNL A   1      40.486  27.603  27.620  1.00  0.00     0.060 A 
ATOM     52  C   UNL A   1      40.798  28.966  27.717  1.00  0.00     0.016 A 
ATOM     53  C   UNL A   1      39.843  26.948  28.675  1.00  0.00     0.016 A 
ATOM     54  C   UNL A   1      40.552  29.658  28.900  1.00  0.00     0.010 A 
ATOM     55  C   UNL A   1      39.615  27.636  29.869  1.00  0.00     0.010 A 
ATOM     56  C   UNL A   1      40.027  28.974  30.003  1.00  0.00    -0.014 A 
BRANCH  56  57
ATOM     57  C   UNL A   1      40.196  29.550  31.359  1.00  0.00     0.031 A 
ATOM     58  C   UNL A   1      39.178  30.566  31.815  1.00  0.00     0.074 A 
ATOM     59  C   UNL A   1      41.203  29.185  32.170  1.00  0.00     0.049 A 
ATOM     60  N   UNL A   1      39.137  31.264  32.919  1.00  0.00    -0.248 NA
ATOM     61  C   UNL A   1      38.055  30.826  30.897  1.00  0.00     0.031 C 
ATOM     62  C   UNL A   1      42.218  28.177  31.867  1.00  0.00     0.029 A 
ATOM     63  N   UNL A   1      41.534  29.634  33.424  1.00  0.00    -0.354 N 
ATOM     64  C   UNL A   1      37.995  32.051  32.823  1.00  0.00     0.074 A 
ATOM     65  C   UNL A   1      37.377  31.758  31.550  1.00  0.00     0.031 C 
ATOM     66  C   UNL A   1      43.065  28.089  32.908  1.00  0.00     0.029 A 
ATOM     67  C   UNL A   1      42.674  29.059  33.931  1.00  0.00     0.049 A 
ATOM     68  H   UNL A   1      41.006  30.305  33.913  1.00  0.00     0.167 HD
ATOM     69  C   UNL A   1      37.504  32.946  33.711  1.00  0.00     0.031 A 
ATOM     70  C   UNL A   1      43.336  29.310  35.079  1.00  0.00     0.031 A 
ATOM     71  C   UNL A   1      38.129  33.260  34.964  1.00  0.00     0.049 A 
ATOM     72  C   UNL A   1      42.812  30.368  36.020  1.00  0.00     0.074 A 
ATOM     73  C   UNL A   1      37.723  34.168  35.926  1.00  0.00     0.029 A 
ATOM     74  N   UNL A   1      39.297  32.676  35.427  1.00  0.00    -0.354 N 
ATOM     75  N   UNL A   1      41.734  31.109  35.914  1.00  0.00    -0.248 NA
ATOM     76  C   UNL A   1      43.598  30.624  37.236  1.00  0.00     0.031 C 
ATOM     77  C   UNL A   1      38.670  34.160  36.956  1.00  0.00     0.029 A 
ATOM     78  C   UNL A   1      39.637  33.213  36.656  1.00  0.00     0.049 A 
ATOM     79  H   UNL A   1      39.810  31.983  34.952  1.00  0.00     0.167 HD
ATOM     80  C   UNL A   1      41.700  31.897  37.062  1.00  0.00     0.074 A 
ATOM     81  C   UNL A   1      42.860  31.539  37.851  1.00  0.00     0.031 C 
ATOM     82  C   UNL A   1      40.789  32.833  37.430  1.00  0.00     0.031 A 
BRANCH  69  83
ATOM     83  C   UNL A   1      36.247  33.675  33.326  1.00  0.00    -0.014 A 
ATOM     84  C   UNL A   1      36.302  34.918  32.668  1.00  0.00     0.010 A 
ATOM     85  C   UNL A   1      34.995  33.108  33.620  1.00  0.00     0.010 A 
ATOM     86  C   UNL A   1      35.124  35.595  32.343  1.00  0.00     0.020 A 
ATOM     87  C   UNL A   1      33.815  33.772  33.277  1.00  0.00     0.020 A 
ATOM     88  C   UNL A   1      33.888  35.021  32.656  1.00  0.00     0.054 A 
BRANCH  88  89
ATOM     89  S   UNL A   1      32.372  35.912  32.212  1.00  0.00     0.124 S 
ATOM     90  O   UNL A   1      31.336  34.989  32.669  1.00  0.00    -0.237 OA
ATOM     91  O   UNL A   1      32.489  37.151  32.978  1.00  0.00    -0.237 OA
ATOM     92  O   UNL A   1      32.473  36.067  30.763  1.00  0.00    -0.744 OA
ENDBRANCH  88  89
ENDBRANCH  69  83
BRANCH  70  93
ATOM     93  C   UNL A   1      44.589  28.572  35.398  1.00  0.00    -0.014 A 
ATOM     94  C   UNL A   1      45.838  29.078  35.001  1.00  0.00     0.010 A 
ATOM     95  C   UNL A   1      44.535  27.346  36.085  1.00  0.00     0.010 A 
ATOM     96  C   UNL A   1      47.010  28.359  35.262  1.00  0.00     0.020 A 
ATOM     97  C   UNL A   1      45.706  26.636  36.369  1.00  0.00     0.020 A 
ATOM     98  C   UNL A   1      46.935  27.141  35.943  1.00  0.00     0.054 A 
BRANCH  98  99
ATOM     99  S   UNL A   1      48.469  26.235  36.292  1.00  0.00     0.124 S 
ATOM    100  O   UNL A   1      48.163  25.604  37.573  1.00  0.00    -0.237 OA
ATOM    101  O   UNL A   1      48.571  25.329  35.151  1.00  0.00    -0.237 OA
ATOM    102  O   UNL A   1      49.485  27.283  36.339  1.00  0.00    -0.744 OA
ENDBRANCH  98  99
ENDBRANCH  70  93
BRANCH  82 103
ATOM    103  C   UNL A   1      40.976  33.504  38.764  1.00  0.00    -0.014 A 
ATOM    104  C   UNL A   1      40.438  32.952  39.939  1.00  0.00     0.010 A 
ATOM    105  C   UNL A   1      41.771  34.662  38.848  1.00  0.00     0.010 A 
ATOM    106  C   UNL A   1      40.678  33.558  41.176  1.00  0.00     0.020 A 
ATOM    107  C   UNL A   1      42.031  35.257  40.084  1.00  0.00     0.020 A 
ATOM    108  C   UNL A   1      41.474  34.707  41.240  1.00  0.00     0.054 A 
BRANCH 108 109
ATOM    109  S   UNL A   1      41.823  35.443  42.862  1.00  0.00     0.124 S 
ATOM    110  O   UNL A   1      40.494  35.862  43.298  1.00  0.00    -0.237 OA
ATOM    111  O   UNL A   1      42.405  34.328  43.605  1.00  0.00    -0.237 OA
ATOM    112  O   UNL A   1      42.750  36.530  42.556  1.00  0.00    -0.744 OA
ENDBRANCH 108 109
ENDBRANCH  82 103
ENDBRANCH  56  57
ENDBRANCH  49  51
ENDBRANCH  48  49
ENDBRANCH  47  48
ENDBRANCH  46  47
ENDBRANCH  45  46
ENDBRANCH  44  45
ENDBRANCH  43  44
ENDBRANCH  42  43
ENDBRANCH   1  42
TORSDOF 30
ENDMDL
MODEL 3
REMARK VINA RESULT:      -6.0      7.217     16.061
REMARK SMILES N#CCC[NH+]1CCN(c2cc(C(=O)OCCOCCOCCOCCOC(=O)c3ccc(-c4c5nc(c(-c6ccc(S(=O)(=O)[O-])cc6)c6ccc([nH]6)c(-c6ccc(S(=O)(=O)[O-])cc6)c6nc(c(-c7ccc(S(=O)(=O)[O-])cc7)c7ccc4[nH]7)C=C6)C=C5)cc3)c3cc(NS(=O)(=O)c4ccccc4Cl)ccc3n2)CC1
REMARK SMILES IDX 19 1 18 2 17 3 16 4 15 5 14 6 12 7 13 8 11 9 9 10 10 11
REMARK SMILES IDX 106 12 105 13 89 14 104 15 90 16 103 17 91 18 8 19 5 20 6 21
REMARK SMILES IDX 108 22 7 24 107 25 4 26 3 27 2 28 1 29 92 30 93 32 94 33
REMARK SMILES IDX 95 34 96 35 97 36 101 37 98 38 100 39 102 40 99 41 20 42
REMARK SMILES IDX 21 43 22 44 23 45 24 46 25 47 26 48 27 49 28 50 29 51 30 52
REMARK SMILES IDX 88 53 31 54 87 55 32 56 33 57 34 58 81 59 35 60 86 61 80 62
REMARK SMILES IDX 82 63 36 64 85 65 79 66 78 67 37 69 67 70 48 71 66 72 49 73
REMARK SMILES IDX 52 74 65 75 83 76 50 77 51 78 64 80 84 81 53 82 38 83 39 84
REMARK SMILES IDX 47 85 40 86 46 87 41 88 42 89 43 90 44 91 45 92 68 93 69 94
REMARK SMILES IDX 77 95 70 96 76 97 71 98 72 99 73 100 74 101 75 102 54 103
REMARK SMILES IDX 55 104 63 105 56 106 62 107 57 108 58 109 59 110 60 111
REMARK SMILES IDX 61 112
REMARK H PARENT 5 23 92 31 82 68 52 79
REMARK Flexibility Score: inf
ROOT
ATOM      1  C   UNL A   1      42.679  35.910  37.198  1.00  0.00     0.188 C 
ENDROOT
BRANCH   1   2
ATOM      2  C   UNL A   1      44.161  35.489  37.129  1.00  0.00     0.188 C 
BRANCH   2   3
ATOM      3  O   UNL A   1      45.012  36.504  37.638  1.00  0.00    -0.376 OA
BRANCH   3   4
ATOM      4  C   UNL A   1      46.410  36.360  37.414  1.00  0.00     0.202 C 
BRANCH   4   5
ATOM      5  C   UNL A   1      47.126  37.781  36.957  1.00  0.00     0.261 C 
BRANCH   5   6
ATOM      6  O   UNL A   1      46.973  38.810  35.221  1.00  0.00    -0.460 OA
BRANCH   6   7
ATOM      7  C   UNL A   1      46.395  39.560  34.128  1.00  0.00     0.339 C 
ATOM      8  O   UNL A   1      46.392  39.302  32.930  1.00  0.00    -0.246 OA
BRANCH   7   9
ATOM      9  C   UNL A   1      45.498  40.626  34.635  1.00  0.00     0.073 A 
ATOM     10  C   UNL A   1      45.280  42.402  36.217  1.00  0.00     0.130 A 
ATOM     11  C   UNL A   1      45.775  41.149  35.894  1.00  0.00     0.063 A 
ATOM     12  N   UNL A   1      44.518  43.099  35.342  1.00  0.00    -0.231 NA
ATOM     13  C   UNL A   1      44.228  42.568  34.132  1.00  0.00     0.074 A 
ATOM     14  C   UNL A   1      44.638  41.279  33.767  1.00  0.00     0.017 A 
ATOM     15  C   UNL A   1      43.631  43.332  33.133  1.00  0.00     0.031 A 
ATOM     16  C   UNL A   1      44.372  40.750  32.505  1.00  0.00     0.038 A 
ATOM     17  C   UNL A   1      43.636  42.902  31.793  1.00  0.00     0.029 A 
ATOM     18  C   UNL A   1      44.122  41.637  31.486  1.00  0.00     0.050 A 
BRANCH  10  19
ATOM     19  N   UNL A   1      45.695  42.997  37.394  1.00  0.00    -0.345 N 
ATOM     20  N   UNL A   1      47.836  43.266  39.373  1.00  0.00    -0.331 N 
ATOM     21  C   UNL A   1      46.994  42.057  39.298  1.00  0.00     0.284 C 
ATOM     22  C   UNL A   1      47.956  43.819  38.005  1.00  0.00     0.284 C 
ATOM     23  H   UNL A   1      48.716  42.917  39.752  1.00  0.00     0.348 HD
ATOM     24  C   UNL A   1      45.607  42.248  38.651  1.00  0.00     0.179 C 
ATOM     25  C   UNL A   1      46.597  44.146  37.338  1.00  0.00     0.179 C 
BRANCH  20  26
ATOM     26  C   UNL A   1      47.627  44.295  40.412  1.00  0.00     0.277 C 
BRANCH  26  27
ATOM     27  C   UNL A   1      46.258  44.806  40.922  1.00  0.00     0.181 C 
BRANCH  27  28
ATOM     28  C   UNL A   1      45.777  45.994  40.106  1.00  0.00     0.068 C 
ATOM     29  N   UNL A   1      45.378  46.979  39.429  1.00  0.00    -0.198 NA
ENDBRANCH  27  28
ENDBRANCH  26  27
ENDBRANCH  20  26
ENDBRANCH  10  19
BRANCH  18  30
ATOM     30  N   UNL A   1      44.485  41.257  30.160  1.00  0.00    -0.280 N 
ATOM     31  H   UNL A   1      45.430  41.242  29.884  1.00  0.00     0.180 HD
BRANCH  30  32
ATOM     32  S   UNL A   1      43.232  40.820  29.053  1.00  0.00     0.263 S 
ATOM     33  O   UNL A   1      41.986  41.211  29.674  1.00  0.00    -0.201 OA
ATOM     34  O   UNL A   1      43.609  41.370  27.768  1.00  0.00    -0.201 OA
BRANCH  32  35
ATOM     35  C   UNL A   1      43.134  39.059  28.846  1.00  0.00     0.106 A 
ATOM     36  C   UNL A   1      43.958  38.003  30.054  1.00  0.00     0.024 A 
ATOM     37  C   UNL A   1      42.172  38.341  27.514  1.00  0.00     0.061 A 
ATOM     38  C   UNL A   1      43.769  36.198  29.954  1.00  0.00     0.002 A 
ATOM     39  C   UNL A   1      42.033  36.551  27.366  1.00  0.00     0.022 A 
ATOM     40  Cl  UNL A   1      41.314  39.312  26.385  1.00  0.00    -0.083 Cl
ATOM     41  C   UNL A   1      42.851  35.465  28.569  1.00  0.00     0.002 A 
ENDBRANCH  32  35
ENDBRANCH  30  32
ENDBRANCH  18  30
ENDBRANCH   7   9
ENDBRANCH   6   7
ENDBRANCH   5   6
ENDBRANCH   4   5
ENDBRANCH   3   4
ENDBRANCH   2   3
ENDBRANCH   1   2
BRANCH   1  42
ATOM     42  O   UNL A   1      41.936  35.878  35.985  1.00  0.00    -0.377 OA
BRANCH  42  43
ATOM     43  C   UNL A   1      41.845  34.630  35.292  1.00  0.00     0.188 C 
BRANCH  43  44
ATOM     44  C   UNL A   1      40.669  33.706  35.656  1.00  0.00     0.188 C 
BRANCH  44  45
ATOM     45  O   UNL A   1      39.384  33.923  35.069  1.00  0.00    -0.376 OA
BRANCH  45  46
ATOM     46  C   UNL A   1      38.923  33.036  34.060  1.00  0.00     0.202 C 
BRANCH  46  47
ATOM     47  C   UNL A   1      37.774  33.545  33.185  1.00  0.00     0.261 C 
BRANCH  47  48
ATOM     48  O   UNL A   1      37.687  32.890  31.914  1.00  0.00    -0.460 OA
BRANCH  48  49
ATOM     49  C   UNL A   1      37.383  31.570  31.980  1.00  0.00     0.338 C 
ATOM     50  O   UNL A   1      36.389  31.072  32.479  1.00  0.00    -0.246 OA
BRANCH  49  51
ATOM     51  C   UNL A   1      38.391  30.779  31.241  1.00  0.00     0.060 A 
ATOM     52  C   UNL A   1      39.311  30.029  31.987  1.00  0.00     0.016 A 
ATOM     53  C   UNL A   1      38.504  30.853  29.850  1.00  0.00     0.016 A 
ATOM     54  C   UNL A   1      40.397  29.426  31.358  1.00  0.00     0.010 A 
ATOM     55  C   UNL A   1      39.604  30.266  29.220  1.00  0.00     0.010 A 
ATOM     56  C   UNL A   1      40.584  29.606  29.982  1.00  0.00    -0.014 A 
BRANCH  56  57
ATOM     57  C   UNL A   1      41.930  29.384  29.399  1.00  0.00     0.031 A 
ATOM     58  C   UNL A   1      42.238  28.006  28.867  1.00  0.00     0.074 A 
ATOM     59  C   UNL A   1      42.847  30.362  29.329  1.00  0.00     0.049 A 
ATOM     60  N   UNL A   1      43.355  27.536  28.375  1.00  0.00    -0.248 NA
ATOM     61  C   UNL A   1      41.136  27.028  28.897  1.00  0.00     0.031 C 
ATOM     62  C   UNL A   1      42.652  31.746  29.758  1.00  0.00     0.029 A 
ATOM     63  N   UNL A   1      44.139  30.329  28.866  1.00  0.00    -0.354 N 
ATOM     64  C   UNL A   1      43.091  26.211  28.048  1.00  0.00     0.074 A 
ATOM     65  C   UNL A   1      41.717  25.944  28.408  1.00  0.00     0.031 C 
ATOM     66  C   UNL A   1      43.790  32.431  29.544  1.00  0.00     0.029 A 
ATOM     67  C   UNL A   1      44.801  31.525  28.998  1.00  0.00     0.049 A 
ATOM     68  H   UNL A   1      44.551  29.525  28.476  1.00  0.00     0.167 HD
ATOM     69  C   UNL A   1      43.919  25.291  27.501  1.00  0.00     0.031 A 
ATOM     70  C   UNL A   1      46.085  31.840  28.732  1.00  0.00     0.031 A 
ATOM     71  C   UNL A   1      45.292  25.544  27.165  1.00  0.00     0.049 A 
ATOM     72  C   UNL A   1      47.013  30.777  28.194  1.00  0.00     0.074 A 
ATOM     73  C   UNL A   1      46.222  24.673  26.627  1.00  0.00     0.029 A 
ATOM     74  N   UNL A   1      45.932  26.760  27.342  1.00  0.00    -0.354 N 
ATOM     75  N   UNL A   1      46.752  29.527  27.894  1.00  0.00    -0.248 NA
ATOM     76  C   UNL A   1      48.410  31.171  27.961  1.00  0.00     0.031 C 
ATOM     77  C   UNL A   1      47.438  25.354  26.514  1.00  0.00     0.029 A 
ATOM     78  C   UNL A   1      47.250  26.661  26.937  1.00  0.00     0.049 A 
ATOM     79  H   UNL A   1      45.511  27.573  27.704  1.00  0.00     0.167 HD
ATOM     80  C   UNL A   1      47.946  28.994  27.413  1.00  0.00     0.074 A 
ATOM     81  C   UNL A   1      48.926  30.059  27.454  1.00  0.00     0.031 C 
ATOM     82  C   UNL A   1      48.206  27.737  26.974  1.00  0.00     0.031 A 
BRANCH  69  83
ATOM     83  C   UNL A   1      43.361  23.914  27.275  1.00  0.00    -0.014 A 
ATOM     84  C   UNL A   1      42.990  23.483  25.988  1.00  0.00     0.010 A 
ATOM     85  C   UNL A   1      43.213  23.035  28.363  1.00  0.00     0.010 A 
ATOM     86  C   UNL A   1      42.447  22.210  25.800  1.00  0.00     0.020 A 
ATOM     87  C   UNL A   1      42.690  21.754  28.175  1.00  0.00     0.020 A 
ATOM     88  C   UNL A   1      42.293  21.356  26.897  1.00  0.00     0.054 A 
BRANCH  88  89
ATOM     89  S   UNL A   1      41.598  19.702  26.627  1.00  0.00     0.124 S 
ATOM     90  O   UNL A   1      40.861  19.480  27.868  1.00  0.00    -0.237 OA
ATOM     91  O   UNL A   1      40.775  19.888  25.434  1.00  0.00    -0.237 OA
ATOM     92  O   UNL A   1      42.775  18.857  26.442  1.00  0.00    -0.744 OA
ENDBRANCH  88  89
ENDBRANCH  69  83
BRANCH  70  93
ATOM     93  C   UNL A   1      46.589  33.216  28.997  1.00  0.00    -0.014 A 
ATOM     94  C   UNL A   1      46.803  34.116  27.939  1.00  0.00     0.010 A 
ATOM     95  C   UNL A   1      46.879  33.626  30.311  1.00  0.00     0.010 A 
ATOM     96  C   UNL A   1      47.320  35.392  28.187  1.00  0.00     0.020 A 
ATOM     97  C   UNL A   1      47.372  34.908  30.566  1.00  0.00     0.020 A 
ATOM     98  C   UNL A   1      47.604  35.779  29.500  1.00  0.00     0.054 A 
BRANCH  98  99
ATOM     99  S   UNL A   1      48.253  37.447  29.802  1.00  0.00     0.124 S 
ATOM    100  O   UNL A   1      48.518  37.413  31.237  1.00  0.00    -0.237 OA
ATOM    101  O   UNL A   1      49.434  37.490  28.943  1.00  0.00    -0.237 OA
ATOM    102  O   UNL A   1      47.159  38.322  29.389  1.00  0.00    -0.744 OA
ENDBRANCH  98  99
ENDBRANCH  70  93
BRANCH  82 103
ATOM    103  C   UNL A   1      49.589  27.449  26.456  1.00  0.00    -0.014 A 
ATOM    104  C   UNL A   1      50.605  26.986  27.310  1.00  0.00     0.010 A 
ATOM    105  C   UNL A   1      49.849  27.567  25.078  1.00  0.00     0.010 A 
ATOM    106  C   UNL A   1      51.864  26.662  26.796  1.00  0.00     0.020 A 
ATOM    107  C   UNL A   1      51.098  27.224  24.559  1.00  0.00     0.020 A 
ATOM    108  C   UNL A   1      52.102  26.784  25.423  1.00  0.00     0.054 A 
BRANCH 108 109
ATOM    109  S   UNL A   1      53.724  26.302  24.767  1.00  0.00     0.124 S 
ATOM    110  O   UNL A   1      53.976  27.348  23.779  1.00  0.00    -0.237 OA
ATOM    111  O   UNL A   1      54.578  26.342  25.953  1.00  0.00    -0.237 OA
ATOM    112  O   UNL A   1      53.494  24.968  24.219  1.00  0.00    -0.744 OA
ENDBRANCH 108 109
ENDBRANCH  82 103
ENDBRANCH  56  57
ENDBRANCH  49  51
ENDBRANCH  48  49
ENDBRANCH  47  48
ENDBRANCH  46  47
ENDBRANCH  45  46
ENDBRANCH  44  45
ENDBRANCH  43  44
ENDBRANCH  42  43
ENDBRANCH   1  42
TORSDOF 30
ENDMDL
