MODEL 1
REMARK VINA RESULT:     -10.6      0.000      0.000
REMARK SMILES Cc1ccc(N2C(=O)C[C@H](Sc3ccccc3C(=O)OCCOCCOCCOCCOC(=O)c3ccc(-c4c5nc(c(-c6ccc(S(=O)(=O)[O-])cc6)c6ccc([nH]6)c(-c6ccc(S(=O)(=O)[O-])cc6)c6nc(c(-c7ccc(S(=O)(=O)[O-])cc7)c7ccc4[nH]7)C=C6)C=C5)cc3)C2=O)cc1
REMARK SMILES IDX 26 1 25 2 24 3 23 4 22 5 21 6 20 7 18 8 19 9 17 10 12 11
REMARK SMILES IDX 13 12 14 13 16 14 15 15 11 16 10 17 6 18 7 19 95 20 8 21
REMARK SMILES IDX 9 22 96 23 5 24 1 25 2 26 3 27 98 28 4 29 97 30 27 31 28 32
REMARK SMILES IDX 29 33 30 34 31 35 32 36 33 37 34 38 35 39 36 40 94 41 37 42
REMARK SMILES IDX 93 43 38 44 39 45 40 46 87 47 41 48 92 49 86 50 88 51 42 52
REMARK SMILES IDX 91 53 85 54 84 55 43 57 73 58 54 59 72 60 55 61 58 62 71 63
REMARK SMILES IDX 89 64 56 65 57 66 70 68 90 69 59 70 44 71 45 72 53 73 46 74
REMARK SMILES IDX 52 75 47 76 48 77 49 78 50 79 51 80 74 81 75 82 83 83 76 84
REMARK SMILES IDX 82 85 77 86 78 87 79 88 80 89 81 90 60 91 61 92 69 93 62 94
REMARK SMILES IDX 68 95 63 96 64 97 65 98 66 99 67 100
REMARK H PARENT 88 56 58 67
REMARK Flexibility Score: inf
ROOT
ATOM      1  O   UNL A   1      35.013  33.932  27.597  1.00  0.00    -0.377 OA
ENDROOT
BRANCH   1   2
ATOM      2  C   UNL A   1      35.600  32.812  28.244  1.00  0.00     0.188 C 
BRANCH   2   3
ATOM      3  C   UNL A   1      34.694  31.596  28.495  1.00  0.00     0.188 C 
BRANCH   3   4
ATOM      4  O   UNL A   1      33.567  31.528  27.642  1.00  0.00    -0.376 OA
BRANCH   4   5
ATOM      5  C   UNL A   1      33.358  30.402  26.802  1.00  0.00     0.202 C 
BRANCH   5   6
ATOM      6  C   UNL A   1      32.963  29.041  27.342  1.00  0.00     0.261 C 
BRANCH   6   7
ATOM      7  O   UNL A   1      31.962  28.414  26.572  1.00  0.00    -0.460 OA
BRANCH   7   8
ATOM      8  C   UNL A   1      32.396  27.886  25.421  1.00  0.00     0.339 C 
ATOM      9  O   UNL A   1      33.396  27.210  25.248  1.00  0.00    -0.246 OA
BRANCH   8  10
ATOM     10  C   UNL A   1      31.254  28.021  24.502  1.00  0.00     0.073 A 
ATOM     11  C   UNL A   1      30.246  27.037  24.454  1.00  0.00     0.023 A 
ATOM     12  C   UNL A   1      29.211  27.241  23.533  1.00  0.00     0.016 A 
ATOM     13  C   UNL A   1      29.126  28.411  22.767  1.00  0.00     0.001 A 
ATOM     14  C   UNL A   1      31.147  29.220  23.753  1.00  0.00     0.017 A 
ATOM     15  C   UNL A   1      30.071  29.419  22.901  1.00  0.00     0.001 A 
BRANCH  11  16
ATOM     16  S   UNL A   1      30.242  25.443  25.295  1.00  0.00    -0.111 SA
BRANCH  16  17
ATOM     17  C   UNL A   1      31.157  24.232  24.242  1.00  0.00     0.151 C 
ATOM     18  N   UNL A   1      33.489  24.066  24.317  1.00  0.00    -0.250 N 
ATOM     19  C   UNL A   1      33.190  24.587  23.091  1.00  0.00     0.235 C 
ATOM     20  C   UNL A   1      32.353  23.612  24.930  1.00  0.00     0.247 C 
ATOM     21  O   UNL A   1      33.956  24.758  22.178  1.00  0.00    -0.274 OA
ATOM     22  C   UNL A   1      31.712  24.743  22.951  1.00  0.00     0.126 C 
ATOM     23  O   UNL A   1      32.280  22.791  25.836  1.00  0.00    -0.273 OA
BRANCH  18  24
ATOM     24  C   UNL A   1      34.808  23.628  24.558  1.00  0.00     0.052 A 
ATOM     25  C   UNL A   1      38.598  21.894  25.680  1.00  0.00     0.044 C 
ATOM     26  C   UNL A   1      37.269  22.477  25.300  1.00  0.00    -0.051 A 
ATOM     27  C   UNL A   1      36.779  23.608  25.966  1.00  0.00     0.005 A 
ATOM     28  C   UNL A   1      36.508  21.914  24.271  1.00  0.00     0.005 A 
ATOM     29  C   UNL A   1      35.560  24.187  25.594  1.00  0.00     0.027 A 
ATOM     30  C   UNL A   1      35.283  22.482  23.908  1.00  0.00     0.027 A 
ENDBRANCH  18  24
ENDBRANCH  16  17
ENDBRANCH  11  16
ENDBRANCH   8  10
ENDBRANCH   7   8
ENDBRANCH   6   7
ENDBRANCH   5   6
ENDBRANCH   4   5
ENDBRANCH   3   4
ENDBRANCH   2   3
ENDBRANCH   1   2
BRANCH   1  31
ATOM     31  C   UNL A   1      34.417  34.874  28.493  1.00  0.00     0.188 C 
BRANCH  31  32
ATOM     32  C   UNL A   1      32.936  34.764  28.762  1.00  0.00     0.188 C 
BRANCH  32  33
ATOM     33  O   UNL A   1      32.485  36.106  28.931  1.00  0.00    -0.376 OA
BRANCH  33  34
ATOM     34  C   UNL A   1      33.381  37.030  29.497  1.00  0.00     0.202 C 
BRANCH  34  35
ATOM     35  C   UNL A   1      33.191  37.230  30.991  1.00  0.00     0.261 C 
BRANCH  35  36
ATOM     36  O   UNL A   1      34.063  36.429  31.856  1.00  0.00    -0.460 OA
BRANCH  36  37
ATOM     37  C   UNL A   1      33.830  35.214  32.440  1.00  0.00     0.338 C 
ATOM     38  O   UNL A   1      32.687  34.771  32.526  1.00  0.00    -0.246 OA
BRANCH  37  39
ATOM     39  C   UNL A   1      34.969  34.280  32.647  1.00  0.00     0.060 A 
ATOM     40  C   UNL A   1      34.981  33.320  33.675  1.00  0.00     0.016 A 
ATOM     41  C   UNL A   1      36.021  34.286  31.759  1.00  0.00     0.016 A 
ATOM     42  C   UNL A   1      36.128  32.530  33.940  1.00  0.00     0.010 A 
ATOM     43  C   UNL A   1      37.176  33.585  32.078  1.00  0.00     0.010 A 
ATOM     44  C   UNL A   1      37.277  32.709  33.182  1.00  0.00    -0.014 A 
BRANCH  44  45
ATOM     45  C   UNL A   1      38.626  32.113  33.442  1.00  0.00     0.031 A 
ATOM     46  C   UNL A   1      38.968  30.862  32.646  1.00  0.00     0.074 A 
ATOM     47  C   UNL A   1      39.599  32.880  34.025  1.00  0.00     0.049 A 
ATOM     48  N   UNL A   1      40.130  30.309  32.556  1.00  0.00    -0.248 NA
ATOM     49  C   UNL A   1      38.012  30.181  31.757  1.00  0.00     0.031 C 
ATOM     50  C   UNL A   1      41.053  32.801  33.854  1.00  0.00     0.029 A 
ATOM     51  N   UNL A   1      39.508  33.974  34.886  1.00  0.00    -0.354 N 
ATOM     52  C   UNL A   1      40.181  29.524  31.406  1.00  0.00     0.074 A 
ATOM     53  C   UNL A   1      38.808  29.432  30.980  1.00  0.00     0.031 C 
ATOM     54  C   UNL A   1      41.711  33.746  34.550  1.00  0.00     0.029 A 
ATOM     55  C   UNL A   1      40.752  34.198  35.513  1.00  0.00     0.049 A 
ATOM     56  H   UNL A   1      38.696  34.512  35.033  1.00  0.00     0.167 HD
ATOM     57  C   UNL A   1      41.399  29.168  30.881  1.00  0.00     0.031 A 
ATOM     58  C   UNL A   1      40.869  33.883  36.835  1.00  0.00     0.031 A 
ATOM     59  C   UNL A   1      42.511  29.559  31.796  1.00  0.00     0.049 A 
ATOM     60  C   UNL A   1      41.652  32.546  36.977  1.00  0.00     0.074 A 
ATOM     61  C   UNL A   1      43.726  30.210  31.650  1.00  0.00     0.029 A 
ATOM     62  N   UNL A   1      42.323  29.458  33.181  1.00  0.00    -0.354 N 
ATOM     63  N   UNL A   1      41.843  31.677  35.999  1.00  0.00    -0.248 NA
ATOM     64  C   UNL A   1      42.449  32.170  38.134  1.00  0.00     0.031 C 
ATOM     65  C   UNL A   1      44.187  30.595  32.952  1.00  0.00     0.029 A 
ATOM     66  C   UNL A   1      43.294  30.122  33.908  1.00  0.00     0.049 A 
ATOM     67  H   UNL A   1      41.577  28.967  33.594  1.00  0.00     0.167 HD
ATOM     68  C   UNL A   1      42.836  30.776  36.279  1.00  0.00     0.074 A 
ATOM     69  C   UNL A   1      43.113  31.083  37.679  1.00  0.00     0.031 C 
ATOM     70  C   UNL A   1      43.393  29.901  35.363  1.00  0.00     0.031 A 
BRANCH  57  71
ATOM     71  C   UNL A   1      41.659  28.628  29.446  1.00  0.00    -0.014 A 
ATOM     72  C   UNL A   1      42.337  27.394  29.282  1.00  0.00     0.010 A 
ATOM     73  C   UNL A   1      41.345  29.278  28.228  1.00  0.00     0.010 A 
ATOM     74  C   UNL A   1      42.695  26.855  28.027  1.00  0.00     0.020 A 
ATOM     75  C   UNL A   1      41.665  28.732  26.953  1.00  0.00     0.020 A 
ATOM     76  C   UNL A   1      42.348  27.523  26.860  1.00  0.00     0.054 A 
BRANCH  76  77
ATOM     77  S   UNL A   1      42.754  26.761  25.255  1.00  0.00     0.124 S 
ATOM     78  O   UNL A   1      44.087  26.209  25.488  1.00  0.00    -0.237 OA
ATOM     79  O   UNL A   1      41.688  25.775  25.088  1.00  0.00    -0.237 OA
ATOM     80  O   UNL A   1      42.708  27.880  24.315  1.00  0.00    -0.744 OA
ENDBRANCH  76  77
ENDBRANCH  57  71
BRANCH  58  81
ATOM     81  C   UNL A   1      39.725  34.578  37.561  1.00  0.00    -0.014 A 
ATOM     82  C   UNL A   1      38.796  33.690  38.188  1.00  0.00     0.010 A 
ATOM     83  C   UNL A   1      39.948  35.812  38.209  1.00  0.00     0.010 A 
ATOM     84  C   UNL A   1      38.329  33.906  39.504  1.00  0.00     0.020 A 
ATOM     85  C   UNL A   1      39.465  36.034  39.527  1.00  0.00     0.020 A 
ATOM     86  C   UNL A   1      38.709  35.057  40.189  1.00  0.00     0.054 A 
BRANCH  86  87
ATOM     87  S   UNL A   1      38.426  35.145  42.003  1.00  0.00     0.124 S 
ATOM     88  O   UNL A   1      36.987  34.934  42.109  1.00  0.00    -0.237 OA
ATOM     89  O   UNL A   1      39.254  34.067  42.540  1.00  0.00    -0.237 OA
ATOM     90  O   UNL A   1      38.887  36.484  42.355  1.00  0.00    -0.744 OA
ENDBRANCH  86  87
ENDBRANCH  58  81
BRANCH  70  91
ATOM     91  C   UNL A   1      44.097  28.595  35.711  1.00  0.00    -0.014 A 
ATOM     92  C   UNL A   1      43.466  27.394  36.012  1.00  0.00     0.010 A 
ATOM     93  C   UNL A   1      45.524  28.554  35.652  1.00  0.00     0.010 A 
ATOM     94  C   UNL A   1      44.193  26.202  36.108  1.00  0.00     0.020 A 
ATOM     95  C   UNL A   1      46.263  27.382  35.753  1.00  0.00     0.020 A 
ATOM     96  C   UNL A   1      45.579  26.198  35.945  1.00  0.00     0.054 A 
BRANCH  96  97
ATOM     97  S   UNL A   1      46.461  24.631  35.985  1.00  0.00     0.124 S 
ATOM     98  O   UNL A   1      45.423  23.709  36.441  1.00  0.00    -0.237 OA
ATOM     99  O   UNL A   1      46.868  24.478  34.590  1.00  0.00    -0.237 OA
ATOM    100  O   UNL A   1      47.549  24.860  36.931  1.00  0.00    -0.744 OA
ENDBRANCH  96  97
ENDBRANCH  70  91
ENDBRANCH  44  45
ENDBRANCH  37  39
ENDBRANCH  36  37
ENDBRANCH  35  36
ENDBRANCH  34  35
ENDBRANCH  33  34
ENDBRANCH  32  33
ENDBRANCH  31  32
ENDBRANCH   1  31
TORSDOF 26
ENDMDL
MODEL 2
REMARK VINA RESULT:     -10.1      3.627      6.751
REMARK SMILES Cc1ccc(N2C(=O)C[C@H](Sc3ccccc3C(=O)OCCOCCOCCOCCOC(=O)c3ccc(-c4c5nc(c(-c6ccc(S(=O)(=O)[O-])cc6)c6ccc([nH]6)c(-c6ccc(S(=O)(=O)[O-])cc6)c6nc(c(-c7ccc(S(=O)(=O)[O-])cc7)c7ccc4[nH]7)C=C6)C=C5)cc3)C2=O)cc1
REMARK SMILES IDX 26 1 25 2 24 3 23 4 22 5 21 6 20 7 18 8 19 9 17 10 12 11
REMARK SMILES IDX 13 12 14 13 16 14 15 15 11 16 10 17 6 18 7 19 95 20 8 21
REMARK SMILES IDX 9 22 96 23 5 24 1 25 2 26 3 27 98 28 4 29 97 30 27 31 28 32
REMARK SMILES IDX 29 33 30 34 31 35 32 36 33 37 34 38 35 39 36 40 94 41 37 42
REMARK SMILES IDX 93 43 38 44 39 45 40 46 87 47 41 48 92 49 86 50 88 51 42 52
REMARK SMILES IDX 91 53 85 54 84 55 43 57 73 58 54 59 72 60 55 61 58 62 71 63
REMARK SMILES IDX 89 64 56 65 57 66 70 68 90 69 59 70 44 71 45 72 53 73 46 74
REMARK SMILES IDX 52 75 47 76 48 77 49 78 50 79 51 80 74 81 75 82 83 83 76 84
REMARK SMILES IDX 82 85 77 86 78 87 79 88 80 89 81 90 60 91 61 92 69 93 62 94
REMARK SMILES IDX 68 95 63 96 64 97 65 98 66 99 67 100
REMARK H PARENT 88 56 58 67
REMARK Flexibility Score: inf
ROOT
ATOM      1  O   UNL A   1      31.253  23.695  27.345  1.00  0.00    -0.377 OA
ENDROOT
BRANCH   1   2
ATOM      2  C   UNL A   1      30.409  22.649  26.887  1.00  0.00     0.188 C 
BRANCH   2   3
ATOM      3  C   UNL A   1      30.628  22.154  25.448  1.00  0.00     0.188 C 
BRANCH   3   4
ATOM      4  O   UNL A   1      31.465  21.018  25.348  1.00  0.00    -0.376 OA
BRANCH   4   5
ATOM      5  C   UNL A   1      32.820  21.074  25.766  1.00  0.00     0.202 C 
BRANCH   5   6
ATOM      6  C   UNL A   1      33.868  20.092  25.280  1.00  0.00     0.261 C 
BRANCH   6   7
ATOM      7  O   UNL A   1      35.185  20.568  25.442  1.00  0.00    -0.460 OA
BRANCH   7   8
ATOM      8  C   UNL A   1      35.575  21.449  24.512  1.00  0.00     0.339 C 
ATOM      9  O   UNL A   1      35.035  21.685  23.445  1.00  0.00    -0.246 OA
BRANCH   8  10
ATOM     10  C   UNL A   1      36.580  22.281  25.194  1.00  0.00     0.073 A 
ATOM     11  C   UNL A   1      36.219  23.503  25.794  1.00  0.00     0.023 A 
ATOM     12  C   UNL A   1      37.247  24.235  26.400  1.00  0.00     0.016 A 
ATOM     13  C   UNL A   1      38.553  23.734  26.493  1.00  0.00     0.001 A 
ATOM     14  C   UNL A   1      37.892  21.759  25.321  1.00  0.00     0.017 A 
ATOM     15  C   UNL A   1      38.871  22.480  25.988  1.00  0.00     0.001 A 
BRANCH  11  16
ATOM     16  S   UNL A   1      34.623  24.334  25.693  1.00  0.00    -0.111 SA
BRANCH  16  17
ATOM     17  C   UNL A   1      34.518  25.188  24.059  1.00  0.00     0.151 C 
ATOM     18  N   UNL A   1      32.634  26.435  23.451  1.00  0.00    -0.250 N 
ATOM     19  C   UNL A   1      32.635  25.336  22.640  1.00  0.00     0.235 C 
ATOM     20  C   UNL A   1      33.824  26.531  24.120  1.00  0.00     0.247 C 
ATOM     21  O   UNL A   1      31.914  25.142  21.695  1.00  0.00    -0.274 OA
ATOM     22  C   UNL A   1      33.803  24.466  22.963  1.00  0.00     0.126 C 
ATOM     23  O   UNL A   1      34.306  27.535  24.630  1.00  0.00    -0.273 OA
BRANCH  18  24
ATOM     24  C   UNL A   1      31.749  27.491  23.152  1.00  0.00     0.052 A 
ATOM     25  C   UNL A   1      29.016  30.492  21.683  1.00  0.00     0.044 C 
ATOM     26  C   UNL A   1      29.961  29.434  22.173  1.00  0.00    -0.051 A 
ATOM     27  C   UNL A   1      31.343  29.658  22.150  1.00  0.00     0.005 A 
ATOM     28  C   UNL A   1      29.479  28.221  22.674  1.00  0.00     0.005 A 
ATOM     29  C   UNL A   1      32.234  28.698  22.642  1.00  0.00     0.027 A 
ATOM     30  C   UNL A   1      30.369  27.254  23.153  1.00  0.00     0.027 A 
ENDBRANCH  18  24
ENDBRANCH  16  17
ENDBRANCH  11  16
ENDBRANCH   8  10
ENDBRANCH   7   8
ENDBRANCH   6   7
ENDBRANCH   5   6
ENDBRANCH   4   5
ENDBRANCH   3   4
ENDBRANCH   2   3
ENDBRANCH   1   2
BRANCH   1  31
ATOM     31  C   UNL A   1      31.366  24.792  26.436  1.00  0.00     0.188 C 
BRANCH  31  32
ATOM     32  C   UNL A   1      30.136  25.624  26.165  1.00  0.00     0.188 C 
BRANCH  32  33
ATOM     33  O   UNL A   1      30.287  26.790  26.972  1.00  0.00    -0.376 OA
BRANCH  33  34
ATOM     34  C   UNL A   1      31.224  27.754  26.559  1.00  0.00     0.202 C 
BRANCH  34  35
ATOM     35  C   UNL A   1      32.008  28.373  27.704  1.00  0.00     0.261 C 
BRANCH  35  36
ATOM     36  O   UNL A   1      33.435  28.595  27.451  1.00  0.00    -0.460 OA
BRANCH  36  37
ATOM     37  C   UNL A   1      34.146  29.764  27.447  1.00  0.00     0.338 C 
ATOM     38  O   UNL A   1      33.587  30.834  27.221  1.00  0.00    -0.246 OA
BRANCH  37  39
ATOM     39  C   UNL A   1      35.503  29.789  28.057  1.00  0.00     0.060 A 
ATOM     40  C   UNL A   1      36.662  30.066  27.311  1.00  0.00     0.016 A 
ATOM     41  C   UNL A   1      35.638  29.616  29.417  1.00  0.00     0.016 A 
ATOM     42  C   UNL A   1      37.955  29.955  27.879  1.00  0.00     0.010 A 
ATOM     43  C   UNL A   1      36.904  29.411  29.948  1.00  0.00     0.010 A 
ATOM     44  C   UNL A   1      38.094  29.549  29.199  1.00  0.00    -0.014 A 
BRANCH  44  45
ATOM     45  C   UNL A   1      39.369  29.190  29.899  1.00  0.00     0.031 A 
ATOM     46  C   UNL A   1      39.982  27.848  29.525  1.00  0.00     0.074 A 
ATOM     47  C   UNL A   1      40.112  30.177  30.492  1.00  0.00     0.049 A 
ATOM     48  N   UNL A   1      41.161  27.434  29.842  1.00  0.00    -0.248 NA
ATOM     49  C   UNL A   1      39.328  26.882  28.628  1.00  0.00     0.031 C 
ATOM     50  C   UNL A   1      41.563  30.240  30.687  1.00  0.00     0.029 A 
ATOM     51  N   UNL A   1      39.734  31.412  31.022  1.00  0.00    -0.354 N 
ATOM     52  C   UNL A   1      41.553  26.432  28.956  1.00  0.00     0.074 A 
ATOM     53  C   UNL A   1      40.341  26.085  28.258  1.00  0.00     0.031 C 
ATOM     54  C   UNL A   1      41.961  31.385  31.271  1.00  0.00     0.029 A 
ATOM     55  C   UNL A   1      40.761  31.914  31.849  1.00  0.00     0.049 A 
ATOM     56  H   UNL A   1      38.879  31.866  30.845  1.00  0.00     0.167 HD
ATOM     57  C   UNL A   1      42.885  26.122  28.828  1.00  0.00     0.031 A 
ATOM     58  C   UNL A   1      40.560  31.907  33.198  1.00  0.00     0.031 A 
ATOM     59  C   UNL A   1      43.701  26.832  29.856  1.00  0.00     0.049 A 
ATOM     60  C   UNL A   1      41.366  30.737  33.832  1.00  0.00     0.074 A 
ATOM     61  C   UNL A   1      44.869  27.579  29.845  1.00  0.00     0.029 A 
ATOM     62  N   UNL A   1      43.175  27.010  31.142  1.00  0.00    -0.354 N 
ATOM     63  N   UNL A   1      41.854  29.708  33.161  1.00  0.00    -0.248 NA
ATOM     64  C   UNL A   1      41.866  30.717  35.197  1.00  0.00     0.031 C 
ATOM     65  C   UNL A   1      44.959  28.288  31.088  1.00  0.00     0.029 A 
ATOM     66  C   UNL A   1      43.885  27.926  31.895  1.00  0.00     0.049 A 
ATOM     67  H   UNL A   1      42.381  26.532  31.476  1.00  0.00     0.167 HD
ATOM     68  C   UNL A   1      42.799  29.014  33.869  1.00  0.00     0.074 A 
ATOM     69  C   UNL A   1      42.692  29.647  35.181  1.00  0.00     0.031 C 
ATOM     70  C   UNL A   1      43.626  28.037  33.343  1.00  0.00     0.031 A 
BRANCH  57  71
ATOM     71  C   UNL A   1      43.534  25.321  27.664  1.00  0.00    -0.014 A 
ATOM     72  C   UNL A   1      44.107  24.052  27.930  1.00  0.00     0.010 A 
ATOM     73  C   UNL A   1      43.688  25.752  26.324  1.00  0.00     0.010 A 
ATOM     74  C   UNL A   1      44.792  23.282  26.965  1.00  0.00     0.020 A 
ATOM     75  C   UNL A   1      44.344  24.973  25.329  1.00  0.00     0.020 A 
ATOM     76  C   UNL A   1      44.900  23.741  25.659  1.00  0.00     0.054 A 
BRANCH  76  77
ATOM     77  S   UNL A   1      45.721  22.686  24.420  1.00  0.00     0.124 S 
ATOM     78  O   UNL A   1      46.574  23.632  23.705  1.00  0.00    -0.237 OA
ATOM     79  O   UNL A   1      46.424  21.708  25.246  1.00  0.00    -0.237 OA
ATOM     80  O   UNL A   1      44.612  22.143  23.635  1.00  0.00    -0.744 OA
ENDBRANCH  76  77
ENDBRANCH  57  71
BRANCH  58  81
ATOM     81  C   UNL A   1      39.227  32.598  33.451  1.00  0.00    -0.014 A 
ATOM     82  C   UNL A   1      39.050  33.823  32.734  1.00  0.00     0.010 A 
ATOM     83  C   UNL A   1      38.066  31.829  33.674  1.00  0.00     0.010 A 
ATOM     84  C   UNL A   1      37.848  34.124  32.056  1.00  0.00     0.020 A 
ATOM     85  C   UNL A   1      36.852  32.141  33.003  1.00  0.00     0.020 A 
ATOM     86  C   UNL A   1      36.767  33.251  32.153  1.00  0.00     0.054 A 
BRANCH  86  87
ATOM     87  S   UNL A   1      35.365  33.441  30.979  1.00  0.00     0.124 S 
ATOM     88  O   UNL A   1      34.767  34.702  31.402  1.00  0.00    -0.237 OA
ATOM     89  O   UNL A   1      36.008  33.467  29.667  1.00  0.00    -0.237 OA
ATOM     90  O   UNL A   1      34.553  32.253  31.223  1.00  0.00    -0.744 OA
ENDBRANCH  86  87
ENDBRANCH  58  81
BRANCH  70  91
ATOM     91  C   UNL A   1      44.302  26.932  34.146  1.00  0.00    -0.014 A 
ATOM     92  C   UNL A   1      43.659  26.062  35.019  1.00  0.00     0.010 A 
ATOM     93  C   UNL A   1      45.696  26.697  33.942  1.00  0.00     0.010 A 
ATOM     94  C   UNL A   1      44.324  24.948  35.544  1.00  0.00     0.020 A 
ATOM     95  C   UNL A   1      46.374  25.601  34.462  1.00  0.00     0.020 A 
ATOM     96  C   UNL A   1      45.663  24.707  35.236  1.00  0.00     0.054 A 
BRANCH  96  97
ATOM     97  S   UNL A   1      46.449  23.214  35.860  1.00  0.00     0.124 S 
ATOM     98  O   UNL A   1      47.409  23.753  36.820  1.00  0.00    -0.237 OA
ATOM     99  O   UNL A   1      45.316  22.497  36.439  1.00  0.00    -0.237 OA
ATOM    100  O   UNL A   1      47.035  22.598  34.673  1.00  0.00    -0.744 OA
ENDBRANCH  96  97
ENDBRANCH  70  91
ENDBRANCH  44  45
ENDBRANCH  37  39
ENDBRANCH  36  37
ENDBRANCH  35  36
ENDBRANCH  34  35
ENDBRANCH  33  34
ENDBRANCH  32  33
ENDBRANCH  31  32
ENDBRANCH   1  31
TORSDOF 26
ENDMDL
MODEL 3
REMARK VINA RESULT:      -9.2      4.482     11.347
REMARK SMILES Cc1ccc(N2C(=O)C[C@H](Sc3ccccc3C(=O)OCCOCCOCCOCCOC(=O)c3ccc(-c4c5nc(c(-c6ccc(S(=O)(=O)[O-])cc6)c6ccc([nH]6)c(-c6ccc(S(=O)(=O)[O-])cc6)c6nc(c(-c7ccc(S(=O)(=O)[O-])cc7)c7ccc4[nH]7)C=C6)C=C5)cc3)C2=O)cc1
REMARK SMILES IDX 26 1 25 2 24 3 23 4 22 5 21 6 20 7 18 8 19 9 17 10 12 11
REMARK SMILES IDX 13 12 14 13 16 14 15 15 11 16 10 17 6 18 7 19 95 20 8 21
REMARK SMILES IDX 9 22 96 23 5 24 1 25 2 26 3 27 98 28 4 29 97 30 27 31 28 32
REMARK SMILES IDX 29 33 30 34 31 35 32 36 33 37 34 38 35 39 36 40 94 41 37 42
REMARK SMILES IDX 93 43 38 44 39 45 40 46 87 47 41 48 92 49 86 50 88 51 42 52
REMARK SMILES IDX 91 53 85 54 84 55 43 57 73 58 54 59 72 60 55 61 58 62 71 63
REMARK SMILES IDX 89 64 56 65 57 66 70 68 90 69 59 70 44 71 45 72 53 73 46 74
REMARK SMILES IDX 52 75 47 76 48 77 49 78 50 79 51 80 74 81 75 82 83 83 76 84
REMARK SMILES IDX 82 85 77 86 78 87 79 88 80 89 81 90 60 91 61 92 69 93 62 94
REMARK SMILES IDX 68 95 63 96 64 97 65 98 66 99 67 100
REMARK H PARENT 88 56 58 67
REMARK Flexibility Score: inf
ROOT
ATOM      1  O   UNL A   1      40.449  20.340  26.166  1.00  0.00    -0.377 OA
ENDROOT
BRANCH   1   2
ATOM      2  C   UNL A   1      39.607  21.444  26.465  1.00  0.00     0.188 C 
BRANCH   2   3
ATOM      3  C   UNL A   1      38.514  21.787  25.439  1.00  0.00     0.188 C 
BRANCH   3   4
ATOM      4  O   UNL A   1      37.555  20.764  25.252  1.00  0.00    -0.376 OA
BRANCH   4   5
ATOM      5  C   UNL A   1      36.179  21.000  25.512  1.00  0.00     0.202 C 
BRANCH   5   6
ATOM      6  C   UNL A   1      35.253  21.638  24.495  1.00  0.00     0.261 C 
BRANCH   6   7
ATOM      7  O   UNL A   1      33.892  21.520  24.842  1.00  0.00    -0.460 OA
BRANCH   7   8
ATOM      8  C   UNL A   1      33.057  22.215  24.059  1.00  0.00     0.339 C 
ATOM      9  O   UNL A   1      32.761  21.979  22.900  1.00  0.00    -0.246 OA
BRANCH   8  10
ATOM     10  C   UNL A   1      32.341  23.106  24.987  1.00  0.00     0.073 A 
ATOM     11  C   UNL A   1      32.801  24.416  25.229  1.00  0.00     0.023 A 
ATOM     12  C   UNL A   1      32.068  25.182  26.144  1.00  0.00     0.016 A 
ATOM     13  C   UNL A   1      30.879  24.708  26.716  1.00  0.00     0.001 A 
ATOM     14  C   UNL A   1      31.121  22.642  25.538  1.00  0.00     0.017 A 
ATOM     15  C   UNL A   1      30.383  23.453  26.388  1.00  0.00     0.001 A 
BRANCH  11  16
ATOM     16  S   UNL A   1      34.343  25.150  24.654  1.00  0.00    -0.111 SA
BRANCH  16  17
ATOM     17  C   UNL A   1      33.967  26.211  23.190  1.00  0.00     0.151 C 
ATOM     18  N   UNL A   1      32.061  27.566  23.121  1.00  0.00    -0.250 N 
ATOM     19  C   UNL A   1      31.856  26.582  22.197  1.00  0.00     0.235 C 
ATOM     20  C   UNL A   1      33.360  27.550  23.550  1.00  0.00     0.247 C 
ATOM     21  O   UNL A   1      30.959  26.529  21.395  1.00  0.00    -0.274 OA
ATOM     22  C   UNL A   1      33.022  25.653  22.175  1.00  0.00     0.126 C 
ATOM     23  O   UNL A   1      33.977  28.468  24.077  1.00  0.00    -0.273 OA
BRANCH  18  24
ATOM     24  C   UNL A   1      31.184  28.671  23.135  1.00  0.00     0.052 A 
ATOM     25  C   UNL A   1      28.114  31.687  23.459  1.00  0.00     0.044 C 
ATOM     26  C   UNL A   1      29.169  30.624  23.364  1.00  0.00    -0.051 A 
ATOM     27  C   UNL A   1      29.262  29.824  22.218  1.00  0.00     0.005 A 
ATOM     28  C   UNL A   1      30.082  30.427  24.404  1.00  0.00     0.005 A 
ATOM     29  C   UNL A   1      30.267  28.858  22.098  1.00  0.00     0.027 A 
ATOM     30  C   UNL A   1      31.078  29.452  24.292  1.00  0.00     0.027 A 
ENDBRANCH  18  24
ENDBRANCH  16  17
ENDBRANCH  11  16
ENDBRANCH   8  10
ENDBRANCH   7   8
ENDBRANCH   6   7
ENDBRANCH   5   6
ENDBRANCH   4   5
ENDBRANCH   3   4
ENDBRANCH   2   3
ENDBRANCH   1   2
BRANCH   1  31
ATOM     31  C   UNL A   1      41.845  20.640  26.230  1.00  0.00     0.188 C 
BRANCH  31  32
ATOM     32  C   UNL A   1      42.284  22.058  25.958  1.00  0.00     0.188 C 
BRANCH  32  33
ATOM     33  O   UNL A   1      43.594  22.158  26.511  1.00  0.00    -0.376 OA
BRANCH  33  34
ATOM     34  C   UNL A   1      44.682  22.152  25.621  1.00  0.00     0.202 C 
BRANCH  34  35
ATOM     35  C   UNL A   1      45.541  23.403  25.697  1.00  0.00     0.261 C 
BRANCH  35  36
ATOM     36  O   UNL A   1      46.466  23.472  26.832  1.00  0.00    -0.460 OA
BRANCH  36  37
ATOM     37  C   UNL A   1      47.116  24.554  27.360  1.00  0.00     0.338 C 
ATOM     38  O   UNL A   1      47.779  25.297  26.641  1.00  0.00    -0.246 OA
BRANCH  37  39
ATOM     39  C   UNL A   1      46.738  25.034  28.717  1.00  0.00     0.060 A 
ATOM     40  C   UNL A   1      47.627  25.748  29.540  1.00  0.00     0.016 A 
ATOM     41  C   UNL A   1      45.449  24.852  29.166  1.00  0.00     0.016 A 
ATOM     42  C   UNL A   1      47.297  26.080  30.878  1.00  0.00     0.010 A 
ATOM     43  C   UNL A   1      45.161  25.090  30.503  1.00  0.00     0.010 A 
ATOM     44  C   UNL A   1      46.074  25.685  31.403  1.00  0.00    -0.014 A 
BRANCH  44  45
ATOM     45  C   UNL A   1      45.640  25.774  32.833  1.00  0.00     0.031 A 
ATOM     46  C   UNL A   1      44.967  27.075  33.248  1.00  0.00     0.074 A 
ATOM     47  C   UNL A   1      45.491  24.625  33.564  1.00  0.00     0.049 A 
ATOM     48  N   UNL A   1      44.339  27.290  34.353  1.00  0.00    -0.248 NA
ATOM     49  C   UNL A   1      44.842  28.240  32.358  1.00  0.00     0.031 C 
ATOM     50  C   UNL A   1      44.572  24.359  34.675  1.00  0.00     0.029 A 
ATOM     51  N   UNL A   1      46.103  23.377  33.441  1.00  0.00    -0.354 N 
ATOM     52  C   UNL A   1      43.467  28.363  34.188  1.00  0.00     0.074 A 
ATOM     53  C   UNL A   1      43.870  28.958  32.940  1.00  0.00     0.031 C 
ATOM     54  C   UNL A   1      44.662  23.097  35.134  1.00  0.00     0.029 A 
ATOM     55  C   UNL A   1      45.918  22.632  34.625  1.00  0.00     0.049 A 
ATOM     56  H   UNL A   1      46.591  23.062  32.646  1.00  0.00     0.167 HD
ATOM     57  C   UNL A   1      42.420  28.527  35.063  1.00  0.00     0.031 A 
ATOM     58  C   UNL A   1      46.994  22.452  35.445  1.00  0.00     0.031 A 
ATOM     59  C   UNL A   1      42.522  27.573  36.205  1.00  0.00     0.049 A 
ATOM     60  C   UNL A   1      46.871  23.404  36.670  1.00  0.00     0.074 A 
ATOM     61  C   UNL A   1      41.653  26.702  36.844  1.00  0.00     0.029 A 
ATOM     62  N   UNL A   1      43.786  27.261  36.724  1.00  0.00    -0.354 N 
ATOM     63  N   UNL A   1      46.077  24.459  36.727  1.00  0.00    -0.248 NA
ATOM     64  C   UNL A   1      47.450  23.150  37.979  1.00  0.00     0.031 C 
ATOM     65  C   UNL A   1      42.429  25.802  37.646  1.00  0.00     0.029 A 
ATOM     66  C   UNL A   1      43.771  26.159  37.559  1.00  0.00     0.049 A 
ATOM     67  H   UNL A   1      44.601  27.773  36.515  1.00  0.00     0.167 HD
ATOM     68  C   UNL A   1      45.894  24.915  38.006  1.00  0.00     0.074 A 
ATOM     69  C   UNL A   1      46.863  24.103  38.738  1.00  0.00     0.031 C 
ATOM     70  C   UNL A   1      44.954  25.856  38.386  1.00  0.00     0.031 A 
BRANCH  57  71
ATOM     71  C   UNL A   1      41.164  29.416  34.837  1.00  0.00    -0.014 A 
ATOM     72  C   UNL A   1      40.629  29.541  33.530  1.00  0.00     0.010 A 
ATOM     73  C   UNL A   1      40.498  30.202  35.809  1.00  0.00     0.010 A 
ATOM     74  C   UNL A   1      39.545  30.385  33.203  1.00  0.00     0.020 A 
ATOM     75  C   UNL A   1      39.382  31.030  35.504  1.00  0.00     0.020 A 
ATOM     76  C   UNL A   1      38.914  31.123  34.196  1.00  0.00     0.054 A 
BRANCH  76  77
ATOM     77  S   UNL A   1      37.469  32.140  33.754  1.00  0.00     0.124 S 
ATOM     78  O   UNL A   1      38.052  33.181  32.911  1.00  0.00    -0.237 OA
ATOM     79  O   UNL A   1      36.604  31.186  33.063  1.00  0.00    -0.237 OA
ATOM     80  O   UNL A   1      36.962  32.606  35.044  1.00  0.00    -0.744 OA
ENDBRANCH  76  77
ENDBRANCH  57  71
BRANCH  58  81
ATOM     81  C   UNL A   1      48.119  21.895  34.584  1.00  0.00    -0.014 A 
ATOM     82  C   UNL A   1      49.356  22.606  34.694  1.00  0.00     0.010 A 
ATOM     83  C   UNL A   1      48.214  20.505  34.362  1.00  0.00     0.010 A 
ATOM     84  C   UNL A   1      50.591  21.938  34.840  1.00  0.00     0.020 A 
ATOM     85  C   UNL A   1      49.461  19.835  34.493  1.00  0.00     0.020 A 
ATOM     86  C   UNL A   1      50.630  20.547  34.789  1.00  0.00     0.054 A 
BRANCH  86  87
ATOM     87  S   UNL A   1      52.148  19.680  35.358  1.00  0.00     0.124 S 
ATOM     88  O   UNL A   1      52.720  19.191  34.109  1.00  0.00    -0.237 OA
ATOM     89  O   UNL A   1      52.920  20.727  36.027  1.00  0.00    -0.237 OA
ATOM     90  O   UNL A   1      51.637  18.649  36.256  1.00  0.00    -0.744 OA
ENDBRANCH  86  87
ENDBRANCH  58  81
BRANCH  70  91
ATOM     91  C   UNL A   1      45.040  26.733  39.629  1.00  0.00    -0.014 A 
ATOM     92  C   UNL A   1      45.604  28.003  39.683  1.00  0.00     0.010 A 
ATOM     93  C   UNL A   1      44.429  26.269  40.834  1.00  0.00     0.010 A 
ATOM     94  C   UNL A   1      45.446  28.814  40.812  1.00  0.00     0.020 A 
ATOM     95  C   UNL A   1      44.270  27.058  41.967  1.00  0.00     0.020 A 
ATOM     96  C   UNL A   1      44.753  28.350  41.931  1.00  0.00     0.054 A 
BRANCH  96  97
ATOM     97  S   UNL A   1      44.496  29.460  43.323  1.00  0.00     0.124 S 
ATOM     98  O   UNL A   1      45.714  30.266  43.300  1.00  0.00    -0.237 OA
ATOM     99  O   UNL A   1      43.274  30.158  42.929  1.00  0.00    -0.237 OA
ATOM    100  O   UNL A   1      44.362  28.567  44.470  1.00  0.00    -0.744 OA
ENDBRANCH  96  97
ENDBRANCH  70  91
ENDBRANCH  44  45
ENDBRANCH  37  39
ENDBRANCH  36  37
ENDBRANCH  35  36
ENDBRANCH  34  35
ENDBRANCH  33  34
ENDBRANCH  32  33
ENDBRANCH  31  32
ENDBRANCH   1  31
TORSDOF 26
ENDMDL
