MODEL 1
REMARK VINA RESULT:      -6.3      0.000      0.000
REMARK SMILES O=C(OCCOCCOCCOCCOC(=O)c1ccc(Nc2c([N+](=O)[O-])c(=O)oc3ccccc23)cc1O)c1ccc(-c2c3nc(c(-c4ccc(S(=O)(=O)[O-])cc4)c4ccc([nH]4)c(-c4ccc(S(=O)(=O)[O-])cc4)c4nc(c(-c5ccc(S(=O)(=O)[O-])cc5)c5ccc2[nH]5)C=C4)C=C3)cc1
REMARK SMILES IDX 9 1 8 2 7 3 6 4 5 5 4 6 3 7 2 8 1 9 40 10 41 11 99 12 42 13
REMARK SMILES IDX 98 14 43 15 44 16 45 17 92 18 46 19 97 20 91 21 93 22 47 23
REMARK SMILES IDX 96 24 90 25 89 26 48 28 78 29 59 30 77 31 60 32 63 33 76 34
REMARK SMILES IDX 94 35 61 36 62 37 75 39 95 40 64 41 49 42 50 43 58 44 51 45
REMARK SMILES IDX 57 46 52 47 53 48 54 49 55 50 56 51 79 52 80 53 88 54 81 55
REMARK SMILES IDX 87 56 82 57 83 58 84 59 85 60 86 61 65 62 66 63 74 64 67 65
REMARK SMILES IDX 73 66 68 67 69 68 70 69 71 70 72 71 10 72 11 73 12 74 13 75
REMARK SMILES IDX 14 76 15 77 16 78 17 79 18 80 19 81 38 82 20 83 37 84 21 85
REMARK SMILES IDX 39 86 22 88 23 90 24 91 36 92 28 93 31 94 35 95 29 96 30 97
REMARK SMILES IDX 32 98 34 99 33 100 25 101 26 102 27 103
REMARK H PARENT 93 27 63 38 39 87 22 89
REMARK Flexibility Score: inf
ROOT
ATOM      1  O   UNL A   1      53.471  31.201  38.169  1.00  0.00    -0.377 OA
ENDROOT
BRANCH   1   2
ATOM      2  C   UNL A   1      53.538  30.258  37.102  1.00  0.00     0.188 C 
BRANCH   2   3
ATOM      3  C   UNL A   1      53.907  28.837  37.522  1.00  0.00     0.188 C 
BRANCH   3   4
ATOM      4  O   UNL A   1      54.008  27.984  36.379  1.00  0.00    -0.376 OA
BRANCH   4   5
ATOM      5  C   UNL A   1      52.815  27.864  35.604  1.00  0.00     0.202 C 
BRANCH   5   6
ATOM      6  C   UNL A   1      52.371  26.418  35.370  1.00  0.00     0.261 C 
BRANCH   6   7
ATOM      7  O   UNL A   1      51.606  25.904  36.470  1.00  0.00    -0.460 OA
BRANCH   7   8
ATOM      8  C   UNL A   1      50.383  26.312  36.893  1.00  0.00     0.338 C 
ATOM      9  O   UNL A   1      50.212  26.459  38.104  1.00  0.00    -0.246 OA
BRANCH   8  10
ATOM     10  C   UNL A   1      49.228  26.614  35.986  1.00  0.00     0.060 A 
ATOM     11  C   UNL A   1      49.255  27.472  34.883  1.00  0.00     0.016 A 
ATOM     12  C   UNL A   1      48.028  25.927  36.244  1.00  0.00     0.016 A 
ATOM     13  C   UNL A   1      48.123  27.715  34.117  1.00  0.00     0.010 A 
ATOM     14  C   UNL A   1      46.889  26.142  35.463  1.00  0.00     0.010 A 
ATOM     15  C   UNL A   1      46.928  27.071  34.420  1.00  0.00    -0.014 A 
BRANCH  15  16
ATOM     16  C   UNL A   1      45.702  27.547  33.753  1.00  0.00     0.031 A 
ATOM     17  C   UNL A   1      45.039  28.769  34.317  1.00  0.00     0.074 A 
ATOM     18  C   UNL A   1      45.295  26.985  32.602  1.00  0.00     0.049 A 
ATOM     19  N   UNL A   1      43.941  29.362  33.941  1.00  0.00    -0.248 NA
ATOM     20  C   UNL A   1      45.719  29.421  35.452  1.00  0.00     0.031 C 
ATOM     21  C   UNL A   1      45.974  25.886  31.910  1.00  0.00     0.029 A 
ATOM     22  N   UNL A   1      44.232  27.283  31.793  1.00  0.00    -0.354 N 
ATOM     23  C   UNL A   1      43.780  30.434  34.811  1.00  0.00     0.074 A 
ATOM     24  C   UNL A   1      44.889  30.412  35.735  1.00  0.00     0.031 C 
ATOM     25  C   UNL A   1      45.316  25.614  30.771  1.00  0.00     0.029 A 
ATOM     26  C   UNL A   1      44.139  26.472  30.687  1.00  0.00     0.049 A 
ATOM     27  H   UNL A   1      43.594  28.008  31.985  1.00  0.00     0.167 HD
ATOM     28  C   UNL A   1      42.782  31.347  34.838  1.00  0.00     0.031 A 
ATOM     29  C   UNL A   1      43.184  26.415  29.738  1.00  0.00     0.031 A 
ATOM     30  C   UNL A   1      41.685  31.328  33.913  1.00  0.00     0.049 A 
ATOM     31  C   UNL A   1      42.025  27.371  29.852  1.00  0.00     0.074 A 
ATOM     32  C   UNL A   1      40.570  32.142  33.874  1.00  0.00     0.029 A 
ATOM     33  N   UNL A   1      41.575  30.436  32.853  1.00  0.00    -0.354 N 
ATOM     34  N   UNL A   1      41.836  28.333  30.728  1.00  0.00    -0.248 NA
ATOM     35  C   UNL A   1      40.947  27.230  28.867  1.00  0.00     0.031 C 
ATOM     36  C   UNL A   1      39.760  31.709  32.818  1.00  0.00     0.029 A 
ATOM     37  C   UNL A   1      40.401  30.665  32.163  1.00  0.00     0.049 A 
ATOM     38  H   UNL A   1      42.236  29.743  32.627  1.00  0.00     0.167 HD
ATOM     39  C   UNL A   1      40.622  28.919  30.393  1.00  0.00     0.074 A 
ATOM     40  C   UNL A   1      40.135  28.217  29.220  1.00  0.00     0.031 C 
ATOM     41  C   UNL A   1      39.961  29.938  30.998  1.00  0.00     0.031 A 
BRANCH  28  42
ATOM     42  C   UNL A   1      42.808  32.358  35.952  1.00  0.00    -0.014 A 
ATOM     43  C   UNL A   1      42.067  32.175  37.133  1.00  0.00     0.010 A 
ATOM     44  C   UNL A   1      43.559  33.537  35.791  1.00  0.00     0.010 A 
ATOM     45  C   UNL A   1      42.038  33.174  38.112  1.00  0.00     0.020 A 
ATOM     46  C   UNL A   1      43.551  34.527  36.778  1.00  0.00     0.020 A 
ATOM     47  C   UNL A   1      42.773  34.347  37.923  1.00  0.00     0.054 A 
BRANCH  47  48
ATOM     48  S   UNL A   1      42.710  35.634  39.202  1.00  0.00     0.124 S 
ATOM     49  O   UNL A   1      42.250  34.880  40.365  1.00  0.00    -0.237 OA
ATOM     50  O   UNL A   1      44.094  36.097  39.259  1.00  0.00    -0.237 OA
ATOM     51  O   UNL A   1      41.754  36.603  38.671  1.00  0.00    -0.744 OA
ENDBRANCH  47  48
ENDBRANCH  28  42
BRANCH  29  52
ATOM     52  C   UNL A   1      43.249  25.387  28.661  1.00  0.00    -0.014 A 
ATOM     53  C   UNL A   1      43.779  25.690  27.394  1.00  0.00     0.010 A 
ATOM     54  C   UNL A   1      42.773  24.082  28.901  1.00  0.00     0.010 A 
ATOM     55  C   UNL A   1      43.817  24.716  26.388  1.00  0.00     0.020 A 
ATOM     56  C   UNL A   1      42.838  23.100  27.909  1.00  0.00     0.020 A 
ATOM     57  C   UNL A   1      43.346  23.426  26.653  1.00  0.00     0.054 A 
BRANCH  57  58
ATOM     58  S   UNL A   1      43.439  22.168  25.347  1.00  0.00     0.124 S 
ATOM     59  O   UNL A   1      42.259  21.355  25.624  1.00  0.00    -0.237 OA
ATOM     60  O   UNL A   1      43.383  22.970  24.128  1.00  0.00    -0.237 OA
ATOM     61  O   UNL A   1      44.722  21.512  25.594  1.00  0.00    -0.744 OA
ENDBRANCH  57  58
ENDBRANCH  29  52
BRANCH  41  62
ATOM     62  C   UNL A   1      38.661  30.368  30.379  1.00  0.00    -0.014 A 
ATOM     63  C   UNL A   1      37.436  29.862  30.844  1.00  0.00     0.010 A 
ATOM     64  C   UNL A   1      38.670  31.348  29.371  1.00  0.00     0.010 A 
ATOM     65  C   UNL A   1      36.236  30.314  30.291  1.00  0.00     0.020 A 
ATOM     66  C   UNL A   1      37.473  31.821  28.834  1.00  0.00     0.020 A 
ATOM     67  C   UNL A   1      36.263  31.292  29.290  1.00  0.00     0.054 A 
BRANCH  67  68
ATOM     68  S   UNL A   1      34.692  31.905  28.628  1.00  0.00     0.124 S 
ATOM     69  O   UNL A   1      35.141  32.794  27.559  1.00  0.00    -0.237 OA
ATOM     70  O   UNL A   1      34.027  30.680  28.190  1.00  0.00    -0.237 OA
ATOM     71  O   UNL A   1      34.069  32.569  29.771  1.00  0.00    -0.744 OA
ENDBRANCH  67  68
ENDBRANCH  41  62
ENDBRANCH  15  16
ENDBRANCH   8  10
ENDBRANCH   7   8
ENDBRANCH   6   7
ENDBRANCH   5   6
ENDBRANCH   4   5
ENDBRANCH   3   4
ENDBRANCH   2   3
ENDBRANCH   1   2
BRANCH   1  72
ATOM     72  C   UNL A   1      52.286  31.190  38.960  1.00  0.00     0.188 C 
BRANCH  72  73
ATOM     73  C   UNL A   1      51.380  29.939  38.938  1.00  0.00     0.188 C 
BRANCH  73  74
ATOM     74  O   UNL A   1      51.624  28.995  39.972  1.00  0.00    -0.376 OA
BRANCH  74  75
ATOM     75  C   UNL A   1      50.470  28.568  40.692  1.00  0.00     0.202 C 
BRANCH  75  76
ATOM     76  C   UNL A   1      49.149  29.062  40.091  1.00  0.00     0.261 C 
BRANCH  76  77
ATOM     77  O   UNL A   1      48.021  28.967  40.981  1.00  0.00    -0.460 OA
BRANCH  77  78
ATOM     78  C   UNL A   1      47.720  27.760  41.513  1.00  0.00     0.341 C 
ATOM     79  O   UNL A   1      47.951  27.375  42.645  1.00  0.00    -0.246 OA
BRANCH  78  80
ATOM     80  C   UNL A   1      46.802  27.076  40.572  1.00  0.00     0.101 A 
ATOM     81  C   UNL A   1      47.110  25.762  40.193  1.00  0.00     0.022 A 
ATOM     82  C   UNL A   1      45.580  27.627  40.190  1.00  0.00     0.132 A 
ATOM     83  C   UNL A   1      46.182  24.996  39.473  1.00  0.00     0.027 A 
ATOM     84  C   UNL A   1      44.672  26.873  39.440  1.00  0.00     0.073 A 
ATOM     85  C   UNL A   1      44.964  25.551  39.062  1.00  0.00     0.042 A 
BRANCH  82  86
ATOM     86  O   UNL A   1      45.260  28.908  40.538  1.00  0.00    -0.507 OA
ATOM     87  H   UNL A   1      44.843  29.473  39.917  1.00  0.00     0.293 HD
ENDBRANCH  82  86
BRANCH  85  88
ATOM     88  N   UNL A   1      43.986  24.828  38.351  1.00  0.00    -0.349 N 
ATOM     89  H   UNL A   1      43.389  24.261  38.891  1.00  0.00     0.167 HD
BRANCH  88  90
ATOM     90  C   UNL A   1      43.764  24.816  36.984  1.00  0.00     0.137 A 
ATOM     91  C   UNL A   1      42.963  25.644  36.287  1.00  0.00     0.377 A 
ATOM     92  C   UNL A   1      44.527  23.835  36.180  1.00  0.00     0.048 A 
ATOM     93  C   UNL A   1      42.802  25.684  34.837  1.00  0.00     0.417 A 
ATOM     94  C   UNL A   1      44.340  23.789  34.797  1.00  0.00     0.141 A 
ATOM     95  C   UNL A   1      45.419  22.910  36.743  1.00  0.00     0.014 A 
ATOM     96  O   UNL A   1      42.154  26.533  34.239  1.00  0.00    -0.238 OA
ATOM     97  O   UNL A   1      43.476  24.687  34.142  1.00  0.00    -0.418 OA
ATOM     98  C   UNL A   1      45.000  22.868  33.984  1.00  0.00     0.048 A 
ATOM     99  C   UNL A   1      46.093  21.983  35.939  1.00  0.00     0.001 A 
ATOM    100  C   UNL A   1      45.882  21.960  34.561  1.00  0.00     0.004 A 
BRANCH  91 101
ATOM    101  N   UNL A   1      42.265  26.662  37.009  1.00  0.00     0.073 N 
ATOM    102  O   UNL A   1      42.676  27.826  36.887  1.00  0.00    -0.258 OA
ATOM    103  O   UNL A   1      41.305  26.301  37.703  1.00  0.00    -0.258 OA
ENDBRANCH  91 101
ENDBRANCH  88  90
ENDBRANCH  85  88
ENDBRANCH  78  80
ENDBRANCH  77  78
ENDBRANCH  76  77
ENDBRANCH  75  76
ENDBRANCH  74  75
ENDBRANCH  73  74
ENDBRANCH  72  73
ENDBRANCH   1  72
TORSDOF 27
ENDMDL
MODEL 2
REMARK VINA RESULT:      -6.2      5.808     10.224
REMARK SMILES O=C(OCCOCCOCCOCCOC(=O)c1ccc(Nc2c([N+](=O)[O-])c(=O)oc3ccccc23)cc1O)c1ccc(-c2c3nc(c(-c4ccc(S(=O)(=O)[O-])cc4)c4ccc([nH]4)c(-c4ccc(S(=O)(=O)[O-])cc4)c4nc(c(-c5ccc(S(=O)(=O)[O-])cc5)c5ccc2[nH]5)C=C4)C=C3)cc1
REMARK SMILES IDX 9 1 8 2 7 3 6 4 5 5 4 6 3 7 2 8 1 9 40 10 41 11 99 12 42 13
REMARK SMILES IDX 98 14 43 15 44 16 45 17 92 18 46 19 97 20 91 21 93 22 47 23
REMARK SMILES IDX 96 24 90 25 89 26 48 28 78 29 59 30 77 31 60 32 63 33 76 34
REMARK SMILES IDX 94 35 61 36 62 37 75 39 95 40 64 41 49 42 50 43 58 44 51 45
REMARK SMILES IDX 57 46 52 47 53 48 54 49 55 50 56 51 79 52 80 53 88 54 81 55
REMARK SMILES IDX 87 56 82 57 83 58 84 59 85 60 86 61 65 62 66 63 74 64 67 65
REMARK SMILES IDX 73 66 68 67 69 68 70 69 71 70 72 71 10 72 11 73 12 74 13 75
REMARK SMILES IDX 14 76 15 77 16 78 17 79 18 80 19 81 38 82 20 83 37 84 21 85
REMARK SMILES IDX 39 86 22 88 23 90 24 91 36 92 28 93 31 94 35 95 29 96 30 97
REMARK SMILES IDX 32 98 34 99 33 100 25 101 26 102 27 103
REMARK H PARENT 93 27 63 38 39 87 22 89
REMARK Flexibility Score: inf
ROOT
ATOM      1  O   UNL A   1      46.229  36.589  27.931  1.00  0.00    -0.377 OA
ENDROOT
BRANCH   1   2
ATOM      2  C   UNL A   1      46.876  37.341  26.906  1.00  0.00     0.188 C 
BRANCH   2   3
ATOM      3  C   UNL A   1      48.339  36.974  26.666  1.00  0.00     0.188 C 
BRANCH   3   4
ATOM      4  O   UNL A   1      48.507  36.402  25.366  1.00  0.00    -0.376 OA
BRANCH   4   5
ATOM      5  C   UNL A   1      49.252  35.185  25.331  1.00  0.00     0.202 C 
BRANCH   5   6
ATOM      6  C   UNL A   1      50.211  35.010  26.510  1.00  0.00     0.261 C 
BRANCH   6   7
ATOM      7  O   UNL A   1      50.598  33.640  26.691  1.00  0.00    -0.460 OA
BRANCH   7   8
ATOM      8  C   UNL A   1      50.388  32.854  27.777  1.00  0.00     0.338 C 
ATOM      9  O   UNL A   1      51.100  31.858  27.914  1.00  0.00    -0.246 OA
BRANCH   8  10
ATOM     10  C   UNL A   1      49.360  33.125  28.835  1.00  0.00     0.060 A 
ATOM     11  C   UNL A   1      49.621  33.387  30.183  1.00  0.00     0.016 A 
ATOM     12  C   UNL A   1      48.020  33.170  28.412  1.00  0.00     0.016 A 
ATOM     13  C   UNL A   1      48.599  33.597  31.099  1.00  0.00     0.010 A 
ATOM     14  C   UNL A   1      46.983  33.408  29.320  1.00  0.00     0.010 A 
ATOM     15  C   UNL A   1      47.274  33.581  30.676  1.00  0.00    -0.014 A 
BRANCH  15  16
ATOM     16  C   UNL A   1      46.223  33.549  31.709  1.00  0.00     0.031 A 
ATOM     17  C   UNL A   1      45.609  34.858  32.111  1.00  0.00     0.074 A 
ATOM     18  C   UNL A   1      45.743  32.374  32.152  1.00  0.00     0.049 A 
ATOM     19  N   UNL A   1      44.701  35.104  33.014  1.00  0.00    -0.248 NA
ATOM     20  C   UNL A   1      46.074  36.054  31.382  1.00  0.00     0.031 C 
ATOM     21  C   UNL A   1      46.187  31.054  31.696  1.00  0.00     0.029 A 
ATOM     22  N   UNL A   1      44.755  32.101  33.057  1.00  0.00    -0.354 N 
ATOM     23  C   UNL A   1      44.510  36.480  32.985  1.00  0.00     0.074 A 
ATOM     24  C   UNL A   1      45.394  37.019  31.979  1.00  0.00     0.031 C 
ATOM     25  C   UNL A   1      45.459  30.110  32.317  1.00  0.00     0.029 A 
ATOM     26  C   UNL A   1      44.547  30.756  33.255  1.00  0.00     0.049 A 
ATOM     27  H   UNL A   1      44.241  32.800  33.523  1.00  0.00     0.167 HD
ATOM     28  C   UNL A   1      43.674  37.224  33.745  1.00  0.00     0.031 A 
ATOM     29  C   UNL A   1      43.735  30.129  34.128  1.00  0.00     0.031 A 
ATOM     30  C   UNL A   1      42.821  36.655  34.749  1.00  0.00     0.049 A 
ATOM     31  C   UNL A   1      42.894  30.983  35.040  1.00  0.00     0.074 A 
ATOM     32  C   UNL A   1      41.985  37.297  35.641  1.00  0.00     0.029 A 
ATOM     33  N   UNL A   1      42.699  35.292  34.986  1.00  0.00    -0.354 N 
ATOM     34  N   UNL A   1      42.777  32.292  35.066  1.00  0.00    -0.248 NA
ATOM     35  C   UNL A   1      42.089  30.286  36.049  1.00  0.00     0.031 C 
ATOM     36  C   UNL A   1      41.393  36.321  36.452  1.00  0.00     0.029 A 
ATOM     37  C   UNL A   1      41.815  35.069  36.024  1.00  0.00     0.049 A 
ATOM     38  H   UNL A   1      43.172  34.587  34.488  1.00  0.00     0.167 HD
ATOM     39  C   UNL A   1      41.878  32.575  36.085  1.00  0.00     0.074 A 
ATOM     40  C   UNL A   1      41.463  31.298  36.636  1.00  0.00     0.031 C 
ATOM     41  C   UNL A   1      41.434  33.776  36.535  1.00  0.00     0.031 A 
BRANCH  28  42
ATOM     42  C   UNL A   1      43.733  38.717  33.567  1.00  0.00    -0.014 A 
ATOM     43  C   UNL A   1      44.328  39.553  34.528  1.00  0.00     0.010 A 
ATOM     44  C   UNL A   1      43.138  39.296  32.431  1.00  0.00     0.010 A 
ATOM     45  C   UNL A   1      44.286  40.943  34.380  1.00  0.00     0.020 A 
ATOM     46  C   UNL A   1      43.115  40.684  32.267  1.00  0.00     0.020 A 
ATOM     47  C   UNL A   1      43.671  41.499  33.254  1.00  0.00     0.054 A 
BRANCH  47  48
ATOM     48  S   UNL A   1      43.618  43.306  33.089  1.00  0.00     0.124 S 
ATOM     49  O   UNL A   1      43.327  43.470  31.667  1.00  0.00    -0.237 OA
ATOM     50  O   UNL A   1      42.537  43.679  33.999  1.00  0.00    -0.237 OA
ATOM     51  O   UNL A   1      44.952  43.732  33.506  1.00  0.00    -0.744 OA
ENDBRANCH  47  48
ENDBRANCH  28  42
BRANCH  29  52
ATOM     52  C   UNL A   1      43.733  28.641  34.225  1.00  0.00    -0.014 A 
ATOM     53  C   UNL A   1      44.682  27.960  35.007  1.00  0.00     0.010 A 
ATOM     54  C   UNL A   1      42.769  27.890  33.525  1.00  0.00     0.010 A 
ATOM     55  C   UNL A   1      44.676  26.561  35.074  1.00  0.00     0.020 A 
ATOM     56  C   UNL A   1      42.740  26.495  33.614  1.00  0.00     0.020 A 
ATOM     57  C   UNL A   1      43.704  25.837  34.377  1.00  0.00     0.054 A 
BRANCH  57  58
ATOM     58  S   UNL A   1      43.689  24.027  34.506  1.00  0.00     0.124 S 
ATOM     59  O   UNL A   1      42.399  23.777  35.140  1.00  0.00    -0.237 OA
ATOM     60  O   UNL A   1      43.801  23.607  33.111  1.00  0.00    -0.237 OA
ATOM     61  O   UNL A   1      44.859  23.733  35.331  1.00  0.00    -0.744 OA
ENDBRANCH  57  58
ENDBRANCH  29  52
BRANCH  41  62
ATOM     62  C   UNL A   1      40.432  33.755  37.654  1.00  0.00    -0.014 A 
ATOM     63  C   UNL A   1      39.058  33.621  37.392  1.00  0.00     0.010 A 
ATOM     64  C   UNL A   1      40.885  33.794  38.985  1.00  0.00     0.010 A 
ATOM     65  C   UNL A   1      38.148  33.550  38.448  1.00  0.00     0.020 A 
ATOM     66  C   UNL A   1      39.981  33.698  40.042  1.00  0.00     0.020 A 
ATOM     67  C   UNL A   1      38.616  33.588  39.767  1.00  0.00     0.054 A 
BRANCH  67  68
ATOM     68  S   UNL A   1      37.421  33.437  41.121  1.00  0.00     0.124 S 
ATOM     69  O   UNL A   1      37.369  34.804  41.632  1.00  0.00    -0.237 OA
ATOM     70  O   UNL A   1      36.217  32.974  40.437  1.00  0.00    -0.237 OA
ATOM     71  O   UNL A   1      38.035  32.460  42.017  1.00  0.00    -0.744 OA
ENDBRANCH  67  68
ENDBRANCH  41  62
ENDBRANCH  15  16
ENDBRANCH   8  10
ENDBRANCH   7   8
ENDBRANCH   6   7
ENDBRANCH   5   6
ENDBRANCH   4   5
ENDBRANCH   3   4
ENDBRANCH   2   3
ENDBRANCH   1   2
BRANCH   1  72
ATOM     72  C   UNL A   1      44.834  36.815  28.107  1.00  0.00     0.188 C 
BRANCH  72  73
ATOM     73  C   UNL A   1      43.917  36.856  26.864  1.00  0.00     0.188 C 
BRANCH  73  74
ATOM     74  O   UNL A   1      42.927  35.839  26.806  1.00  0.00    -0.376 OA
BRANCH  74  75
ATOM     75  C   UNL A   1      43.041  34.940  25.705  1.00  0.00     0.202 C 
BRANCH  75  76
ATOM     76  C   UNL A   1      44.006  33.776  25.954  1.00  0.00     0.261 C 
BRANCH  76  77
ATOM     77  O   UNL A   1      44.055  33.329  27.321  1.00  0.00    -0.460 OA
BRANCH  77  78
ATOM     78  C   UNL A   1      44.211  32.007  27.562  1.00  0.00     0.341 C 
ATOM     79  O   UNL A   1      44.990  31.246  27.017  1.00  0.00    -0.246 OA
BRANCH  78  80
ATOM     80  C   UNL A   1      43.469  31.691  28.804  1.00  0.00     0.101 A 
ATOM     81  C   UNL A   1      42.971  32.760  29.562  1.00  0.00     0.022 A 
ATOM     82  C   UNL A   1      43.114  30.388  29.149  1.00  0.00     0.132 A 
ATOM     83  C   UNL A   1      42.093  32.524  30.629  1.00  0.00     0.027 A 
ATOM     84  C   UNL A   1      42.268  30.154  30.237  1.00  0.00     0.073 A 
ATOM     85  C   UNL A   1      41.753  31.217  30.999  1.00  0.00     0.042 A 
BRANCH  82  86
ATOM     86  O   UNL A   1      43.593  29.327  28.434  1.00  0.00    -0.507 OA
ATOM     87  H   UNL A   1      43.960  29.463  27.582  1.00  0.00     0.293 HD
ENDBRANCH  82  86
BRANCH  85  88
ATOM     88  N   UNL A   1      40.865  30.919  32.051  1.00  0.00    -0.349 N 
ATOM     89  H   UNL A   1      41.273  30.584  32.881  1.00  0.00     0.167 HD
BRANCH  88  90
ATOM     90  C   UNL A   1      39.485  31.039  32.058  1.00  0.00     0.137 A 
ATOM     91  C   UNL A   1      38.590  30.135  31.616  1.00  0.00     0.377 A 
ATOM     92  C   UNL A   1      38.913  32.260  32.671  1.00  0.00     0.048 A 
ATOM     93  C   UNL A   1      37.137  30.231  31.709  1.00  0.00     0.417 A 
ATOM     94  C   UNL A   1      37.527  32.424  32.707  1.00  0.00     0.141 A 
ATOM     95  C   UNL A   1      39.700  33.294  33.199  1.00  0.00     0.014 A 
ATOM     96  O   UNL A   1      36.366  29.330  31.401  1.00  0.00    -0.238 OA
ATOM     97  O   UNL A   1      36.656  31.433  32.215  1.00  0.00    -0.418 OA
ATOM     98  C   UNL A   1      36.922  33.563  33.238  1.00  0.00     0.048 A 
ATOM     99  C   UNL A   1      39.108  34.441  33.741  1.00  0.00     0.001 A 
ATOM    100  C   UNL A   1      37.721  34.577  33.758  1.00  0.00     0.004 A 
BRANCH  91 101
ATOM    101  N   UNL A   1      39.091  28.905  31.088  1.00  0.00     0.073 N 
ATOM    102  O   UNL A   1      39.518  28.072  31.901  1.00  0.00    -0.258 OA
ATOM    103  O   UNL A   1      39.063  28.768  29.857  1.00  0.00    -0.258 OA
ENDBRANCH  91 101
ENDBRANCH  88  90
ENDBRANCH  85  88
ENDBRANCH  78  80
ENDBRANCH  77  78
ENDBRANCH  76  77
ENDBRANCH  75  76
ENDBRANCH  74  75
ENDBRANCH  73  74
ENDBRANCH  72  73
ENDBRANCH   1  72
TORSDOF 27
ENDMDL
MODEL 3
REMARK VINA RESULT:      -6.0     11.292     19.061
REMARK SMILES O=C(OCCOCCOCCOCCOC(=O)c1ccc(Nc2c([N+](=O)[O-])c(=O)oc3ccccc23)cc1O)c1ccc(-c2c3nc(c(-c4ccc(S(=O)(=O)[O-])cc4)c4ccc([nH]4)c(-c4ccc(S(=O)(=O)[O-])cc4)c4nc(c(-c5ccc(S(=O)(=O)[O-])cc5)c5ccc2[nH]5)C=C4)C=C3)cc1
REMARK SMILES IDX 9 1 8 2 7 3 6 4 5 5 4 6 3 7 2 8 1 9 40 10 41 11 99 12 42 13
REMARK SMILES IDX 98 14 43 15 44 16 45 17 92 18 46 19 97 20 91 21 93 22 47 23
REMARK SMILES IDX 96 24 90 25 89 26 48 28 78 29 59 30 77 31 60 32 63 33 76 34
REMARK SMILES IDX 94 35 61 36 62 37 75 39 95 40 64 41 49 42 50 43 58 44 51 45
REMARK SMILES IDX 57 46 52 47 53 48 54 49 55 50 56 51 79 52 80 53 88 54 81 55
REMARK SMILES IDX 87 56 82 57 83 58 84 59 85 60 86 61 65 62 66 63 74 64 67 65
REMARK SMILES IDX 73 66 68 67 69 68 70 69 71 70 72 71 10 72 11 73 12 74 13 75
REMARK SMILES IDX 14 76 15 77 16 78 17 79 18 80 19 81 38 82 20 83 37 84 21 85
REMARK SMILES IDX 39 86 22 88 23 90 24 91 36 92 28 93 31 94 35 95 29 96 30 97
REMARK SMILES IDX 32 98 34 99 33 100 25 101 26 102 27 103
REMARK H PARENT 93 27 63 38 39 87 22 89
REMARK Flexibility Score: inf
ROOT
ATOM      1  O   UNL A   1      42.887  41.699  25.253  1.00  0.00    -0.377 OA
ENDROOT
BRANCH   1   2
ATOM      2  C   UNL A   1      44.104  41.438  25.948  1.00  0.00     0.188 C 
BRANCH   2   3
ATOM      3  C   UNL A   1      44.037  40.289  26.952  1.00  0.00     0.188 C 
BRANCH   3   4
ATOM      4  O   UNL A   1      43.120  40.595  28.006  1.00  0.00    -0.376 OA
BRANCH   4   5
ATOM      5  C   UNL A   1      43.616  40.369  29.325  1.00  0.00     0.202 C 
BRANCH   5   6
ATOM      6  C   UNL A   1      44.966  39.651  29.367  1.00  0.00     0.261 C 
BRANCH   6   7
ATOM      7  O   UNL A   1      45.846  40.214  30.351  1.00  0.00    -0.460 OA
BRANCH   7   8
ATOM      8  C   UNL A   1      46.142  39.721  31.580  1.00  0.00     0.338 C 
ATOM      9  O   UNL A   1      47.277  39.909  32.018  1.00  0.00    -0.246 OA
BRANCH   8  10
ATOM     10  C   UNL A   1      45.174  38.977  32.451  1.00  0.00     0.060 A 
ATOM     11  C   UNL A   1      43.934  39.451  32.889  1.00  0.00     0.016 A 
ATOM     12  C   UNL A   1      45.532  37.666  32.813  1.00  0.00     0.016 A 
ATOM     13  C   UNL A   1      43.116  38.699  33.722  1.00  0.00     0.010 A 
ATOM     14  C   UNL A   1      44.704  36.889  33.629  1.00  0.00     0.010 A 
ATOM     15  C   UNL A   1      43.510  37.426  34.117  1.00  0.00    -0.014 A 
BRANCH  15  16
ATOM     16  C   UNL A   1      42.746  36.774  35.196  1.00  0.00     0.031 A 
ATOM     17  C   UNL A   1      41.779  35.695  34.804  1.00  0.00     0.074 A 
ATOM     18  C   UNL A   1      43.027  37.041  36.483  1.00  0.00     0.049 A 
ATOM     19  N   UNL A   1      40.968  34.999  35.551  1.00  0.00    -0.248 NA
ATOM     20  C   UNL A   1      41.732  35.343  33.372  1.00  0.00     0.031 C 
ATOM     21  C   UNL A   1      44.060  37.971  36.948  1.00  0.00     0.029 A 
ATOM     22  N   UNL A   1      42.491  36.534  37.635  1.00  0.00    -0.354 N 
ATOM     23  C   UNL A   1      40.293  34.153  34.679  1.00  0.00     0.074 A 
ATOM     24  C   UNL A   1      40.785  34.420  33.348  1.00  0.00     0.031 C 
ATOM     25  C   UNL A   1      44.092  37.953  38.291  1.00  0.00     0.029 A 
ATOM     26  C   UNL A   1      43.043  37.064  38.778  1.00  0.00     0.049 A 
ATOM     27  H   UNL A   1      41.778  35.854  37.646  1.00  0.00     0.167 HD
ATOM     28  C   UNL A   1      39.337  33.242  34.971  1.00  0.00     0.031 A 
ATOM     29  C   UNL A   1      42.703  36.873  40.068  1.00  0.00     0.031 A 
ATOM     30  C   UNL A   1      38.859  33.015  36.305  1.00  0.00     0.049 A 
ATOM     31  C   UNL A   1      41.561  35.935  40.360  1.00  0.00     0.074 A 
ATOM     32  C   UNL A   1      37.845  32.182  36.733  1.00  0.00     0.029 A 
ATOM     33  N   UNL A   1      39.380  33.635  37.435  1.00  0.00    -0.354 N 
ATOM     34  N   UNL A   1      40.868  35.197  39.521  1.00  0.00    -0.248 NA
ATOM     35  C   UNL A   1      41.141  35.813  41.760  1.00  0.00     0.031 C 
ATOM     36  C   UNL A   1      37.719  32.335  38.118  1.00  0.00     0.029 A 
ATOM     37  C   UNL A   1      38.696  33.218  38.560  1.00  0.00     0.049 A 
ATOM     38  H   UNL A   1      40.126  34.276  37.434  1.00  0.00     0.167 HD
ATOM     39  C   UNL A   1      39.937  34.514  40.294  1.00  0.00     0.074 A 
ATOM     40  C   UNL A   1      40.173  34.911  41.670  1.00  0.00     0.031 C 
ATOM     41  C   UNL A   1      38.970  33.643  39.910  1.00  0.00     0.031 A 
BRANCH  28  42
ATOM     42  C   UNL A   1      38.705  32.517  33.813  1.00  0.00    -0.014 A 
ATOM     43  C   UNL A   1      39.235  31.312  33.319  1.00  0.00     0.010 A 
ATOM     44  C   UNL A   1      37.582  33.081  33.181  1.00  0.00     0.010 A 
ATOM     45  C   UNL A   1      38.682  30.709  32.184  1.00  0.00     0.020 A 
ATOM     46  C   UNL A   1      37.011  32.469  32.061  1.00  0.00     0.020 A 
ATOM     47  C   UNL A   1      37.579  31.297  31.558  1.00  0.00     0.054 A 
BRANCH  47  48
ATOM     48  S   UNL A   1      36.886  30.503  30.080  1.00  0.00     0.124 S 
ATOM     49  O   UNL A   1      35.850  31.454  29.686  1.00  0.00    -0.237 OA
ATOM     50  O   UNL A   1      38.041  30.426  29.187  1.00  0.00    -0.237 OA
ATOM     51  O   UNL A   1      36.398  29.218  30.574  1.00  0.00    -0.744 OA
ENDBRANCH  47  48
ENDBRANCH  28  42
BRANCH  29  52
ATOM     52  C   UNL A   1      43.395  37.626  41.152  1.00  0.00    -0.014 A 
ATOM     53  C   UNL A   1      42.947  38.893  41.562  1.00  0.00     0.010 A 
ATOM     54  C   UNL A   1      44.523  37.069  41.788  1.00  0.00     0.010 A 
ATOM     55  C   UNL A   1      43.620  39.594  42.571  1.00  0.00     0.020 A 
ATOM     56  C   UNL A   1      45.179  37.751  42.816  1.00  0.00     0.020 A 
ATOM     57  C   UNL A   1      44.732  39.017  43.193  1.00  0.00     0.054 A 
BRANCH  57  58
ATOM     58  S   UNL A   1      45.568  39.924  44.525  1.00  0.00     0.124 S 
ATOM     59  O   UNL A   1      46.845  40.264  43.906  1.00  0.00    -0.237 OA
ATOM     60  O   UNL A   1      44.662  41.045  44.762  1.00  0.00    -0.237 OA
ATOM     61  O   UNL A   1      45.638  38.950  45.612  1.00  0.00    -0.744 OA
ENDBRANCH  57  58
ENDBRANCH  29  52
BRANCH  41  62
ATOM     62  C   UNL A   1      38.124  33.044  40.997  1.00  0.00    -0.014 A 
ATOM     63  C   UNL A   1      38.469  31.819  41.592  1.00  0.00     0.010 A 
ATOM     64  C   UNL A   1      37.012  33.760  41.476  1.00  0.00     0.010 A 
ATOM     65  C   UNL A   1      37.698  31.306  42.636  1.00  0.00     0.020 A 
ATOM     66  C   UNL A   1      36.255  33.263  42.537  1.00  0.00     0.020 A 
ATOM     67  C   UNL A   1      36.597  32.032  43.103  1.00  0.00     0.054 A 
BRANCH  67  68
ATOM     68  S   UNL A   1      35.646  31.375  44.498  1.00  0.00     0.124 S 
ATOM     69  O   UNL A   1      35.676  32.492  45.438  1.00  0.00    -0.237 OA
ATOM     70  O   UNL A   1      34.345  31.094  43.896  1.00  0.00    -0.237 OA
ATOM     71  O   UNL A   1      36.403  30.194  44.908  1.00  0.00    -0.744 OA
ENDBRANCH  67  68
ENDBRANCH  41  62
ENDBRANCH  15  16
ENDBRANCH   8  10
ENDBRANCH   7   8
ENDBRANCH   6   7
ENDBRANCH   5   6
ENDBRANCH   4   5
ENDBRANCH   3   4
ENDBRANCH   2   3
ENDBRANCH   1   2
BRANCH   1  72
ATOM     72  C   UNL A   1      42.973  42.540  24.106  1.00  0.00     0.188 C 
BRANCH  72  73
ATOM     73  C   UNL A   1      43.615  43.938  24.244  1.00  0.00     0.188 C 
BRANCH  73  74
ATOM     74  O   UNL A   1      44.938  44.051  23.739  1.00  0.00    -0.376 OA
BRANCH  74  75
ATOM     75  C   UNL A   1      45.917  44.477  24.684  1.00  0.00     0.202 C 
BRANCH  75  76
ATOM     76  C   UNL A   1      47.251  43.730  24.571  1.00  0.00     0.261 C 
BRANCH  76  77
ATOM     77  O   UNL A   1      47.905  43.875  23.297  1.00  0.00    -0.460 OA
BRANCH  77  78
ATOM     78  C   UNL A   1      47.675  42.942  22.345  1.00  0.00     0.341 C 
ATOM     79  O   UNL A   1      47.793  41.734  22.453  1.00  0.00    -0.246 OA
BRANCH  78  80
ATOM     80  C   UNL A   1      46.978  43.613  21.224  1.00  0.00     0.101 A 
ATOM     81  C   UNL A   1      47.198  44.986  21.042  1.00  0.00     0.022 A 
ATOM     82  C   UNL A   1      46.255  42.906  20.265  1.00  0.00     0.132 A 
ATOM     83  C   UNL A   1      46.732  45.631  19.887  1.00  0.00     0.027 A 
ATOM     84  C   UNL A   1      45.761  43.560  19.133  1.00  0.00     0.073 A 
ATOM     85  C   UNL A   1      45.983  44.934  18.932  1.00  0.00     0.042 A 
BRANCH  82  86
ATOM     86  O   UNL A   1      46.018  41.570  20.423  1.00  0.00    -0.507 OA
ATOM     87  H   UNL A   1      46.352  40.957  19.798  1.00  0.00     0.293 HD
ENDBRANCH  82  86
BRANCH  85  88
ATOM     88  N   UNL A   1      45.503  45.523  17.746  1.00  0.00    -0.349 N 
ATOM     89  H   UNL A   1      46.133  45.552  16.991  1.00  0.00     0.167 HD
BRANCH  88  90
ATOM     90  C   UNL A   1      44.251  46.068  17.514  1.00  0.00     0.137 A 
ATOM     91  C   UNL A   1      43.173  45.436  17.011  1.00  0.00     0.377 A 
ATOM     92  C   UNL A   1      44.039  47.478  17.913  1.00  0.00     0.048 A 
ATOM     93  C   UNL A   1      41.833  45.992  16.853  1.00  0.00     0.417 A 
ATOM     94  C   UNL A   1      42.791  48.069  17.704  1.00  0.00     0.141 A 
ATOM     95  C   UNL A   1      45.048  48.278  18.470  1.00  0.00     0.014 A 
ATOM     96  O   UNL A   1      40.855  45.343  16.503  1.00  0.00    -0.238 OA
ATOM     97  O   UNL A   1      41.714  47.342  17.163  1.00  0.00    -0.418 OA
ATOM     98  C   UNL A   1      42.533  49.402  18.024  1.00  0.00     0.048 A 
ATOM     99  C   UNL A   1      44.802  49.615  18.802  1.00  0.00     0.001 A 
ATOM    100  C   UNL A   1      43.547  50.178  18.577  1.00  0.00     0.004 A 
BRANCH  91 101
ATOM    101  N   UNL A   1      43.305  44.051  16.684  1.00  0.00     0.073 N 
ATOM    102  O   UNL A   1      43.643  43.773  15.524  1.00  0.00    -0.258 OA
ATOM    103  O   UNL A   1      43.067  43.235  17.585  1.00  0.00    -0.258 OA
ENDBRANCH  91 101
ENDBRANCH  88  90
ENDBRANCH  85  88
ENDBRANCH  78  80
ENDBRANCH  77  78
ENDBRANCH  76  77
ENDBRANCH  75  76
ENDBRANCH  74  75
ENDBRANCH  73  74
ENDBRANCH  72  73
ENDBRANCH   1  72
TORSDOF 27
ENDMDL
