MODEL 1
REMARK VINA RESULT:      -6.7      0.000      0.000
REMARK SMILES C[C@H]([NH2+]Cc1ccccc1F)C(=O)OCCOCCOCCOCCOC(=O)c1ccc(-c2c3nc(c(-c4ccc(S(=O)(=O)[O-])cc4)c4ccc([nH]4)c(-c4ccc(S(=O)(=O)[O-])cc4)c4nc(c(-c5ccc(S(=O)(=O)[O-])cc5)c5ccc2[nH]5)C=C4)C=C3)cc1
REMARK SMILES IDX 20 1 19 2 18 3 17 4 16 5 15 6 14 7 12 8 13 9 2 10 1 11 3 12
REMARK SMILES IDX 4 15 5 16 6 17 10 18 7 19 9 20 11 21 8 22 21 23 22 24 23 25
REMARK SMILES IDX 24 26 25 27 26 28 27 29 28 30 29 31 30 32 88 33 31 34 87 35
REMARK SMILES IDX 32 36 33 37 34 38 81 39 35 40 86 41 80 42 82 43 36 44 85 45
REMARK SMILES IDX 79 46 78 47 37 49 67 50 48 51 66 52 49 53 52 54 65 55 83 56
REMARK SMILES IDX 50 57 51 58 64 60 84 61 53 62 38 63 39 64 47 65 40 66 46 67
REMARK SMILES IDX 41 68 42 69 43 70 44 71 45 72 68 73 69 74 77 75 70 76 76 77
REMARK SMILES IDX 71 78 72 79 73 80 74 81 75 82 54 83 55 84 63 85 56 86 62 87
REMARK SMILES IDX 57 88 58 89 59 90 60 91 61 92
REMARK H PARENT 3 13 3 14 82 48 52 59
REMARK Flexibility Score: inf
ROOT
ATOM      1  O   UNL A   1      32.915  36.951  30.418  1.00  0.00    -0.377 OA
ENDROOT
BRANCH   1   2
ATOM      2  C   UNL A   1      32.858  35.915  29.459  1.00  0.00     0.188 C 
BRANCH   2   3
ATOM      3  C   UNL A   1      33.986  34.881  29.588  1.00  0.00     0.188 C 
BRANCH   3   4
ATOM      4  O   UNL A   1      33.698  33.523  29.897  1.00  0.00    -0.376 OA
BRANCH   4   5
ATOM      5  C   UNL A   1      34.695  32.677  30.456  1.00  0.00     0.202 C 
BRANCH   5   6
ATOM      6  C   UNL A   1      35.841  32.075  29.620  1.00  0.00     0.261 C 
BRANCH   6   7
ATOM      7  O   UNL A   1      36.309  30.771  30.003  1.00  0.00    -0.459 OA
BRANCH   7   8
ATOM      8  C   UNL A   1      37.236  30.222  29.186  1.00  0.00     0.364 C 
ATOM      9  O   UNL A   1      36.965  29.642  28.135  1.00  0.00    -0.245 OA
BRANCH   8  10
ATOM     10  C   UNL A   1      38.692  30.369  29.643  1.00  0.00     0.290 C 
ATOM     11  C   UNL A   1      39.149  31.810  29.477  1.00  0.00     0.088 C 
BRANCH  10  12
ATOM     12  N   UNL A   1      39.682  29.355  29.217  1.00  0.00    -0.331 N 
ATOM     13  H   UNL A   1      40.596  29.666  29.547  1.00  0.00     0.347 HD
ATOM     14  H   UNL A   1      39.574  29.301  28.205  1.00  0.00     0.347 HD
BRANCH  12  15
ATOM     15  C   UNL A   1      39.496  27.975  29.681  1.00  0.00     0.301 C 
BRANCH  15  16
ATOM     16  C   UNL A   1      40.546  27.008  29.136  1.00  0.00     0.042 A 
ATOM     17  C   UNL A   1      41.909  27.222  29.408  1.00  0.00     0.012 A 
ATOM     18  C   UNL A   1      40.208  25.823  28.466  1.00  0.00     0.132 A 
ATOM     19  C   UNL A   1      42.880  26.290  29.011  1.00  0.00     0.001 A 
ATOM     20  C   UNL A   1      41.167  24.899  28.055  1.00  0.00     0.040 A 
ATOM     21  F   UNL A   1      38.922  25.539  28.201  1.00  0.00    -0.206 F 
ATOM     22  C   UNL A   1      42.509  25.128  28.334  1.00  0.00     0.003 A 
ENDBRANCH  15  16
ENDBRANCH  12  15
ENDBRANCH  10  12
ENDBRANCH   8  10
ENDBRANCH   7   8
ENDBRANCH   6   7
ENDBRANCH   5   6
ENDBRANCH   4   5
ENDBRANCH   3   4
ENDBRANCH   2   3
ENDBRANCH   1   2
BRANCH   1  23
ATOM     23  C   UNL A   1      32.883  36.570  31.783  1.00  0.00     0.188 C 
BRANCH  23  24
ATOM     24  C   UNL A   1      33.762  37.351  32.783  1.00  0.00     0.188 C 
BRANCH  24  25
ATOM     25  O   UNL A   1      34.365  36.552  33.795  1.00  0.00    -0.376 OA
BRANCH  25  26
ATOM     26  C   UNL A   1      34.867  35.274  33.426  1.00  0.00     0.202 C 
BRANCH  26  27
ATOM     27  C   UNL A   1      35.408  34.376  34.553  1.00  0.00     0.261 C 
BRANCH  27  28
ATOM     28  O   UNL A   1      36.827  34.395  34.771  1.00  0.00    -0.460 OA
BRANCH  28  29
ATOM     29  C   UNL A   1      37.457  33.228  35.019  1.00  0.00     0.338 C 
ATOM     30  O   UNL A   1      37.025  32.277  35.647  1.00  0.00    -0.246 OA
BRANCH  29  31
ATOM     31  C   UNL A   1      38.703  33.213  34.223  1.00  0.00     0.060 A 
ATOM     32  C   UNL A   1      39.870  32.686  34.794  1.00  0.00     0.016 A 
ATOM     33  C   UNL A   1      38.714  33.701  32.914  1.00  0.00     0.016 A 
ATOM     34  C   UNL A   1      41.063  32.681  34.068  1.00  0.00     0.010 A 
ATOM     35  C   UNL A   1      39.914  33.717  32.199  1.00  0.00     0.010 A 
ATOM     36  C   UNL A   1      41.101  33.238  32.784  1.00  0.00    -0.014 A 
BRANCH  36  37
ATOM     37  C   UNL A   1      42.399  33.529  32.129  1.00  0.00     0.031 A 
ATOM     38  C   UNL A   1      43.021  34.878  32.365  1.00  0.00     0.074 A 
ATOM     39  C   UNL A   1      43.001  32.639  31.320  1.00  0.00     0.049 A 
ATOM     40  N   UNL A   1      44.082  35.412  31.819  1.00  0.00    -0.248 NA
ATOM     41  C   UNL A   1      42.345  35.745  33.345  1.00  0.00     0.031 C 
ATOM     42  C   UNL A   1      42.525  31.286  31.046  1.00  0.00     0.029 A 
ATOM     43  N   UNL A   1      44.139  32.760  30.560  1.00  0.00    -0.354 N 
ATOM     44  C   UNL A   1      44.186  36.684  32.369  1.00  0.00     0.074 A 
ATOM     45  C   UNL A   1      43.072  36.848  33.275  1.00  0.00     0.031 C 
ATOM     46  C   UNL A   1      43.349  30.710  30.151  1.00  0.00     0.029 A 
ATOM     47  C   UNL A   1      44.384  31.668  29.763  1.00  0.00     0.049 A 
ATOM     48  H   UNL A   1      44.722  33.552  30.584  1.00  0.00     0.167 HD
ATOM     49  C   UNL A   1      45.122  37.634  32.134  1.00  0.00     0.031 A 
ATOM     50  C   UNL A   1      45.311  31.477  28.800  1.00  0.00     0.031 A 
ATOM     51  C   UNL A   1      46.215  37.472  31.214  1.00  0.00     0.049 A 
ATOM     52  C   UNL A   1      46.305  32.571  28.501  1.00  0.00     0.074 A 
ATOM     53  C   UNL A   1      47.232  38.365  30.923  1.00  0.00     0.029 A 
ATOM     54  N   UNL A   1      46.423  36.355  30.421  1.00  0.00    -0.354 N 
ATOM     55  N   UNL A   1      46.418  33.755  29.055  1.00  0.00    -0.248 NA
ATOM     56  C   UNL A   1      47.300  32.303  27.453  1.00  0.00     0.031 C 
ATOM     57  C   UNL A   1      48.014  37.815  29.905  1.00  0.00     0.029 A 
ATOM     58  C   UNL A   1      47.530  36.548  29.613  1.00  0.00     0.049 A 
ATOM     59  H   UNL A   1      45.865  35.543  30.429  1.00  0.00     0.167 HD
ATOM     60  C   UNL A   1      47.511  34.361  28.442  1.00  0.00     0.074 A 
ATOM     61  C   UNL A   1      48.030  33.411  27.480  1.00  0.00     0.031 C 
ATOM     62  C   UNL A   1      48.041  35.591  28.662  1.00  0.00     0.031 A 
BRANCH  49  63
ATOM     63  C   UNL A   1      44.962  38.952  32.844  1.00  0.00    -0.014 A 
ATOM     64  C   UNL A   1      45.397  39.133  34.170  1.00  0.00     0.010 A 
ATOM     65  C   UNL A   1      44.367  40.032  32.166  1.00  0.00     0.010 A 
ATOM     66  C   UNL A   1      45.189  40.353  34.821  1.00  0.00     0.020 A 
ATOM     67  C   UNL A   1      44.187  41.262  32.802  1.00  0.00     0.020 A 
ATOM     68  C   UNL A   1      44.578  41.407  34.135  1.00  0.00     0.054 A 
BRANCH  68  69
ATOM     69  S   UNL A   1      44.314  42.975  35.005  1.00  0.00     0.124 S 
ATOM     70  O   UNL A   1      42.885  42.916  35.303  1.00  0.00    -0.237 OA
ATOM     71  O   UNL A   1      45.201  42.854  36.159  1.00  0.00    -0.237 OA
ATOM     72  O   UNL A   1      44.705  43.987  34.026  1.00  0.00    -0.744 OA
ENDBRANCH  68  69
ENDBRANCH  49  63
BRANCH  50  73
ATOM     73  C   UNL A   1      45.312  30.207  28.022  1.00  0.00    -0.014 A 
ATOM     74  C   UNL A   1      46.142  29.133  28.388  1.00  0.00     0.010 A 
ATOM     75  C   UNL A   1      44.451  30.057  26.919  1.00  0.00     0.010 A 
ATOM     76  C   UNL A   1      46.110  27.936  27.667  1.00  0.00     0.020 A 
ATOM     77  C   UNL A   1      44.395  28.852  26.213  1.00  0.00     0.020 A 
ATOM     78  C   UNL A   1      45.229  27.800  26.589  1.00  0.00     0.054 A 
BRANCH  78  79
ATOM     79  S   UNL A   1      45.146  26.207  25.722  1.00  0.00     0.124 S 
ATOM     80  O   UNL A   1      46.095  26.404  24.632  1.00  0.00    -0.237 OA
ATOM     81  O   UNL A   1      45.557  25.265  26.760  1.00  0.00    -0.237 OA
ATOM     82  O   UNL A   1      43.743  26.109  25.323  1.00  0.00    -0.744 OA
ENDBRANCH  78  79
ENDBRANCH  50  73
BRANCH  62  83
ATOM     83  C   UNL A   1      49.273  35.983  27.888  1.00  0.00    -0.014 A 
ATOM     84  C   UNL A   1      49.279  37.101  27.035  1.00  0.00     0.010 A 
ATOM     85  C   UNL A   1      50.474  35.280  28.104  1.00  0.00     0.010 A 
ATOM     86  C   UNL A   1      50.463  37.503  26.409  1.00  0.00     0.020 A 
ATOM     87  C   UNL A   1      51.663  35.696  27.502  1.00  0.00     0.020 A 
ATOM     88  C   UNL A   1      51.650  36.803  26.653  1.00  0.00     0.054 A 
BRANCH  88  89
ATOM     89  S   UNL A   1      53.187  37.397  25.893  1.00  0.00     0.124 S 
ATOM     90  O   UNL A   1      53.462  36.354  24.909  1.00  0.00    -0.237 OA
ATOM     91  O   UNL A   1      52.792  38.692  25.344  1.00  0.00    -0.237 OA
ATOM     92  O   UNL A   1      54.125  37.461  27.012  1.00  0.00    -0.744 OA
ENDBRANCH  88  89
ENDBRANCH  62  83
ENDBRANCH  36  37
ENDBRANCH  29  31
ENDBRANCH  28  29
ENDBRANCH  27  28
ENDBRANCH  26  27
ENDBRANCH  25  26
ENDBRANCH  24  25
ENDBRANCH  23  24
ENDBRANCH   1  23
TORSDOF 26
ENDMDL
MODEL 2
REMARK VINA RESULT:      -6.4      4.221      7.753
REMARK SMILES C[C@H]([NH2+]Cc1ccccc1F)C(=O)OCCOCCOCCOCCOC(=O)c1ccc(-c2c3nc(c(-c4ccc(S(=O)(=O)[O-])cc4)c4ccc([nH]4)c(-c4ccc(S(=O)(=O)[O-])cc4)c4nc(c(-c5ccc(S(=O)(=O)[O-])cc5)c5ccc2[nH]5)C=C4)C=C3)cc1
REMARK SMILES IDX 20 1 19 2 18 3 17 4 16 5 15 6 14 7 12 8 13 9 2 10 1 11 3 12
REMARK SMILES IDX 4 15 5 16 6 17 10 18 7 19 9 20 11 21 8 22 21 23 22 24 23 25
REMARK SMILES IDX 24 26 25 27 26 28 27 29 28 30 29 31 30 32 88 33 31 34 87 35
REMARK SMILES IDX 32 36 33 37 34 38 81 39 35 40 86 41 80 42 82 43 36 44 85 45
REMARK SMILES IDX 79 46 78 47 37 49 67 50 48 51 66 52 49 53 52 54 65 55 83 56
REMARK SMILES IDX 50 57 51 58 64 60 84 61 53 62 38 63 39 64 47 65 40 66 46 67
REMARK SMILES IDX 41 68 42 69 43 70 44 71 45 72 68 73 69 74 77 75 70 76 76 77
REMARK SMILES IDX 71 78 72 79 73 80 74 81 75 82 54 83 55 84 63 85 56 86 62 87
REMARK SMILES IDX 57 88 58 89 59 90 60 91 61 92
REMARK H PARENT 3 13 3 14 82 48 52 59
REMARK Flexibility Score: inf
ROOT
ATOM      1  O   UNL A   1      36.064  35.277  32.772  1.00  0.00    -0.377 OA
ENDROOT
BRANCH   1   2
ATOM      2  C   UNL A   1      36.720  34.121  32.294  1.00  0.00     0.188 C 
BRANCH   2   3
ATOM      3  C   UNL A   1      37.973  33.737  33.096  1.00  0.00     0.188 C 
BRANCH   3   4
ATOM      4  O   UNL A   1      39.244  34.285  32.769  1.00  0.00    -0.376 OA
BRANCH   4   5
ATOM      5  C   UNL A   1      40.135  34.716  33.790  1.00  0.00     0.202 C 
BRANCH   5   6
ATOM      6  C   UNL A   1      41.667  34.681  33.627  1.00  0.00     0.261 C 
BRANCH   6   7
ATOM      7  O   UNL A   1      42.440  34.428  34.812  1.00  0.00    -0.459 OA
BRANCH   7   8
ATOM      8  C   UNL A   1      41.744  34.428  35.971  1.00  0.00     0.364 C 
ATOM      9  O   UNL A   1      41.423  35.449  36.577  1.00  0.00    -0.245 OA
BRANCH   8  10
ATOM     10  C   UNL A   1      41.353  33.046  36.508  1.00  0.00     0.290 C 
ATOM     11  C   UNL A   1      41.504  33.011  38.022  1.00  0.00     0.088 C 
BRANCH  10  12
ATOM     12  N   UNL A   1      41.852  31.839  35.812  1.00  0.00    -0.331 N 
ATOM     13  H   UNL A   1      42.408  31.309  36.483  1.00  0.00     0.347 HD
ATOM     14  H   UNL A   1      42.360  32.201  35.006  1.00  0.00     0.347 HD
BRANCH  12  15
ATOM     15  C   UNL A   1      40.862  30.918  35.240  1.00  0.00     0.301 C 
BRANCH  15  16
ATOM     16  C   UNL A   1      41.460  29.576  34.819  1.00  0.00     0.042 A 
ATOM     17  C   UNL A   1      41.536  28.519  35.743  1.00  0.00     0.012 A 
ATOM     18  C   UNL A   1      41.833  29.296  33.496  1.00  0.00     0.132 A 
ATOM     19  C   UNL A   1      41.979  27.246  35.350  1.00  0.00     0.001 A 
ATOM     20  C   UNL A   1      42.288  28.039  33.101  1.00  0.00     0.040 A 
ATOM     21  F   UNL A   1      41.754  30.251  32.555  1.00  0.00    -0.206 F 
ATOM     22  C   UNL A   1      42.356  27.007  34.029  1.00  0.00     0.003 A 
ENDBRANCH  15  16
ENDBRANCH  12  15
ENDBRANCH  10  12
ENDBRANCH   8  10
ENDBRANCH   7   8
ENDBRANCH   6   7
ENDBRANCH   5   6
ENDBRANCH   4   5
ENDBRANCH   3   4
ENDBRANCH   2   3
ENDBRANCH   1   2
BRANCH   1  23
ATOM     23  C   UNL A   1      34.669  35.372  32.538  1.00  0.00     0.188 C 
BRANCH  23  24
ATOM     24  C   UNL A   1      34.120  34.897  31.177  1.00  0.00     0.188 C 
BRANCH  24  25
ATOM     25  O   UNL A   1      34.271  33.504  30.927  1.00  0.00    -0.376 OA
BRANCH  25  26
ATOM     26  C   UNL A   1      34.515  33.088  29.589  1.00  0.00     0.202 C 
BRANCH  26  27
ATOM     27  C   UNL A   1      35.191  31.720  29.387  1.00  0.00     0.261 C 
BRANCH  27  28
ATOM     28  O   UNL A   1      36.556  31.601  29.816  1.00  0.00    -0.460 OA
BRANCH  28  29
ATOM     29  C   UNL A   1      36.877  30.616  30.681  1.00  0.00     0.338 C 
ATOM     30  O   UNL A   1      36.217  30.224  31.626  1.00  0.00    -0.246 OA
BRANCH  29  31
ATOM     31  C   UNL A   1      38.091  29.947  30.166  1.00  0.00     0.060 A 
ATOM     32  C   UNL A   1      38.759  29.025  30.984  1.00  0.00     0.016 A 
ATOM     33  C   UNL A   1      38.557  30.215  28.877  1.00  0.00     0.016 A 
ATOM     34  C   UNL A   1      39.919  28.396  30.527  1.00  0.00     0.010 A 
ATOM     35  C   UNL A   1      39.731  29.603  28.431  1.00  0.00     0.010 A 
ATOM     36  C   UNL A   1      40.435  28.717  29.266  1.00  0.00    -0.014 A 
BRANCH  36  37
ATOM     37  C   UNL A   1      41.812  28.311  28.893  1.00  0.00     0.031 A 
ATOM     38  C   UNL A   1      42.875  29.375  28.855  1.00  0.00     0.074 A 
ATOM     39  C   UNL A   1      42.113  27.042  28.564  1.00  0.00     0.049 A 
ATOM     40  N   UNL A   1      44.115  29.297  28.451  1.00  0.00    -0.248 NA
ATOM     41  C   UNL A   1      42.476  30.711  29.331  1.00  0.00     0.031 C 
ATOM     42  C   UNL A   1      41.187  25.914  28.603  1.00  0.00     0.029 A 
ATOM     43  N   UNL A   1      43.290  26.501  28.106  1.00  0.00    -0.354 N 
ATOM     44  C   UNL A   1      44.638  30.577  28.599  1.00  0.00     0.074 A 
ATOM     45  C   UNL A   1      43.576  31.413  29.111  1.00  0.00     0.031 C 
ATOM     46  C   UNL A   1      41.823  24.816  28.155  1.00  0.00     0.029 A 
ATOM     47  C   UNL A   1      43.186  25.174  27.761  1.00  0.00     0.049 A 
ATOM     48  H   UNL A   1      44.127  27.013  28.032  1.00  0.00     0.167 HD
ATOM     49  C   UNL A   1      45.889  31.018  28.325  1.00  0.00     0.031 A 
ATOM     50  C   UNL A   1      44.073  24.355  27.159  1.00  0.00     0.031 A 
ATOM     51  C   UNL A   1      46.934  30.185  27.794  1.00  0.00     0.049 A 
ATOM     52  C   UNL A   1      45.440  24.878  26.796  1.00  0.00     0.074 A 
ATOM     53  C   UNL A   1      48.242  30.529  27.506  1.00  0.00     0.029 A 
ATOM     54  N   UNL A   1      46.784  28.850  27.451  1.00  0.00    -0.354 N 
ATOM     55  N   UNL A   1      45.935  26.080  26.976  1.00  0.00    -0.248 NA
ATOM     56  C   UNL A   1      46.369  23.936  26.156  1.00  0.00     0.031 C 
ATOM     57  C   UNL A   1      48.864  29.421  26.925  1.00  0.00     0.029 A 
ATOM     58  C   UNL A   1      47.966  28.365  26.920  1.00  0.00     0.049 A 
ATOM     59  H   UNL A   1      45.960  28.325  27.568  1.00  0.00     0.167 HD
ATOM     60  C   UNL A   1      47.241  26.030  26.497  1.00  0.00     0.074 A 
ATOM     61  C   UNL A   1      47.462  24.678  26.025  1.00  0.00     0.031 C 
ATOM     62  C   UNL A   1      48.175  27.013  26.458  1.00  0.00     0.031 A 
BRANCH  49  63
ATOM     63  C   UNL A   1      46.168  32.482  28.542  1.00  0.00    -0.014 A 
ATOM     64  C   UNL A   1      46.311  33.372  27.462  1.00  0.00     0.010 A 
ATOM     65  C   UNL A   1      46.284  32.974  29.855  1.00  0.00     0.010 A 
ATOM     66  C   UNL A   1      46.620  34.716  27.692  1.00  0.00     0.020 A 
ATOM     67  C   UNL A   1      46.561  34.322  30.089  1.00  0.00     0.020 A 
ATOM     68  C   UNL A   1      46.751  35.180  29.004  1.00  0.00     0.054 A 
BRANCH  68  69
ATOM     69  S   UNL A   1      47.160  36.926  29.274  1.00  0.00     0.124 S 
ATOM     70  O   UNL A   1      46.670  37.143  30.633  1.00  0.00    -0.237 OA
ATOM     71  O   UNL A   1      48.613  36.940  29.121  1.00  0.00    -0.237 OA
ATOM     72  O   UNL A   1      46.420  37.623  28.226  1.00  0.00    -0.744 OA
ENDBRANCH  68  69
ENDBRANCH  49  63
BRANCH  50  73
ATOM     73  C   UNL A   1      43.674  22.958  26.826  1.00  0.00    -0.014 A 
ATOM     74  C   UNL A   1      44.373  22.215  25.861  1.00  0.00     0.010 A 
ATOM     75  C   UNL A   1      42.599  22.354  27.505  1.00  0.00     0.010 A 
ATOM     76  C   UNL A   1      44.006  20.894  25.581  1.00  0.00     0.020 A 
ATOM     77  C   UNL A   1      42.247  21.025  27.249  1.00  0.00     0.020 A 
ATOM     78  C   UNL A   1      42.951  20.305  26.285  1.00  0.00     0.054 A 
BRANCH  78  79
ATOM     79  S   UNL A   1      42.549  18.565  25.964  1.00  0.00     0.124 S 
ATOM     80  O   UNL A   1      42.999  17.917  27.191  1.00  0.00    -0.237 OA
ATOM     81  O   UNL A   1      41.103  18.610  25.764  1.00  0.00    -0.237 OA
ATOM     82  O   UNL A   1      43.326  18.249  24.767  1.00  0.00    -0.744 OA
ENDBRANCH  78  79
ENDBRANCH  50  73
BRANCH  62  83
ATOM     83  C   UNL A   1      49.544  26.673  25.928  1.00  0.00    -0.014 A 
ATOM     84  C   UNL A   1      49.909  26.956  24.600  1.00  0.00     0.010 A 
ATOM     85  C   UNL A   1      50.515  26.159  26.810  1.00  0.00     0.010 A 
ATOM     86  C   UNL A   1      51.217  26.725  24.163  1.00  0.00     0.020 A 
ATOM     87  C   UNL A   1      51.829  25.954  26.384  1.00  0.00     0.020 A 
ATOM     88  C   UNL A   1      52.171  26.233  25.061  1.00  0.00     0.054 A 
BRANCH  88  89
ATOM     89  S   UNL A   1      53.880  26.021  24.489  1.00  0.00     0.124 S 
ATOM     90  O   UNL A   1      54.155  24.636  24.859  1.00  0.00    -0.237 OA
ATOM     91  O   UNL A   1      53.772  26.280  23.056  1.00  0.00    -0.237 OA
ATOM     92  O   UNL A   1      54.625  27.027  25.244  1.00  0.00    -0.744 OA
ENDBRANCH  88  89
ENDBRANCH  62  83
ENDBRANCH  36  37
ENDBRANCH  29  31
ENDBRANCH  28  29
ENDBRANCH  27  28
ENDBRANCH  26  27
ENDBRANCH  25  26
ENDBRANCH  24  25
ENDBRANCH  23  24
ENDBRANCH   1  23
TORSDOF 26
ENDMDL
MODEL 3
REMARK VINA RESULT:      -6.3      3.545     11.042
REMARK SMILES C[C@H]([NH2+]Cc1ccccc1F)C(=O)OCCOCCOCCOCCOC(=O)c1ccc(-c2c3nc(c(-c4ccc(S(=O)(=O)[O-])cc4)c4ccc([nH]4)c(-c4ccc(S(=O)(=O)[O-])cc4)c4nc(c(-c5ccc(S(=O)(=O)[O-])cc5)c5ccc2[nH]5)C=C4)C=C3)cc1
REMARK SMILES IDX 20 1 19 2 18 3 17 4 16 5 15 6 14 7 12 8 13 9 2 10 1 11 3 12
REMARK SMILES IDX 4 15 5 16 6 17 10 18 7 19 9 20 11 21 8 22 21 23 22 24 23 25
REMARK SMILES IDX 24 26 25 27 26 28 27 29 28 30 29 31 30 32 88 33 31 34 87 35
REMARK SMILES IDX 32 36 33 37 34 38 81 39 35 40 86 41 80 42 82 43 36 44 85 45
REMARK SMILES IDX 79 46 78 47 37 49 67 50 48 51 66 52 49 53 52 54 65 55 83 56
REMARK SMILES IDX 50 57 51 58 64 60 84 61 53 62 38 63 39 64 47 65 40 66 46 67
REMARK SMILES IDX 41 68 42 69 43 70 44 71 45 72 68 73 69 74 77 75 70 76 76 77
REMARK SMILES IDX 71 78 72 79 73 80 74 81 75 82 54 83 55 84 63 85 56 86 62 87
REMARK SMILES IDX 57 88 58 89 59 90 60 91 61 92
REMARK H PARENT 3 13 3 14 82 48 52 59
REMARK Flexibility Score: inf
ROOT
ATOM      1  O   UNL A   1      43.740  42.258  31.703  1.00  0.00    -0.377 OA
ENDROOT
BRANCH   1   2
ATOM      2  C   UNL A   1      43.402  42.058  30.346  1.00  0.00     0.188 C 
BRANCH   2   3
ATOM      3  C   UNL A   1      42.725  40.708  30.064  1.00  0.00     0.188 C 
BRANCH   3   4
ATOM      4  O   UNL A   1      41.616  40.620  29.179  1.00  0.00    -0.376 OA
BRANCH   4   5
ATOM      5  C   UNL A   1      41.812  40.504  27.775  1.00  0.00     0.202 C 
BRANCH   5   6
ATOM      6  C   UNL A   1      43.168  40.110  27.154  1.00  0.00     0.261 C 
BRANCH   6   7
ATOM      7  O   UNL A   1      43.799  41.083  26.306  1.00  0.00    -0.459 OA
BRANCH   7   8
ATOM      8  C   UNL A   1      44.951  40.682  25.719  1.00  0.00     0.364 C 
ATOM      9  O   UNL A   1      45.393  41.166  24.678  1.00  0.00    -0.245 OA
BRANCH   8  10
ATOM     10  C   UNL A   1      45.708  39.563  26.444  1.00  0.00     0.290 C 
ATOM     11  C   UNL A   1      46.741  40.158  27.388  1.00  0.00     0.088 C 
BRANCH  10  12
ATOM     12  N   UNL A   1      46.184  38.399  25.663  1.00  0.00    -0.331 N 
ATOM     13  H   UNL A   1      46.963  38.717  25.087  1.00  0.00     0.347 HD
ATOM     14  H   UNL A   1      45.361  38.078  25.155  1.00  0.00     0.347 HD
BRANCH  12  15
ATOM     15  C   UNL A   1      46.642  37.217  26.404  1.00  0.00     0.301 C 
BRANCH  15  16
ATOM     16  C   UNL A   1      45.511  36.256  26.767  1.00  0.00     0.042 A 
ATOM     17  C   UNL A   1      45.294  35.101  25.997  1.00  0.00     0.012 A 
ATOM     18  C   UNL A   1      44.736  36.405  27.928  1.00  0.00     0.132 A 
ATOM     19  C   UNL A   1      44.333  34.150  26.376  1.00  0.00     0.001 A 
ATOM     20  C   UNL A   1      43.770  35.474  28.303  1.00  0.00     0.040 A 
ATOM     21  F   UNL A   1      44.913  37.470  28.727  1.00  0.00    -0.206 F 
ATOM     22  C   UNL A   1      43.570  34.337  27.528  1.00  0.00     0.003 A 
ENDBRANCH  15  16
ENDBRANCH  12  15
ENDBRANCH  10  12
ENDBRANCH   8  10
ENDBRANCH   7   8
ENDBRANCH   6   7
ENDBRANCH   5   6
ENDBRANCH   4   5
ENDBRANCH   3   4
ENDBRANCH   2   3
ENDBRANCH   1   2
BRANCH   1  23
ATOM     23  C   UNL A   1      43.905  43.598  32.138  1.00  0.00     0.188 C 
BRANCH  23  24
ATOM     24  C   UNL A   1      43.372  43.987  33.532  1.00  0.00     0.188 C 
BRANCH  24  25
ATOM     25  O   UNL A   1      44.380  44.226  34.509  1.00  0.00    -0.376 OA
BRANCH  25  26
ATOM     26  C   UNL A   1      44.587  43.236  35.509  1.00  0.00     0.202 C 
BRANCH  26  27
ATOM     27  C   UNL A   1      45.837  42.349  35.376  1.00  0.00     0.261 C 
BRANCH  27  28
ATOM     28  O   UNL A   1      46.238  41.989  34.045  1.00  0.00    -0.460 OA
BRANCH  28  29
ATOM     29  C   UNL A   1      47.466  41.462  33.862  1.00  0.00     0.338 C 
ATOM     30  O   UNL A   1      48.522  41.889  34.294  1.00  0.00    -0.246 OA
BRANCH  29  31
ATOM     31  C   UNL A   1      47.296  40.148  33.205  1.00  0.00     0.060 A 
ATOM     32  C   UNL A   1      46.540  40.068  32.028  1.00  0.00     0.016 A 
ATOM     33  C   UNL A   1      47.894  39.004  33.740  1.00  0.00     0.016 A 
ATOM     34  C   UNL A   1      46.348  38.835  31.401  1.00  0.00     0.010 A 
ATOM     35  C   UNL A   1      47.680  37.768  33.125  1.00  0.00     0.010 A 
ATOM     36  C   UNL A   1      46.879  37.673  31.972  1.00  0.00    -0.014 A 
BRANCH  36  37
ATOM     37  C   UNL A   1      46.431  36.337  31.512  1.00  0.00     0.031 A 
ATOM     38  C   UNL A   1      47.197  35.682  30.395  1.00  0.00     0.074 A 
ATOM     39  C   UNL A   1      45.356  35.727  32.043  1.00  0.00     0.049 A 
ATOM     40  N   UNL A   1      46.937  34.579  29.743  1.00  0.00    -0.248 NA
ATOM     41  C   UNL A   1      48.418  36.374  29.949  1.00  0.00     0.031 C 
ATOM     42  C   UNL A   1      44.557  36.234  33.155  1.00  0.00     0.029 A 
ATOM     43  N   UNL A   1      44.739  34.551  31.689  1.00  0.00    -0.354 N 
ATOM     44  C   UNL A   1      47.946  34.459  28.794  1.00  0.00     0.074 A 
ATOM     45  C   UNL A   1      48.810  35.608  28.944  1.00  0.00     0.031 C 
ATOM     46  C   UNL A   1      43.534  35.389  33.374  1.00  0.00     0.029 A 
ATOM     47  C   UNL A   1      43.584  34.305  32.393  1.00  0.00     0.049 A 
ATOM     48  H   UNL A   1      45.090  33.943  30.999  1.00  0.00     0.167 HD
ATOM     49  C   UNL A   1      48.132  33.482  27.875  1.00  0.00     0.031 A 
ATOM     50  C   UNL A   1      42.653  33.340  32.236  1.00  0.00     0.031 A 
ATOM     51  C   UNL A   1      47.256  32.353  27.716  1.00  0.00     0.049 A 
ATOM     52  C   UNL A   1      42.838  32.298  31.162  1.00  0.00     0.074 A 
ATOM     53  C   UNL A   1      47.370  31.295  26.833  1.00  0.00     0.029 A 
ATOM     54  N   UNL A   1      46.094  32.146  28.443  1.00  0.00    -0.354 N 
ATOM     55  N   UNL A   1      43.816  32.172  30.296  1.00  0.00    -0.248 NA
ATOM     56  C   UNL A   1      41.799  31.264  31.047  1.00  0.00     0.031 C 
ATOM     57  C   UNL A   1      46.242  30.485  26.977  1.00  0.00     0.029 A 
ATOM     58  C   UNL A   1      45.461  30.996  28.003  1.00  0.00     0.049 A 
ATOM     59  H   UNL A   1      45.766  32.730  29.165  1.00  0.00     0.167 HD
ATOM     60  C   UNL A   1      43.524  31.032  29.553  1.00  0.00     0.074 A 
ATOM     61  C   UNL A   1      42.282  30.500  30.075  1.00  0.00     0.031 C 
ATOM     62  C   UNL A   1      44.226  30.473  28.535  1.00  0.00     0.031 A 
BRANCH  49  63
ATOM     63  C   UNL A   1      49.298  33.632  26.934  1.00  0.00    -0.014 A 
ATOM     64  C   UNL A   1      49.214  34.430  25.778  1.00  0.00     0.010 A 
ATOM     65  C   UNL A   1      50.504  32.964  27.218  1.00  0.00     0.010 A 
ATOM     66  C   UNL A   1      50.296  34.510  24.896  1.00  0.00     0.020 A 
ATOM     67  C   UNL A   1      51.597  33.068  26.356  1.00  0.00     0.020 A 
ATOM     68  C   UNL A   1      51.478  33.822  25.187  1.00  0.00     0.054 A 
BRANCH  68  69
ATOM     69  S   UNL A   1      52.862  33.937  24.022  1.00  0.00     0.124 S 
ATOM     70  O   UNL A   1      53.934  33.278  24.764  1.00  0.00    -0.237 OA
ATOM     71  O   UNL A   1      52.362  33.208  22.859  1.00  0.00    -0.237 OA
ATOM     72  O   UNL A   1      53.034  35.374  23.826  1.00  0.00    -0.744 OA
ENDBRANCH  68  69
ENDBRANCH  49  63
BRANCH  50  73
ATOM     73  C   UNL A   1      41.439  33.345  33.099  1.00  0.00    -0.014 A 
ATOM     74  C   UNL A   1      40.294  34.075  32.736  1.00  0.00     0.010 A 
ATOM     75  C   UNL A   1      41.416  32.586  34.284  1.00  0.00     0.010 A 
ATOM     76  C   UNL A   1      39.151  34.045  33.541  1.00  0.00     0.020 A 
ATOM     77  C   UNL A   1      40.266  32.530  35.076  1.00  0.00     0.020 A 
ATOM     78  C   UNL A   1      39.141  33.264  34.702  1.00  0.00     0.054 A 
BRANCH  78  79
ATOM     79  S   UNL A   1      37.618  33.174  35.684  1.00  0.00     0.124 S 
ATOM     80  O   UNL A   1      36.625  33.706  34.756  1.00  0.00    -0.237 OA
ATOM     81  O   UNL A   1      37.515  31.746  35.972  1.00  0.00    -0.237 OA
ATOM     82  O   UNL A   1      37.908  34.016  36.843  1.00  0.00    -0.744 OA
ENDBRANCH  78  79
ENDBRANCH  50  73
BRANCH  62  83
ATOM     83  C   UNL A   1      43.706  29.194  27.932  1.00  0.00    -0.014 A 
ATOM     84  C   UNL A   1      44.051  27.938  28.462  1.00  0.00     0.010 A 
ATOM     85  C   UNL A   1      42.769  29.260  26.883  1.00  0.00     0.010 A 
ATOM     86  C   UNL A   1      43.474  26.773  27.948  1.00  0.00     0.020 A 
ATOM     87  C   UNL A   1      42.169  28.101  26.387  1.00  0.00     0.020 A 
ATOM     88  C   UNL A   1      42.530  26.862  26.919  1.00  0.00     0.054 A 
BRANCH  88  89
ATOM     89  S   UNL A   1      41.734  25.342  26.329  1.00  0.00     0.124 S 
ATOM     90  O   UNL A   1      41.792  24.489  27.512  1.00  0.00    -0.237 OA
ATOM     91  O   UNL A   1      40.401  25.805  25.951  1.00  0.00    -0.237 OA
ATOM     92  O   UNL A   1      42.579  24.918  25.214  1.00  0.00    -0.744 OA
ENDBRANCH  88  89
ENDBRANCH  62  83
ENDBRANCH  36  37
ENDBRANCH  29  31
ENDBRANCH  28  29
ENDBRANCH  27  28
ENDBRANCH  26  27
ENDBRANCH  25  26
ENDBRANCH  24  25
ENDBRANCH  23  24
ENDBRANCH   1  23
TORSDOF 26
ENDMDL
