MODEL 1
REMARK VINA RESULT:      -9.1      0.000      0.000
REMARK SMILES O=C(OCCOCCOCCOCCOC(=O)c1ccccc1/C=C1/SC(=S)N(C2CCCC2)C1=O)c1ccc(-c2c3nc(c(-c4ccc(S(=O)(=O)[O-])cc4)c4ccc([nH]4)c(-c4ccc(S(=O)(=O)[O-])cc4)c4nc(c(-c5ccc(S(=O)(=O)[O-])cc5)c5ccc2[nH]5)C=C4)C=C3)cc1
REMARK SMILES IDX 8 1 7 2 6 3 5 4 4 5 3 6 2 7 1 8 37 9 38 10 96 11 39 12 95 13
REMARK SMILES IDX 40 14 41 15 42 16 89 17 43 18 94 19 88 20 90 21 44 22 93 23
REMARK SMILES IDX 87 24 86 25 45 27 75 28 56 29 74 30 57 31 60 32 73 33 91 34
REMARK SMILES IDX 58 35 59 36 72 38 92 39 61 40 46 41 47 42 55 43 48 44 54 45
REMARK SMILES IDX 49 46 50 47 51 48 52 49 53 50 76 51 77 52 85 53 78 54 84 55
REMARK SMILES IDX 79 56 80 57 81 58 82 59 83 60 62 61 63 62 71 63 64 64 70 65
REMARK SMILES IDX 65 66 66 67 67 68 68 69 69 70 9 71 10 72 11 73 12 74 13 75
REMARK SMILES IDX 14 76 15 77 16 78 17 79 18 80 19 81 23 82 20 83 22 84 21 85
REMARK SMILES IDX 24 86 25 87 26 88 35 89 27 90 29 91 36 92 28 93 30 94 31 95
REMARK SMILES IDX 34 96 32 97 33 98
REMARK H PARENT 90 26 60 37
REMARK Flexibility Score: inf
ROOT
ATOM      1  C   UNL A   1      42.734  21.742  25.955  1.00  0.00     0.188 C 
ENDROOT
BRANCH   1   2
ATOM      2  C   UNL A   1      43.515  22.120  27.213  1.00  0.00     0.188 C 
BRANCH   2   3
ATOM      3  O   UNL A   1      44.556  23.042  26.891  1.00  0.00    -0.376 OA
BRANCH   3   4
ATOM      4  C   UNL A   1      45.020  23.012  25.543  1.00  0.00     0.202 C 
BRANCH   4   5
ATOM      5  C   UNL A   1      45.336  24.396  24.982  1.00  0.00     0.261 C 
BRANCH   5   6
ATOM      6  O   UNL A   1      46.728  24.713  25.112  1.00  0.00    -0.460 OA
BRANCH   6   7
ATOM      7  C   UNL A   1      47.365  25.202  26.206  1.00  0.00     0.338 C 
ATOM      8  O   UNL A   1      48.096  24.434  26.832  1.00  0.00    -0.246 OA
BRANCH   7   9
ATOM      9  C   UNL A   1      47.269  26.619  26.691  1.00  0.00     0.060 A 
ATOM     10  C   UNL A   1      47.677  27.100  27.939  1.00  0.00     0.016 A 
ATOM     11  C   UNL A   1      46.758  27.554  25.771  1.00  0.00     0.016 A 
ATOM     12  C   UNL A   1      47.514  28.431  28.302  1.00  0.00     0.010 A 
ATOM     13  C   UNL A   1      46.598  28.899  26.120  1.00  0.00     0.010 A 
ATOM     14  C   UNL A   1      46.935  29.324  27.408  1.00  0.00    -0.014 A 
BRANCH  14  15
ATOM     15  C   UNL A   1      46.461  30.612  27.941  1.00  0.00     0.031 A 
ATOM     16  C   UNL A   1      47.280  31.827  27.615  1.00  0.00     0.074 A 
ATOM     17  C   UNL A   1      45.270  30.703  28.554  1.00  0.00     0.049 A 
ATOM     18  N   UNL A   1      47.108  33.068  27.979  1.00  0.00    -0.248 NA
ATOM     19  C   UNL A   1      48.451  31.611  26.743  1.00  0.00     0.031 C 
ATOM     20  C   UNL A   1      44.340  29.591  28.762  1.00  0.00     0.029 A 
ATOM     21  N   UNL A   1      44.622  31.786  29.083  1.00  0.00    -0.354 N 
ATOM     22  C   UNL A   1      48.168  33.770  27.414  1.00  0.00     0.074 A 
ATOM     23  C   UNL A   1      48.977  32.823  26.685  1.00  0.00     0.031 C 
ATOM     24  C   UNL A   1      43.229  30.058  29.358  1.00  0.00     0.029 A 
ATOM     25  C   UNL A   1      43.398  31.482  29.628  1.00  0.00     0.049 A 
ATOM     26  H   UNL A   1      44.997  32.696  29.072  1.00  0.00     0.167 HD
ATOM     27  C   UNL A   1      48.444  35.090  27.513  1.00  0.00     0.031 A 
ATOM     28  C   UNL A   1      42.535  32.272  30.296  1.00  0.00     0.031 A 
ATOM     29  C   UNL A   1      47.627  35.998  28.266  1.00  0.00     0.049 A 
ATOM     30  C   UNL A   1      42.916  33.715  30.492  1.00  0.00     0.074 A 
ATOM     31  C   UNL A   1      47.826  37.341  28.520  1.00  0.00     0.029 A 
ATOM     32  N   UNL A   1      46.440  35.637  28.894  1.00  0.00    -0.354 N 
ATOM     33  N   UNL A   1      43.967  34.359  30.033  1.00  0.00    -0.248 NA
ATOM     34  C   UNL A   1      42.011  34.536  31.303  1.00  0.00     0.031 C 
ATOM     35  C   UNL A   1      46.784  37.779  29.346  1.00  0.00     0.029 A 
ATOM     36  C   UNL A   1      45.902  36.726  29.552  1.00  0.00     0.049 A 
ATOM     37  H   UNL A   1      46.041  34.737  28.874  1.00  0.00     0.167 HD
ATOM     38  C   UNL A   1      43.839  35.666  30.483  1.00  0.00     0.074 A 
ATOM     39  C   UNL A   1      42.601  35.723  31.240  1.00  0.00     0.031 C 
ATOM     40  C   UNL A   1      44.664  36.728  30.294  1.00  0.00     0.031 A 
BRANCH  27  41
ATOM     41  C   UNL A   1      49.727  35.564  26.883  1.00  0.00    -0.014 A 
ATOM     42  C   UNL A   1      50.938  35.597  27.599  1.00  0.00     0.010 A 
ATOM     43  C   UNL A   1      49.697  36.065  25.569  1.00  0.00     0.010 A 
ATOM     44  C   UNL A   1      52.076  36.185  27.036  1.00  0.00     0.020 A 
ATOM     45  C   UNL A   1      50.840  36.627  24.993  1.00  0.00     0.020 A 
ATOM     46  C   UNL A   1      52.015  36.710  25.742  1.00  0.00     0.054 A 
BRANCH  46  47
ATOM     47  S   UNL A   1      53.489  37.510  25.050  1.00  0.00     0.124 S 
ATOM     48  O   UNL A   1      54.566  36.800  25.736  1.00  0.00    -0.237 OA
ATOM     49  O   UNL A   1      53.366  37.232  23.622  1.00  0.00    -0.237 OA
ATOM     50  O   UNL A   1      53.330  38.913  25.424  1.00  0.00    -0.744 OA
ENDBRANCH  46  47
ENDBRANCH  27  41
BRANCH  28  51
ATOM     51  C   UNL A   1      41.274  31.704  30.851  1.00  0.00    -0.014 A 
ATOM     52  C   UNL A   1      41.247  31.104  32.122  1.00  0.00     0.010 A 
ATOM     53  C   UNL A   1      40.075  31.789  30.117  1.00  0.00     0.010 A 
ATOM     54  C   UNL A   1      40.049  30.602  32.647  1.00  0.00     0.020 A 
ATOM     55  C   UNL A   1      38.871  31.314  30.647  1.00  0.00     0.020 A 
ATOM     56  C   UNL A   1      38.867  30.717  31.908  1.00  0.00     0.054 A 
BRANCH  56  57
ATOM     57  S   UNL A   1      37.315  30.121  32.637  1.00  0.00     0.124 S 
ATOM     58  O   UNL A   1      36.742  31.349  33.178  1.00  0.00    -0.237 OA
ATOM     59  O   UNL A   1      36.622  29.555  31.483  1.00  0.00    -0.237 OA
ATOM     60  O   UNL A   1      37.756  29.144  33.630  1.00  0.00    -0.744 OA
ENDBRANCH  56  57
ENDBRANCH  28  51
BRANCH  40  61
ATOM     61  C   UNL A   1      44.228  38.041  30.878  1.00  0.00    -0.014 A 
ATOM     62  C   UNL A   1      43.646  39.038  30.077  1.00  0.00     0.010 A 
ATOM     63  C   UNL A   1      44.338  38.243  32.266  1.00  0.00     0.010 A 
ATOM     64  C   UNL A   1      43.205  40.230  30.654  1.00  0.00     0.020 A 
ATOM     65  C   UNL A   1      43.872  39.420  32.850  1.00  0.00     0.020 A 
ATOM     66  C   UNL A   1      43.320  40.412  32.037  1.00  0.00     0.054 A 
BRANCH  66  67
ATOM     67  S   UNL A   1      42.689  41.945  32.769  1.00  0.00     0.124 S 
ATOM     68  O   UNL A   1      41.662  41.447  33.679  1.00  0.00    -0.237 OA
ATOM     69  O   UNL A   1      43.876  42.508  33.407  1.00  0.00    -0.237 OA
ATOM     70  O   UNL A   1      42.192  42.699  31.620  1.00  0.00    -0.744 OA
ENDBRANCH  66  67
ENDBRANCH  40  61
ENDBRANCH  14  15
ENDBRANCH   7   9
ENDBRANCH   6   7
ENDBRANCH   5   6
ENDBRANCH   4   5
ENDBRANCH   3   4
ENDBRANCH   2   3
ENDBRANCH   1   2
BRANCH   1  71
ATOM     71  O   UNL A   1      41.376  21.372  26.181  1.00  0.00    -0.377 OA
BRANCH  71  72
ATOM     72  C   UNL A   1      40.781  21.827  27.392  1.00  0.00     0.188 C 
BRANCH  72  73
ATOM     73  C   UNL A   1      39.999  23.165  27.402  1.00  0.00     0.188 C 
BRANCH  73  74
ATOM     74  O   UNL A   1      39.494  23.580  26.143  1.00  0.00    -0.376 OA
BRANCH  74  75
ATOM     75  C   UNL A   1      38.163  24.085  26.153  1.00  0.00     0.202 C 
BRANCH  75  76
ATOM     76  C   UNL A   1      37.093  23.006  25.976  1.00  0.00     0.261 C 
BRANCH  76  77
ATOM     77  O   UNL A   1      37.166  22.246  24.754  1.00  0.00    -0.460 OA
BRANCH  77  78
ATOM     78  C   UNL A   1      36.313  22.507  23.738  1.00  0.00     0.338 C 
ATOM     79  O   UNL A   1      36.595  22.971  22.648  1.00  0.00    -0.246 OA
BRANCH  78  80
ATOM     80  C   UNL A   1      34.971  21.983  24.110  1.00  0.00     0.067 A 
ATOM     81  C   UNL A   1      34.963  20.935  25.046  1.00  0.00     0.016 A 
ATOM     82  C   UNL A   1      33.762  22.570  23.668  1.00  0.00    -0.010 A 
ATOM     83  C   UNL A   1      33.763  20.525  25.620  1.00  0.00     0.001 A 
ATOM     84  C   UNL A   1      32.568  22.144  24.266  1.00  0.00     0.009 A 
ATOM     85  C   UNL A   1      32.572  21.138  25.242  1.00  0.00     0.001 A 
BRANCH  82  86
ATOM     86  C   UNL A   1      33.692  23.656  22.663  1.00  0.00     0.030 C 
ATOM     87  C   UNL A   1      33.730  24.964  22.956  1.00  0.00     0.081 C 
ATOM     88  S   UNL A   1      33.211  26.222  21.912  1.00  0.00    -0.054 SA
ATOM     89  C   UNL A   1      33.930  25.535  24.308  1.00  0.00     0.266 C 
ATOM     90  C   UNL A   1      32.732  27.243  23.291  1.00  0.00     0.148 C 
ATOM     91  N   UNL A   1      33.110  26.638  24.473  1.00  0.00    -0.290 N 
ATOM     92  O   UNL A   1      34.718  25.072  25.122  1.00  0.00    -0.268 OA
ATOM     93  S   UNL A   1      31.956  28.694  23.030  1.00  0.00    -0.052 S 
BRANCH  91  94
ATOM     94  C   UNL A   1      32.858  27.057  25.858  1.00  0.00     0.092 C 
ATOM     95  C   UNL A   1      33.566  28.334  26.279  1.00  0.00     0.025 C 
ATOM     96  C   UNL A   1      31.405  27.245  26.310  1.00  0.00     0.025 C 
ATOM     97  C   UNL A   1      32.945  28.613  27.641  1.00  0.00     0.002 C 
ATOM     98  C   UNL A   1      31.483  28.187  27.514  1.00  0.00     0.002 C 
ENDBRANCH  91  94
ENDBRANCH  82  86
ENDBRANCH  78  80
ENDBRANCH  77  78
ENDBRANCH  76  77
ENDBRANCH  75  76
ENDBRANCH  74  75
ENDBRANCH  73  74
ENDBRANCH  72  73
ENDBRANCH  71  72
ENDBRANCH   1  71
TORSDOF 25
ENDMDL
MODEL 2
REMARK VINA RESULT:      -9.1      6.286      8.885
REMARK SMILES O=C(OCCOCCOCCOCCOC(=O)c1ccccc1/C=C1/SC(=S)N(C2CCCC2)C1=O)c1ccc(-c2c3nc(c(-c4ccc(S(=O)(=O)[O-])cc4)c4ccc([nH]4)c(-c4ccc(S(=O)(=O)[O-])cc4)c4nc(c(-c5ccc(S(=O)(=O)[O-])cc5)c5ccc2[nH]5)C=C4)C=C3)cc1
REMARK SMILES IDX 8 1 7 2 6 3 5 4 4 5 3 6 2 7 1 8 37 9 38 10 96 11 39 12 95 13
REMARK SMILES IDX 40 14 41 15 42 16 89 17 43 18 94 19 88 20 90 21 44 22 93 23
REMARK SMILES IDX 87 24 86 25 45 27 75 28 56 29 74 30 57 31 60 32 73 33 91 34
REMARK SMILES IDX 58 35 59 36 72 38 92 39 61 40 46 41 47 42 55 43 48 44 54 45
REMARK SMILES IDX 49 46 50 47 51 48 52 49 53 50 76 51 77 52 85 53 78 54 84 55
REMARK SMILES IDX 79 56 80 57 81 58 82 59 83 60 62 61 63 62 71 63 64 64 70 65
REMARK SMILES IDX 65 66 66 67 67 68 68 69 69 70 9 71 10 72 11 73 12 74 13 75
REMARK SMILES IDX 14 76 15 77 16 78 17 79 18 80 19 81 23 82 20 83 22 84 21 85
REMARK SMILES IDX 24 86 25 87 26 88 35 89 27 90 29 91 36 92 28 93 30 94 31 95
REMARK SMILES IDX 34 96 32 97 33 98
REMARK H PARENT 90 26 60 37
REMARK Flexibility Score: inf
ROOT
ATOM      1  C   UNL A   1      42.863  21.089  25.847  1.00  0.00     0.188 C 
ENDROOT
BRANCH   1   2
ATOM      2  C   UNL A   1      43.612  21.914  26.892  1.00  0.00     0.188 C 
BRANCH   2   3
ATOM      3  O   UNL A   1      44.263  23.023  26.273  1.00  0.00    -0.376 OA
BRANCH   3   4
ATOM      4  C   UNL A   1      43.643  23.530  25.093  1.00  0.00     0.202 C 
BRANCH   4   5
ATOM      5  C   UNL A   1      42.722  24.719  25.358  1.00  0.00     0.261 C 
BRANCH   5   6
ATOM      6  O   UNL A   1      43.450  25.954  25.388  1.00  0.00    -0.460 OA
BRANCH   6   7
ATOM      7  C   UNL A   1      44.114  26.495  26.440  1.00  0.00     0.338 C 
ATOM      8  O   UNL A   1      45.324  26.281  26.522  1.00  0.00    -0.246 OA
BRANCH   7   9
ATOM      9  C   UNL A   1      43.489  27.362  27.494  1.00  0.00     0.060 A 
ATOM     10  C   UNL A   1      43.686  28.736  27.664  1.00  0.00     0.016 A 
ATOM     11  C   UNL A   1      42.583  26.724  28.361  1.00  0.00     0.016 A 
ATOM     12  C   UNL A   1      43.080  29.441  28.696  1.00  0.00     0.010 A 
ATOM     13  C   UNL A   1      41.958  27.424  29.398  1.00  0.00     0.010 A 
ATOM     14  C   UNL A   1      42.249  28.778  29.591  1.00  0.00    -0.014 A 
BRANCH  14  15
ATOM     15  C   UNL A   1      41.917  29.462  30.852  1.00  0.00     0.031 A 
ATOM     16  C   UNL A   1      40.639  30.249  30.884  1.00  0.00     0.074 A 
ATOM     17  C   UNL A   1      42.652  29.257  31.956  1.00  0.00     0.049 A 
ATOM     18  N   UNL A   1      40.128  30.965  31.846  1.00  0.00    -0.248 NA
ATOM     19  C   UNL A   1      39.814  30.206  29.661  1.00  0.00     0.031 C 
ATOM     20  C   UNL A   1      43.818  28.374  32.044  1.00  0.00     0.029 A 
ATOM     21  N   UNL A   1      42.508  29.749  33.225  1.00  0.00    -0.354 N 
ATOM     22  C   UNL A   1      38.946  31.489  31.332  1.00  0.00     0.074 A 
ATOM     23  C   UNL A   1      38.814  31.011  29.976  1.00  0.00     0.031 C 
ATOM     24  C   UNL A   1      44.269  28.373  33.310  1.00  0.00     0.029 A 
ATOM     25  C   UNL A   1      43.466  29.299  34.101  1.00  0.00     0.049 A 
ATOM     26  H   UNL A   1      41.785  30.365  33.485  1.00  0.00     0.167 HD
ATOM     27  C   UNL A   1      38.060  32.311  31.939  1.00  0.00     0.031 A 
ATOM     28  C   UNL A   1      43.676  29.634  35.389  1.00  0.00     0.031 A 
ATOM     29  C   UNL A   1      38.238  32.782  33.283  1.00  0.00     0.049 A 
ATOM     30  C   UNL A   1      42.744  30.637  36.013  1.00  0.00     0.074 A 
ATOM     31  C   UNL A   1      37.468  33.678  33.998  1.00  0.00     0.029 A 
ATOM     32  N   UNL A   1      39.278  32.385  34.115  1.00  0.00    -0.354 N 
ATOM     33  N   UNL A   1      41.676  31.202  35.493  1.00  0.00    -0.248 NA
ATOM     34  C   UNL A   1      43.045  31.060  37.384  1.00  0.00     0.031 C 
ATOM     35  C   UNL A   1      38.074  33.861  35.247  1.00  0.00     0.029 A 
ATOM     36  C   UNL A   1      39.184  33.031  35.333  1.00  0.00     0.049 A 
ATOM     37  H   UNL A   1      39.981  31.739  33.873  1.00  0.00     0.167 HD
ATOM     38  C   UNL A   1      41.166  32.034  36.482  1.00  0.00     0.074 A 
ATOM     39  C   UNL A   1      42.037  31.886  37.635  1.00  0.00     0.031 C 
ATOM     40  C   UNL A   1      40.080  32.848  36.449  1.00  0.00     0.031 A 
BRANCH  27  41
ATOM     41  C   UNL A   1      36.914  32.811  31.101  1.00  0.00    -0.014 A 
ATOM     42  C   UNL A   1      35.626  32.252  31.195  1.00  0.00     0.010 A 
ATOM     43  C   UNL A   1      37.156  33.809  30.140  1.00  0.00     0.010 A 
ATOM     44  C   UNL A   1      34.623  32.632  30.297  1.00  0.00     0.020 A 
ATOM     45  C   UNL A   1      36.149  34.212  29.259  1.00  0.00     0.020 A 
ATOM     46  C   UNL A   1      34.896  33.600  29.325  1.00  0.00     0.054 A 
BRANCH  46  47
ATOM     47  S   UNL A   1      33.595  34.043  28.141  1.00  0.00     0.124 S 
ATOM     48  O   UNL A   1      34.334  34.850  27.171  1.00  0.00    -0.237 OA
ATOM     49  O   UNL A   1      33.144  32.741  27.657  1.00  0.00    -0.237 OA
ATOM     50  O   UNL A   1      32.624  34.776  28.949  1.00  0.00    -0.744 OA
ENDBRANCH  46  47
ENDBRANCH  27  41
BRANCH  28  51
ATOM     51  C   UNL A   1      44.826  29.051  36.137  1.00  0.00    -0.014 A 
ATOM     52  C   UNL A   1      44.683  27.862  36.874  1.00  0.00     0.010 A 
ATOM     53  C   UNL A   1      46.090  29.670  36.091  1.00  0.00     0.010 A 
ATOM     54  C   UNL A   1      45.778  27.307  37.548  1.00  0.00     0.020 A 
ATOM     55  C   UNL A   1      47.193  29.105  36.739  1.00  0.00     0.020 A 
ATOM     56  C   UNL A   1      47.028  27.929  37.470  1.00  0.00     0.054 A 
BRANCH  56  57
ATOM     57  S   UNL A   1      48.448  27.153  38.294  1.00  0.00     0.124 S 
ATOM     58  O   UNL A   1      48.910  28.222  39.174  1.00  0.00    -0.237 OA
ATOM     59  O   UNL A   1      47.837  26.005  38.959  1.00  0.00    -0.237 OA
ATOM     60  O   UNL A   1      49.344  26.819  37.190  1.00  0.00    -0.744 OA
ENDBRANCH  56  57
ENDBRANCH  28  51
BRANCH  40  61
ATOM     61  C   UNL A   1      39.756  33.602  37.707  1.00  0.00    -0.014 A 
ATOM     62  C   UNL A   1      39.030  33.001  38.750  1.00  0.00     0.010 A 
ATOM     63  C   UNL A   1      40.254  34.907  37.871  1.00  0.00     0.010 A 
ATOM     64  C   UNL A   1      38.784  33.707  39.929  1.00  0.00     0.020 A 
ATOM     65  C   UNL A   1      40.035  35.604  39.059  1.00  0.00     0.020 A 
ATOM     66  C   UNL A   1      39.290  35.004  40.075  1.00  0.00     0.054 A 
BRANCH  66  67
ATOM     67  S   UNL A   1      39.004  35.879  41.636  1.00  0.00     0.124 S 
ATOM     68  O   UNL A   1      40.114  35.404  42.457  1.00  0.00    -0.237 OA
ATOM     69  O   UNL A   1      39.073  37.282  41.235  1.00  0.00    -0.237 OA
ATOM     70  O   UNL A   1      37.680  35.421  42.052  1.00  0.00    -0.744 OA
ENDBRANCH  66  67
ENDBRANCH  40  61
ENDBRANCH  14  15
ENDBRANCH   7   9
ENDBRANCH   6   7
ENDBRANCH   5   6
ENDBRANCH   4   5
ENDBRANCH   3   4
ENDBRANCH   2   3
ENDBRANCH   1   2
BRANCH   1  71
ATOM     71  O   UNL A   1      41.462  20.960  26.078  1.00  0.00    -0.377 OA
BRANCH  71  72
ATOM     72  C   UNL A   1      40.927  21.672  27.190  1.00  0.00     0.188 C 
BRANCH  72  73
ATOM     73  C   UNL A   1      39.835  22.745  26.956  1.00  0.00     0.188 C 
BRANCH  73  74
ATOM     74  O   UNL A   1      38.858  22.411  25.983  1.00  0.00    -0.376 OA
BRANCH  74  75
ATOM     75  C   UNL A   1      38.056  23.495  25.523  1.00  0.00     0.202 C 
BRANCH  75  76
ATOM     76  C   UNL A   1      36.619  23.464  26.047  1.00  0.00     0.261 C 
BRANCH  76  77
ATOM     77  O   UNL A   1      36.172  22.200  26.575  1.00  0.00    -0.460 OA
BRANCH  77  78
ATOM     78  C   UNL A   1      35.332  21.421  25.857  1.00  0.00     0.338 C 
ATOM     79  O   UNL A   1      35.635  20.480  25.147  1.00  0.00    -0.246 OA
BRANCH  78  80
ATOM     80  C   UNL A   1      33.935  21.804  26.199  1.00  0.00     0.067 A 
ATOM     81  C   UNL A   1      33.644  21.888  27.571  1.00  0.00     0.016 A 
ATOM     82  C   UNL A   1      32.980  22.190  25.230  1.00  0.00    -0.010 A 
ATOM     83  C   UNL A   1      32.440  22.444  27.994  1.00  0.00     0.001 A 
ATOM     84  C   UNL A   1      31.777  22.754  25.681  1.00  0.00     0.009 A 
ATOM     85  C   UNL A   1      31.517  22.889  27.051  1.00  0.00     0.001 A 
BRANCH  82  86
ATOM     86  C   UNL A   1      33.205  22.101  23.769  1.00  0.00     0.030 C 
ATOM     87  C   UNL A   1      33.446  23.153  22.972  1.00  0.00     0.081 C 
ATOM     88  S   UNL A   1      33.266  23.158  21.267  1.00  0.00    -0.054 SA
ATOM     89  C   UNL A   1      33.610  24.553  23.427  1.00  0.00     0.266 C 
ATOM     90  C   UNL A   1      32.843  24.888  21.262  1.00  0.00     0.148 C 
ATOM     91  N   UNL A   1      32.987  25.407  22.533  1.00  0.00    -0.290 N 
ATOM     92  O   UNL A   1      34.218  24.862  24.443  1.00  0.00    -0.268 OA
ATOM     93  S   UNL A   1      32.369  25.631  19.849  1.00  0.00    -0.052 S 
BRANCH  91  94
ATOM     94  C   UNL A   1      32.678  26.754  23.032  1.00  0.00     0.092 C 
ATOM     95  C   UNL A   1      33.754  27.795  22.774  1.00  0.00     0.025 C 
ATOM     96  C   UNL A   1      31.372  27.417  22.577  1.00  0.00     0.025 C 
ATOM     97  C   UNL A   1      33.062  29.085  23.192  1.00  0.00     0.002 C 
ATOM     98  C   UNL A   1      31.605  28.919  22.764  1.00  0.00     0.002 C 
ENDBRANCH  91  94
ENDBRANCH  82  86
ENDBRANCH  78  80
ENDBRANCH  77  78
ENDBRANCH  76  77
ENDBRANCH  75  76
ENDBRANCH  74  75
ENDBRANCH  73  74
ENDBRANCH  72  73
ENDBRANCH  71  72
ENDBRANCH   1  71
TORSDOF 25
ENDMDL
MODEL 3
REMARK VINA RESULT:      -8.7      1.256      7.917
REMARK SMILES O=C(OCCOCCOCCOCCOC(=O)c1ccccc1/C=C1/SC(=S)N(C2CCCC2)C1=O)c1ccc(-c2c3nc(c(-c4ccc(S(=O)(=O)[O-])cc4)c4ccc([nH]4)c(-c4ccc(S(=O)(=O)[O-])cc4)c4nc(c(-c5ccc(S(=O)(=O)[O-])cc5)c5ccc2[nH]5)C=C4)C=C3)cc1
REMARK SMILES IDX 8 1 7 2 6 3 5 4 4 5 3 6 2 7 1 8 37 9 38 10 96 11 39 12 95 13
REMARK SMILES IDX 40 14 41 15 42 16 89 17 43 18 94 19 88 20 90 21 44 22 93 23
REMARK SMILES IDX 87 24 86 25 45 27 75 28 56 29 74 30 57 31 60 32 73 33 91 34
REMARK SMILES IDX 58 35 59 36 72 38 92 39 61 40 46 41 47 42 55 43 48 44 54 45
REMARK SMILES IDX 49 46 50 47 51 48 52 49 53 50 76 51 77 52 85 53 78 54 84 55
REMARK SMILES IDX 79 56 80 57 81 58 82 59 83 60 62 61 63 62 71 63 64 64 70 65
REMARK SMILES IDX 65 66 66 67 67 68 68 69 69 70 9 71 10 72 11 73 12 74 13 75
REMARK SMILES IDX 14 76 15 77 16 78 17 79 18 80 19 81 23 82 20 83 22 84 21 85
REMARK SMILES IDX 24 86 25 87 26 88 35 89 27 90 29 91 36 92 28 93 30 94 31 95
REMARK SMILES IDX 34 96 32 97 33 98
REMARK H PARENT 90 26 60 37
REMARK Flexibility Score: inf
ROOT
ATOM      1  C   UNL A   1      42.227  21.550  27.452  1.00  0.00     0.188 C 
ENDROOT
BRANCH   1   2
ATOM      2  C   UNL A   1      42.814  21.684  26.048  1.00  0.00     0.188 C 
BRANCH   2   3
ATOM      3  O   UNL A   1      44.227  21.871  26.118  1.00  0.00    -0.376 OA
BRANCH   3   4
ATOM      4  C   UNL A   1      44.953  21.584  24.925  1.00  0.00     0.202 C 
BRANCH   4   5
ATOM      5  C   UNL A   1      45.870  22.723  24.487  1.00  0.00     0.261 C 
BRANCH   5   6
ATOM      6  O   UNL A   1      45.594  23.931  25.207  1.00  0.00    -0.460 OA
BRANCH   6   7
ATOM      7  C   UNL A   1      46.322  24.477  26.214  1.00  0.00     0.338 C 
ATOM      8  O   UNL A   1      46.984  23.714  26.919  1.00  0.00    -0.246 OA
BRANCH   7   9
ATOM      9  C   UNL A   1      46.404  25.946  26.513  1.00  0.00     0.060 A 
ATOM     10  C   UNL A   1      47.086  26.540  27.579  1.00  0.00     0.016 A 
ATOM     11  C   UNL A   1      45.765  26.800  25.595  1.00  0.00     0.016 A 
ATOM     12  C   UNL A   1      47.073  27.914  27.784  1.00  0.00     0.010 A 
ATOM     13  C   UNL A   1      45.752  28.185  25.783  1.00  0.00     0.010 A 
ATOM     14  C   UNL A   1      46.370  28.735  26.910  1.00  0.00    -0.014 A 
BRANCH  14  15
ATOM     15  C   UNL A   1      46.085  30.112  27.347  1.00  0.00     0.031 A 
ATOM     16  C   UNL A   1      44.833  30.328  28.146  1.00  0.00     0.074 A 
ATOM     17  C   UNL A   1      46.988  31.089  27.165  1.00  0.00     0.049 A 
ATOM     18  N   UNL A   1      44.333  31.433  28.625  1.00  0.00    -0.248 NA
ATOM     19  C   UNL A   1      44.043  29.122  28.461  1.00  0.00     0.031 C 
ATOM     20  C   UNL A   1      48.303  30.919  26.541  1.00  0.00     0.029 A 
ATOM     21  N   UNL A   1      46.954  32.410  27.520  1.00  0.00    -0.354 N 
ATOM     22  C   UNL A   1      43.153  31.061  29.261  1.00  0.00     0.074 A 
ATOM     23  C   UNL A   1      43.010  29.633  29.109  1.00  0.00     0.031 C 
ATOM     24  C   UNL A   1      48.957  32.093  26.577  1.00  0.00     0.029 A 
ATOM     25  C   UNL A   1      48.086  33.104  27.166  1.00  0.00     0.049 A 
ATOM     26  H   UNL A   1      46.191  32.823  27.985  1.00  0.00     0.167 HD
ATOM     27  C   UNL A   1      42.262  31.852  29.901  1.00  0.00     0.031 A 
ATOM     28  C   UNL A   1      48.360  34.417  27.285  1.00  0.00     0.031 A 
ATOM     29  C   UNL A   1      42.429  33.273  30.013  1.00  0.00     0.049 A 
ATOM     30  C   UNL A   1      47.305  35.299  27.900  1.00  0.00     0.074 A 
ATOM     31  C   UNL A   1      41.573  34.208  30.561  1.00  0.00     0.029 A 
ATOM     32  N   UNL A   1      43.545  33.964  29.554  1.00  0.00    -0.354 N 
ATOM     33  N   UNL A   1      46.148  34.957  28.421  1.00  0.00    -0.248 NA
ATOM     34  C   UNL A   1      47.582  36.739  27.933  1.00  0.00     0.031 C 
ATOM     35  C   UNL A   1      42.150  35.471  30.386  1.00  0.00     0.029 A 
ATOM     36  C   UNL A   1      43.395  35.317  29.788  1.00  0.00     0.049 A 
ATOM     37  H   UNL A   1      44.328  33.550  29.124  1.00  0.00     0.167 HD
ATOM     38  C   UNL A   1      45.565  36.138  28.862  1.00  0.00     0.074 A 
ATOM     39  C   UNL A   1      46.506  37.201  28.558  1.00  0.00     0.031 C 
ATOM     40  C   UNL A   1      44.364  36.335  29.464  1.00  0.00     0.031 A 
BRANCH  27  41
ATOM     41  C   UNL A   1      41.009  31.190  30.409  1.00  0.00    -0.014 A 
ATOM     42  C   UNL A   1      39.863  31.052  29.603  1.00  0.00     0.010 A 
ATOM     43  C   UNL A   1      40.954  30.771  31.751  1.00  0.00     0.010 A 
ATOM     44  C   UNL A   1      38.668  30.573  30.150  1.00  0.00     0.020 A 
ATOM     45  C   UNL A   1      39.769  30.266  32.293  1.00  0.00     0.020 A 
ATOM     46  C   UNL A   1      38.625  30.197  31.496  1.00  0.00     0.054 A 
BRANCH  46  47
ATOM     47  S   UNL A   1      37.052  29.624  32.196  1.00  0.00     0.124 S 
ATOM     48  O   UNL A   1      36.620  30.792  32.960  1.00  0.00    -0.237 OA
ATOM     49  O   UNL A   1      36.260  29.327  31.006  1.00  0.00    -0.237 OA
ATOM     50  O   UNL A   1      37.430  28.462  32.995  1.00  0.00    -0.744 OA
ENDBRANCH  46  47
ENDBRANCH  27  41
BRANCH  28  51
ATOM     51  C   UNL A   1      49.650  34.963  26.777  1.00  0.00    -0.014 A 
ATOM     52  C   UNL A   1      50.740  35.169  27.641  1.00  0.00     0.010 A 
ATOM     53  C   UNL A   1      49.807  35.254  25.408  1.00  0.00     0.010 A 
ATOM     54  C   UNL A   1      51.958  35.654  27.147  1.00  0.00     0.020 A 
ATOM     55  C   UNL A   1      51.029  35.712  24.905  1.00  0.00     0.020 A 
ATOM     56  C   UNL A   1      52.096  35.915  25.780  1.00  0.00     0.054 A 
BRANCH  56  57
ATOM     57  S   UNL A   1      53.704  36.477  25.152  1.00  0.00     0.124 S 
ATOM     58  O   UNL A   1      54.161  37.353  26.225  1.00  0.00    -0.237 OA
ATOM     59  O   UNL A   1      54.439  35.223  25.003  1.00  0.00    -0.237 OA
ATOM     60  O   UNL A   1      53.368  37.145  23.897  1.00  0.00    -0.744 OA
ENDBRANCH  56  57
ENDBRANCH  28  51
BRANCH  40  61
ATOM     61  C   UNL A   1      44.027  37.742  29.866  1.00  0.00    -0.014 A 
ATOM     62  C   UNL A   1      43.187  38.545  29.076  1.00  0.00     0.010 A 
ATOM     63  C   UNL A   1      44.503  38.236  31.095  1.00  0.00     0.010 A 
ATOM     64  C   UNL A   1      42.850  39.833  29.497  1.00  0.00     0.020 A 
ATOM     65  C   UNL A   1      44.145  39.510  31.532  1.00  0.00     0.020 A 
ATOM     66  C   UNL A   1      43.331  40.306  30.724  1.00  0.00     0.054 A 
BRANCH  66  67
ATOM     67  S   UNL A   1      42.835  41.959  31.275  1.00  0.00     0.124 S 
ATOM     68  O   UNL A   1      41.552  42.131  30.600  1.00  0.00    -0.237 OA
ATOM     69  O   UNL A   1      42.770  41.808  32.725  1.00  0.00    -0.237 OA
ATOM     70  O   UNL A   1      43.913  42.822  30.792  1.00  0.00    -0.744 OA
ENDBRANCH  66  67
ENDBRANCH  40  61
ENDBRANCH  14  15
ENDBRANCH   7   9
ENDBRANCH   6   7
ENDBRANCH   5   6
ENDBRANCH   4   5
ENDBRANCH   3   4
ENDBRANCH   2   3
ENDBRANCH   1   2
BRANCH   1  71
ATOM     71  O   UNL A   1      41.022  20.791  27.528  1.00  0.00    -0.377 OA
BRANCH  71  72
ATOM     72  C   UNL A   1      40.446  20.379  26.292  1.00  0.00     0.188 C 
BRANCH  72  73
ATOM     73  C   UNL A   1      39.061  20.934  25.873  1.00  0.00     0.188 C 
BRANCH  73  74
ATOM     74  O   UNL A   1      38.793  22.265  26.285  1.00  0.00    -0.376 OA
BRANCH  74  75
ATOM     75  C   UNL A   1      38.045  23.052  25.364  1.00  0.00     0.202 C 
BRANCH  75  76
ATOM     76  C   UNL A   1      36.765  23.645  25.957  1.00  0.00     0.261 C 
BRANCH  76  77
ATOM     77  O   UNL A   1      35.795  24.121  25.004  1.00  0.00    -0.460 OA
BRANCH  77  78
ATOM     78  C   UNL A   1      34.965  23.251  24.386  1.00  0.00     0.338 C 
ATOM     79  O   UNL A   1      35.200  22.605  23.381  1.00  0.00    -0.246 OA
BRANCH  78  80
ATOM     80  C   UNL A   1      33.750  23.087  25.229  1.00  0.00     0.067 A 
ATOM     81  C   UNL A   1      33.954  22.488  26.483  1.00  0.00     0.016 A 
ATOM     82  C   UNL A   1      32.485  23.608  24.872  1.00  0.00    -0.010 A 
ATOM     83  C   UNL A   1      32.932  22.486  27.428  1.00  0.00     0.001 A 
ATOM     84  C   UNL A   1      31.473  23.601  25.843  1.00  0.00     0.009 A 
ATOM     85  C   UNL A   1      31.700  23.055  27.113  1.00  0.00     0.001 A 
BRANCH  82  86
ATOM     86  C   UNL A   1      32.188  24.225  23.559  1.00  0.00     0.030 C 
ATOM     87  C   UNL A   1      32.199  25.546  23.320  1.00  0.00     0.081 C 
ATOM     88  S   UNL A   1      31.444  26.311  21.984  1.00  0.00    -0.054 SA
ATOM     89  C   UNL A   1      32.587  26.590  24.296  1.00  0.00     0.266 C 
ATOM     90  C   UNL A   1      31.142  27.789  22.931  1.00  0.00     0.148 C 
ATOM     91  N   UNL A   1      31.744  27.680  24.169  1.00  0.00    -0.290 N 
ATOM     92  O   UNL A   1      33.523  26.466  25.074  1.00  0.00    -0.268 OA
ATOM     93  S   UNL A   1      30.253  29.037  22.278  1.00  0.00    -0.052 S 
BRANCH  91  94
ATOM     94  C   UNL A   1      31.701  28.603  25.312  1.00  0.00     0.092 C 
ATOM     95  C   UNL A   1      31.586  27.933  26.671  1.00  0.00     0.025 C 
ATOM     96  C   UNL A   1      32.837  29.621  25.470  1.00  0.00     0.025 C 
ATOM     97  C   UNL A   1      31.787  29.102  27.625  1.00  0.00     0.002 C 
ATOM     98  C   UNL A   1      32.827  29.997  26.954  1.00  0.00     0.002 C 
ENDBRANCH  91  94
ENDBRANCH  82  86
ENDBRANCH  78  80
ENDBRANCH  77  78
ENDBRANCH  76  77
ENDBRANCH  75  76
ENDBRANCH  74  75
ENDBRANCH  73  74
ENDBRANCH  72  73
ENDBRANCH  71  72
ENDBRANCH   1  71
TORSDOF 25
ENDMDL
