MODEL 1
REMARK VINA RESULT:      -9.6      0.000      0.000
REMARK SMILES Cc1ccc(NC(=O)N2CCCC[C@@H]2C(=O)OCCOCCOCCOCCOC(=O)c2ccc(-c3c4nc(c(-c5ccc(S(=O)(=O)[O-])cc5)c5ccc([nH]5)c(-c5ccc(S(=O)(=O)[O-])cc5)c5nc(c(-c6ccc(S(=O)(=O)[O-])cc6)c6ccc3[nH]6)C=C5)C=C4)cc2)cc1
REMARK SMILES IDX 24 1 23 2 22 3 21 4 20 5 19 6 18 7 17 8 15 9 16 10 14 11
REMARK SMILES IDX 9 12 10 13 11 14 13 15 12 16 7 17 6 18 8 20 5 21 1 22 2 23
REMARK SMILES IDX 3 24 93 25 4 26 92 27 25 28 26 29 27 30 28 31 29 32 30 33
REMARK SMILES IDX 31 34 32 35 33 36 91 37 34 38 90 39 35 40 36 41 37 42 84 43
REMARK SMILES IDX 38 44 89 45 83 46 85 47 39 48 88 49 82 50 81 51 40 53 70 54
REMARK SMILES IDX 51 55 69 56 52 57 55 58 68 59 86 60 53 61 54 62 67 64 87 65
REMARK SMILES IDX 56 66 41 67 42 68 50 69 43 70 49 71 44 72 45 73 46 74 47 75
REMARK SMILES IDX 48 76 71 77 72 78 80 79 73 80 79 81 74 82 75 83 76 84 77 85
REMARK SMILES IDX 78 86 57 87 58 88 66 89 59 90 65 91 60 92 61 93 62 94 63 95
REMARK SMILES IDX 64 96
REMARK H PARENT 6 19 85 52 55 63
REMARK Flexibility Score: inf
ROOT
ATOM      1  C   UNL A   1      38.759  22.079  26.174  1.00  0.00     0.188 C 
ENDROOT
BRANCH   1   2
ATOM      2  O   UNL A   1      37.856  22.616  25.227  1.00  0.00    -0.377 OA
BRANCH   2   3
ATOM      3  C   UNL A   1      36.535  22.824  25.676  1.00  0.00     0.188 C 
BRANCH   3   4
ATOM      4  C   UNL A   1      35.510  21.669  25.557  1.00  0.00     0.188 C 
BRANCH   4   5
ATOM      5  O   UNL A   1      34.594  21.302  26.582  1.00  0.00    -0.376 OA
BRANCH   5   6
ATOM      6  C   UNL A   1      33.224  21.650  26.511  1.00  0.00     0.202 C 
BRANCH   6   7
ATOM      7  C   UNL A   1      32.783  23.091  26.685  1.00  0.00     0.261 C 
BRANCH   7   8
ATOM      8  O   UNL A   1      32.210  23.648  25.486  1.00  0.00    -0.462 OA
BRANCH   8   9
ATOM      9  C   UNL A   1      31.555  24.771  25.737  1.00  0.00     0.329 C 
ATOM     10  O   UNL A   1      31.378  25.207  26.876  1.00  0.00    -0.250 OA
BRANCH   9  11
ATOM     11  C   UNL A   1      30.964  25.558  24.638  1.00  0.00     0.196 C 
ATOM     12  N   UNL A   1      31.787  26.530  23.946  1.00  0.00    -0.311 N 
ATOM     13  C   UNL A   1      31.094  27.241  22.872  1.00  0.00     0.122 C 
ATOM     14  C   UNL A   1      29.616  27.595  23.125  1.00  0.00     0.022 C 
ATOM     15  C   UNL A   1      29.620  26.132  25.108  1.00  0.00     0.037 C 
ATOM     16  C   UNL A   1      28.833  26.521  23.869  1.00  0.00     0.005 C 
BRANCH  12  17
ATOM     17  C   UNL A   1      33.162  26.619  23.989  1.00  0.00     0.322 C 
ATOM     18  N   UNL A   1      33.839  27.663  24.546  1.00  0.00    -0.308 N 
ATOM     19  H   UNL A   1      34.685  27.837  24.072  1.00  0.00     0.171 HD
ATOM     20  O   UNL A   1      33.841  25.763  23.407  1.00  0.00    -0.248 OA
BRANCH  18  21
ATOM     21  C   UNL A   1      33.655  28.567  25.628  1.00  0.00     0.042 A 
ATOM     22  C   UNL A   1      34.098  31.998  28.257  1.00  0.00     0.044 C 
ATOM     23  C   UNL A   1      33.852  30.743  27.462  1.00  0.00    -0.051 A 
ATOM     24  C   UNL A   1      32.727  30.581  26.635  1.00  0.00     0.005 A 
ATOM     25  C   UNL A   1      34.801  29.727  27.460  1.00  0.00     0.005 A 
ATOM     26  C   UNL A   1      32.617  29.488  25.738  1.00  0.00     0.026 A 
ATOM     27  C   UNL A   1      34.673  28.630  26.590  1.00  0.00     0.026 A 
ENDBRANCH  18  21
ENDBRANCH  12  17
ENDBRANCH   9  11
ENDBRANCH   8   9
ENDBRANCH   7   8
ENDBRANCH   6   7
ENDBRANCH   5   6
ENDBRANCH   4   5
ENDBRANCH   3   4
ENDBRANCH   2   3
ENDBRANCH   1   2
BRANCH   1  28
ATOM     28  C   UNL A   1      40.046  22.877  26.418  1.00  0.00     0.188 C 
BRANCH  28  29
ATOM     29  O   UNL A   1      39.888  24.269  26.606  1.00  0.00    -0.376 OA
BRANCH  29  30
ATOM     30  C   UNL A   1      39.088  24.595  27.735  1.00  0.00     0.202 C 
BRANCH  30  31
ATOM     31  C   UNL A   1      39.343  25.932  28.516  1.00  0.00     0.261 C 
BRANCH  31  32
ATOM     32  O   UNL A   1      38.671  27.146  28.029  1.00  0.00    -0.460 OA
BRANCH  32  33
ATOM     33  C   UNL A   1      38.734  28.271  28.827  1.00  0.00     0.338 C 
ATOM     34  O   UNL A   1      37.924  28.475  29.725  1.00  0.00    -0.246 OA
BRANCH  33  35
ATOM     35  C   UNL A   1      39.612  29.416  28.265  1.00  0.00     0.060 A 
ATOM     36  C   UNL A   1      40.109  29.274  26.972  1.00  0.00     0.016 A 
ATOM     37  C   UNL A   1      40.456  30.112  29.112  1.00  0.00     0.016 A 
ATOM     38  C   UNL A   1      41.480  29.307  26.695  1.00  0.00     0.010 A 
ATOM     39  C   UNL A   1      41.838  30.001  28.923  1.00  0.00     0.010 A 
ATOM     40  C   UNL A   1      42.357  29.439  27.753  1.00  0.00    -0.014 A 
BRANCH  40  41
ATOM     41  C   UNL A   1      43.677  28.751  27.773  1.00  0.00     0.031 A 
ATOM     42  C   UNL A   1      43.731  27.247  27.899  1.00  0.00     0.074 A 
ATOM     43  C   UNL A   1      44.727  29.516  27.333  1.00  0.00     0.049 A 
ATOM     44  N   UNL A   1      44.802  26.532  27.957  1.00  0.00    -0.248 NA
ATOM     45  C   UNL A   1      42.545  26.386  27.844  1.00  0.00     0.031 C 
ATOM     46  C   UNL A   1      46.089  29.175  26.890  1.00  0.00     0.029 A 
ATOM     47  N   UNL A   1      44.767  30.913  27.249  1.00  0.00    -0.354 N 
ATOM     48  C   UNL A   1      44.504  25.215  27.588  1.00  0.00     0.074 A 
ATOM     49  C   UNL A   1      43.065  25.175  27.600  1.00  0.00     0.031 C 
ATOM     50  C   UNL A   1      46.841  30.279  26.715  1.00  0.00     0.029 A 
ATOM     51  C   UNL A   1      46.103  31.334  27.354  1.00  0.00     0.049 A 
ATOM     52  H   UNL A   1      43.987  31.503  27.134  1.00  0.00     0.167 HD
ATOM     53  C   UNL A   1      45.515  24.367  27.184  1.00  0.00     0.031 A 
ATOM     54  C   UNL A   1      46.493  31.830  28.571  1.00  0.00     0.031 A 
ATOM     55  C   UNL A   1      46.848  25.003  27.385  1.00  0.00     0.049 A 
ATOM     56  C   UNL A   1      47.319  30.717  29.354  1.00  0.00     0.074 A 
ATOM     57  C   UNL A   1      48.055  25.080  26.710  1.00  0.00     0.029 A 
ATOM     58  N   UNL A   1      47.021  25.858  28.482  1.00  0.00    -0.354 N 
ATOM     59  N   UNL A   1      47.178  29.402  29.230  1.00  0.00    -0.248 NA
ATOM     60  C   UNL A   1      48.543  31.016  30.104  1.00  0.00     0.031 C 
ATOM     61  C   UNL A   1      48.813  26.163  27.260  1.00  0.00     0.029 A 
ATOM     62  C   UNL A   1      48.143  26.644  28.380  1.00  0.00     0.049 A 
ATOM     63  H   UNL A   1      46.402  25.891  29.247  1.00  0.00     0.167 HD
ATOM     64  C   UNL A   1      48.280  28.722  29.731  1.00  0.00     0.074 A 
ATOM     65  C   UNL A   1      49.073  29.792  30.317  1.00  0.00     0.031 C 
ATOM     66  C   UNL A   1      48.600  27.385  29.557  1.00  0.00     0.031 A 
BRANCH  53  67
ATOM     67  C   UNL A   1      45.336  23.019  26.417  1.00  0.00    -0.014 A 
ATOM     68  C   UNL A   1      44.163  22.242  26.599  1.00  0.00     0.010 A 
ATOM     69  C   UNL A   1      46.294  22.409  25.572  1.00  0.00     0.010 A 
ATOM     70  C   UNL A   1      43.988  20.943  26.064  1.00  0.00     0.020 A 
ATOM     71  C   UNL A   1      46.115  21.124  24.986  1.00  0.00     0.020 A 
ATOM     72  C   UNL A   1      44.968  20.384  25.257  1.00  0.00     0.054 A 
BRANCH  72  73
ATOM     73  S   UNL A   1      44.699  18.729  24.539  1.00  0.00     0.124 S 
ATOM     74  O   UNL A   1      44.723  18.997  23.103  1.00  0.00    -0.237 OA
ATOM     75  O   UNL A   1      45.834  17.967  25.052  1.00  0.00    -0.237 OA
ATOM     76  O   UNL A   1      43.398  18.326  25.070  1.00  0.00    -0.744 OA
ENDBRANCH  72  73
ENDBRANCH  53  67
BRANCH  54  77
ATOM     77  C   UNL A   1      45.476  32.913  28.963  1.00  0.00    -0.014 A 
ATOM     78  C   UNL A   1      45.635  34.194  28.327  1.00  0.00     0.010 A 
ATOM     79  C   UNL A   1      44.208  32.672  29.507  1.00  0.00     0.010 A 
ATOM     80  C   UNL A   1      44.562  35.087  28.084  1.00  0.00     0.020 A 
ATOM     81  C   UNL A   1      43.133  33.602  29.319  1.00  0.00     0.020 A 
ATOM     82  C   UNL A   1      43.295  34.773  28.554  1.00  0.00     0.054 A 
BRANCH  82  83
ATOM     83  S   UNL A   1      41.873  35.926  28.229  1.00  0.00     0.124 S 
ATOM     84  O   UNL A   1      40.776  35.320  28.977  1.00  0.00    -0.237 OA
ATOM     85  O   UNL A   1      42.298  37.232  28.727  1.00  0.00    -0.237 OA
ATOM     86  O   UNL A   1      41.748  35.864  26.775  1.00  0.00    -0.744 OA
ENDBRANCH  82  83
ENDBRANCH  54  77
BRANCH  66  87
ATOM     87  C   UNL A   1      49.404  26.493  30.528  1.00  0.00    -0.014 A 
ATOM     88  C   UNL A   1      48.869  25.637  31.488  1.00  0.00     0.010 A 
ATOM     89  C   UNL A   1      50.823  26.396  30.344  1.00  0.00     0.010 A 
ATOM     90  C   UNL A   1      49.688  24.733  32.195  1.00  0.00     0.020 A 
ATOM     91  C   UNL A   1      51.641  25.485  31.010  1.00  0.00     0.020 A 
ATOM     92  C   UNL A   1      51.060  24.647  31.937  1.00  0.00     0.054 A 
BRANCH  92  93
ATOM     93  S   UNL A   1      52.057  23.394  32.772  1.00  0.00     0.124 S 
ATOM     94  O   UNL A   1      51.578  22.162  32.151  1.00  0.00    -0.237 OA
ATOM     95  O   UNL A   1      53.416  23.793  32.416  1.00  0.00    -0.237 OA
ATOM     96  O   UNL A   1      51.716  23.551  34.184  1.00  0.00    -0.744 OA
ENDBRANCH  92  93
ENDBRANCH  66  87
ENDBRANCH  40  41
ENDBRANCH  33  35
ENDBRANCH  32  33
ENDBRANCH  31  32
ENDBRANCH  30  31
ENDBRANCH  29  30
ENDBRANCH  28  29
ENDBRANCH   1  28
TORSDOF 25
ENDMDL
MODEL 2
REMARK VINA RESULT:      -9.5      2.799      4.946
REMARK SMILES Cc1ccc(NC(=O)N2CCCC[C@@H]2C(=O)OCCOCCOCCOCCOC(=O)c2ccc(-c3c4nc(c(-c5ccc(S(=O)(=O)[O-])cc5)c5ccc([nH]5)c(-c5ccc(S(=O)(=O)[O-])cc5)c5nc(c(-c6ccc(S(=O)(=O)[O-])cc6)c6ccc3[nH]6)C=C5)C=C4)cc2)cc1
REMARK SMILES IDX 24 1 23 2 22 3 21 4 20 5 19 6 18 7 17 8 15 9 16 10 14 11
REMARK SMILES IDX 9 12 10 13 11 14 13 15 12 16 7 17 6 18 8 20 5 21 1 22 2 23
REMARK SMILES IDX 3 24 93 25 4 26 92 27 25 28 26 29 27 30 28 31 29 32 30 33
REMARK SMILES IDX 31 34 32 35 33 36 91 37 34 38 90 39 35 40 36 41 37 42 84 43
REMARK SMILES IDX 38 44 89 45 83 46 85 47 39 48 88 49 82 50 81 51 40 53 70 54
REMARK SMILES IDX 51 55 69 56 52 57 55 58 68 59 86 60 53 61 54 62 67 64 87 65
REMARK SMILES IDX 56 66 41 67 42 68 50 69 43 70 49 71 44 72 45 73 46 74 47 75
REMARK SMILES IDX 48 76 71 77 72 78 80 79 73 80 79 81 74 82 75 83 76 84 77 85
REMARK SMILES IDX 78 86 57 87 58 88 66 89 59 90 65 91 60 92 61 93 62 94 63 95
REMARK SMILES IDX 64 96
REMARK H PARENT 6 19 85 52 55 63
REMARK Flexibility Score: inf
ROOT
ATOM      1  C   UNL A   1      32.880  29.946  26.028  1.00  0.00     0.188 C 
ENDROOT
BRANCH   1   2
ATOM      2  O   UNL A   1      32.381  28.624  25.959  1.00  0.00    -0.377 OA
BRANCH   2   3
ATOM      3  C   UNL A   1      31.972  28.179  24.684  1.00  0.00     0.188 C 
BRANCH   3   4
ATOM      4  C   UNL A   1      32.652  26.929  24.071  1.00  0.00     0.188 C 
BRANCH   4   5
ATOM      5  O   UNL A   1      32.165  26.230  22.932  1.00  0.00    -0.376 OA
BRANCH   5   6
ATOM      6  C   UNL A   1      33.041  25.733  21.937  1.00  0.00     0.202 C 
BRANCH   6   7
ATOM      7  C   UNL A   1      33.135  24.244  21.663  1.00  0.00     0.261 C 
BRANCH   7   8
ATOM      8  O   UNL A   1      33.951  23.550  22.626  1.00  0.00    -0.462 OA
BRANCH   8   9
ATOM      9  C   UNL A   1      33.229  22.731  23.375  1.00  0.00     0.329 C 
ATOM     10  O   UNL A   1      32.455  21.895  22.904  1.00  0.00    -0.250 OA
BRANCH   9  11
ATOM     11  C   UNL A   1      33.295  22.802  24.847  1.00  0.00     0.196 C 
ATOM     12  N   UNL A   1      33.950  21.734  25.575  1.00  0.00    -0.311 N 
ATOM     13  C   UNL A   1      33.960  21.920  27.025  1.00  0.00     0.122 C 
ATOM     14  C   UNL A   1      32.698  22.549  27.646  1.00  0.00     0.022 C 
ATOM     15  C   UNL A   1      31.897  23.133  25.390  1.00  0.00     0.037 C 
ATOM     16  C   UNL A   1      32.071  23.654  26.805  1.00  0.00     0.005 C 
BRANCH  12  17
ATOM     17  C   UNL A   1      34.790  20.777  25.048  1.00  0.00     0.322 C 
ATOM     18  N   UNL A   1      36.080  21.018  24.678  1.00  0.00    -0.308 N 
ATOM     19  H   UNL A   1      36.343  20.463  23.907  1.00  0.00     0.171 HD
ATOM     20  O   UNL A   1      34.340  19.651  24.795  1.00  0.00    -0.248 OA
BRANCH  18  21
ATOM     21  C   UNL A   1      37.148  21.853  25.104  1.00  0.00     0.042 A 
ATOM     22  C   UNL A   1      39.651  24.413  27.566  1.00  0.00     0.044 C 
ATOM     23  C   UNL A   1      38.877  23.570  26.588  1.00  0.00    -0.051 A 
ATOM     24  C   UNL A   1      39.256  22.258  26.257  1.00  0.00     0.005 A 
ATOM     25  C   UNL A   1      37.692  24.052  26.044  1.00  0.00     0.005 A 
ATOM     26  C   UNL A   1      38.407  21.410  25.500  1.00  0.00     0.026 A 
ATOM     27  C   UNL A   1      36.867  23.217  25.270  1.00  0.00     0.026 A 
ENDBRANCH  18  21
ENDBRANCH  12  17
ENDBRANCH   9  11
ENDBRANCH   8   9
ENDBRANCH   7   8
ENDBRANCH   6   7
ENDBRANCH   5   6
ENDBRANCH   4   5
ENDBRANCH   3   4
ENDBRANCH   2   3
ENDBRANCH   1   2
BRANCH   1  28
ATOM     28  C   UNL A   1      33.539  30.358  27.350  1.00  0.00     0.188 C 
BRANCH  28  29
ATOM     29  O   UNL A   1      34.748  31.083  27.242  1.00  0.00    -0.376 OA
BRANCH  29  30
ATOM     30  C   UNL A   1      35.838  30.456  27.906  1.00  0.00     0.202 C 
BRANCH  30  31
ATOM     31  C   UNL A   1      36.934  31.332  28.609  1.00  0.00     0.261 C 
BRANCH  31  32
ATOM     32  O   UNL A   1      38.177  30.665  29.025  1.00  0.00    -0.460 OA
BRANCH  32  33
ATOM     33  C   UNL A   1      38.399  30.522  30.381  1.00  0.00     0.338 C 
ATOM     34  O   UNL A   1      38.490  31.491  31.128  1.00  0.00    -0.246 OA
BRANCH  33  35
ATOM     35  C   UNL A   1      38.918  29.128  30.810  1.00  0.00     0.060 A 
ATOM     36  C   UNL A   1      40.029  29.083  31.648  1.00  0.00     0.016 A 
ATOM     37  C   UNL A   1      38.845  28.067  29.925  1.00  0.00     0.016 A 
ATOM     38  C   UNL A   1      41.202  28.408  31.292  1.00  0.00     0.010 A 
ATOM     39  C   UNL A   1      40.035  27.508  29.447  1.00  0.00     0.010 A 
ATOM     40  C   UNL A   1      41.260  27.812  30.048  1.00  0.00    -0.014 A 
BRANCH  40  41
ATOM     41  C   UNL A   1      42.516  27.777  29.250  1.00  0.00     0.031 A 
ATOM     42  C   UNL A   1      43.206  26.457  29.003  1.00  0.00     0.074 A 
ATOM     43  C   UNL A   1      42.759  28.912  28.517  1.00  0.00     0.049 A 
ATOM     44  N   UNL A   1      44.309  26.290  28.356  1.00  0.00    -0.248 NA
ATOM     45  C   UNL A   1      42.628  25.160  29.371  1.00  0.00     0.031 C 
ATOM     46  C   UNL A   1      43.659  29.190  27.386  1.00  0.00     0.029 A 
ATOM     47  N   UNL A   1      42.203  30.179  28.728  1.00  0.00    -0.354 N 
ATOM     48  C   UNL A   1      44.393  24.965  27.914  1.00  0.00     0.074 A 
ATOM     49  C   UNL A   1      43.347  24.294  28.642  1.00  0.00     0.031 C 
ATOM     50  C   UNL A   1      43.694  30.506  27.098  1.00  0.00     0.029 A 
ATOM     51  C   UNL A   1      43.090  31.150  28.233  1.00  0.00     0.049 A 
ATOM     52  H   UNL A   1      41.334  30.360  29.153  1.00  0.00     0.167 HD
ATOM     53  C   UNL A   1      45.249  24.635  26.883  1.00  0.00     0.031 A 
ATOM     54  C   UNL A   1      43.855  31.809  29.159  1.00  0.00     0.031 A 
ATOM     55  C   UNL A   1      46.103  25.801  26.514  1.00  0.00     0.049 A 
ATOM     56  C   UNL A   1      45.326  31.202  29.156  1.00  0.00     0.074 A 
ATOM     57  C   UNL A   1      46.599  26.378  25.358  1.00  0.00     0.029 A 
ATOM     58  N   UNL A   1      46.503  26.681  27.528  1.00  0.00    -0.354 N 
ATOM     59  N   UNL A   1      45.661  29.956  28.840  1.00  0.00    -0.248 NA
ATOM     60  C   UNL A   1      46.531  32.035  29.229  1.00  0.00     0.031 C 
ATOM     61  C   UNL A   1      47.045  27.703  25.669  1.00  0.00     0.029 A 
ATOM     62  C   UNL A   1      46.976  27.878  27.047  1.00  0.00     0.049 A 
ATOM     63  H   UNL A   1      46.450  26.465  28.488  1.00  0.00     0.167 HD
ATOM     64  C   UNL A   1      47.016  29.849  28.555  1.00  0.00     0.074 A 
ATOM     65  C   UNL A   1      47.513  31.178  28.876  1.00  0.00     0.031 C 
ATOM     66  C   UNL A   1      47.675  28.785  27.960  1.00  0.00     0.031 A 
BRANCH  53  67
ATOM     67  C   UNL A   1      45.216  23.321  26.041  1.00  0.00    -0.014 A 
ATOM     68  C   UNL A   1      44.019  22.566  25.940  1.00  0.00     0.010 A 
ATOM     69  C   UNL A   1      46.322  22.720  25.394  1.00  0.00     0.010 A 
ATOM     70  C   UNL A   1      43.941  21.292  25.327  1.00  0.00     0.020 A 
ATOM     71  C   UNL A   1      46.250  21.461  24.732  1.00  0.00     0.020 A 
ATOM     72  C   UNL A   1      45.061  20.739  24.723  1.00  0.00     0.054 A 
BRANCH  72  73
ATOM     73  S   UNL A   1      44.925  19.119  23.898  1.00  0.00     0.124 S 
ATOM     74  O   UNL A   1      44.287  19.460  22.629  1.00  0.00    -0.237 OA
ATOM     75  O   UNL A   1      46.316  18.687  23.803  1.00  0.00    -0.237 OA
ATOM     76  O   UNL A   1      44.099  18.331  24.812  1.00  0.00    -0.744 OA
ENDBRANCH  72  73
ENDBRANCH  53  67
BRANCH  54  77
ATOM     77  C   UNL A   1      42.897  32.345  30.234  1.00  0.00    -0.014 A 
ATOM     78  C   UNL A   1      42.934  31.677  31.509  1.00  0.00     0.010 A 
ATOM     79  C   UNL A   1      42.339  33.630  30.251  1.00  0.00     0.010 A 
ATOM     80  C   UNL A   1      42.616  32.312  32.735  1.00  0.00     0.020 A 
ATOM     81  C   UNL A   1      41.957  34.255  31.484  1.00  0.00     0.020 A 
ATOM     82  C   UNL A   1      42.157  33.621  32.726  1.00  0.00     0.054 A 
BRANCH  82  83
ATOM     83  S   UNL A   1      41.751  34.472  34.328  1.00  0.00     0.124 S 
ATOM     84  O   UNL A   1      41.715  33.373  35.288  1.00  0.00    -0.237 OA
ATOM     85  O   UNL A   1      42.826  35.435  34.551  1.00  0.00    -0.237 OA
ATOM     86  O   UNL A   1      40.460  35.089  34.035  1.00  0.00    -0.744 OA
ENDBRANCH  82  83
ENDBRANCH  54  77
BRANCH  66  87
ATOM     87  C   UNL A   1      49.147  28.373  28.172  1.00  0.00    -0.014 A 
ATOM     88  C   UNL A   1      49.598  27.115  28.570  1.00  0.00     0.010 A 
ATOM     89  C   UNL A   1      50.174  29.296  27.781  1.00  0.00     0.010 A 
ATOM     90  C   UNL A   1      50.971  26.796  28.555  1.00  0.00     0.020 A 
ATOM     91  C   UNL A   1      51.531  28.984  27.729  1.00  0.00     0.020 A 
ATOM     92  C   UNL A   1      51.923  27.721  28.116  1.00  0.00     0.054 A 
BRANCH  92  93
ATOM     93  S   UNL A   1      53.659  27.237  27.993  1.00  0.00     0.124 S 
ATOM     94  O   UNL A   1      53.556  25.819  27.661  1.00  0.00    -0.237 OA
ATOM     95  O   UNL A   1      54.146  28.102  26.922  1.00  0.00    -0.237 OA
ATOM     96  O   UNL A   1      54.203  27.527  29.318  1.00  0.00    -0.744 OA
ENDBRANCH  92  93
ENDBRANCH  66  87
ENDBRANCH  40  41
ENDBRANCH  33  35
ENDBRANCH  32  33
ENDBRANCH  31  32
ENDBRANCH  30  31
ENDBRANCH  29  30
ENDBRANCH  28  29
ENDBRANCH   1  28
TORSDOF 25
ENDMDL
MODEL 3
REMARK VINA RESULT:      -9.1      4.800     10.137
REMARK SMILES Cc1ccc(NC(=O)N2CCCC[C@@H]2C(=O)OCCOCCOCCOCCOC(=O)c2ccc(-c3c4nc(c(-c5ccc(S(=O)(=O)[O-])cc5)c5ccc([nH]5)c(-c5ccc(S(=O)(=O)[O-])cc5)c5nc(c(-c6ccc(S(=O)(=O)[O-])cc6)c6ccc3[nH]6)C=C5)C=C4)cc2)cc1
REMARK SMILES IDX 24 1 23 2 22 3 21 4 20 5 19 6 18 7 17 8 15 9 16 10 14 11
REMARK SMILES IDX 9 12 10 13 11 14 13 15 12 16 7 17 6 18 8 20 5 21 1 22 2 23
REMARK SMILES IDX 3 24 93 25 4 26 92 27 25 28 26 29 27 30 28 31 29 32 30 33
REMARK SMILES IDX 31 34 32 35 33 36 91 37 34 38 90 39 35 40 36 41 37 42 84 43
REMARK SMILES IDX 38 44 89 45 83 46 85 47 39 48 88 49 82 50 81 51 40 53 70 54
REMARK SMILES IDX 51 55 69 56 52 57 55 58 68 59 86 60 53 61 54 62 67 64 87 65
REMARK SMILES IDX 56 66 41 67 42 68 50 69 43 70 49 71 44 72 45 73 46 74 47 75
REMARK SMILES IDX 48 76 71 77 72 78 80 79 73 80 79 81 74 82 75 83 76 84 77 85
REMARK SMILES IDX 78 86 57 87 58 88 66 89 59 90 65 91 60 92 61 93 62 94 63 95
REMARK SMILES IDX 64 96
REMARK H PARENT 6 19 85 52 55 63
REMARK Flexibility Score: inf
ROOT
ATOM      1  C   UNL A   1      37.698  21.430  25.079  1.00  0.00     0.188 C 
ENDROOT
BRANCH   1   2
ATOM      2  O   UNL A   1      36.347  21.587  25.468  1.00  0.00    -0.377 OA
BRANCH   2   3
ATOM      3  C   UNL A   1      35.452  20.590  25.025  1.00  0.00     0.188 C 
BRANCH   3   4
ATOM      4  C   UNL A   1      33.957  20.694  25.414  1.00  0.00     0.188 C 
BRANCH   4   5
ATOM      5  O   UNL A   1      33.488  21.110  26.692  1.00  0.00    -0.376 OA
BRANCH   5   6
ATOM      6  C   UNL A   1      33.197  22.468  26.968  1.00  0.00     0.202 C 
BRANCH   6   7
ATOM      7  C   UNL A   1      32.351  23.287  26.012  1.00  0.00     0.261 C 
BRANCH   7   8
ATOM      8  O   UNL A   1      33.094  23.759  24.872  1.00  0.00    -0.462 OA
BRANCH   8   9
ATOM      9  C   UNL A   1      33.346  25.056  24.960  1.00  0.00     0.329 C 
ATOM     10  O   UNL A   1      34.223  25.523  25.690  1.00  0.00    -0.250 OA
BRANCH   9  11
ATOM     11  C   UNL A   1      32.550  26.030  24.190  1.00  0.00     0.196 C 
ATOM     12  N   UNL A   1      31.467  26.732  24.849  1.00  0.00    -0.311 N 
ATOM     13  C   UNL A   1      30.757  27.676  23.987  1.00  0.00     0.122 C 
ATOM     14  C   UNL A   1      30.554  27.249  22.521  1.00  0.00     0.022 C 
ATOM     15  C   UNL A   1      32.129  25.385  22.861  1.00  0.00     0.037 C 
ATOM     16  C   UNL A   1      31.738  26.506  21.916  1.00  0.00     0.005 C 
BRANCH  12  17
ATOM     17  C   UNL A   1      31.257  26.825  26.208  1.00  0.00     0.322 C 
ATOM     18  N   UNL A   1      32.067  27.518  27.057  1.00  0.00    -0.308 N 
ATOM     19  H   UNL A   1      32.107  27.092  27.945  1.00  0.00     0.171 HD
ATOM     20  O   UNL A   1      30.342  26.169  26.724  1.00  0.00    -0.248 OA
BRANCH  18  21
ATOM     21  C   UNL A   1      32.870  28.690  27.008  1.00  0.00     0.042 A 
ATOM     22  C   UNL A   1      34.837  32.393  28.148  1.00  0.00     0.044 C 
ATOM     23  C   UNL A   1      34.204  31.141  27.601  1.00  0.00    -0.051 A 
ATOM     24  C   UNL A   1      34.914  29.938  27.452  1.00  0.00     0.005 A 
ATOM     25  C   UNL A   1      32.845  31.124  27.307  1.00  0.00     0.005 A 
ATOM     26  C   UNL A   1      34.255  28.723  27.136  1.00  0.00     0.026 A 
ATOM     27  C   UNL A   1      32.201  29.922  26.965  1.00  0.00     0.026 A 
ENDBRANCH  18  21
ENDBRANCH  12  17
ENDBRANCH   9  11
ENDBRANCH   8   9
ENDBRANCH   7   8
ENDBRANCH   6   7
ENDBRANCH   5   6
ENDBRANCH   4   5
ENDBRANCH   3   4
ENDBRANCH   2   3
ENDBRANCH   1   2
BRANCH   1  28
ATOM     28  C   UNL A   1      38.738  22.198  25.904  1.00  0.00     0.188 C 
BRANCH  28  29
ATOM     29  O   UNL A   1      39.491  21.432  26.823  1.00  0.00    -0.376 OA
BRANCH  29  30
ATOM     30  C   UNL A   1      40.714  22.052  27.199  1.00  0.00     0.202 C 
BRANCH  30  31
ATOM     31  C   UNL A   1      40.973  23.556  26.838  1.00  0.00     0.261 C 
BRANCH  31  32
ATOM     32  O   UNL A   1      40.755  24.559  27.892  1.00  0.00    -0.460 OA
BRANCH  32  33
ATOM     33  C   UNL A   1      41.682  25.577  28.002  1.00  0.00     0.338 C 
ATOM     34  O   UNL A   1      42.659  25.487  28.738  1.00  0.00    -0.246 OA
BRANCH  33  35
ATOM     35  C   UNL A   1      41.203  26.950  27.472  1.00  0.00     0.060 A 
ATOM     36  C   UNL A   1      42.086  28.023  27.564  1.00  0.00     0.016 A 
ATOM     37  C   UNL A   1      39.874  27.311  27.605  1.00  0.00     0.016 A 
ATOM     38  C   UNL A   1      41.763  29.194  28.256  1.00  0.00     0.010 A 
ATOM     39  C   UNL A   1      39.551  28.388  28.438  1.00  0.00     0.010 A 
ATOM     40  C   UNL A   1      40.544  29.256  28.902  1.00  0.00    -0.014 A 
BRANCH  40  41
ATOM     41  C   UNL A   1      40.376  29.961  30.202  1.00  0.00     0.031 A 
ATOM     42  C   UNL A   1      39.601  31.256  30.253  1.00  0.00     0.074 A 
ATOM     43  C   UNL A   1      40.653  29.195  31.307  1.00  0.00     0.049 A 
ATOM     44  N   UNL A   1      39.406  31.979  31.303  1.00  0.00    -0.248 NA
ATOM     45  C   UNL A   1      38.853  31.798  29.114  1.00  0.00     0.031 C 
ATOM     46  C   UNL A   1      40.331  29.356  32.734  1.00  0.00     0.029 A 
ATOM     47  N   UNL A   1      41.415  28.021  31.341  1.00  0.00    -0.354 N 
ATOM     48  C   UNL A   1      38.290  32.799  31.104  1.00  0.00     0.074 A 
ATOM     49  C   UNL A   1      38.034  32.690  29.690  1.00  0.00     0.031 C 
ATOM     50  C   UNL A   1      40.966  28.439  33.489  1.00  0.00     0.029 A 
ATOM     51  C   UNL A   1      41.970  27.879  32.624  1.00  0.00     0.049 A 
ATOM     52  H   UNL A   1      41.540  27.397  30.590  1.00  0.00     0.167 HD
ATOM     53  C   UNL A   1      37.641  33.356  32.186  1.00  0.00     0.031 A 
ATOM     54  C   UNL A   1      43.289  28.223  32.760  1.00  0.00     0.031 A 
ATOM     55  C   UNL A   1      38.397  33.095  33.445  1.00  0.00     0.049 A 
ATOM     56  C   UNL A   1      43.393  29.661  33.433  1.00  0.00     0.074 A 
ATOM     57  C   UNL A   1      38.110  32.767  34.759  1.00  0.00     0.029 A 
ATOM     58  N   UNL A   1      39.796  33.057  33.386  1.00  0.00    -0.354 N 
ATOM     59  N   UNL A   1      42.498  30.639  33.340  1.00  0.00    -0.248 NA
ATOM     60  C   UNL A   1      44.367  29.981  34.482  1.00  0.00     0.031 C 
ATOM     61  C   UNL A   1      39.309  32.288  35.378  1.00  0.00     0.029 A 
ATOM     62  C   UNL A   1      40.366  32.477  34.494  1.00  0.00     0.049 A 
ATOM     63  H   UNL A   1      40.318  33.409  32.628  1.00  0.00     0.167 HD
ATOM     64  C   UNL A   1      42.679  31.593  34.332  1.00  0.00     0.074 A 
ATOM     65  C   UNL A   1      43.905  31.149  34.978  1.00  0.00     0.031 C 
ATOM     66  C   UNL A   1      41.810  32.607  34.700  1.00  0.00     0.031 A 
BRANCH  53  67
ATOM     67  C   UNL A   1      36.212  33.983  32.182  1.00  0.00    -0.014 A 
ATOM     68  C   UNL A   1      36.027  35.347  32.528  1.00  0.00     0.010 A 
ATOM     69  C   UNL A   1      35.001  33.293  31.934  1.00  0.00     0.010 A 
ATOM     70  C   UNL A   1      34.759  35.953  32.698  1.00  0.00     0.020 A 
ATOM     71  C   UNL A   1      33.717  33.899  32.052  1.00  0.00     0.020 A 
ATOM     72  C   UNL A   1      33.602  35.224  32.459  1.00  0.00     0.054 A 
BRANCH  72  73
ATOM     73  S   UNL A   1      31.980  36.039  32.636  1.00  0.00     0.124 S 
ATOM     74  O   UNL A   1      31.069  34.907  32.783  1.00  0.00    -0.237 OA
ATOM     75  O   UNL A   1      32.159  36.858  33.831  1.00  0.00    -0.237 OA
ATOM     76  O   UNL A   1      31.831  36.792  31.391  1.00  0.00    -0.744 OA
ENDBRANCH  72  73
ENDBRANCH  53  67
BRANCH  54  77
ATOM     77  C   UNL A   1      44.066  27.469  31.670  1.00  0.00    -0.014 A 
ATOM     78  C   UNL A   1      44.519  28.256  30.553  1.00  0.00     0.010 A 
ATOM     79  C   UNL A   1      44.732  26.249  31.848  1.00  0.00     0.010 A 
ATOM     80  C   UNL A   1      45.671  27.942  29.791  1.00  0.00     0.020 A 
ATOM     81  C   UNL A   1      45.860  25.897  31.038  1.00  0.00     0.020 A 
ATOM     82  C   UNL A   1      46.367  26.771  30.056  1.00  0.00     0.054 A 
BRANCH  82  83
ATOM     83  S   UNL A   1      47.889  26.354  29.074  1.00  0.00     0.124 S 
ATOM     84  O   UNL A   1      47.410  26.374  27.696  1.00  0.00    -0.237 OA
ATOM     85  O   UNL A   1      48.865  27.394  29.391  1.00  0.00    -0.237 OA
ATOM     86  O   UNL A   1      48.244  25.037  29.594  1.00  0.00    -0.744 OA
ENDBRANCH  82  83
ENDBRANCH  54  77
BRANCH  66  87
ATOM     87  C   UNL A   1      42.188  33.973  35.312  1.00  0.00    -0.014 A 
ATOM     88  C   UNL A   1      41.466  34.664  36.283  1.00  0.00     0.010 A 
ATOM     89  C   UNL A   1      43.470  34.530  34.990  1.00  0.00     0.010 A 
ATOM     90  C   UNL A   1      41.996  35.814  36.903  1.00  0.00     0.020 A 
ATOM     91  C   UNL A   1      44.022  35.645  35.619  1.00  0.00     0.020 A 
ATOM     92  C   UNL A   1      43.275  36.282  36.585  1.00  0.00     0.054 A 
BRANCH  92  93
ATOM     93  S   UNL A   1      43.971  37.684  37.487  1.00  0.00     0.124 S 
ATOM     94  O   UNL A   1      42.903  37.997  38.432  1.00  0.00    -0.237 OA
ATOM     95  O   UNL A   1      45.180  37.107  38.069  1.00  0.00    -0.237 OA
ATOM     96  O   UNL A   1      44.202  38.691  36.455  1.00  0.00    -0.744 OA
ENDBRANCH  92  93
ENDBRANCH  66  87
ENDBRANCH  40  41
ENDBRANCH  33  35
ENDBRANCH  32  33
ENDBRANCH  31  32
ENDBRANCH  30  31
ENDBRANCH  29  30
ENDBRANCH  28  29
ENDBRANCH   1  28
TORSDOF 25
ENDMDL
