MODEL 1
REMARK VINA RESULT:      -8.9      0.000      0.000
REMARK SMILES C[C@@H](Oc1ccc(/C=N/NC(=O)c2ccc(I)c(O)c2)cc1)C(=O)OCCOCCOCCOCCOC(=O)c1ccc(-c2c3nc(c(-c4ccc(S(=O)(=O)[O-])cc4)c4ccc([nH]4)c(-c4ccc(S(=O)(=O)[O-])cc4)c4nc(c(-c5ccc(S(=O)(=O)[O-])cc5)c5ccc2[nH]5)C=C4)C=C3)cc1
REMARK SMILES IDX 29 1 28 2 27 3 26 4 25 5 23 6 24 7 2 8 1 9 3 10 4 11 5 12
REMARK SMILES IDX 22 13 6 14 21 15 7 16 8 17 9 18 10 19 11 20 12 22 13 23
REMARK SMILES IDX 14 24 20 25 15 26 18 27 16 28 17 29 19 30 30 32 31 33 32 34
REMARK SMILES IDX 33 35 34 36 35 37 36 38 37 39 38 40 39 41 40 42 41 43 99 44
REMARK SMILES IDX 42 45 98 46 43 47 44 48 45 49 92 50 46 51 97 52 91 53 93 54
REMARK SMILES IDX 47 55 96 56 90 57 89 58 48 60 78 61 59 62 77 63 60 64 63 65
REMARK SMILES IDX 76 66 94 67 61 68 62 69 75 71 95 72 64 73 49 74 50 75 58 76
REMARK SMILES IDX 51 77 57 78 52 79 53 80 54 81 55 82 56 83 79 84 80 85 88 86
REMARK SMILES IDX 81 87 87 88 82 89 83 90 84 91 85 92 86 93 65 94 66 95 74 96
REMARK SMILES IDX 67 97 73 98 68 99 69 100 70 101 71 102 72 103
REMARK H PARENT 10 21 19 31 93 59 63 70
REMARK Flexibility Score: inf
ROOT
ATOM      1  C   UNL A   1      33.936  30.568  27.683  1.00  0.00     0.188 C 
ENDROOT
BRANCH   1   2
ATOM      2  O   UNL A   1      33.487  30.001  26.466  1.00  0.00    -0.376 OA
BRANCH   2   3
ATOM      3  C   UNL A   1      32.148  30.171  26.010  1.00  0.00     0.202 C 
BRANCH   3   4
ATOM      4  C   UNL A   1      31.544  29.397  24.826  1.00  0.00     0.261 C 
BRANCH   4   5
ATOM      5  O   UNL A   1      30.581  30.098  24.023  1.00  0.00    -0.461 OA
BRANCH   5   6
ATOM      6  C   UNL A   1      30.074  29.417  22.969  1.00  0.00     0.347 C 
ATOM      7  O   UNL A   1      29.898  29.905  21.853  1.00  0.00    -0.248 OA
BRANCH   6   8
ATOM      8  C   UNL A   1      29.720  27.963  23.268  1.00  0.00     0.279 C 
ATOM      9  C   UNL A   1      28.255  27.592  23.481  1.00  0.00     0.066 C 
BRANCH   8  10
ATOM     10  O   UNL A   1      30.267  27.225  22.160  1.00  0.00    -0.479 OA
BRANCH  10  11
ATOM     11  C   UNL A   1      31.337  26.467  22.532  1.00  0.00     0.120 A 
ATOM     12  C   UNL A   1      31.101  25.339  23.315  1.00  0.00     0.047 A 
ATOM     13  C   UNL A   1      32.635  26.842  22.194  1.00  0.00     0.047 A 
ATOM     14  C   UNL A   1      32.177  24.565  23.746  1.00  0.00     0.013 A 
ATOM     15  C   UNL A   1      33.696  26.025  22.535  1.00  0.00     0.013 A 
ATOM     16  C   UNL A   1      33.464  24.908  23.333  1.00  0.00    -0.005 A 
BRANCH  16  17
ATOM     17  C   UNL A   1      34.655  24.214  23.817  1.00  0.00     0.141 C 
ATOM     18  N   UNL A   1      34.799  23.976  25.080  1.00  0.00    -0.180 NA
BRANCH  18  19
ATOM     19  N   UNL A   1      36.020  23.539  25.499  1.00  0.00    -0.243 N 
ATOM     20  C   UNL A   1      36.478  22.244  25.683  1.00  0.00     0.271 C 
ATOM     21  H   UNL A   1      36.673  24.247  25.701  1.00  0.00     0.194 HD
ATOM     22  O   UNL A   1      37.596  22.040  26.154  1.00  0.00    -0.267 OA
BRANCH  20  23
ATOM     23  C   UNL A   1      35.638  21.071  25.332  1.00  0.00     0.045 A 
ATOM     24  C   UNL A   1      36.292  19.906  24.910  1.00  0.00     0.015 A 
ATOM     25  C   UNL A   1      34.240  21.097  25.421  1.00  0.00     0.061 A 
ATOM     26  C   UNL A   1      35.560  18.747  24.642  1.00  0.00     0.019 A 
ATOM     27  C   UNL A   1      33.513  19.931  25.166  1.00  0.00     0.129 A 
ATOM     28  C   UNL A   1      34.170  18.755  24.786  1.00  0.00     0.055 A 
ATOM     29  I   UNL A   1      33.140  16.961  24.474  1.00  0.00    -0.040 I 
BRANCH  27  30
ATOM     30  O   UNL A   1      32.158  19.926  25.353  1.00  0.00    -0.507 OA
ATOM     31  H   UNL A   1      31.804  19.882  26.219  1.00  0.00     0.293 HD
ENDBRANCH  27  30
ENDBRANCH  20  23
ENDBRANCH  18  19
ENDBRANCH  16  17
ENDBRANCH  10  11
ENDBRANCH   8  10
ENDBRANCH   6   8
ENDBRANCH   5   6
ENDBRANCH   4   5
ENDBRANCH   3   4
ENDBRANCH   2   3
ENDBRANCH   1   2
BRANCH   1  32
ATOM     32  C   UNL A   1      35.008  31.663  27.672  1.00  0.00     0.188 C 
BRANCH  32  33
ATOM     33  O   UNL A   1      34.934  32.553  28.765  1.00  0.00    -0.377 OA
BRANCH  33  34
ATOM     34  C   UNL A   1      34.139  33.726  28.676  1.00  0.00     0.188 C 
BRANCH  34  35
ATOM     35  C   UNL A   1      34.010  34.632  29.909  1.00  0.00     0.188 C 
BRANCH  35  36
ATOM     36  O   UNL A   1      34.886  34.289  30.971  1.00  0.00    -0.376 OA
BRANCH  36  37
ATOM     37  C   UNL A   1      34.469  33.309  31.911  1.00  0.00     0.202 C 
BRANCH  37  38
ATOM     38  C   UNL A   1      35.508  32.298  32.427  1.00  0.00     0.261 C 
BRANCH  38  39
ATOM     39  O   UNL A   1      35.797  31.167  31.588  1.00  0.00    -0.460 OA
BRANCH  39  40
ATOM     40  C   UNL A   1      36.765  30.309  31.964  1.00  0.00     0.338 C 
ATOM     41  O   UNL A   1      36.618  29.181  32.405  1.00  0.00    -0.246 OA
BRANCH  40  42
ATOM     42  C   UNL A   1      38.062  30.893  31.561  1.00  0.00     0.060 A 
ATOM     43  C   UNL A   1      38.200  31.427  30.273  1.00  0.00     0.016 A 
ATOM     44  C   UNL A   1      39.139  30.901  32.450  1.00  0.00     0.016 A 
ATOM     45  C   UNL A   1      39.430  31.936  29.856  1.00  0.00     0.010 A 
ATOM     46  C   UNL A   1      40.376  31.391  32.022  1.00  0.00     0.010 A 
ATOM     47  C   UNL A   1      40.536  31.877  30.712  1.00  0.00    -0.014 A 
BRANCH  47  48
ATOM     48  C   UNL A   1      41.900  32.129  30.186  1.00  0.00     0.031 A 
ATOM     49  C   UNL A   1      42.456  33.525  30.288  1.00  0.00     0.074 A 
ATOM     50  C   UNL A   1      42.631  31.150  29.624  1.00  0.00     0.049 A 
ATOM     51  N   UNL A   1      43.575  34.009  29.819  1.00  0.00    -0.248 NA
ATOM     52  C   UNL A   1      41.628  34.506  31.009  1.00  0.00     0.031 C 
ATOM     53  C   UNL A   1      42.227  29.750  29.511  1.00  0.00     0.029 A 
ATOM     54  N   UNL A   1      43.866  31.195  29.025  1.00  0.00    -0.354 N 
ATOM     55  C   UNL A   1      43.577  35.355  30.168  1.00  0.00     0.074 A 
ATOM     56  C   UNL A   1      42.338  35.615  30.866  1.00  0.00     0.031 C 
ATOM     57  C   UNL A   1      43.187  29.072  28.858  1.00  0.00     0.029 A 
ATOM     58  C   UNL A   1      44.251  29.997  28.471  1.00  0.00     0.049 A 
ATOM     59  H   UNL A   1      44.422  32.007  28.996  1.00  0.00     0.167 HD
ATOM     60  C   UNL A   1      44.525  36.292  29.926  1.00  0.00     0.031 A 
ATOM     61  C   UNL A   1      45.320  29.692  27.707  1.00  0.00     0.031 A 
ATOM     62  C   UNL A   1      45.747  36.030  29.213  1.00  0.00     0.049 A 
ATOM     63  C   UNL A   1      46.328  30.765  27.383  1.00  0.00     0.074 A 
ATOM     64  C   UNL A   1      46.783  36.903  28.935  1.00  0.00     0.029 A 
ATOM     65  N   UNL A   1      46.090  34.809  28.652  1.00  0.00    -0.354 N 
ATOM     66  N   UNL A   1      46.336  32.027  27.747  1.00  0.00    -0.248 NA
ATOM     67  C   UNL A   1      47.476  30.375  26.551  1.00  0.00     0.031 C 
ATOM     68  C   UNL A   1      47.718  36.232  28.143  1.00  0.00     0.029 A 
ATOM     69  C   UNL A   1      47.305  34.915  27.997  1.00  0.00     0.049 A 
ATOM     70  H   UNL A   1      45.550  33.988  28.711  1.00  0.00     0.167 HD
ATOM     71  C   UNL A   1      47.502  32.571  27.213  1.00  0.00     0.074 A 
ATOM     72  C   UNL A   1      48.178  31.500  26.510  1.00  0.00     0.031 C 
ATOM     73  C   UNL A   1      47.970  33.841  27.302  1.00  0.00     0.031 A 
BRANCH  60  74
ATOM     74  C   UNL A   1      44.245  37.699  30.387  1.00  0.00    -0.014 A 
ATOM     75  C   UNL A   1      43.642  38.646  29.540  1.00  0.00     0.010 A 
ATOM     76  C   UNL A   1      44.576  38.072  31.703  1.00  0.00     0.010 A 
ATOM     77  C   UNL A   1      43.420  39.953  29.985  1.00  0.00     0.020 A 
ATOM     78  C   UNL A   1      44.325  39.367  32.163  1.00  0.00     0.020 A 
ATOM     79  C   UNL A   1      43.767  40.306  31.293  1.00  0.00     0.054 A 
BRANCH  79  80
ATOM     80  S   UNL A   1      43.463  42.006  31.845  1.00  0.00     0.124 S 
ATOM     81  O   UNL A   1      42.015  42.003  32.043  1.00  0.00    -0.237 OA
ATOM     82  O   UNL A   1      44.262  42.095  33.063  1.00  0.00    -0.237 OA
ATOM     83  O   UNL A   1      43.935  42.824  30.730  1.00  0.00    -0.744 OA
ENDBRANCH  79  80
ENDBRANCH  60  74
BRANCH  61  84
ATOM     84  C   UNL A   1      45.470  28.312  27.165  1.00  0.00    -0.014 A 
ATOM     85  C   UNL A   1      44.886  27.946  25.940  1.00  0.00     0.010 A 
ATOM     86  C   UNL A   1      46.220  27.354  27.876  1.00  0.00     0.010 A 
ATOM     87  C   UNL A   1      45.044  26.650  25.438  1.00  0.00     0.020 A 
ATOM     88  C   UNL A   1      46.406  26.067  27.362  1.00  0.00     0.020 A 
ATOM     89  C   UNL A   1      45.810  25.721  26.150  1.00  0.00     0.054 A 
BRANCH  89  90
ATOM     90  S   UNL A   1      46.059  24.068  25.443  1.00  0.00     0.124 S 
ATOM     91  O   UNL A   1      46.858  24.362  24.257  1.00  0.00    -0.237 OA
ATOM     92  O   UNL A   1      46.756  23.369  26.520  1.00  0.00    -0.237 OA
ATOM     93  O   UNL A   1      44.700  23.599  25.183  1.00  0.00    -0.744 OA
ENDBRANCH  89  90
ENDBRANCH  61  84
BRANCH  73  94
ATOM     94  C   UNL A   1      49.301  34.148  26.664  1.00  0.00    -0.014 A 
ATOM     95  C   UNL A   1      50.507  33.678  27.213  1.00  0.00     0.010 A 
ATOM     96  C   UNL A   1      49.333  34.848  25.442  1.00  0.00     0.010 A 
ATOM     97  C   UNL A   1      51.720  33.917  26.560  1.00  0.00     0.020 A 
ATOM     98  C   UNL A   1      50.540  35.062  24.772  1.00  0.00     0.020 A 
ATOM     99  C   UNL A   1      51.728  34.601  25.340  1.00  0.00     0.054 A 
BRANCH  99 100
ATOM    100  S   UNL A   1      53.309  34.839  24.483  1.00  0.00     0.124 S 
ATOM    101  O   UNL A   1      53.968  35.833  25.325  1.00  0.00    -0.237 OA
ATOM    102  O   UNL A   1      53.894  33.500  24.516  1.00  0.00    -0.237 OA
ATOM    103  O   UNL A   1      52.918  35.309  23.156  1.00  0.00    -0.744 OA
ENDBRANCH  99 100
ENDBRANCH  73  94
ENDBRANCH  47  48
ENDBRANCH  40  42
ENDBRANCH  39  40
ENDBRANCH  38  39
ENDBRANCH  37  38
ENDBRANCH  36  37
ENDBRANCH  35  36
ENDBRANCH  34  35
ENDBRANCH  33  34
ENDBRANCH  32  33
ENDBRANCH   1  32
TORSDOF 29
ENDMDL
MODEL 2
REMARK VINA RESULT:      -8.8      3.871      8.064
REMARK SMILES C[C@@H](Oc1ccc(/C=N/NC(=O)c2ccc(I)c(O)c2)cc1)C(=O)OCCOCCOCCOCCOC(=O)c1ccc(-c2c3nc(c(-c4ccc(S(=O)(=O)[O-])cc4)c4ccc([nH]4)c(-c4ccc(S(=O)(=O)[O-])cc4)c4nc(c(-c5ccc(S(=O)(=O)[O-])cc5)c5ccc2[nH]5)C=C4)C=C3)cc1
REMARK SMILES IDX 29 1 28 2 27 3 26 4 25 5 23 6 24 7 2 8 1 9 3 10 4 11 5 12
REMARK SMILES IDX 22 13 6 14 21 15 7 16 8 17 9 18 10 19 11 20 12 22 13 23
REMARK SMILES IDX 14 24 20 25 15 26 18 27 16 28 17 29 19 30 30 32 31 33 32 34
REMARK SMILES IDX 33 35 34 36 35 37 36 38 37 39 38 40 39 41 40 42 41 43 99 44
REMARK SMILES IDX 42 45 98 46 43 47 44 48 45 49 92 50 46 51 97 52 91 53 93 54
REMARK SMILES IDX 47 55 96 56 90 57 89 58 48 60 78 61 59 62 77 63 60 64 63 65
REMARK SMILES IDX 76 66 94 67 61 68 62 69 75 71 95 72 64 73 49 74 50 75 58 76
REMARK SMILES IDX 51 77 57 78 52 79 53 80 54 81 55 82 56 83 79 84 80 85 88 86
REMARK SMILES IDX 81 87 87 88 82 89 83 90 84 91 85 92 86 93 65 94 66 95 74 96
REMARK SMILES IDX 67 97 73 98 68 99 69 100 70 101 71 102 72 103
REMARK H PARENT 10 21 19 31 93 59 63 70
REMARK Flexibility Score: inf
ROOT
ATOM      1  C   UNL A   1      34.081  31.920  28.282  1.00  0.00     0.188 C 
ENDROOT
BRANCH   1   2
ATOM      2  O   UNL A   1      33.885  30.961  27.258  1.00  0.00    -0.376 OA
BRANCH   2   3
ATOM      3  C   UNL A   1      32.592  30.689  26.725  1.00  0.00     0.202 C 
BRANCH   3   4
ATOM      4  C   UNL A   1      32.331  29.691  25.584  1.00  0.00     0.261 C 
BRANCH   4   5
ATOM      5  O   UNL A   1      31.123  29.876  24.830  1.00  0.00    -0.461 OA
BRANCH   5   6
ATOM      6  C   UNL A   1      30.932  29.032  23.790  1.00  0.00     0.347 C 
ATOM      7  O   UNL A   1      30.647  29.396  22.649  1.00  0.00    -0.248 OA
BRANCH   6   8
ATOM      8  C   UNL A   1      31.095  27.555  24.138  1.00  0.00     0.279 C 
ATOM      9  C   UNL A   1      29.871  26.645  24.070  1.00  0.00     0.066 C 
BRANCH   8  10
ATOM     10  O   UNL A   1      32.118  27.085  23.242  1.00  0.00    -0.479 OA
BRANCH  10  11
ATOM     11  C   UNL A   1      32.977  26.223  23.858  1.00  0.00     0.120 A 
ATOM     12  C   UNL A   1      33.253  26.427  25.208  1.00  0.00     0.047 A 
ATOM     13  C   UNL A   1      33.609  25.208  23.145  1.00  0.00     0.047 A 
ATOM     14  C   UNL A   1      34.157  25.588  25.857  1.00  0.00     0.013 A 
ATOM     15  C   UNL A   1      34.429  24.314  23.807  1.00  0.00     0.013 A 
ATOM     16  C   UNL A   1      34.721  24.526  25.151  1.00  0.00    -0.005 A 
BRANCH  16  17
ATOM     17  C   UNL A   1      35.751  23.662  25.723  1.00  0.00     0.141 C 
ATOM     18  N   UNL A   1      36.964  24.091  25.847  1.00  0.00    -0.180 NA
BRANCH  18  19
ATOM     19  N   UNL A   1      37.922  23.176  26.166  1.00  0.00    -0.243 N 
ATOM     20  C   UNL A   1      39.185  23.373  26.703  1.00  0.00     0.271 C 
ATOM     21  H   UNL A   1      37.683  22.238  25.991  1.00  0.00     0.194 HD
ATOM     22  O   UNL A   1      39.954  22.423  26.848  1.00  0.00    -0.267 OA
BRANCH  20  23
ATOM     23  C   UNL A   1      39.651  24.724  27.107  1.00  0.00     0.045 A 
ATOM     24  C   UNL A   1      39.388  25.137  28.419  1.00  0.00     0.015 A 
ATOM     25  C   UNL A   1      40.341  25.571  26.230  1.00  0.00     0.061 A 
ATOM     26  C   UNL A   1      39.871  26.364  28.880  1.00  0.00     0.019 A 
ATOM     27  C   UNL A   1      40.834  26.791  26.698  1.00  0.00     0.129 A 
ATOM     28  C   UNL A   1      40.609  27.185  28.023  1.00  0.00     0.055 A 
ATOM     29  I   UNL A   1      41.395  28.961  28.801  1.00  0.00    -0.040 I 
BRANCH  27  30
ATOM     30  O   UNL A   1      41.596  27.573  25.875  1.00  0.00    -0.507 OA
ATOM     31  H   UNL A   1      41.407  27.612  24.958  1.00  0.00     0.293 HD
ENDBRANCH  27  30
ENDBRANCH  20  23
ENDBRANCH  18  19
ENDBRANCH  16  17
ENDBRANCH  10  11
ENDBRANCH   8  10
ENDBRANCH   6   8
ENDBRANCH   5   6
ENDBRANCH   4   5
ENDBRANCH   3   4
ENDBRANCH   2   3
ENDBRANCH   1   2
BRANCH   1  32
ATOM     32  C   UNL A   1      34.825  33.224  27.982  1.00  0.00     0.188 C 
BRANCH  32  33
ATOM     33  O   UNL A   1      34.612  34.242  28.935  1.00  0.00    -0.377 OA
BRANCH  33  34
ATOM     34  C   UNL A   1      33.352  34.890  29.018  1.00  0.00     0.188 C 
BRANCH  34  35
ATOM     35  C   UNL A   1      33.041  35.760  30.244  1.00  0.00     0.188 C 
BRANCH  35  36
ATOM     36  O   UNL A   1      34.021  35.685  31.268  1.00  0.00    -0.376 OA
BRANCH  36  37
ATOM     37  C   UNL A   1      33.749  34.895  32.417  1.00  0.00     0.202 C 
BRANCH  37  38
ATOM     38  C   UNL A   1      34.798  34.849  33.542  1.00  0.00     0.261 C 
BRANCH  38  39
ATOM     39  O   UNL A   1      35.242  33.552  33.972  1.00  0.00    -0.460 OA
BRANCH  39  40
ATOM     40  C   UNL A   1      36.183  33.472  34.933  1.00  0.00     0.338 C 
ATOM     41  O   UNL A   1      36.020  33.604  36.136  1.00  0.00    -0.246 OA
BRANCH  40  42
ATOM     42  C   UNL A   1      37.430  32.995  34.301  1.00  0.00     0.060 A 
ATOM     43  C   UNL A   1      38.655  33.231  34.942  1.00  0.00     0.016 A 
ATOM     44  C   UNL A   1      37.390  32.327  33.076  1.00  0.00     0.016 A 
ATOM     45  C   UNL A   1      39.848  32.834  34.337  1.00  0.00     0.010 A 
ATOM     46  C   UNL A   1      38.588  31.950  32.462  1.00  0.00     0.010 A 
ATOM     47  C   UNL A   1      39.823  32.234  33.072  1.00  0.00    -0.014 A 
BRANCH  47  48
ATOM     48  C   UNL A   1      41.076  32.086  32.294  1.00  0.00     0.031 A 
ATOM     49  C   UNL A   1      41.917  30.858  32.525  1.00  0.00     0.074 A 
ATOM     50  C   UNL A   1      41.470  33.017  31.407  1.00  0.00     0.049 A 
ATOM     51  N   UNL A   1      43.091  30.551  32.039  1.00  0.00    -0.248 NA
ATOM     52  C   UNL A   1      41.357  29.846  33.437  1.00  0.00     0.031 C 
ATOM     53  C   UNL A   1      40.722  34.223  31.057  1.00  0.00     0.029 A 
ATOM     54  N   UNL A   1      42.613  33.096  30.650  1.00  0.00    -0.354 N 
ATOM     55  C   UNL A   1      43.421  29.323  32.601  1.00  0.00     0.074 A 
ATOM     56  C   UNL A   1      42.335  28.954  33.482  1.00  0.00     0.031 C 
ATOM     57  C   UNL A   1      41.439  34.936  30.170  1.00  0.00     0.029 A 
ATOM     58  C   UNL A   1      42.711  34.260  29.924  1.00  0.00     0.049 A 
ATOM     59  H   UNL A   1      43.296  32.389  30.629  1.00  0.00     0.167 HD
ATOM     60  C   UNL A   1      44.530  28.572  32.404  1.00  0.00     0.031 A 
ATOM     61  C   UNL A   1      43.726  34.741  29.177  1.00  0.00     0.031 A 
ATOM     62  C   UNL A   1      45.615  28.956  31.541  1.00  0.00     0.049 A 
ATOM     63  C   UNL A   1      44.986  33.926  29.029  1.00  0.00     0.074 A 
ATOM     64  C   UNL A   1      46.772  28.255  31.253  1.00  0.00     0.029 A 
ATOM     65  N   UNL A   1      45.684  30.150  30.838  1.00  0.00    -0.354 N 
ATOM     66  N   UNL A   1      45.273  32.750  29.539  1.00  0.00    -0.248 NA
ATOM     67  C   UNL A   1      46.058  34.496  28.199  1.00  0.00     0.031 C 
ATOM     68  C   UNL A   1      47.575  29.057  30.437  1.00  0.00     0.029 A 
ATOM     69  C   UNL A   1      46.882  30.223  30.147  1.00  0.00     0.049 A 
ATOM     70  H   UNL A   1      44.985  30.843  30.832  1.00  0.00     0.167 HD
ATOM     71  C   UNL A   1      46.544  32.430  29.068  1.00  0.00     0.074 A 
ATOM     72  C   UNL A   1      46.965  33.530  28.225  1.00  0.00     0.031 C 
ATOM     73  C   UNL A   1      47.290  31.323  29.309  1.00  0.00     0.031 A 
BRANCH  60  74
ATOM     74  C   UNL A   1      44.647  27.288  33.183  1.00  0.00    -0.014 A 
ATOM     75  C   UNL A   1      45.286  27.240  34.435  1.00  0.00     0.010 A 
ATOM     76  C   UNL A   1      44.086  26.108  32.659  1.00  0.00     0.010 A 
ATOM     77  C   UNL A   1      45.406  26.029  35.124  1.00  0.00     0.020 A 
ATOM     78  C   UNL A   1      44.173  24.902  33.358  1.00  0.00     0.020 A 
ATOM     79  C   UNL A   1      44.851  24.867  34.578  1.00  0.00     0.054 A 
BRANCH  79  80
ATOM     80  S   UNL A   1      45.016  23.312  35.496  1.00  0.00     0.124 S 
ATOM     81  O   UNL A   1      43.713  22.689  35.269  1.00  0.00    -0.237 OA
ATOM     82  O   UNL A   1      46.144  22.667  34.830  1.00  0.00    -0.237 OA
ATOM     83  O   UNL A   1      45.268  23.742  36.869  1.00  0.00    -0.744 OA
ENDBRANCH  79  80
ENDBRANCH  60  74
BRANCH  61  84
ATOM     84  C   UNL A   1      43.604  36.084  28.542  1.00  0.00    -0.014 A 
ATOM     85  C   UNL A   1      42.992  36.238  27.286  1.00  0.00     0.010 A 
ATOM     86  C   UNL A   1      44.093  37.224  29.207  1.00  0.00     0.010 A 
ATOM     87  C   UNL A   1      42.874  37.506  26.706  1.00  0.00     0.020 A 
ATOM     88  C   UNL A   1      43.950  38.496  28.645  1.00  0.00     0.020 A 
ATOM     89  C   UNL A   1      43.347  38.628  27.394  1.00  0.00     0.054 A 
BRANCH  89  90
ATOM     90  S   UNL A   1      43.118  40.269  26.653  1.00  0.00     0.124 S 
ATOM     91  O   UNL A   1      43.314  41.150  27.798  1.00  0.00    -0.237 OA
ATOM     92  O   UNL A   1      44.170  40.302  25.639  1.00  0.00    -0.237 OA
ATOM     93  O   UNL A   1      41.757  40.218  26.125  1.00  0.00    -0.744 OA
ENDBRANCH  89  90
ENDBRANCH  61  84
BRANCH  73  94
ATOM     94  C   UNL A   1      48.627  31.210  28.622  1.00  0.00    -0.014 A 
ATOM     95  C   UNL A   1      48.751  30.646  27.340  1.00  0.00     0.010 A 
ATOM     96  C   UNL A   1      49.767  31.760  29.240  1.00  0.00     0.010 A 
ATOM     97  C   UNL A   1      49.993  30.620  26.698  1.00  0.00     0.020 A 
ATOM     98  C   UNL A   1      51.002  31.764  28.588  1.00  0.00     0.020 A 
ATOM     99  C   UNL A   1      51.109  31.186  27.323  1.00  0.00     0.054 A 
BRANCH  99 100
ATOM    100  S   UNL A   1      52.693  31.198  26.438  1.00  0.00     0.124 S 
ATOM    101  O   UNL A   1      53.539  31.980  27.335  1.00  0.00    -0.237 OA
ATOM    102  O   UNL A   1      53.018  29.776  26.347  1.00  0.00    -0.237 OA
ATOM    103  O   UNL A   1      52.374  31.840  25.164  1.00  0.00    -0.744 OA
ENDBRANCH  99 100
ENDBRANCH  73  94
ENDBRANCH  47  48
ENDBRANCH  40  42
ENDBRANCH  39  40
ENDBRANCH  38  39
ENDBRANCH  37  38
ENDBRANCH  36  37
ENDBRANCH  35  36
ENDBRANCH  34  35
ENDBRANCH  33  34
ENDBRANCH  32  33
ENDBRANCH   1  32
TORSDOF 29
ENDMDL
MODEL 3
REMARK VINA RESULT:      -8.4      2.398      4.477
REMARK SMILES C[C@@H](Oc1ccc(/C=N/NC(=O)c2ccc(I)c(O)c2)cc1)C(=O)OCCOCCOCCOCCOC(=O)c1ccc(-c2c3nc(c(-c4ccc(S(=O)(=O)[O-])cc4)c4ccc([nH]4)c(-c4ccc(S(=O)(=O)[O-])cc4)c4nc(c(-c5ccc(S(=O)(=O)[O-])cc5)c5ccc2[nH]5)C=C4)C=C3)cc1
REMARK SMILES IDX 29 1 28 2 27 3 26 4 25 5 23 6 24 7 2 8 1 9 3 10 4 11 5 12
REMARK SMILES IDX 22 13 6 14 21 15 7 16 8 17 9 18 10 19 11 20 12 22 13 23
REMARK SMILES IDX 14 24 20 25 15 26 18 27 16 28 17 29 19 30 30 32 31 33 32 34
REMARK SMILES IDX 33 35 34 36 35 37 36 38 37 39 38 40 39 41 40 42 41 43 99 44
REMARK SMILES IDX 42 45 98 46 43 47 44 48 45 49 92 50 46 51 97 52 91 53 93 54
REMARK SMILES IDX 47 55 96 56 90 57 89 58 48 60 78 61 59 62 77 63 60 64 63 65
REMARK SMILES IDX 76 66 94 67 61 68 62 69 75 71 95 72 64 73 49 74 50 75 58 76
REMARK SMILES IDX 51 77 57 78 52 79 53 80 54 81 55 82 56 83 79 84 80 85 88 86
REMARK SMILES IDX 81 87 87 88 82 89 83 90 84 91 85 92 86 93 65 94 66 95 74 96
REMARK SMILES IDX 67 97 73 98 68 99 69 100 70 101 71 102 72 103
REMARK H PARENT 10 21 19 31 93 59 63 70
REMARK Flexibility Score: inf
ROOT
ATOM      1  C   UNL A   1      36.912  31.467  29.386  1.00  0.00     0.188 C 
ENDROOT
BRANCH   1   2
ATOM      2  O   UNL A   1      37.536  30.383  28.723  1.00  0.00    -0.376 OA
BRANCH   2   3
ATOM      3  C   UNL A   1      38.637  29.687  29.301  1.00  0.00     0.202 C 
BRANCH   3   4
ATOM      4  C   UNL A   1      39.850  29.189  28.496  1.00  0.00     0.261 C 
BRANCH   4   5
ATOM      5  O   UNL A   1      39.649  28.022  27.684  1.00  0.00    -0.461 OA
BRANCH   5   6
ATOM      6  C   UNL A   1      40.518  27.002  27.878  1.00  0.00     0.347 C 
ATOM      7  O   UNL A   1      41.239  26.890  28.869  1.00  0.00    -0.248 OA
BRANCH   6   8
ATOM      8  C   UNL A   1      40.545  25.974  26.751  1.00  0.00     0.279 C 
ATOM      9  C   UNL A   1      41.662  26.052  25.712  1.00  0.00     0.066 C 
BRANCH   8  10
ATOM     10  O   UNL A   1      40.578  24.703  27.425  1.00  0.00    -0.479 OA
BRANCH  10  11
ATOM     11  C   UNL A   1      39.668  23.829  26.908  1.00  0.00     0.120 A 
ATOM     12  C   UNL A   1      40.074  22.515  26.687  1.00  0.00     0.047 A 
ATOM     13  C   UNL A   1      38.390  24.251  26.550  1.00  0.00     0.047 A 
ATOM     14  C   UNL A   1      39.180  21.606  26.122  1.00  0.00     0.013 A 
ATOM     15  C   UNL A   1      37.470  23.331  26.083  1.00  0.00     0.013 A 
ATOM     16  C   UNL A   1      37.879  22.023  25.844  1.00  0.00    -0.005 A 
BRANCH  16  17
ATOM     17  C   UNL A   1      36.910  21.168  25.161  1.00  0.00     0.141 C 
ATOM     18  N   UNL A   1      35.668  21.180  25.519  1.00  0.00    -0.180 NA
BRANCH  18  19
ATOM     19  N   UNL A   1      34.861  20.205  25.012  1.00  0.00    -0.243 N 
ATOM     20  C   UNL A   1      33.602  20.311  24.442  1.00  0.00     0.271 C 
ATOM     21  H   UNL A   1      35.226  19.293  25.057  1.00  0.00     0.194 HD
ATOM     22  O   UNL A   1      32.982  19.300  24.113  1.00  0.00    -0.267 OA
BRANCH  20  23
ATOM     23  C   UNL A   1      32.962  21.633  24.222  1.00  0.00     0.045 A 
ATOM     24  C   UNL A   1      32.349  22.248  25.321  1.00  0.00     0.015 A 
ATOM     25  C   UNL A   1      32.967  22.269  22.974  1.00  0.00     0.061 A 
ATOM     26  C   UNL A   1      31.800  23.526  25.194  1.00  0.00     0.019 A 
ATOM     27  C   UNL A   1      32.430  23.553  22.855  1.00  0.00     0.129 A 
ATOM     28  C   UNL A   1      31.855  24.187  23.964  1.00  0.00     0.055 A 
ATOM     29  I   UNL A   1      31.111  26.139  23.863  1.00  0.00    -0.040 I 
BRANCH  27  30
ATOM     30  O   UNL A   1      32.525  24.218  21.664  1.00  0.00    -0.507 OA
ATOM     31  H   UNL A   1      33.055  23.870  20.974  1.00  0.00     0.293 HD
ENDBRANCH  27  30
ENDBRANCH  20  23
ENDBRANCH  18  19
ENDBRANCH  16  17
ENDBRANCH  10  11
ENDBRANCH   8  10
ENDBRANCH   6   8
ENDBRANCH   5   6
ENDBRANCH   4   5
ENDBRANCH   3   4
ENDBRANCH   2   3
ENDBRANCH   1   2
BRANCH   1  32
ATOM     32  C   UNL A   1      37.274  32.908  29.016  1.00  0.00     0.188 C 
BRANCH  32  33
ATOM     33  O   UNL A   1      36.415  33.880  29.570  1.00  0.00    -0.377 OA
BRANCH  33  34
ATOM     34  C   UNL A   1      35.254  33.482  30.284  1.00  0.00     0.188 C 
BRANCH  34  35
ATOM     35  C   UNL A   1      34.568  34.494  31.213  1.00  0.00     0.188 C 
BRANCH  35  36
ATOM     36  O   UNL A   1      34.414  34.039  32.548  1.00  0.00    -0.376 OA
BRANCH  36  37
ATOM     37  C   UNL A   1      34.779  32.702  32.860  1.00  0.00     0.202 C 
BRANCH  37  38
ATOM     38  C   UNL A   1      36.103  32.457  33.604  1.00  0.00     0.261 C 
BRANCH  38  39
ATOM     39  O   UNL A   1      36.957  31.417  33.097  1.00  0.00    -0.460 OA
BRANCH  39  40
ATOM     40  C   UNL A   1      37.993  31.001  33.852  1.00  0.00     0.338 C 
ATOM     41  O   UNL A   1      37.964  30.175  34.751  1.00  0.00    -0.246 OA
BRANCH  40  42
ATOM     42  C   UNL A   1      39.227  31.569  33.273  1.00  0.00     0.060 A 
ATOM     43  C   UNL A   1      39.168  32.198  32.021  1.00  0.00     0.016 A 
ATOM     44  C   UNL A   1      40.439  31.473  33.958  1.00  0.00     0.016 A 
ATOM     45  C   UNL A   1      40.331  32.696  31.433  1.00  0.00     0.010 A 
ATOM     46  C   UNL A   1      41.606  31.952  33.358  1.00  0.00     0.010 A 
ATOM     47  C   UNL A   1      41.563  32.533  32.077  1.00  0.00    -0.014 A 
BRANCH  47  48
ATOM     48  C   UNL A   1      42.827  32.779  31.341  1.00  0.00     0.031 A 
ATOM     49  C   UNL A   1      43.395  34.174  31.348  1.00  0.00     0.074 A 
ATOM     50  C   UNL A   1      43.457  31.796  30.674  1.00  0.00     0.049 A 
ATOM     51  N   UNL A   1      44.427  34.653  30.706  1.00  0.00    -0.248 NA
ATOM     52  C   UNL A   1      42.694  35.160  32.187  1.00  0.00     0.031 C 
ATOM     53  C   UNL A   1      43.037  30.397  30.632  1.00  0.00     0.029 A 
ATOM     54  N   UNL A   1      44.582  31.835  29.887  1.00  0.00    -0.354 N 
ATOM     55  C   UNL A   1      44.487  36.000  31.045  1.00  0.00     0.074 A 
ATOM     56  C   UNL A   1      43.375  36.266  31.930  1.00  0.00     0.031 C 
ATOM     57  C   UNL A   1      43.880  29.714  29.838  1.00  0.00     0.029 A 
ATOM     58  C   UNL A   1      44.872  30.634  29.284  1.00  0.00     0.049 A 
ATOM     59  H   UNL A   1      45.128  32.645  29.767  1.00  0.00     0.167 HD
ATOM     60  C   UNL A   1      45.387  36.933  30.652  1.00  0.00     0.031 A 
ATOM     61  C   UNL A   1      45.805  30.323  28.361  1.00  0.00     0.031 A 
ATOM     62  C   UNL A   1      46.480  36.665  29.756  1.00  0.00     0.049 A 
ATOM     63  C   UNL A   1      46.752  31.392  27.877  1.00  0.00     0.074 A 
ATOM     64  C   UNL A   1      47.461  37.534  29.315  1.00  0.00     0.029 A 
ATOM     65  N   UNL A   1      46.728  35.441  29.152  1.00  0.00    -0.354 N 
ATOM     66  N   UNL A   1      46.820  32.655  28.231  1.00  0.00    -0.248 NA
ATOM     67  C   UNL A   1      47.753  30.995  26.876  1.00  0.00     0.031 C 
ATOM     68  C   UNL A   1      48.258  36.857  28.387  1.00  0.00     0.029 A 
ATOM     69  C   UNL A   1      47.824  35.542  28.313  1.00  0.00     0.049 A 
ATOM     70  H   UNL A   1      46.202  34.622  29.299  1.00  0.00     0.167 HD
ATOM     71  C   UNL A   1      47.888  33.194  27.517  1.00  0.00     0.074 A 
ATOM     72  C   UNL A   1      48.442  32.118  26.721  1.00  0.00     0.031 C 
ATOM     73  C   UNL A   1      48.368  34.463  27.526  1.00  0.00     0.031 A 
BRANCH  60  74
ATOM     74  C   UNL A   1      45.188  38.342  31.146  1.00  0.00    -0.014 A 
ATOM     75  C   UNL A   1      45.808  38.808  32.319  1.00  0.00     0.010 A 
ATOM     76  C   UNL A   1      44.377  39.225  30.407  1.00  0.00     0.010 A 
ATOM     77  C   UNL A   1      45.583  40.113  32.769  1.00  0.00     0.020 A 
ATOM     78  C   UNL A   1      44.176  40.539  30.834  1.00  0.00     0.020 A 
ATOM     79  C   UNL A   1      44.765  40.968  32.025  1.00  0.00     0.054 A 
BRANCH  79  80
ATOM     80  S   UNL A   1      44.495  42.656  32.630  1.00  0.00     0.124 S 
ATOM     81  O   UNL A   1      43.051  42.807  32.465  1.00  0.00    -0.237 OA
ATOM     82  O   UNL A   1      44.964  42.580  34.010  1.00  0.00    -0.237 OA
ATOM     83  O   UNL A   1      45.311  43.480  31.740  1.00  0.00    -0.744 OA
ENDBRANCH  79  80
ENDBRANCH  60  74
BRANCH  61  84
ATOM     84  C   UNL A   1      45.864  28.941  27.808  1.00  0.00    -0.014 A 
ATOM     85  C   UNL A   1      45.139  28.588  26.657  1.00  0.00     0.010 A 
ATOM     86  C   UNL A   1      46.669  27.967  28.431  1.00  0.00     0.010 A 
ATOM     87  C   UNL A   1      45.212  27.290  26.142  1.00  0.00     0.020 A 
ATOM     88  C   UNL A   1      46.768  26.677  27.902  1.00  0.00     0.020 A 
ATOM     89  C   UNL A   1      46.033  26.344  26.765  1.00  0.00     0.054 A 
BRANCH  89  90
ATOM     90  S   UNL A   1      46.167  24.687  26.036  1.00  0.00     0.124 S 
ATOM     91  O   UNL A   1      47.265  24.106  26.801  1.00  0.00    -0.237 OA
ATOM     92  O   UNL A   1      44.844  24.124  26.297  1.00  0.00    -0.237 OA
ATOM     93  O   UNL A   1      46.455  24.955  24.629  1.00  0.00    -0.744 OA
ENDBRANCH  89  90
ENDBRANCH  61  84
BRANCH  73  94
ATOM     94  C   UNL A   1      49.582  34.764  26.684  1.00  0.00    -0.014 A 
ATOM     95  C   UNL A   1      49.464  35.227  25.361  1.00  0.00     0.010 A 
ATOM     96  C   UNL A   1      50.862  34.663  27.261  1.00  0.00     0.010 A 
ATOM     97  C   UNL A   1      50.605  35.568  24.629  1.00  0.00     0.020 A 
ATOM     98  C   UNL A   1      52.002  35.032  26.543  1.00  0.00     0.020 A 
ATOM     99  C   UNL A   1      51.866  35.474  25.226  1.00  0.00     0.054 A 
BRANCH  99 100
ATOM    100  S   UNL A   1      53.323  35.985  24.274  1.00  0.00     0.124 S 
ATOM    101  O   UNL A   1      54.377  35.947  25.283  1.00  0.00    -0.237 OA
ATOM    102  O   UNL A   1      53.406  34.957  23.240  1.00  0.00    -0.237 OA
ATOM    103  O   UNL A   1      52.972  37.319  23.791  1.00  0.00    -0.744 OA
ENDBRANCH  99 100
ENDBRANCH  73  94
ENDBRANCH  47  48
ENDBRANCH  40  42
ENDBRANCH  39  40
ENDBRANCH  38  39
ENDBRANCH  37  38
ENDBRANCH  36  37
ENDBRANCH  35  36
ENDBRANCH  34  35
ENDBRANCH  33  34
ENDBRANCH  32  33
ENDBRANCH   1  32
TORSDOF 29
ENDMDL
