MODEL 1
REMARK VINA RESULT:     -10.7      0.000      0.000
REMARK SMILES Cc1ccc(C(=O)N2CCCC[C@@H]2C(=O)OCCOCCOCCOCCOC(=O)c2ccc(-c3c4nc(c(-c5ccc(S(=O)(=O)[O-])cc5)c5ccc([nH]5)c(-c5ccc(S(=O)(=O)[O-])cc5)c5nc(c(-c6ccc(S(=O)(=O)[O-])cc6)c6ccc3[nH]6)C=C5)C=C4)cc2)cc1S(=O)(=O)N1CCCCC1
REMARK SMILES IDX 21 1 20 2 19 3 18 4 17 5 16 6 14 7 15 8 13 9 8 10 9 11 10 12
REMARK SMILES IDX 12 13 11 14 6 15 7 16 5 17 1 18 2 19 3 20 92 21 4 22 91 23
REMARK SMILES IDX 93 24 94 25 95 26 96 27 97 28 101 29 98 30 100 31 99 32
REMARK SMILES IDX 22 33 23 34 24 35 25 36 26 37 27 38 28 39 29 40 30 41 31 42
REMARK SMILES IDX 32 43 90 44 33 45 89 46 34 47 35 48 36 49 83 50 37 51 88 52
REMARK SMILES IDX 82 53 84 54 38 55 87 56 81 57 80 58 39 60 69 61 50 62 68 63
REMARK SMILES IDX 51 64 54 65 67 66 85 67 52 68 53 69 66 71 86 72 55 73 40 74
REMARK SMILES IDX 41 75 49 76 42 77 48 78 43 79 44 80 45 81 46 82 47 83 70 84
REMARK SMILES IDX 71 85 79 86 72 87 78 88 73 89 74 90 75 91 76 92 77 93 56 94
REMARK SMILES IDX 57 95 65 96 58 97 64 98 59 99 60 100 61 101 62 102 63 103
REMARK H PARENT 84 59 54 70
REMARK Flexibility Score: inf
ROOT
ATOM      1  C   UNL A   1      45.053  24.080  38.165  1.00  0.00     0.188 C 
ENDROOT
BRANCH   1   2
ATOM      2  C   UNL A   1      46.203  23.916  37.142  1.00  0.00     0.188 C 
BRANCH   2   3
ATOM      3  O   UNL A   1      46.607  22.482  36.249  1.00  0.00    -0.376 OA
BRANCH   3   4
ATOM      4  C   UNL A   1      45.697  20.923  36.069  1.00  0.00     0.202 C 
BRANCH   4   5
ATOM      5  C   UNL A   1      46.094  19.240  36.875  1.00  0.00     0.261 C 
BRANCH   5   6
ATOM      6  O   UNL A   1      45.590  18.763  38.578  1.00  0.00    -0.462 OA
BRANCH   6   7
ATOM      7  C   UNL A   1      45.844  17.770  39.830  1.00  0.00     0.328 C 
ATOM      8  O   UNL A   1      45.145  16.784  40.136  1.00  0.00    -0.250 OA
BRANCH   7   9
ATOM      9  C   UNL A   1      47.308  17.789  40.625  1.00  0.00     0.195 C 
ATOM     10  N   UNL A   1      47.448  18.323  41.986  1.00  0.00    -0.325 N 
ATOM     11  C   UNL A   1      48.787  18.551  42.519  1.00  0.00     0.121 C 
ATOM     12  C   UNL A   1      49.470  19.644  41.743  1.00  0.00     0.022 C 
ATOM     13  C   UNL A   1      48.468  18.386  39.671  1.00  0.00     0.037 C 
ATOM     14  C   UNL A   1      49.636  19.197  40.301  1.00  0.00     0.005 C 
BRANCH  10  15
ATOM     15  C   UNL A   1      46.382  18.388  42.889  1.00  0.00     0.254 C 
ATOM     16  O   UNL A   1      45.665  19.388  42.848  1.00  0.00    -0.269 OA
BRANCH  15  17
ATOM     17  C   UNL A   1      46.431  17.370  44.042  1.00  0.00     0.041 A 
ATOM     18  C   UNL A   1      45.800  12.372  45.376  1.00  0.00     0.046 C 
ATOM     19  C   UNL A   1      45.799  13.819  45.030  1.00  0.00    -0.031 A 
ATOM     20  C   UNL A   1      47.303  14.570  45.206  1.00  0.00     0.005 A 
ATOM     21  C   UNL A   1      44.473  14.811  44.438  1.00  0.00     0.086 A 
ATOM     22  C   UNL A   1      47.608  16.229  44.789  1.00  0.00     0.014 A 
ATOM     23  C   UNL A   1      44.871  16.810  43.984  1.00  0.00     0.035 A 
BRANCH  21  24
ATOM     24  S   UNL A   1      42.761  13.766  44.404  1.00  0.00     0.243 S 
ATOM     25  O   UNL A   1      42.902  12.324  44.538  1.00  0.00    -0.207 OA
ATOM     26  O   UNL A   1      41.878  14.469  45.315  1.00  0.00    -0.207 OA
BRANCH  24  27
ATOM     27  N   UNL A   1      42.193  13.952  42.833  1.00  0.00    -0.198 NA
ATOM     28  C   UNL A   1      41.994  12.648  42.209  1.00  0.00     0.102 C 
ATOM     29  C   UNL A   1      42.588  15.128  42.039  1.00  0.00     0.102 C 
ATOM     30  C   UNL A   1      41.876  12.683  40.712  1.00  0.00     0.017 C 
ATOM     31  C   UNL A   1      42.197  15.110  40.571  1.00  0.00     0.017 C 
ATOM     32  C   UNL A   1      41.258  13.977  40.228  1.00  0.00     0.003 C 
ENDBRANCH  24  27
ENDBRANCH  21  24
ENDBRANCH  15  17
ENDBRANCH  10  15
ENDBRANCH   7   9
ENDBRANCH   6   7
ENDBRANCH   5   6
ENDBRANCH   4   5
ENDBRANCH   3   4
ENDBRANCH   2   3
ENDBRANCH   1   2
BRANCH   1  33
ATOM     33  O   UNL A   1      45.127  25.059  39.163  1.00  0.00    -0.377 OA
BRANCH  33  34
ATOM     34  C   UNL A   1      45.970  26.113  38.749  1.00  0.00     0.188 C 
BRANCH  34  35
ATOM     35  C   UNL A   1      45.316  27.491  38.898  1.00  0.00     0.188 C 
BRANCH  35  36
ATOM     36  O   UNL A   1      44.234  27.807  38.041  1.00  0.00    -0.376 OA
BRANCH  36  37
ATOM     37  C   UNL A   1      44.255  28.726  36.977  1.00  0.00     0.202 C 
BRANCH  37  38
ATOM     38  C   UNL A   1      44.834  28.003  35.802  1.00  0.00     0.261 C 
BRANCH  38  39
ATOM     39  O   UNL A   1      46.304  28.010  35.772  1.00  0.00    -0.460 OA
BRANCH  39  40
ATOM     40  C   UNL A   1      47.056  29.160  35.756  1.00  0.00     0.338 C 
ATOM     41  O   UNL A   1      47.449  29.703  36.781  1.00  0.00    -0.246 OA
BRANCH  40  42
ATOM     42  C   UNL A   1      47.515  29.612  34.398  1.00  0.00     0.060 A 
ATOM     43  C   UNL A   1      47.037  30.801  33.869  1.00  0.00     0.016 A 
ATOM     44  C   UNL A   1      48.221  28.777  33.543  1.00  0.00     0.016 A 
ATOM     45  C   UNL A   1      46.984  30.956  32.474  1.00  0.00     0.010 A 
ATOM     46  C   UNL A   1      47.941  28.841  32.166  1.00  0.00     0.010 A 
ATOM     47  C   UNL A   1      47.103  29.840  31.617  1.00  0.00    -0.014 A 
BRANCH  47  48
ATOM     48  C   UNL A   1      46.418  29.435  30.061  1.00  0.00     0.031 A 
ATOM     49  C   UNL A   1      44.986  28.693  30.759  1.00  0.00     0.074 A 
ATOM     50  C   UNL A   1      47.010  29.523  28.443  1.00  0.00     0.049 A 
ATOM     51  N   UNL A   1      43.995  28.117  30.144  1.00  0.00    -0.248 NA
ATOM     52  C   UNL A   1      44.741  28.523  32.212  1.00  0.00     0.031 C 
ATOM     53  C   UNL A   1      46.540  29.772  27.025  1.00  0.00     0.029 A 
ATOM     54  N   UNL A   1      48.249  29.027  27.759  1.00  0.00    -0.354 N 
ATOM     55  C   UNL A   1      42.879  28.222  30.914  1.00  0.00     0.074 A 
ATOM     56  C   UNL A   1      43.424  28.289  32.249  1.00  0.00     0.031 C 
ATOM     57  C   UNL A   1      46.974  28.949  26.058  1.00  0.00     0.029 A 
ATOM     58  C   UNL A   1      48.032  28.248  26.631  1.00  0.00     0.049 A 
ATOM     59  H   UNL A   1      49.153  29.238  28.087  1.00  0.00     0.167 HD
ATOM     60  C   UNL A   1      41.675  28.394  30.285  1.00  0.00     0.031 A 
ATOM     61  C   UNL A   1      48.674  27.246  25.994  1.00  0.00     0.031 A 
ATOM     62  C   UNL A   1      41.655  27.870  28.797  1.00  0.00     0.049 A 
ATOM     63  C   UNL A   1      47.568  26.160  25.469  1.00  0.00     0.074 A 
ATOM     64  C   UNL A   1      40.676  27.923  27.288  1.00  0.00     0.029 A 
ATOM     65  N   UNL A   1      42.961  26.586  28.471  1.00  0.00    -0.354 N 
ATOM     66  N   UNL A   1      46.291  26.206  25.823  1.00  0.00    -0.248 NA
ATOM     67  C   UNL A   1      47.707  25.023  24.557  1.00  0.00     0.031 C 
ATOM     68  C   UNL A   1      41.254  26.531  25.984  1.00  0.00     0.029 A 
ATOM     69  C   UNL A   1      42.767  25.695  26.662  1.00  0.00     0.049 A 
ATOM     70  H   UNL A   1      43.673  26.362  29.113  1.00  0.00     0.167 HD
ATOM     71  C   UNL A   1      45.425  25.149  25.335  1.00  0.00     0.074 A 
ATOM     72  C   UNL A   1      46.449  24.491  24.479  1.00  0.00     0.031 C 
ATOM     73  C   UNL A   1      43.999  24.815  25.703  1.00  0.00     0.031 A 
BRANCH  60  74
ATOM     74  C   UNL A   1      40.458  28.881  31.117  1.00  0.00    -0.014 A 
ATOM     75  C   UNL A   1      40.627  29.878  32.086  1.00  0.00     0.010 A 
ATOM     76  C   UNL A   1      39.097  28.566  30.829  1.00  0.00     0.010 A 
ATOM     77  C   UNL A   1      39.557  30.715  32.483  1.00  0.00     0.020 A 
ATOM     78  C   UNL A   1      38.014  29.368  31.241  1.00  0.00     0.020 A 
ATOM     79  C   UNL A   1      38.269  30.505  31.987  1.00  0.00     0.054 A 
BRANCH  79  80
ATOM     80  S   UNL A   1      36.959  31.738  32.243  1.00  0.00     0.124 S 
ATOM     81  O   UNL A   1      35.734  30.952  32.130  1.00  0.00    -0.237 OA
ATOM     82  O   UNL A   1      37.267  32.244  33.579  1.00  0.00    -0.237 OA
ATOM     83  O   UNL A   1      37.176  32.695  31.159  1.00  0.00    -0.744 OA
ENDBRANCH  79  80
ENDBRANCH  60  74
BRANCH  61  84
ATOM     84  C   UNL A   1      50.165  27.422  26.343  1.00  0.00    -0.014 A 
ATOM     85  C   UNL A   1      50.734  26.321  27.096  1.00  0.00     0.010 A 
ATOM     86  C   UNL A   1      51.076  28.057  25.476  1.00  0.00     0.010 A 
ATOM     87  C   UNL A   1      52.005  25.745  26.807  1.00  0.00     0.020 A 
ATOM     88  C   UNL A   1      52.370  27.500  25.209  1.00  0.00     0.020 A 
ATOM     89  C   UNL A   1      52.806  26.321  25.827  1.00  0.00     0.054 A 
BRANCH  89  90
ATOM     90  S   UNL A   1      54.311  25.473  25.188  1.00  0.00     0.124 S 
ATOM     91  O   UNL A   1      53.926  24.068  25.232  1.00  0.00    -0.237 OA
ATOM     92  O   UNL A   1      54.478  26.016  23.842  1.00  0.00    -0.237 OA
ATOM     93  O   UNL A   1      55.339  25.870  26.144  1.00  0.00    -0.744 OA
ENDBRANCH  89  90
ENDBRANCH  61  84
BRANCH  73  94
ATOM     94  C   UNL A   1      43.591  23.336  25.562  1.00  0.00    -0.014 A 
ATOM     95  C   UNL A   1      44.507  22.275  25.703  1.00  0.00     0.010 A 
ATOM     96  C   UNL A   1      42.224  22.990  25.627  1.00  0.00     0.010 A 
ATOM     97  C   UNL A   1      44.094  20.947  25.850  1.00  0.00     0.020 A 
ATOM     98  C   UNL A   1      41.799  21.676  25.861  1.00  0.00     0.020 A 
ATOM     99  C   UNL A   1      42.739  20.656  25.940  1.00  0.00     0.054 A 
BRANCH  99 100
ATOM    100  S   UNL A   1      42.220  18.948  26.220  1.00  0.00     0.124 S 
ATOM    101  O   UNL A   1      40.869  18.957  25.666  1.00  0.00    -0.237 OA
ATOM    102  O   UNL A   1      43.201  18.174  25.460  1.00  0.00    -0.237 OA
ATOM    103  O   UNL A   1      42.308  18.793  27.670  1.00  0.00    -0.744 OA
ENDBRANCH  99 100
ENDBRANCH  73  94
ENDBRANCH  47  48
ENDBRANCH  40  42
ENDBRANCH  39  40
ENDBRANCH  38  39
ENDBRANCH  37  38
ENDBRANCH  36  37
ENDBRANCH  35  36
ENDBRANCH  34  35
ENDBRANCH  33  34
ENDBRANCH   1  33
TORSDOF 27
ENDMDL
MODEL 2
REMARK VINA RESULT:     -10.0     10.583     22.067
REMARK SMILES Cc1ccc(C(=O)N2CCCC[C@@H]2C(=O)OCCOCCOCCOCCOC(=O)c2ccc(-c3c4nc(c(-c5ccc(S(=O)(=O)[O-])cc5)c5ccc([nH]5)c(-c5ccc(S(=O)(=O)[O-])cc5)c5nc(c(-c6ccc(S(=O)(=O)[O-])cc6)c6ccc3[nH]6)C=C5)C=C4)cc2)cc1S(=O)(=O)N1CCCCC1
REMARK SMILES IDX 21 1 20 2 19 3 18 4 17 5 16 6 14 7 15 8 13 9 8 10 9 11 10 12
REMARK SMILES IDX 12 13 11 14 6 15 7 16 5 17 1 18 2 19 3 20 92 21 4 22 91 23
REMARK SMILES IDX 93 24 94 25 95 26 96 27 97 28 101 29 98 30 100 31 99 32
REMARK SMILES IDX 22 33 23 34 24 35 25 36 26 37 27 38 28 39 29 40 30 41 31 42
REMARK SMILES IDX 32 43 90 44 33 45 89 46 34 47 35 48 36 49 83 50 37 51 88 52
REMARK SMILES IDX 82 53 84 54 38 55 87 56 81 57 80 58 39 60 69 61 50 62 68 63
REMARK SMILES IDX 51 64 54 65 67 66 85 67 52 68 53 69 66 71 86 72 55 73 40 74
REMARK SMILES IDX 41 75 49 76 42 77 48 78 43 79 44 80 45 81 46 82 47 83 70 84
REMARK SMILES IDX 71 85 79 86 72 87 78 88 73 89 74 90 75 91 76 92 77 93 56 94
REMARK SMILES IDX 57 95 65 96 58 97 64 98 59 99 60 100 61 101 62 102 63 103
REMARK H PARENT 84 59 54 70
REMARK Flexibility Score: inf
ROOT
ATOM      1  C   UNL A   1      43.066  39.882  29.365  1.00  0.00     0.188 C 
ENDROOT
BRANCH   1   2
ATOM      2  C   UNL A   1      43.661  39.439  28.007  1.00  0.00     0.188 C 
BRANCH   2   3
ATOM      3  O   UNL A   1      43.428  40.208  26.468  1.00  0.00    -0.376 OA
BRANCH   3   4
ATOM      4  C   UNL A   1      41.960  41.017  25.775  1.00  0.00     0.202 C 
BRANCH   4   5
ATOM      5  C   UNL A   1      41.763  41.799  24.046  1.00  0.00     0.261 C 
BRANCH   5   6
ATOM      6  O   UNL A   1      42.708  43.263  23.459  1.00  0.00    -0.462 OA
BRANCH   6   7
ATOM      7  C   UNL A   1      44.022  44.186  23.654  1.00  0.00     0.328 C 
ATOM      8  O   UNL A   1      44.030  45.388  23.986  1.00  0.00    -0.250 OA
BRANCH   7   9
ATOM      9  C   UNL A   1      45.526  43.480  23.769  1.00  0.00     0.195 C 
ATOM     10  N   UNL A   1      46.393  43.300  22.597  1.00  0.00    -0.325 N 
ATOM     11  C   UNL A   1      47.572  42.448  22.716  1.00  0.00     0.121 C 
ATOM     12  C   UNL A   1      47.153  41.021  22.947  1.00  0.00     0.022 C 
ATOM     13  C   UNL A   1      45.450  42.109  24.620  1.00  0.00     0.037 C 
ATOM     14  C   UNL A   1      46.405  40.933  24.266  1.00  0.00     0.005 C 
BRANCH  10  15
ATOM     15  C   UNL A   1      46.295  44.096  21.451  1.00  0.00     0.254 C 
ATOM     16  O   UNL A   1      45.410  43.816  20.642  1.00  0.00    -0.269 OA
BRANCH  15  17
ATOM     17  C   UNL A   1      47.503  45.007  21.174  1.00  0.00     0.041 A 
ATOM     18  C   UNL A   1      49.139  49.935  20.722  1.00  0.00     0.046 C 
ATOM     19  C   UNL A   1      48.632  48.537  20.670  1.00  0.00    -0.031 A 
ATOM     20  C   UNL A   1      49.264  47.531  21.873  1.00  0.00     0.005 A 
ATOM     21  C   UNL A   1      47.461  47.828  19.567  1.00  0.00     0.086 A 
ATOM     22  C   UNL A   1      48.780  45.877  22.100  1.00  0.00     0.014 A 
ATOM     23  C   UNL A   1      46.934  45.827  19.849  1.00  0.00     0.035 A 
BRANCH  21  24
ATOM     24  S   UNL A   1      46.920  49.148  18.156  1.00  0.00     0.243 S 
ATOM     25  O   UNL A   1      47.139  50.547  18.488  1.00  0.00    -0.207 OA
ATOM     26  O   UNL A   1      47.480  48.626  16.925  1.00  0.00    -0.207 OA
BRANCH  24  27
ATOM     27  N   UNL A   1      45.245  49.025  18.095  1.00  0.00    -0.198 NA
ATOM     28  C   UNL A   1      44.820  48.569  16.775  1.00  0.00     0.102 C 
ATOM     29  C   UNL A   1      44.407  49.933  18.896  1.00  0.00     0.102 C 
ATOM     30  C   UNL A   1      43.366  48.798  16.473  1.00  0.00     0.017 C 
ATOM     31  C   UNL A   1      42.913  49.887  18.622  1.00  0.00     0.017 C 
ATOM     32  C   UNL A   1      42.516  48.738  17.724  1.00  0.00     0.003 C 
ENDBRANCH  24  27
ENDBRANCH  21  24
ENDBRANCH  15  17
ENDBRANCH  10  15
ENDBRANCH   7   9
ENDBRANCH   6   7
ENDBRANCH   5   6
ENDBRANCH   4   5
ENDBRANCH   3   4
ENDBRANCH   2   3
ENDBRANCH   1   2
BRANCH   1  33
ATOM     33  O   UNL A   1      43.431  39.224  30.546  1.00  0.00    -0.377 OA
BRANCH  33  34
ATOM     34  C   UNL A   1      43.685  40.164  31.569  1.00  0.00     0.188 C 
BRANCH  34  35
ATOM     35  C   UNL A   1      43.435  39.599  32.971  1.00  0.00     0.188 C 
BRANCH  35  36
ATOM     36  O   UNL A   1      44.289  38.569  33.433  1.00  0.00    -0.376 OA
BRANCH  36  37
ATOM     37  C   UNL A   1      43.897  37.284  33.849  1.00  0.00     0.202 C 
BRANCH  37  38
ATOM     38  C   UNL A   1      42.657  37.463  34.669  1.00  0.00     0.261 C 
BRANCH  38  39
ATOM     39  O   UNL A   1      42.637  36.647  35.892  1.00  0.00    -0.460 OA
BRANCH  39  40
ATOM     40  C   UNL A   1      42.903  35.300  35.909  1.00  0.00     0.338 C 
ATOM     41  O   UNL A   1      43.964  34.844  36.318  1.00  0.00    -0.246 OA
BRANCH  40  42
ATOM     42  C   UNL A   1      41.744  34.409  35.559  1.00  0.00     0.060 A 
ATOM     43  C   UNL A   1      41.391  33.372  36.407  1.00  0.00     0.016 A 
ATOM     44  C   UNL A   1      41.150  34.431  34.305  1.00  0.00     0.016 A 
ATOM     45  C   UNL A   1      40.743  32.244  35.876  1.00  0.00     0.010 A 
ATOM     46  C   UNL A   1      40.729  33.213  33.744  1.00  0.00     0.010 A 
ATOM     47  C   UNL A   1      40.730  32.007  34.484  1.00  0.00    -0.014 A 
BRANCH  47  48
ATOM     48  C   UNL A   1      40.743  30.558  33.507  1.00  0.00     0.031 A 
ATOM     49  C   UNL A   1      42.462  30.278  33.746  1.00  0.00     0.074 A 
ATOM     50  C   UNL A   1      39.571  29.794  32.498  1.00  0.00     0.049 A 
ATOM     51  N   UNL A   1      43.201  29.329  33.251  1.00  0.00    -0.248 NA
ATOM     52  C   UNL A   1      43.372  31.178  34.496  1.00  0.00     0.031 C 
ATOM     53  C   UNL A   1      39.120  28.422  32.042  1.00  0.00     0.029 A 
ATOM     54  N   UNL A   1      38.709  30.263  31.364  1.00  0.00    -0.354 N 
ATOM     55  C   UNL A   1      44.244  29.100  34.093  1.00  0.00     0.074 A 
ATOM     56  C   UNL A   1      44.424  30.384  34.727  1.00  0.00     0.031 C 
ATOM     57  C   UNL A   1      38.872  28.237  30.736  1.00  0.00     0.029 A 
ATOM     58  C   UNL A   1      38.809  29.519  30.197  1.00  0.00     0.049 A 
ATOM     59  H   UNL A   1      38.113  31.044  31.442  1.00  0.00     0.167 HD
ATOM     60  C   UNL A   1      44.689  27.812  34.234  1.00  0.00     0.031 A 
ATOM     61  C   UNL A   1      38.669  29.750  28.874  1.00  0.00     0.031 A 
ATOM     62  C   UNL A   1      44.347  26.885  33.004  1.00  0.00     0.049 A 
ATOM     63  C   UNL A   1      39.822  28.915  28.068  1.00  0.00     0.074 A 
ATOM     64  C   UNL A   1      44.317  25.159  32.496  1.00  0.00     0.029 A 
ATOM     65  N   UNL A   1      44.055  27.846  31.439  1.00  0.00    -0.354 N 
ATOM     66  N   UNL A   1      40.826  28.300  28.680  1.00  0.00    -0.248 NA
ATOM     67  C   UNL A   1      39.983  28.649  26.637  1.00  0.00     0.031 C 
ATOM     68  C   UNL A   1      44.152  24.974  30.519  1.00  0.00     0.029 A 
ATOM     69  C   UNL A   1      43.903  26.668  29.798  1.00  0.00     0.049 A 
ATOM     70  H   UNL A   1      43.983  28.827  31.411  1.00  0.00     0.167 HD
ATOM     71  C   UNL A   1      41.814  27.643  27.846  1.00  0.00     0.074 A 
ATOM     72  C   UNL A   1      41.117  27.888  26.555  1.00  0.00     0.031 C 
ATOM     73  C   UNL A   1      43.146  27.034  28.216  1.00  0.00     0.031 A 
BRANCH  60  74
ATOM     74  C   UNL A   1      45.607  27.465  35.437  1.00  0.00    -0.014 A 
ATOM     75  C   UNL A   1      45.216  27.805  36.737  1.00  0.00     0.010 A 
ATOM     76  C   UNL A   1      46.742  26.603  35.371  1.00  0.00     0.010 A 
ATOM     77  C   UNL A   1      45.691  27.094  37.865  1.00  0.00     0.020 A 
ATOM     78  C   UNL A   1      47.251  25.910  36.487  1.00  0.00     0.020 A 
ATOM     79  C   UNL A   1      46.647  26.088  37.719  1.00  0.00     0.054 A 
BRANCH  79  80
ATOM     80  S   UNL A   1      47.041  24.970  39.096  1.00  0.00     0.124 S 
ATOM     81  O   UNL A   1      45.762  24.326  39.381  1.00  0.00    -0.237 OA
ATOM     82  O   UNL A   1      48.068  24.110  38.511  1.00  0.00    -0.237 OA
ATOM     83  O   UNL A   1      47.521  25.873  40.141  1.00  0.00    -0.744 OA
ENDBRANCH  79  80
ENDBRANCH  60  74
BRANCH  61  84
ATOM     84  C   UNL A   1      37.702  30.946  28.762  1.00  0.00    -0.014 A 
ATOM     85  C   UNL A   1      36.320  30.622  29.057  1.00  0.00     0.010 A 
ATOM     86  C   UNL A   1      38.075  32.257  29.117  1.00  0.00     0.010 A 
ATOM     87  C   UNL A   1      35.480  31.436  29.872  1.00  0.00     0.020 A 
ATOM     88  C   UNL A   1      37.218  33.092  29.907  1.00  0.00     0.020 A 
ATOM     89  C   UNL A   1      35.954  32.660  30.329  1.00  0.00     0.054 A 
BRANCH  89  90
ATOM     90  S   UNL A   1      35.058  33.622  31.619  1.00  0.00     0.124 S 
ATOM     91  O   UNL A   1      34.552  34.765  30.868  1.00  0.00    -0.237 OA
ATOM     92  O   UNL A   1      34.028  32.703  32.095  1.00  0.00    -0.237 OA
ATOM     93  O   UNL A   1      36.108  33.925  32.586  1.00  0.00    -0.744 OA
ENDBRANCH  89  90
ENDBRANCH  61  84
BRANCH  73  94
ATOM     94  C   UNL A   1      44.220  27.031  27.111  1.00  0.00    -0.014 A 
ATOM     95  C   UNL A   1      44.733  28.215  26.543  1.00  0.00     0.010 A 
ATOM     96  C   UNL A   1      44.966  25.856  26.880  1.00  0.00     0.010 A 
ATOM     97  C   UNL A   1      45.888  28.223  25.755  1.00  0.00     0.020 A 
ATOM     98  C   UNL A   1      46.171  25.867  26.164  1.00  0.00     0.020 A 
ATOM     99  C   UNL A   1      46.609  27.048  25.579  1.00  0.00     0.054 A 
BRANCH  99 100
ATOM    100  S   UNL A   1      48.147  27.090  24.632  1.00  0.00     0.124 S 
ATOM    101  O   UNL A   1      48.870  28.172  25.294  1.00  0.00    -0.237 OA
ATOM    102  O   UNL A   1      48.700  25.752  24.839  1.00  0.00    -0.237 OA
ATOM    103  O   UNL A   1      47.706  27.366  23.268  1.00  0.00    -0.744 OA
ENDBRANCH  99 100
ENDBRANCH  73  94
ENDBRANCH  47  48
ENDBRANCH  40  42
ENDBRANCH  39  40
ENDBRANCH  38  39
ENDBRANCH  37  38
ENDBRANCH  36  37
ENDBRANCH  35  36
ENDBRANCH  34  35
ENDBRANCH  33  34
ENDBRANCH   1  33
TORSDOF 27
ENDMDL
MODEL 3
REMARK VINA RESULT:      -9.9      8.596     16.645
REMARK SMILES Cc1ccc(C(=O)N2CCCC[C@@H]2C(=O)OCCOCCOCCOCCOC(=O)c2ccc(-c3c4nc(c(-c5ccc(S(=O)(=O)[O-])cc5)c5ccc([nH]5)c(-c5ccc(S(=O)(=O)[O-])cc5)c5nc(c(-c6ccc(S(=O)(=O)[O-])cc6)c6ccc3[nH]6)C=C5)C=C4)cc2)cc1S(=O)(=O)N1CCCCC1
REMARK SMILES IDX 21 1 20 2 19 3 18 4 17 5 16 6 14 7 15 8 13 9 8 10 9 11 10 12
REMARK SMILES IDX 12 13 11 14 6 15 7 16 5 17 1 18 2 19 3 20 92 21 4 22 91 23
REMARK SMILES IDX 93 24 94 25 95 26 96 27 97 28 101 29 98 30 100 31 99 32
REMARK SMILES IDX 22 33 23 34 24 35 25 36 26 37 27 38 28 39 29 40 30 41 31 42
REMARK SMILES IDX 32 43 90 44 33 45 89 46 34 47 35 48 36 49 83 50 37 51 88 52
REMARK SMILES IDX 82 53 84 54 38 55 87 56 81 57 80 58 39 60 69 61 50 62 68 63
REMARK SMILES IDX 51 64 54 65 67 66 85 67 52 68 53 69 66 71 86 72 55 73 40 74
REMARK SMILES IDX 41 75 49 76 42 77 48 78 43 79 44 80 45 81 46 82 47 83 70 84
REMARK SMILES IDX 71 85 79 86 72 87 78 88 73 89 74 90 75 91 76 92 77 93 56 94
REMARK SMILES IDX 57 95 65 96 58 97 64 98 59 99 60 100 61 101 62 102 63 103
REMARK H PARENT 84 59 54 70
REMARK Flexibility Score: inf
ROOT
ATOM      1  C   UNL A   1      41.590  40.443  28.593  1.00  0.00     0.188 C 
ENDROOT
BRANCH   1   2
ATOM      2  C   UNL A   1      41.760  39.594  27.311  1.00  0.00     0.188 C 
BRANCH   2   3
ATOM      3  O   UNL A   1      43.247  39.231  26.490  1.00  0.00    -0.376 OA
BRANCH   3   4
ATOM      4  C   UNL A   1      44.815  40.143  26.457  1.00  0.00     0.202 C 
BRANCH   4   5
ATOM      5  C   UNL A   1      46.309  39.854  25.307  1.00  0.00     0.261 C 
BRANCH   5   6
ATOM      6  O   UNL A   1      47.393  38.369  25.369  1.00  0.00    -0.462 OA
BRANCH   6   7
ATOM      7  C   UNL A   1      47.782  37.018  26.169  1.00  0.00     0.328 C 
ATOM      8  O   UNL A   1      47.167  35.935  26.119  1.00  0.00    -0.250 OA
BRANCH   7   9
ATOM      9  C   UNL A   1      49.285  36.869  26.872  1.00  0.00     0.195 C 
ATOM     10  N   UNL A   1      49.643  37.584  28.105  1.00  0.00    -0.325 N 
ATOM     11  C   UNL A   1      51.041  37.618  28.519  1.00  0.00     0.121 C 
ATOM     12  C   UNL A   1      51.853  38.401  27.523  1.00  0.00     0.022 C 
ATOM     13  C   UNL A   1      50.452  37.045  25.768  1.00  0.00     0.037 C 
ATOM     14  C   UNL A   1      51.805  37.694  26.180  1.00  0.00     0.005 C 
BRANCH  10  15
ATOM     15  C   UNL A   1      48.691  38.017  29.033  1.00  0.00     0.254 C 
ATOM     16  O   UNL A   1      48.377  39.207  29.010  1.00  0.00    -0.269 OA
BRANCH  15  17
ATOM     17  C   UNL A   1      48.400  37.039  30.186  1.00  0.00     0.041 A 
ATOM     18  C   UNL A   1      47.102  32.147  31.430  1.00  0.00     0.046 C 
ATOM     19  C   UNL A   1      47.291  33.578  31.067  1.00  0.00    -0.031 A 
ATOM     20  C   UNL A   1      48.770  34.226  31.567  1.00  0.00     0.005 A 
ATOM     21  C   UNL A   1      46.213  34.641  30.172  1.00  0.00     0.086 A 
ATOM     22  C   UNL A   1      49.287  35.844  31.201  1.00  0.00     0.014 A 
ATOM     23  C   UNL A   1      46.855  36.589  29.785  1.00  0.00     0.035 A 
BRANCH  21  24
ATOM     24  S   UNL A   1      44.477  33.719  29.768  1.00  0.00     0.243 S 
ATOM     25  O   UNL A   1      44.590  32.352  29.282  1.00  0.00    -0.207 OA
ATOM     26  O   UNL A   1      43.640  33.982  30.922  1.00  0.00    -0.207 OA
BRANCH  24  27
ATOM     27  N   UNL A   1      43.865  34.550  28.442  1.00  0.00    -0.198 NA
ATOM     28  C   UNL A   1      42.633  35.243  28.805  1.00  0.00     0.102 C 
ATOM     29  C   UNL A   1      44.078  34.031  27.082  1.00  0.00     0.102 C 
ATOM     30  C   UNL A   1      41.795  35.682  27.638  1.00  0.00     0.017 C 
ATOM     31  C   UNL A   1      43.318  34.732  25.967  1.00  0.00     0.017 C 
ATOM     32  C   UNL A   1      42.645  36.004  26.427  1.00  0.00     0.003 C 
ENDBRANCH  24  27
ENDBRANCH  21  24
ENDBRANCH  15  17
ENDBRANCH  10  15
ENDBRANCH   7   9
ENDBRANCH   6   7
ENDBRANCH   5   6
ENDBRANCH   4   5
ENDBRANCH   3   4
ENDBRANCH   2   3
ENDBRANCH   1   2
BRANCH   1  33
ATOM     33  O   UNL A   1      42.423  40.231  29.699  1.00  0.00    -0.377 OA
BRANCH  33  34
ATOM     34  C   UNL A   1      43.224  41.370  29.931  1.00  0.00     0.188 C 
BRANCH  34  35
ATOM     35  C   UNL A   1      43.761  41.437  31.364  1.00  0.00     0.188 C 
BRANCH  35  36
ATOM     36  O   UNL A   1      44.706  40.463  31.765  1.00  0.00    -0.376 OA
BRANCH  36  37
ATOM     37  C   UNL A   1      44.477  39.393  32.649  1.00  0.00     0.202 C 
BRANCH  37  38
ATOM     38  C   UNL A   1      43.761  39.965  33.832  1.00  0.00     0.261 C 
BRANCH  38  39
ATOM     39  O   UNL A   1      44.126  39.329  35.106  1.00  0.00    -0.460 OA
BRANCH  39  40
ATOM     40  C   UNL A   1      44.355  37.981  35.242  1.00  0.00     0.338 C 
ATOM     41  O   UNL A   1      45.480  37.515  35.371  1.00  0.00    -0.246 OA
BRANCH  40  42
ATOM     42  C   UNL A   1      43.126  37.130  35.399  1.00  0.00     0.060 A 
ATOM     43  C   UNL A   1      42.938  36.399  36.561  1.00  0.00     0.016 A 
ATOM     44  C   UNL A   1      42.276  36.859  34.336  1.00  0.00     0.016 A 
ATOM     45  C   UNL A   1      42.163  35.228  36.514  1.00  0.00     0.010 A 
ATOM     46  C   UNL A   1      41.713  35.575  34.242  1.00  0.00     0.010 A 
ATOM     47  C   UNL A   1      41.843  34.621  35.280  1.00  0.00    -0.014 A 
BRANCH  47  48
ATOM     48  C   UNL A   1      41.609  32.965  34.774  1.00  0.00     0.031 A 
ATOM     49  C   UNL A   1      43.324  32.687  34.504  1.00  0.00     0.074 A 
ATOM     50  C   UNL A   1      40.212  32.009  34.444  1.00  0.00     0.049 A 
ATOM     51  N   UNL A   1      43.907  31.610  34.066  1.00  0.00    -0.248 NA
ATOM     52  C   UNL A   1      44.383  33.716  34.648  1.00  0.00     0.031 C 
ATOM     53  C   UNL A   1      39.704  30.585  34.543  1.00  0.00     0.029 A 
ATOM     54  N   UNL A   1      39.005  32.194  33.573  1.00  0.00    -0.354 N 
ATOM     55  C   UNL A   1      45.177  31.571  34.551  1.00  0.00     0.074 A 
ATOM     56  C   UNL A   1      45.491  32.969  34.725  1.00  0.00     0.031 C 
ATOM     57  C   UNL A   1      39.055  30.069  33.488  1.00  0.00     0.029 A 
ATOM     58  C   UNL A   1      38.757  31.162  32.679  1.00  0.00     0.049 A 
ATOM     59  H   UNL A   1      38.430  32.991  33.630  1.00  0.00     0.167 HD
ATOM     60  C   UNL A   1      45.707  30.350  34.876  1.00  0.00     0.031 A 
ATOM     61  C   UNL A   1      38.184  31.037  31.463  1.00  0.00     0.031 A 
ATOM     62  C   UNL A   1      45.030  29.143  34.119  1.00  0.00     0.049 A 
ATOM     63  C   UNL A   1      39.051  29.968  30.578  1.00  0.00     0.074 A 
ATOM     64  C   UNL A   1      44.921  27.347  34.126  1.00  0.00     0.029 A 
ATOM     65  N   UNL A   1      44.197  29.662  32.539  1.00  0.00    -0.354 N 
ATOM     66  N   UNL A   1      40.228  29.499  30.969  1.00  0.00    -0.248 NA
ATOM     67  C   UNL A   1      38.750  29.324  29.298  1.00  0.00     0.031 C 
ATOM     68  C   UNL A   1      44.130  26.648  32.436  1.00  0.00     0.029 A 
ATOM     69  C   UNL A   1      43.578  28.096  31.413  1.00  0.00     0.049 A 
ATOM     70  H   UNL A   1      44.072  30.603  32.276  1.00  0.00     0.167 HD
ATOM     71  C   UNL A   1      40.922  28.601  30.065  1.00  0.00     0.074 A 
ATOM     72  C   UNL A   1      39.832  28.522  29.056  1.00  0.00     0.031 C 
ATOM     73  C   UNL A   1      42.330  28.058  30.127  1.00  0.00     0.031 A 
BRANCH  60  74
ATOM     74  C   UNL A   1      46.982  30.298  35.760  1.00  0.00    -0.014 A 
ATOM     75  C   UNL A   1      46.865  30.194  37.151  1.00  0.00     0.010 A 
ATOM     76  C   UNL A   1      48.307  30.112  35.266  1.00  0.00     0.010 A 
ATOM     77  C   UNL A   1      47.894  29.628  37.941  1.00  0.00     0.020 A 
ATOM     78  C   UNL A   1      49.354  29.580  36.043  1.00  0.00     0.020 A 
ATOM     79  C   UNL A   1      49.104  29.244  37.362  1.00  0.00     0.054 A 
BRANCH  79  80
ATOM     80  S   UNL A   1      50.308  28.248  38.291  1.00  0.00     0.124 S 
ATOM     81  O   UNL A   1      51.583  28.889  37.980  1.00  0.00    -0.237 OA
ATOM     82  O   UNL A   1      49.840  28.402  39.667  1.00  0.00    -0.237 OA
ATOM     83  O   UNL A   1      50.142  26.907  37.734  1.00  0.00    -0.744 OA
ENDBRANCH  79  80
ENDBRANCH  60  74
BRANCH  61  84
ATOM     84  C   UNL A   1      37.175  32.198  31.359  1.00  0.00    -0.014 A 
ATOM     85  C   UNL A   1      37.477  33.156  30.313  1.00  0.00     0.010 A 
ATOM     86  C   UNL A   1      35.798  32.030  31.605  1.00  0.00     0.010 A 
ATOM     87  C   UNL A   1      36.497  33.684  29.423  1.00  0.00     0.020 A 
ATOM     88  C   UNL A   1      34.807  32.588  30.731  1.00  0.00     0.020 A 
ATOM     89  C   UNL A   1      35.159  33.360  29.617  1.00  0.00     0.054 A 
BRANCH  89  90
ATOM     90  S   UNL A   1      33.879  33.747  28.350  1.00  0.00     0.124 S 
ATOM     91  O   UNL A   1      33.567  32.432  27.802  1.00  0.00    -0.237 OA
ATOM     92  O   UNL A   1      32.796  34.358  29.116  1.00  0.00    -0.237 OA
ATOM     93  O   UNL A   1      34.580  34.652  27.445  1.00  0.00    -0.744 OA
ENDBRANCH  89  90
ENDBRANCH  61  84
BRANCH  73  94
ATOM     94  C   UNL A   1      42.985  27.715  28.776  1.00  0.00    -0.014 A 
ATOM     95  C   UNL A   1      43.440  28.701  27.877  1.00  0.00     0.010 A 
ATOM     96  C   UNL A   1      43.458  26.405  28.553  1.00  0.00     0.010 A 
ATOM     97  C   UNL A   1      44.274  28.396  26.796  1.00  0.00     0.020 A 
ATOM     98  C   UNL A   1      44.362  26.103  27.526  1.00  0.00     0.020 A 
ATOM     99  C   UNL A   1      44.740  27.098  26.632  1.00  0.00     0.054 A 
BRANCH  99 100
ATOM    100  S   UNL A   1      45.887  26.736  25.285  1.00  0.00     0.124 S 
ATOM    101  O   UNL A   1      47.160  26.654  25.996  1.00  0.00    -0.237 OA
ATOM    102  O   UNL A   1      45.387  25.468  24.755  1.00  0.00    -0.237 OA
ATOM    103  O   UNL A   1      45.737  27.877  24.386  1.00  0.00    -0.744 OA
ENDBRANCH  99 100
ENDBRANCH  73  94
ENDBRANCH  47  48
ENDBRANCH  40  42
ENDBRANCH  39  40
ENDBRANCH  38  39
ENDBRANCH  37  38
ENDBRANCH  36  37
ENDBRANCH  35  36
ENDBRANCH  34  35
ENDBRANCH  33  34
ENDBRANCH   1  33
TORSDOF 27
ENDMDL
