MODEL 1
REMARK VINA RESULT:      -9.1      0.000      0.000
REMARK SMILES CO[C@@H]1C[C@H](C(=O)OCCOCCOCCOCCOC(=O)c2ccc(-c3c4nc(c(-c5ccc(S(=O)(=O)[O-])cc5)c5ccc([nH]5)c(-c5ccc(S(=O)(=O)[O-])cc5)c5nc(c(-c6ccc(S(=O)(=O)[O-])cc6)c6ccc3[nH]6)C=C5)C=C4)cc2)N(C(=O)c2ccc([N+](=O)[O-])s2)C1
REMARK SMILES IDX 14 1 13 2 12 3 11 4 10 5 9 6 8 7 6 8 7 9 5 10 3 11 4 12
REMARK SMILES IDX 94 13 83 14 2 15 1 16 84 17 85 18 86 19 87 20 93 21 88 22
REMARK SMILES IDX 89 23 90 24 91 25 92 26 15 27 16 28 17 29 18 30 19 31 20 32
REMARK SMILES IDX 21 33 22 34 23 35 24 36 82 37 25 38 81 39 26 40 27 41 28 42
REMARK SMILES IDX 75 43 29 44 80 45 74 46 76 47 30 48 79 49 73 50 72 51 31 53
REMARK SMILES IDX 61 54 42 55 60 56 43 57 46 58 59 59 77 60 44 61 45 62 58 64
REMARK SMILES IDX 78 65 47 66 32 67 33 68 41 69 34 70 40 71 35 72 36 73 37 74
REMARK SMILES IDX 38 75 39 76 62 77 63 78 71 79 64 80 70 81 65 82 66 83 67 84
REMARK SMILES IDX 68 85 69 86 48 87 49 88 57 89 50 90 56 91 51 92 52 93 53 94
REMARK SMILES IDX 54 95 55 96
REMARK H PARENT 76 52 46 63
REMARK Flexibility Score: inf
ROOT
ATOM      1  O   UNL A   1      35.319  30.029  28.024  1.00  0.00    -0.377 OA
ENDROOT
BRANCH   1   2
ATOM      2  C   UNL A   1      34.924  29.126  26.994  1.00  0.00     0.188 C 
BRANCH   2   3
ATOM      3  C   UNL A   1      33.419  28.849  26.999  1.00  0.00     0.188 C 
BRANCH   3   4
ATOM      4  O   UNL A   1      32.995  27.522  26.693  1.00  0.00    -0.376 OA
BRANCH   4   5
ATOM      5  C   UNL A   1      33.286  26.995  25.403  1.00  0.00     0.202 C 
BRANCH   5   6
ATOM      6  C   UNL A   1      33.127  25.482  25.194  1.00  0.00     0.261 C 
BRANCH   6   7
ATOM      7  O   UNL A   1      33.491  24.689  26.336  1.00  0.00    -0.462 OA
BRANCH   7   8
ATOM      8  C   UNL A   1      33.881  23.429  26.042  1.00  0.00     0.329 C 
ATOM      9  O   UNL A   1      33.869  22.498  26.844  1.00  0.00    -0.250 OA
BRANCH   8  10
ATOM     10  C   UNL A   1      34.311  23.214  24.583  1.00  0.00     0.198 C 
ATOM     11  C   UNL A   1      36.498  22.189  24.484  1.00  0.00     0.140 C 
ATOM     12  C   UNL A   1      35.731  23.468  24.125  1.00  0.00     0.071 C 
ATOM     13  C   UNL A   1      35.395  21.111  24.653  1.00  0.00     0.152 C 
ATOM     14  N   UNL A   1      34.152  21.794  24.313  1.00  0.00    -0.321 N 
BRANCH  11  15
ATOM     15  O   UNL A   1      37.267  22.371  25.671  1.00  0.00    -0.380 OA
ATOM     16  C   UNL A   1      37.664  23.728  25.869  1.00  0.00     0.195 C 
ENDBRANCH  11  15
BRANCH  14  17
ATOM     17  C   UNL A   1      32.969  21.146  23.990  1.00  0.00     0.265 C 
ATOM     18  O   UNL A   1      32.064  21.719  23.387  1.00  0.00    -0.268 OA
BRANCH  17  19
ATOM     19  C   UNL A   1      32.853  19.777  24.477  1.00  0.00     0.099 A 
ATOM     20  C   UNL A   1      32.681  19.347  25.783  1.00  0.00     0.033 A 
ATOM     21  S   UNL A   1      32.980  18.455  23.396  1.00  0.00    -0.058 S 
ATOM     22  C   UNL A   1      32.861  17.939  25.911  1.00  0.00     0.099 A 
ATOM     23  C   UNL A   1      33.075  17.349  24.683  1.00  0.00     0.324 A 
BRANCH  23  24
ATOM     24  N   UNL A   1      33.351  15.954  24.451  1.00  0.00     0.074 N 
ATOM     25  O   UNL A   1      34.263  15.707  23.647  1.00  0.00    -0.258 OA
ATOM     26  O   UNL A   1      32.684  15.106  25.055  1.00  0.00    -0.258 OA
ENDBRANCH  23  24
ENDBRANCH  17  19
ENDBRANCH  14  17
ENDBRANCH   8  10
ENDBRANCH   7   8
ENDBRANCH   6   7
ENDBRANCH   5   6
ENDBRANCH   4   5
ENDBRANCH   3   4
ENDBRANCH   2   3
ENDBRANCH   1   2
BRANCH   1  27
ATOM     27  C   UNL A   1      34.741  31.339  28.035  1.00  0.00     0.188 C 
BRANCH  27  28
ATOM     28  C   UNL A   1      35.671  32.510  28.356  1.00  0.00     0.188 C 
BRANCH  28  29
ATOM     29  O   UNL A   1      35.379  33.218  29.561  1.00  0.00    -0.376 OA
BRANCH  29  30
ATOM     30  C   UNL A   1      34.835  32.471  30.649  1.00  0.00     0.202 C 
BRANCH  30  31
ATOM     31  C   UNL A   1      35.855  31.721  31.505  1.00  0.00     0.261 C 
BRANCH  31  32
ATOM     32  O   UNL A   1      36.181  30.433  30.954  1.00  0.00    -0.460 OA
BRANCH  32  33
ATOM     33  C   UNL A   1      37.095  29.723  31.656  1.00  0.00     0.338 C 
ATOM     34  O   UNL A   1      36.881  28.952  32.577  1.00  0.00    -0.246 OA
BRANCH  33  35
ATOM     35  C   UNL A   1      38.422  29.887  31.043  1.00  0.00     0.060 A 
ATOM     36  C   UNL A   1      38.513  29.915  29.645  1.00  0.00     0.016 A 
ATOM     37  C   UNL A   1      39.573  29.907  31.834  1.00  0.00     0.016 A 
ATOM     38  C   UNL A   1      39.762  29.902  29.030  1.00  0.00     0.010 A 
ATOM     39  C   UNL A   1      40.824  29.880  31.217  1.00  0.00     0.010 A 
ATOM     40  C   UNL A   1      40.920  29.832  29.815  1.00  0.00    -0.014 A 
BRANCH  40  41
ATOM     41  C   UNL A   1      42.217  29.509  29.182  1.00  0.00     0.031 A 
ATOM     42  C   UNL A   1      42.427  28.116  28.653  1.00  0.00     0.074 A 
ATOM     43  C   UNL A   1      43.181  30.438  29.075  1.00  0.00     0.049 A 
ATOM     44  N   UNL A   1      43.494  27.585  28.120  1.00  0.00    -0.248 NA
ATOM     45  C   UNL A   1      41.278  27.198  28.745  1.00  0.00     0.031 C 
ATOM     46  C   UNL A   1      43.067  31.829  29.510  1.00  0.00     0.029 A 
ATOM     47  N   UNL A   1      44.453  30.343  28.573  1.00  0.00    -0.354 N 
ATOM     48  C   UNL A   1      43.152  26.272  27.820  1.00  0.00     0.074 A 
ATOM     49  C   UNL A   1      41.787  26.077  28.254  1.00  0.00     0.031 C 
ATOM     50  C   UNL A   1      44.231  32.457  29.269  1.00  0.00     0.029 A 
ATOM     51  C   UNL A   1      45.178  31.503  28.696  1.00  0.00     0.049 A 
ATOM     52  H   UNL A   1      44.811  29.523  28.164  1.00  0.00     0.167 HD
ATOM     53  C   UNL A   1      43.908  25.314  27.233  1.00  0.00     0.031 A 
ATOM     54  C   UNL A   1      46.469  31.755  28.401  1.00  0.00     0.031 A 
ATOM     55  C   UNL A   1      45.273  25.513  26.822  1.00  0.00     0.049 A 
ATOM     56  C   UNL A   1      47.314  30.653  27.814  1.00  0.00     0.074 A 
ATOM     57  C   UNL A   1      46.128  24.613  26.214  1.00  0.00     0.029 A 
ATOM     58  N   UNL A   1      45.980  26.694  26.987  1.00  0.00    -0.354 N 
ATOM     59  N   UNL A   1      46.973  29.420  27.522  1.00  0.00    -0.248 NA
ATOM     60  C   UNL A   1      48.714  30.980  27.513  1.00  0.00     0.031 C 
ATOM     61  C   UNL A   1      47.373  25.234  26.060  1.00  0.00     0.029 A 
ATOM     62  C   UNL A   1      47.272  26.539  26.514  1.00  0.00     0.049 A 
ATOM     63  H   UNL A   1      45.618  27.520  27.382  1.00  0.00     0.167 HD
ATOM     64  C   UNL A   1      48.109  28.832  26.977  1.00  0.00     0.074 A 
ATOM     65  C   UNL A   1      49.142  29.848  26.969  1.00  0.00     0.031 C 
ATOM     66  C   UNL A   1      48.284  27.566  26.519  1.00  0.00     0.031 A 
BRANCH  53  67
ATOM     67  C   UNL A   1      43.284  23.957  27.041  1.00  0.00    -0.014 A 
ATOM     68  C   UNL A   1      42.693  23.593  25.817  1.00  0.00     0.010 A 
ATOM     69  C   UNL A   1      43.310  23.024  28.093  1.00  0.00     0.010 A 
ATOM     70  C   UNL A   1      42.103  22.334  25.664  1.00  0.00     0.020 A 
ATOM     71  C   UNL A   1      42.745  21.756  27.934  1.00  0.00     0.020 A 
ATOM     72  C   UNL A   1      42.129  21.425  26.726  1.00  0.00     0.054 A 
BRANCH  72  73
ATOM     73  S   UNL A   1      41.369  19.795  26.496  1.00  0.00     0.124 S 
ATOM     74  O   UNL A   1      41.634  19.155  27.782  1.00  0.00    -0.237 OA
ATOM     75  O   UNL A   1      39.971  20.126  26.236  1.00  0.00    -0.237 OA
ATOM     76  O   UNL A   1      42.094  19.231  25.360  1.00  0.00    -0.744 OA
ENDBRANCH  72  73
ENDBRANCH  53  67
BRANCH  54  77
ATOM     77  C   UNL A   1      47.044  33.099  28.675  1.00  0.00    -0.014 A 
ATOM     78  C   UNL A   1      47.587  33.404  29.935  1.00  0.00     0.010 A 
ATOM     79  C   UNL A   1      47.063  34.081  27.667  1.00  0.00     0.010 A 
ATOM     80  C   UNL A   1      48.123  34.671  30.186  1.00  0.00     0.020 A 
ATOM     81  C   UNL A   1      47.622  35.339  27.906  1.00  0.00     0.020 A 
ATOM     82  C   UNL A   1      48.139  35.629  29.169  1.00  0.00     0.054 A 
BRANCH  82  83
ATOM     83  S   UNL A   1      48.887  37.248  29.503  1.00  0.00     0.124 S 
ATOM     84  O   UNL A   1      50.153  37.152  28.782  1.00  0.00    -0.237 OA
ATOM     85  O   UNL A   1      47.905  38.171  28.937  1.00  0.00    -0.237 OA
ATOM     86  O   UNL A   1      48.995  37.280  30.960  1.00  0.00    -0.744 OA
ENDBRANCH  82  83
ENDBRANCH  54  77
BRANCH  66  87
ATOM     87  C   UNL A   1      49.629  27.219  25.938  1.00  0.00    -0.014 A 
ATOM     88  C   UNL A   1      50.688  26.791  26.755  1.00  0.00     0.010 A 
ATOM     89  C   UNL A   1      49.811  27.266  24.543  1.00  0.00     0.010 A 
ATOM     90  C   UNL A   1      51.919  26.445  26.190  1.00  0.00     0.020 A 
ATOM     91  C   UNL A   1      51.030  26.894  23.973  1.00  0.00     0.020 A 
ATOM     92  C   UNL A   1      52.081  26.499  24.802  1.00  0.00     0.054 A 
BRANCH  92  93
ATOM     93  S   UNL A   1      53.674  26.001  24.089  1.00  0.00     0.124 S 
ATOM     94  O   UNL A   1      53.785  24.615  24.536  1.00  0.00    -0.237 OA
ATOM     95  O   UNL A   1      53.455  26.185  22.657  1.00  0.00    -0.237 OA
ATOM     96  O   UNL A   1      54.628  26.928  24.692  1.00  0.00    -0.744 OA
ENDBRANCH  92  93
ENDBRANCH  66  87
ENDBRANCH  40  41
ENDBRANCH  33  35
ENDBRANCH  32  33
ENDBRANCH  31  32
ENDBRANCH  30  31
ENDBRANCH  29  30
ENDBRANCH  28  29
ENDBRANCH  27  28
ENDBRANCH   1  27
TORSDOF 27
ENDMDL
MODEL 2
REMARK VINA RESULT:      -8.9      6.056     10.822
REMARK SMILES CO[C@@H]1C[C@H](C(=O)OCCOCCOCCOCCOC(=O)c2ccc(-c3c4nc(c(-c5ccc(S(=O)(=O)[O-])cc5)c5ccc([nH]5)c(-c5ccc(S(=O)(=O)[O-])cc5)c5nc(c(-c6ccc(S(=O)(=O)[O-])cc6)c6ccc3[nH]6)C=C5)C=C4)cc2)N(C(=O)c2ccc([N+](=O)[O-])s2)C1
REMARK SMILES IDX 14 1 13 2 12 3 11 4 10 5 9 6 8 7 6 8 7 9 5 10 3 11 4 12
REMARK SMILES IDX 94 13 83 14 2 15 1 16 84 17 85 18 86 19 87 20 93 21 88 22
REMARK SMILES IDX 89 23 90 24 91 25 92 26 15 27 16 28 17 29 18 30 19 31 20 32
REMARK SMILES IDX 21 33 22 34 23 35 24 36 82 37 25 38 81 39 26 40 27 41 28 42
REMARK SMILES IDX 75 43 29 44 80 45 74 46 76 47 30 48 79 49 73 50 72 51 31 53
REMARK SMILES IDX 61 54 42 55 60 56 43 57 46 58 59 59 77 60 44 61 45 62 58 64
REMARK SMILES IDX 78 65 47 66 32 67 33 68 41 69 34 70 40 71 35 72 36 73 37 74
REMARK SMILES IDX 38 75 39 76 62 77 63 78 71 79 64 80 70 81 65 82 66 83 67 84
REMARK SMILES IDX 68 85 69 86 48 87 49 88 57 89 50 90 56 91 51 92 52 93 53 94
REMARK SMILES IDX 54 95 55 96
REMARK H PARENT 76 52 46 63
REMARK Flexibility Score: inf
ROOT
ATOM      1  O   UNL A   1      34.408  30.279  28.096  1.00  0.00    -0.377 OA
ENDROOT
BRANCH   1   2
ATOM      2  C   UNL A   1      34.649  29.490  26.934  1.00  0.00     0.188 C 
BRANCH   2   3
ATOM      3  C   UNL A   1      33.483  29.527  25.945  1.00  0.00     0.188 C 
BRANCH   3   4
ATOM      4  O   UNL A   1      32.870  28.284  25.606  1.00  0.00    -0.376 OA
BRANCH   4   5
ATOM      5  C   UNL A   1      33.686  27.120  25.536  1.00  0.00     0.202 C 
BRANCH   5   6
ATOM      6  C   UNL A   1      33.150  25.830  26.174  1.00  0.00     0.261 C 
BRANCH   6   7
ATOM      7  O   UNL A   1      33.909  24.654  25.847  1.00  0.00    -0.462 OA
BRANCH   7   8
ATOM      8  C   UNL A   1      33.173  23.630  25.361  1.00  0.00     0.329 C 
ATOM      9  O   UNL A   1      32.081  23.291  25.809  1.00  0.00    -0.250 OA
BRANCH   8  10
ATOM     10  C   UNL A   1      33.786  22.920  24.144  1.00  0.00     0.198 C 
ATOM     11  C   UNL A   1      32.664  20.820  23.731  1.00  0.00     0.140 C 
ATOM     12  C   UNL A   1      34.017  21.425  24.126  1.00  0.00     0.071 C 
ATOM     13  C   UNL A   1      31.897  21.990  23.063  1.00  0.00     0.152 C 
ATOM     14  N   UNL A   1      32.846  23.098  23.049  1.00  0.00    -0.321 N 
BRANCH  11  15
ATOM     15  O   UNL A   1      31.984  20.302  24.872  1.00  0.00    -0.380 OA
ATOM     16  C   UNL A   1      32.835  19.532  25.721  1.00  0.00     0.195 C 
ENDBRANCH  11  15
BRANCH  14  17
ATOM     17  C   UNL A   1      32.721  24.223  22.247  1.00  0.00     0.265 C 
ATOM     18  O   UNL A   1      33.389  24.364  21.226  1.00  0.00    -0.268 OA
BRANCH  17  19
ATOM     19  C   UNL A   1      31.803  25.243  22.740  1.00  0.00     0.099 A 
ATOM     20  C   UNL A   1      30.622  25.062  23.441  1.00  0.00     0.033 A 
ATOM     21  S   UNL A   1      32.098  26.902  22.429  1.00  0.00    -0.058 S 
ATOM     22  C   UNL A   1      29.867  26.268  23.537  1.00  0.00     0.099 A 
ATOM     23  C   UNL A   1      30.548  27.330  22.981  1.00  0.00     0.324 A 
BRANCH  23  24
ATOM     24  N   UNL A   1      30.056  28.678  22.855  1.00  0.00     0.074 N 
ATOM     25  O   UNL A   1      30.294  29.434  23.809  1.00  0.00    -0.258 OA
ATOM     26  O   UNL A   1      29.447  28.996  21.827  1.00  0.00    -0.258 OA
ENDBRANCH  23  24
ENDBRANCH  17  19
ENDBRANCH  14  17
ENDBRANCH   8  10
ENDBRANCH   7   8
ENDBRANCH   6   7
ENDBRANCH   5   6
ENDBRANCH   4   5
ENDBRANCH   3   4
ENDBRANCH   2   3
ENDBRANCH   1   2
BRANCH   1  27
ATOM     27  C   UNL A   1      33.955  31.625  27.920  1.00  0.00     0.188 C 
BRANCH  27  28
ATOM     28  C   UNL A   1      34.987  32.739  28.102  1.00  0.00     0.188 C 
BRANCH  28  29
ATOM     29  O   UNL A   1      34.486  34.071  27.987  1.00  0.00    -0.376 OA
BRANCH  29  30
ATOM     30  C   UNL A   1      33.147  34.310  28.416  1.00  0.00     0.202 C 
BRANCH  30  31
ATOM     31  C   UNL A   1      32.937  35.588  29.228  1.00  0.00     0.261 C 
BRANCH  31  32
ATOM     32  O   UNL A   1      32.336  35.323  30.508  1.00  0.00    -0.460 OA
BRANCH  32  33
ATOM     33  C   UNL A   1      33.104  35.637  31.578  1.00  0.00     0.338 C 
ATOM     34  O   UNL A   1      32.874  36.480  32.429  1.00  0.00    -0.246 OA
BRANCH  33  35
ATOM     35  C   UNL A   1      34.224  34.687  31.675  1.00  0.00     0.060 A 
ATOM     36  C   UNL A   1      34.028  33.493  32.380  1.00  0.00     0.016 A 
ATOM     37  C   UNL A   1      35.483  35.020  31.170  1.00  0.00     0.016 A 
ATOM     38  C   UNL A   1      35.107  32.651  32.634  1.00  0.00     0.010 A 
ATOM     39  C   UNL A   1      36.566  34.182  31.436  1.00  0.00     0.010 A 
ATOM     40  C   UNL A   1      36.388  33.020  32.207  1.00  0.00    -0.014 A 
BRANCH  40  41
ATOM     41  C   UNL A   1      37.571  32.302  32.730  1.00  0.00     0.031 A 
ATOM     42  C   UNL A   1      38.149  32.743  34.048  1.00  0.00     0.074 A 
ATOM     43  C   UNL A   1      38.111  31.277  32.050  1.00  0.00     0.049 A 
ATOM     44  N   UNL A   1      39.213  32.310  34.671  1.00  0.00    -0.248 NA
ATOM     45  C   UNL A   1      37.433  33.820  34.753  1.00  0.00     0.031 C 
ATOM     46  C   UNL A   1      37.604  30.739  30.789  1.00  0.00     0.029 A 
ATOM     47  N   UNL A   1      39.216  30.515  32.324  1.00  0.00    -0.354 N 
ATOM     48  C   UNL A   1      39.300  33.066  35.835  1.00  0.00     0.074 A 
ATOM     49  C   UNL A   1      38.198  34.001  35.819  1.00  0.00     0.031 C 
ATOM     50  C   UNL A   1      38.407  29.737  30.390  1.00  0.00     0.029 A 
ATOM     51  C   UNL A   1      39.500  29.591  31.349  1.00  0.00     0.049 A 
ATOM     52  H   UNL A   1      39.753  30.618  33.142  1.00  0.00     0.167 HD
ATOM     53  C   UNL A   1      40.217  32.985  36.828  1.00  0.00     0.031 A 
ATOM     54  C   UNL A   1      40.540  28.742  31.234  1.00  0.00     0.031 A 
ATOM     55  C   UNL A   1      41.321  32.063  36.824  1.00  0.00     0.049 A 
ATOM     56  C   UNL A   1      41.589  28.718  32.316  1.00  0.00     0.074 A 
ATOM     57  C   UNL A   1      42.305  31.894  37.780  1.00  0.00     0.029 A 
ATOM     58  N   UNL A   1      41.590  31.161  35.805  1.00  0.00    -0.354 N 
ATOM     59  N   UNL A   1      41.651  29.427  33.419  1.00  0.00    -0.248 NA
ATOM     60  C   UNL A   1      42.702  27.776  32.141  1.00  0.00     0.031 C 
ATOM     61  C   UNL A   1      43.201  30.925  37.315  1.00  0.00     0.029 A 
ATOM     62  C   UNL A   1      42.739  30.447  36.099  1.00  0.00     0.049 A 
ATOM     63  H   UNL A   1      41.045  31.045  34.994  1.00  0.00     0.167 HD
ATOM     64  C   UNL A   1      42.795  28.997  34.082  1.00  0.00     0.074 A 
ATOM     65  C   UNL A   1      43.386  27.959  33.263  1.00  0.00     0.031 C 
ATOM     66  C   UNL A   1      43.310  29.419  35.265  1.00  0.00     0.031 A 
BRANCH  53  67
ATOM     67  C   UNL A   1      40.081  33.947  37.978  1.00  0.00    -0.014 A 
ATOM     68  C   UNL A   1      39.319  33.623  39.115  1.00  0.00     0.010 A 
ATOM     69  C   UNL A   1      40.745  35.187  37.931  1.00  0.00     0.010 A 
ATOM     70  C   UNL A   1      39.191  34.537  40.165  1.00  0.00     0.020 A 
ATOM     71  C   UNL A   1      40.641  36.092  38.990  1.00  0.00     0.020 A 
ATOM     72  C   UNL A   1      39.850  35.769  40.093  1.00  0.00     0.054 A 
BRANCH  72  73
ATOM     73  S   UNL A   1      39.677  36.930  41.476  1.00  0.00     0.124 S 
ATOM     74  O   UNL A   1      41.072  37.224  41.796  1.00  0.00    -0.237 OA
ATOM     75  O   UNL A   1      38.925  38.030  40.879  1.00  0.00    -0.237 OA
ATOM     76  O   UNL A   1      38.956  36.162  42.487  1.00  0.00    -0.744 OA
ENDBRANCH  72  73
ENDBRANCH  53  67
BRANCH  54  77
ATOM     77  C   UNL A   1      40.652  27.861  30.040  1.00  0.00    -0.014 A 
ATOM     78  C   UNL A   1      39.727  26.826  29.822  1.00  0.00     0.010 A 
ATOM     79  C   UNL A   1      41.683  28.065  29.104  1.00  0.00     0.010 A 
ATOM     80  C   UNL A   1      39.841  26.001  28.699  1.00  0.00     0.020 A 
ATOM     81  C   UNL A   1      41.784  27.259  27.967  1.00  0.00     0.020 A 
ATOM     82  C   UNL A   1      40.868  26.225  27.777  1.00  0.00     0.054 A 
BRANCH  82  83
ATOM     83  S   UNL A   1      40.964  25.174  26.301  1.00  0.00     0.124 S 
ATOM     84  O   UNL A   1      42.039  24.252  26.654  1.00  0.00    -0.237 OA
ATOM     85  O   UNL A   1      39.625  24.592  26.242  1.00  0.00    -0.237 OA
ATOM     86  O   UNL A   1      41.273  26.119  25.230  1.00  0.00    -0.744 OA
ENDBRANCH  82  83
ENDBRANCH  54  77
BRANCH  66  87
ATOM     87  C   UNL A   1      44.555  28.734  35.762  1.00  0.00    -0.014 A 
ATOM     88  C   UNL A   1      44.484  27.576  36.556  1.00  0.00     0.010 A 
ATOM     89  C   UNL A   1      45.815  29.226  35.374  1.00  0.00     0.010 A 
ATOM     90  C   UNL A   1      45.654  26.939  36.979  1.00  0.00     0.020 A 
ATOM     91  C   UNL A   1      46.985  28.576  35.772  1.00  0.00     0.020 A 
ATOM     92  C   UNL A   1      46.897  27.445  36.585  1.00  0.00     0.054 A 
BRANCH  92  93
ATOM     93  S   UNL A   1      48.400  26.574  37.109  1.00  0.00     0.124 S 
ATOM     94  O   UNL A   1      47.918  25.204  37.263  1.00  0.00    -0.237 OA
ATOM     95  O   UNL A   1      49.309  26.799  35.989  1.00  0.00    -0.237 OA
ATOM     96  O   UNL A   1      48.774  27.247  38.351  1.00  0.00    -0.744 OA
ENDBRANCH  92  93
ENDBRANCH  66  87
ENDBRANCH  40  41
ENDBRANCH  33  35
ENDBRANCH  32  33
ENDBRANCH  31  32
ENDBRANCH  30  31
ENDBRANCH  29  30
ENDBRANCH  28  29
ENDBRANCH  27  28
ENDBRANCH   1  27
TORSDOF 27
ENDMDL
MODEL 3
REMARK VINA RESULT:      -8.6      5.581      9.957
REMARK SMILES CO[C@@H]1C[C@H](C(=O)OCCOCCOCCOCCOC(=O)c2ccc(-c3c4nc(c(-c5ccc(S(=O)(=O)[O-])cc5)c5ccc([nH]5)c(-c5ccc(S(=O)(=O)[O-])cc5)c5nc(c(-c6ccc(S(=O)(=O)[O-])cc6)c6ccc3[nH]6)C=C5)C=C4)cc2)N(C(=O)c2ccc([N+](=O)[O-])s2)C1
REMARK SMILES IDX 14 1 13 2 12 3 11 4 10 5 9 6 8 7 6 8 7 9 5 10 3 11 4 12
REMARK SMILES IDX 94 13 83 14 2 15 1 16 84 17 85 18 86 19 87 20 93 21 88 22
REMARK SMILES IDX 89 23 90 24 91 25 92 26 15 27 16 28 17 29 18 30 19 31 20 32
REMARK SMILES IDX 21 33 22 34 23 35 24 36 82 37 25 38 81 39 26 40 27 41 28 42
REMARK SMILES IDX 75 43 29 44 80 45 74 46 76 47 30 48 79 49 73 50 72 51 31 53
REMARK SMILES IDX 61 54 42 55 60 56 43 57 46 58 59 59 77 60 44 61 45 62 58 64
REMARK SMILES IDX 78 65 47 66 32 67 33 68 41 69 34 70 40 71 35 72 36 73 37 74
REMARK SMILES IDX 38 75 39 76 62 77 63 78 71 79 64 80 70 81 65 82 66 83 67 84
REMARK SMILES IDX 68 85 69 86 48 87 49 88 57 89 50 90 56 91 51 92 52 93 53 94
REMARK SMILES IDX 54 95 55 96
REMARK H PARENT 76 52 46 63
REMARK Flexibility Score: inf
ROOT
ATOM      1  O   UNL A   1      33.969  29.154  27.334  1.00  0.00    -0.377 OA
ENDROOT
BRANCH   1   2
ATOM      2  C   UNL A   1      34.040  28.414  26.118  1.00  0.00     0.188 C 
BRANCH   2   3
ATOM      3  C   UNL A   1      32.881  28.729  25.169  1.00  0.00     0.188 C 
BRANCH   3   4
ATOM      4  O   UNL A   1      32.621  27.798  24.120  1.00  0.00    -0.376 OA
BRANCH   4   5
ATOM      5  C   UNL A   1      33.704  27.027  23.610  1.00  0.00     0.202 C 
BRANCH   5   6
ATOM      6  C   UNL A   1      33.568  25.497  23.633  1.00  0.00     0.261 C 
BRANCH   6   7
ATOM      7  O   UNL A   1      34.757  24.796  23.234  1.00  0.00    -0.462 OA
BRANCH   7   8
ATOM      8  C   UNL A   1      35.293  24.011  24.195  1.00  0.00     0.329 C 
ATOM      9  O   UNL A   1      35.444  24.358  25.364  1.00  0.00    -0.250 OA
BRANCH   8  10
ATOM     10  C   UNL A   1      35.675  22.597  23.731  1.00  0.00     0.198 C 
ATOM     11  C   UNL A   1      37.541  21.756  25.017  1.00  0.00     0.140 C 
ATOM     12  C   UNL A   1      37.119  22.164  23.600  1.00  0.00     0.071 C 
ATOM     13  C   UNL A   1      36.204  21.497  25.759  1.00  0.00     0.152 C 
ATOM     14  N   UNL A   1      35.172  21.684  24.744  1.00  0.00    -0.321 N 
BRANCH  11  15
ATOM     15  O   UNL A   1      38.317  22.780  25.633  1.00  0.00    -0.380 OA
ATOM     16  C   UNL A   1      39.499  22.279  26.258  1.00  0.00     0.195 C 
ENDBRANCH  11  15
BRANCH  14  17
ATOM     17  C   UNL A   1      33.869  21.222  24.862  1.00  0.00     0.265 C 
ATOM     18  O   UNL A   1      33.450  20.295  24.174  1.00  0.00    -0.268 OA
BRANCH  17  19
ATOM     19  C   UNL A   1      33.028  21.958  25.797  1.00  0.00     0.099 A 
ATOM     20  C   UNL A   1      33.171  22.070  27.170  1.00  0.00     0.033 A 
ATOM     21  S   UNL A   1      31.632  22.785  25.246  1.00  0.00    -0.058 S 
ATOM     22  C   UNL A   1      32.026  22.658  27.782  1.00  0.00     0.099 A 
ATOM     23  C   UNL A   1      31.099  23.047  26.839  1.00  0.00     0.324 A 
BRANCH  23  24
ATOM     24  N   UNL A   1      29.806  23.621  27.109  1.00  0.00     0.074 N 
ATOM     25  O   UNL A   1      29.589  24.734  26.606  1.00  0.00    -0.258 OA
ATOM     26  O   UNL A   1      29.005  22.984  27.804  1.00  0.00    -0.258 OA
ENDBRANCH  23  24
ENDBRANCH  17  19
ENDBRANCH  14  17
ENDBRANCH   8  10
ENDBRANCH   7   8
ENDBRANCH   6   7
ENDBRANCH   5   6
ENDBRANCH   4   5
ENDBRANCH   3   4
ENDBRANCH   2   3
ENDBRANCH   1   2
BRANCH   1  27
ATOM     27  C   UNL A   1      33.779  30.571  27.256  1.00  0.00     0.188 C 
BRANCH  27  28
ATOM     28  C   UNL A   1      34.947  31.457  27.692  1.00  0.00     0.188 C 
BRANCH  28  29
ATOM     29  O   UNL A   1      34.686  32.860  27.707  1.00  0.00    -0.376 OA
BRANCH  29  30
ATOM     30  C   UNL A   1      33.332  33.276  27.881  1.00  0.00     0.202 C 
BRANCH  30  31
ATOM     31  C   UNL A   1      33.145  34.663  28.496  1.00  0.00     0.261 C 
BRANCH  31  32
ATOM     32  O   UNL A   1      32.639  34.595  29.840  1.00  0.00    -0.460 OA
BRANCH  32  33
ATOM     33  C   UNL A   1      33.458  35.108  30.789  1.00  0.00     0.338 C 
ATOM     34  O   UNL A   1      33.227  36.046  31.534  1.00  0.00    -0.246 OA
BRANCH  33  35
ATOM     35  C   UNL A   1      34.652  34.258  30.919  1.00  0.00     0.060 A 
ATOM     36  C   UNL A   1      34.529  33.030  31.583  1.00  0.00     0.016 A 
ATOM     37  C   UNL A   1      35.899  34.714  30.485  1.00  0.00     0.016 A 
ATOM     38  C   UNL A   1      35.666  32.280  31.870  1.00  0.00     0.010 A 
ATOM     39  C   UNL A   1      37.038  33.967  30.785  1.00  0.00     0.010 A 
ATOM     40  C   UNL A   1      36.928  32.772  31.517  1.00  0.00    -0.014 A 
BRANCH  40  41
ATOM     41  C   UNL A   1      38.143  32.145  32.081  1.00  0.00     0.031 A 
ATOM     42  C   UNL A   1      38.525  32.475  33.499  1.00  0.00     0.074 A 
ATOM     43  C   UNL A   1      38.885  31.297  31.349  1.00  0.00     0.049 A 
ATOM     44  N   UNL A   1      39.573  32.101  34.182  1.00  0.00    -0.248 NA
ATOM     45  C   UNL A   1      37.601  33.349  34.242  1.00  0.00     0.031 C 
ATOM     46  C   UNL A   1      38.581  30.873  29.983  1.00  0.00     0.029 A 
ATOM     47  N   UNL A   1      40.054  30.650  31.653  1.00  0.00    -0.354 N 
ATOM     48  C   UNL A   1      39.441  32.699  35.431  1.00  0.00     0.074 A 
ATOM     49  C   UNL A   1      38.226  33.481  35.402  1.00  0.00     0.031 C 
ATOM     50  C   UNL A   1      39.551  30.043  29.561  1.00  0.00     0.029 A 
ATOM     51  C   UNL A   1      40.557  29.909  30.613  1.00  0.00     0.049 A 
ATOM     52  H   UNL A   1      40.490  30.711  32.533  1.00  0.00     0.167 HD
ATOM     53  C   UNL A   1      40.261  32.602  36.505  1.00  0.00     0.031 A 
ATOM     54  C   UNL A   1      41.711  29.221  30.516  1.00  0.00     0.031 A 
ATOM     55  C   UNL A   1      41.478  31.836  36.515  1.00  0.00     0.049 A 
ATOM     56  C   UNL A   1      42.643  29.185  31.699  1.00  0.00     0.074 A 
ATOM     57  C   UNL A   1      42.379  31.665  37.550  1.00  0.00     0.029 A 
ATOM     58  N   UNL A   1      41.967  31.119  35.433  1.00  0.00    -0.354 N 
ATOM     59  N   UNL A   1      42.500  29.743  32.879  1.00  0.00    -0.248 NA
ATOM     60  C   UNL A   1      43.889  28.423  31.540  1.00  0.00     0.031 C 
ATOM     61  C   UNL A   1      43.442  30.888  37.076  1.00  0.00     0.029 A 
ATOM     62  C   UNL A   1      43.172  30.523  35.767  1.00  0.00     0.049 A 
ATOM     63  H   UNL A   1      41.524  31.045  34.557  1.00  0.00     0.167 HD
ATOM     64  C   UNL A   1      43.623  29.375  33.611  1.00  0.00     0.074 A 
ATOM     65  C   UNL A   1      44.430  28.539  32.746  1.00  0.00     0.031 C 
ATOM     66  C   UNL A   1      43.957  29.696  34.887  1.00  0.00     0.031 A 
BRANCH  53  67
ATOM     67  C   UNL A   1      39.882  33.376  37.739  1.00  0.00    -0.014 A 
ATOM     68  C   UNL A   1      39.165  32.773  38.788  1.00  0.00     0.010 A 
ATOM     69  C   UNL A   1      40.268  34.723  37.861  1.00  0.00     0.010 A 
ATOM     70  C   UNL A   1      38.807  33.514  39.919  1.00  0.00     0.020 A 
ATOM     71  C   UNL A   1      39.936  35.460  39.001  1.00  0.00     0.020 A 
ATOM     72  C   UNL A   1      39.191  34.855  40.015  1.00  0.00     0.054 A 
BRANCH  72  73
ATOM     73  S   UNL A   1      38.726  35.789  41.499  1.00  0.00     0.124 S 
ATOM     74  O   UNL A   1      37.398  35.252  41.788  1.00  0.00    -0.237 OA
ATOM     75  O   UNL A   1      39.771  35.423  42.450  1.00  0.00    -0.237 OA
ATOM     76  O   UNL A   1      38.751  37.180  41.055  1.00  0.00    -0.744 OA
ENDBRANCH  72  73
ENDBRANCH  53  67
BRANCH  54  77
ATOM     77  C   UNL A   1      42.059  28.530  29.245  1.00  0.00    -0.014 A 
ATOM     78  C   UNL A   1      41.677  27.195  29.025  1.00  0.00     0.010 A 
ATOM     79  C   UNL A   1      42.768  29.212  28.239  1.00  0.00     0.010 A 
ATOM     80  C   UNL A   1      42.011  26.552  27.830  1.00  0.00     0.020 A 
ATOM     81  C   UNL A   1      43.080  28.581  27.032  1.00  0.00     0.020 A 
ATOM     82  C   UNL A   1      42.709  27.250  26.839  1.00  0.00     0.054 A 
BRANCH  82  83
ATOM     83  S   UNL A   1      43.085  26.410  25.276  1.00  0.00     0.124 S 
ATOM     84  O   UNL A   1      44.421  25.879  25.530  1.00  0.00    -0.237 OA
ATOM     85  O   UNL A   1      42.015  25.418  25.187  1.00  0.00    -0.237 OA
ATOM     86  O   UNL A   1      43.014  27.483  24.287  1.00  0.00    -0.744 OA
ENDBRANCH  82  83
ENDBRANCH  54  77
BRANCH  66  87
ATOM     87  C   UNL A   1      45.232  29.113  35.436  1.00  0.00    -0.014 A 
ATOM     88  C   UNL A   1      46.449  29.812  35.356  1.00  0.00     0.010 A 
ATOM     89  C   UNL A   1      45.194  27.871  36.096  1.00  0.00     0.010 A 
ATOM     90  C   UNL A   1      47.613  29.264  35.901  1.00  0.00     0.020 A 
ATOM     91  C   UNL A   1      46.351  27.333  36.666  1.00  0.00     0.020 A 
ATOM     92  C   UNL A   1      47.556  28.028  36.552  1.00  0.00     0.054 A 
BRANCH  92  93
ATOM     93  S   UNL A   1      49.073  27.359  37.290  1.00  0.00     0.124 S 
ATOM     94  O   UNL A   1      49.854  28.570  37.526  1.00  0.00    -0.237 OA
ATOM     95  O   UNL A   1      48.576  26.687  38.488  1.00  0.00    -0.237 OA
ATOM     96  O   UNL A   1      49.598  26.469  36.257  1.00  0.00    -0.744 OA
ENDBRANCH  92  93
ENDBRANCH  66  87
ENDBRANCH  40  41
ENDBRANCH  33  35
ENDBRANCH  32  33
ENDBRANCH  31  32
ENDBRANCH  30  31
ENDBRANCH  29  30
ENDBRANCH  28  29
ENDBRANCH  27  28
ENDBRANCH   1  27
TORSDOF 27
ENDMDL
