MODEL 1
REMARK VINA RESULT:      -6.9      0.000      0.000
REMARK SMILES CCOc1cc(C=O)ccc1OCc1ccc(C(=O)OCCOCCOCCOCCOC(=O)c2ccc(-c3c4nc(c(-c5ccc(S(=O)(=O)[O-])cc5)c5ccc([nH]5)c(-c5ccc(S(=O)(=O)[O-])cc5)c5nc(c(-c6ccc(S(=O)(=O)[O-])cc6)c6ccc3[nH]6)C=C5)C=C4)cc2)cc1
REMARK SMILES IDX 25 1 24 2 23 3 22 4 21 5 20 6 18 7 19 8 17 9 14 10 15 11
REMARK SMILES IDX 96 12 16 13 95 14 13 15 12 16 11 17 4 18 5 19 6 20 10 21
REMARK SMILES IDX 9 22 3 23 2 24 1 25 7 26 8 27 26 28 27 29 28 30 29 31 30 32
REMARK SMILES IDX 31 33 32 34 33 35 34 36 35 37 36 38 94 39 37 40 93 41 38 42
REMARK SMILES IDX 39 43 40 44 87 45 41 46 92 47 86 48 88 49 42 50 91 51 85 52
REMARK SMILES IDX 84 53 43 55 73 56 54 57 72 58 55 59 58 60 71 61 89 62 56 63
REMARK SMILES IDX 57 64 70 66 90 67 59 68 44 69 45 70 53 71 46 72 52 73 47 74
REMARK SMILES IDX 48 75 49 76 50 77 51 78 74 79 75 80 83 81 76 82 82 83 77 84
REMARK SMILES IDX 78 85 79 86 80 87 81 88 60 89 61 90 69 91 62 92 68 93 63 94
REMARK SMILES IDX 64 95 65 96 66 97 67 98
REMARK H PARENT 88 54 58 65
REMARK Flexibility Score: inf
ROOT
ATOM      1  C   UNL A   1      35.070  32.605  32.562  1.00  0.00     0.188 C 
ENDROOT
BRANCH   1   2
ATOM      2  C   UNL A   1      33.987  33.476  33.231  1.00  0.00     0.188 C 
BRANCH   2   3
ATOM      3  O   UNL A   1      34.376  34.821  33.410  1.00  0.00    -0.376 OA
BRANCH   3   4
ATOM      4  C   UNL A   1      34.222  35.761  32.364  1.00  0.00     0.202 C 
BRANCH   4   5
ATOM      5  C   UNL A   1      32.950  35.892  31.501  1.00  0.00     0.261 C 
BRANCH   5   6
ATOM      6  O   UNL A   1      32.798  34.990  30.405  1.00  0.00    -0.460 OA
BRANCH   6   7
ATOM      7  C   UNL A   1      33.459  35.288  29.265  1.00  0.00     0.338 C 
ATOM      8  O   UNL A   1      33.602  36.386  28.755  1.00  0.00    -0.246 OA
BRANCH   7   9
ATOM      9  C   UNL A   1      34.233  34.089  28.884  1.00  0.00     0.060 A 
ATOM     10  C   UNL A   1      35.612  31.804  27.957  1.00  0.00    -0.011 A 
ATOM     11  C   UNL A   1      34.266  32.018  27.648  1.00  0.00     0.008 A 
ATOM     12  C   UNL A   1      36.282  32.836  28.645  1.00  0.00     0.008 A 
ATOM     13  C   UNL A   1      33.556  33.090  28.189  1.00  0.00     0.016 A 
ATOM     14  C   UNL A   1      35.610  33.991  29.071  1.00  0.00     0.016 A 
BRANCH  10  15
ATOM     15  C   UNL A   1      36.307  30.446  27.809  1.00  0.00     0.265 C 
BRANCH  15  16
ATOM     16  O   UNL A   1      37.723  30.307  27.957  1.00  0.00    -0.485 OA
BRANCH  16  17
ATOM     17  C   UNL A   1      38.275  29.716  29.058  1.00  0.00     0.161 A 
ATOM     18  C   UNL A   1      39.637  29.483  29.325  1.00  0.00     0.161 A 
ATOM     19  C   UNL A   1      40.029  29.225  30.645  1.00  0.00     0.062 A 
ATOM     20  C   UNL A   1      39.049  29.095  31.647  1.00  0.00     0.018 A 
ATOM     21  C   UNL A   1      37.311  29.440  30.033  1.00  0.00     0.051 A 
ATOM     22  C   UNL A   1      37.691  29.125  31.329  1.00  0.00     0.015 A 
BRANCH  18  23
ATOM     23  O   UNL A   1      40.492  29.466  28.261  1.00  0.00    -0.490 OA
BRANCH  23  24
ATOM     24  C   UNL A   1      40.593  28.289  27.456  1.00  0.00     0.226 C 
ATOM     25  C   UNL A   1      41.236  28.718  26.139  1.00  0.00     0.049 C 
ENDBRANCH  23  24
ENDBRANCH  18  23
BRANCH  20  26
ATOM     26  C   UNL A   1      39.405  28.955  33.075  1.00  0.00     0.260 C 
ATOM     27  O   UNL A   1      40.454  29.385  33.534  1.00  0.00    -0.298 OA
ENDBRANCH  20  26
ENDBRANCH  16  17
ENDBRANCH  15  16
ENDBRANCH  10  15
ENDBRANCH   7   9
ENDBRANCH   6   7
ENDBRANCH   5   6
ENDBRANCH   4   5
ENDBRANCH   3   4
ENDBRANCH   2   3
ENDBRANCH   1   2
BRANCH   1  28
ATOM     28  O   UNL A   1      36.425  32.951  32.768  1.00  0.00    -0.377 OA
BRANCH  28  29
ATOM     29  C   UNL A   1      37.097  32.473  33.926  1.00  0.00     0.188 C 
BRANCH  29  30
ATOM     30  C   UNL A   1      37.098  33.257  35.262  1.00  0.00     0.188 C 
BRANCH  30  31
ATOM     31  O   UNL A   1      38.345  33.330  35.937  1.00  0.00    -0.376 OA
BRANCH  31  32
ATOM     32  C   UNL A   1      38.645  32.309  36.875  1.00  0.00     0.202 C 
BRANCH  32  33
ATOM     33  C   UNL A   1      37.992  32.428  38.259  1.00  0.00     0.261 C 
BRANCH  33  34
ATOM     34  O   UNL A   1      37.764  33.763  38.732  1.00  0.00    -0.460 OA
BRANCH  34  35
ATOM     35  C   UNL A   1      38.179  34.045  39.990  1.00  0.00     0.338 C 
ATOM     36  O   UNL A   1      37.922  33.433  41.000  1.00  0.00    -0.246 OA
BRANCH  35  37
ATOM     37  C   UNL A   1      39.178  35.133  39.888  1.00  0.00     0.060 A 
ATOM     38  C   UNL A   1      40.020  35.382  40.979  1.00  0.00     0.016 A 
ATOM     39  C   UNL A   1      39.294  35.882  38.715  1.00  0.00     0.016 A 
ATOM     40  C   UNL A   1      40.966  36.405  40.909  1.00  0.00     0.010 A 
ATOM     41  C   UNL A   1      40.223  36.923  38.657  1.00  0.00     0.010 A 
ATOM     42  C   UNL A   1      41.039  37.211  39.766  1.00  0.00    -0.014 A 
BRANCH  42  43
ATOM     43  C   UNL A   1      41.815  38.473  39.812  1.00  0.00     0.031 A 
ATOM     44  C   UNL A   1      43.231  38.454  39.301  1.00  0.00     0.074 A 
ATOM     45  C   UNL A   1      41.271  39.619  40.261  1.00  0.00     0.049 A 
ATOM     46  N   UNL A   1      44.108  39.422  39.249  1.00  0.00    -0.248 NA
ATOM     47  C   UNL A   1      43.722  37.167  38.781  1.00  0.00     0.031 C 
ATOM     48  C   UNL A   1      39.898  39.776  40.738  1.00  0.00     0.029 A 
ATOM     49  N   UNL A   1      41.819  40.871  40.388  1.00  0.00    -0.354 N 
ATOM     50  C   UNL A   1      45.254  38.861  38.697  1.00  0.00     0.074 A 
ATOM     51  C   UNL A   1      44.973  37.462  38.464  1.00  0.00     0.031 C 
ATOM     52  C   UNL A   1      39.712  41.055  41.111  1.00  0.00     0.029 A 
ATOM     53  C   UNL A   1      40.960  41.797  40.932  1.00  0.00     0.049 A 
ATOM     54  H   UNL A   1      42.740  41.086  40.115  1.00  0.00     0.167 HD
ATOM     55  C   UNL A   1      46.434  39.458  38.405  1.00  0.00     0.031 A 
ATOM     56  C   UNL A   1      41.164  43.087  41.263  1.00  0.00     0.031 A 
ATOM     57  C   UNL A   1      46.716  40.846  38.657  1.00  0.00     0.049 A 
ATOM     58  C   UNL A   1      42.514  43.710  41.004  1.00  0.00     0.074 A 
ATOM     59  C   UNL A   1      47.876  41.549  38.385  1.00  0.00     0.029 A 
ATOM     60  N   UNL A   1      45.836  41.739  39.250  1.00  0.00    -0.354 N 
ATOM     61  N   UNL A   1      43.579  43.176  40.453  1.00  0.00    -0.248 NA
ATOM     62  C   UNL A   1      42.684  45.115  41.403  1.00  0.00     0.031 C 
ATOM     63  C   UNL A   1      47.722  42.850  38.875  1.00  0.00     0.029 A 
ATOM     64  C   UNL A   1      46.439  42.978  39.385  1.00  0.00     0.049 A 
ATOM     65  H   UNL A   1      44.918  41.523  39.534  1.00  0.00     0.167 HD
ATOM     66  C   UNL A   1      44.536  44.187  40.416  1.00  0.00     0.074 A 
ATOM     67  C   UNL A   1      43.916  45.368  40.980  1.00  0.00     0.031 C 
ATOM     68  C   UNL A   1      45.813  44.144  39.956  1.00  0.00     0.031 A 
BRANCH  55  69
ATOM     69  C   UNL A   1      47.521  38.596  37.819  1.00  0.00    -0.014 A 
ATOM     70  C   UNL A   1      48.428  37.901  38.638  1.00  0.00     0.010 A 
ATOM     71  C   UNL A   1      47.616  38.455  36.421  1.00  0.00     0.010 A 
ATOM     72  C   UNL A   1      49.435  37.113  38.071  1.00  0.00     0.020 A 
ATOM     73  C   UNL A   1      48.599  37.644  35.852  1.00  0.00     0.020 A 
ATOM     74  C   UNL A   1      49.513  36.990  36.681  1.00  0.00     0.054 A 
BRANCH  74  75
ATOM     75  S   UNL A   1      50.812  35.940  35.974  1.00  0.00     0.124 S 
ATOM     76  O   UNL A   1      52.012  36.733  36.229  1.00  0.00    -0.237 OA
ATOM     77  O   UNL A   1      50.692  34.714  36.758  1.00  0.00    -0.237 OA
ATOM     78  O   UNL A   1      50.434  35.818  34.568  1.00  0.00    -0.744 OA
ENDBRANCH  74  75
ENDBRANCH  55  69
BRANCH  56  79
ATOM     79  C   UNL A   1      40.073  43.879  41.897  1.00  0.00    -0.014 A 
ATOM     80  C   UNL A   1      39.920  43.908  43.295  1.00  0.00     0.010 A 
ATOM     81  C   UNL A   1      39.170  44.604  41.098  1.00  0.00     0.010 A 
ATOM     82  C   UNL A   1      38.876  44.633  43.879  1.00  0.00     0.020 A 
ATOM     83  C   UNL A   1      38.144  45.355  41.679  1.00  0.00     0.020 A 
ATOM     84  C   UNL A   1      37.998  45.357  43.067  1.00  0.00     0.054 A 
BRANCH  84  85
ATOM     85  S   UNL A   1      36.686  46.334  43.852  1.00  0.00     0.124 S 
ATOM     86  O   UNL A   1      37.353  46.840  45.046  1.00  0.00    -0.237 OA
ATOM     87  O   UNL A   1      36.380  47.328  42.826  1.00  0.00    -0.237 OA
ATOM     88  O   UNL A   1      35.628  45.354  44.093  1.00  0.00    -0.744 OA
ENDBRANCH  84  85
ENDBRANCH  56  79
BRANCH  68  89
ATOM     89  C   UNL A   1      46.617  45.418  40.014  1.00  0.00    -0.014 A 
ATOM     90  C   UNL A   1      47.520  45.669  41.063  1.00  0.00     0.010 A 
ATOM     91  C   UNL A   1      46.501  46.360  38.975  1.00  0.00     0.010 A 
ATOM     92  C   UNL A   1      48.256  46.856  41.094  1.00  0.00     0.020 A 
ATOM     93  C   UNL A   1      47.262  47.532  38.983  1.00  0.00     0.020 A 
ATOM     94  C   UNL A   1      48.122  47.781  40.055  1.00  0.00     0.054 A 
BRANCH  94  95
ATOM     95  S   UNL A   1      49.109  49.302  40.106  1.00  0.00     0.124 S 
ATOM     96  O   UNL A   1      49.262  49.613  38.687  1.00  0.00    -0.237 OA
ATOM     97  O   UNL A   1      48.254  50.213  40.861  1.00  0.00    -0.237 OA
ATOM     98  O   UNL A   1      50.336  48.897  40.790  1.00  0.00    -0.744 OA
ENDBRANCH  94  95
ENDBRANCH  68  89
ENDBRANCH  42  43
ENDBRANCH  35  37
ENDBRANCH  34  35
ENDBRANCH  33  34
ENDBRANCH  32  33
ENDBRANCH  31  32
ENDBRANCH  30  31
ENDBRANCH  29  30
ENDBRANCH  28  29
ENDBRANCH   1  28
TORSDOF 29
ENDMDL
MODEL 2
REMARK VINA RESULT:      -6.8     10.850     16.118
REMARK SMILES CCOc1cc(C=O)ccc1OCc1ccc(C(=O)OCCOCCOCCOCCOC(=O)c2ccc(-c3c4nc(c(-c5ccc(S(=O)(=O)[O-])cc5)c5ccc([nH]5)c(-c5ccc(S(=O)(=O)[O-])cc5)c5nc(c(-c6ccc(S(=O)(=O)[O-])cc6)c6ccc3[nH]6)C=C5)C=C4)cc2)cc1
REMARK SMILES IDX 25 1 24 2 23 3 22 4 21 5 20 6 18 7 19 8 17 9 14 10 15 11
REMARK SMILES IDX 96 12 16 13 95 14 13 15 12 16 11 17 4 18 5 19 6 20 10 21
REMARK SMILES IDX 9 22 3 23 2 24 1 25 7 26 8 27 26 28 27 29 28 30 29 31 30 32
REMARK SMILES IDX 31 33 32 34 33 35 34 36 35 37 36 38 94 39 37 40 93 41 38 42
REMARK SMILES IDX 39 43 40 44 87 45 41 46 92 47 86 48 88 49 42 50 91 51 85 52
REMARK SMILES IDX 84 53 43 55 73 56 54 57 72 58 55 59 58 60 71 61 89 62 56 63
REMARK SMILES IDX 57 64 70 66 90 67 59 68 44 69 45 70 53 71 46 72 52 73 47 74
REMARK SMILES IDX 48 75 49 76 50 77 51 78 74 79 75 80 83 81 76 82 82 83 77 84
REMARK SMILES IDX 78 85 79 86 80 87 81 88 60 89 61 90 69 91 62 92 68 93 63 94
REMARK SMILES IDX 64 95 65 96 66 97 67 98
REMARK H PARENT 88 54 58 65
REMARK Flexibility Score: inf
ROOT
ATOM      1  C   UNL A   1      35.510  33.551  32.147  1.00  0.00     0.188 C 
ENDROOT
BRANCH   1   2
ATOM      2  C   UNL A   1      34.298  33.326  33.075  1.00  0.00     0.188 C 
BRANCH   2   3
ATOM      3  O   UNL A   1      33.149  34.050  32.688  1.00  0.00    -0.376 OA
BRANCH   3   4
ATOM      4  C   UNL A   1      33.269  35.332  32.103  1.00  0.00     0.202 C 
BRANCH   4   5
ATOM      5  C   UNL A   1      33.473  35.577  30.594  1.00  0.00     0.261 C 
BRANCH   5   6
ATOM      6  O   UNL A   1      33.102  34.530  29.697  1.00  0.00    -0.460 OA
BRANCH   6   7
ATOM      7  C   UNL A   1      33.970  34.231  28.706  1.00  0.00     0.338 C 
ATOM      8  O   UNL A   1      35.009  34.805  28.430  1.00  0.00    -0.246 OA
BRANCH   7   9
ATOM      9  C   UNL A   1      33.592  32.902  28.183  1.00  0.00     0.060 A 
ATOM     10  C   UNL A   1      32.800  30.462  26.997  1.00  0.00    -0.011 A 
ATOM     11  C   UNL A   1      32.040  31.627  26.849  1.00  0.00     0.008 A 
ATOM     12  C   UNL A   1      34.038  30.588  27.659  1.00  0.00     0.008 A 
ATOM     13  C   UNL A   1      32.373  32.804  27.517  1.00  0.00     0.016 A 
ATOM     14  C   UNL A   1      34.454  31.809  28.213  1.00  0.00     0.016 A 
BRANCH  10  15
ATOM     15  C   UNL A   1      32.260  29.058  26.707  1.00  0.00     0.265 C 
BRANCH  15  16
ATOM     16  O   UNL A   1      32.425  28.439  25.428  1.00  0.00    -0.485 OA
BRANCH  16  17
ATOM     17  C   UNL A   1      31.412  28.403  24.512  1.00  0.00     0.161 A 
ATOM     18  C   UNL A   1      30.751  27.273  23.997  1.00  0.00     0.161 A 
ATOM     19  C   UNL A   1      29.506  27.447  23.375  1.00  0.00     0.062 A 
ATOM     20  C   UNL A   1      29.003  28.748  23.183  1.00  0.00     0.018 A 
ATOM     21  C   UNL A   1      30.967  29.688  24.184  1.00  0.00     0.051 A 
ATOM     22  C   UNL A   1      29.765  29.868  23.516  1.00  0.00     0.015 A 
BRANCH  18  23
ATOM     23  O   UNL A   1      31.395  26.073  24.084  1.00  0.00    -0.490 OA
BRANCH  23  24
ATOM     24  C   UNL A   1      30.928  25.088  25.008  1.00  0.00     0.226 C 
ATOM     25  C   UNL A   1      31.972  23.972  25.017  1.00  0.00     0.049 C 
ENDBRANCH  23  24
ENDBRANCH  18  23
BRANCH  20  26
ATOM     26  C   UNL A   1      27.644  28.989  22.656  1.00  0.00     0.260 C 
ATOM     27  O   UNL A   1      26.699  29.266  23.382  1.00  0.00    -0.298 OA
ENDBRANCH  20  26
ENDBRANCH  16  17
ENDBRANCH  15  16
ENDBRANCH  10  15
ENDBRANCH   7   9
ENDBRANCH   6   7
ENDBRANCH   5   6
ENDBRANCH   4   5
ENDBRANCH   3   4
ENDBRANCH   2   3
ENDBRANCH   1   2
BRANCH   1  28
ATOM     28  O   UNL A   1      36.802  33.296  32.664  1.00  0.00    -0.377 OA
BRANCH  28  29
ATOM     29  C   UNL A   1      37.728  32.553  31.883  1.00  0.00     0.188 C 
BRANCH  29  30
ATOM     30  C   UNL A   1      38.676  33.229  30.861  1.00  0.00     0.188 C 
BRANCH  30  31
ATOM     31  O   UNL A   1      39.848  32.501  30.526  1.00  0.00    -0.376 OA
BRANCH  31  32
ATOM     32  C   UNL A   1      39.885  31.124  30.863  1.00  0.00     0.202 C 
BRANCH  32  33
ATOM     33  C   UNL A   1      40.281  30.148  29.746  1.00  0.00     0.261 C 
BRANCH  33  34
ATOM     34  O   UNL A   1      40.193  28.754  30.072  1.00  0.00    -0.460 OA
BRANCH  34  35
ATOM     35  C   UNL A   1      40.701  27.882  29.169  1.00  0.00     0.338 C 
ATOM     36  O   UNL A   1      40.148  26.921  28.688  1.00  0.00    -0.246 OA
BRANCH  35  37
ATOM     37  C   UNL A   1      42.000  28.428  28.715  1.00  0.00     0.060 A 
ATOM     38  C   UNL A   1      42.996  28.682  29.666  1.00  0.00     0.016 A 
ATOM     39  C   UNL A   1      42.235  28.665  27.359  1.00  0.00     0.016 A 
ATOM     40  C   UNL A   1      44.227  29.201  29.264  1.00  0.00     0.010 A 
ATOM     41  C   UNL A   1      43.458  29.210  26.962  1.00  0.00     0.010 A 
ATOM     42  C   UNL A   1      44.446  29.513  27.916  1.00  0.00    -0.014 A 
BRANCH  42  43
ATOM     43  C   UNL A   1      45.616  30.342  27.541  1.00  0.00     0.031 A 
ATOM     44  C   UNL A   1      45.422  31.830  27.423  1.00  0.00     0.074 A 
ATOM     45  C   UNL A   1      46.830  29.798  27.343  1.00  0.00     0.049 A 
ATOM     46  N   UNL A   1      46.285  32.756  27.099  1.00  0.00    -0.248 NA
ATOM     47  C   UNL A   1      44.070  32.338  27.710  1.00  0.00     0.031 C 
ATOM     48  C   UNL A   1      47.156  28.378  27.471  1.00  0.00     0.029 A 
ATOM     49  N   UNL A   1      48.019  30.387  26.987  1.00  0.00    -0.354 N 
ATOM     50  C   UNL A   1      45.581  33.954  27.137  1.00  0.00     0.074 A 
ATOM     51  C   UNL A   1      44.213  33.634  27.480  1.00  0.00     0.031 C 
ATOM     52  C   UNL A   1      48.461  28.206  27.193  1.00  0.00     0.029 A 
ATOM     53  C   UNL A   1      49.053  29.493  26.835  1.00  0.00     0.049 A 
ATOM     54  H   UNL A   1      48.121  31.356  26.854  1.00  0.00     0.167 HD
ATOM     55  C   UNL A   1      46.032  35.211  26.910  1.00  0.00     0.031 A 
ATOM     56  C   UNL A   1      50.325  29.692  26.434  1.00  0.00     0.031 A 
ATOM     57  C   UNL A   1      47.390  35.524  26.549  1.00  0.00     0.049 A 
ATOM     58  C   UNL A   1      50.785  31.092  26.108  1.00  0.00     0.074 A 
ATOM     59  C   UNL A   1      47.950  36.766  26.312  1.00  0.00     0.029 A 
ATOM     60  N   UNL A   1      48.395  34.588  26.361  1.00  0.00    -0.354 N 
ATOM     61  N   UNL A   1      50.117  32.219  26.177  1.00  0.00    -0.248 NA
ATOM     62  C   UNL A   1      52.176  31.244  25.658  1.00  0.00     0.031 C 
ATOM     63  C   UNL A   1      49.277  36.577  25.913  1.00  0.00     0.029 A 
ATOM     64  C   UNL A   1      49.565  35.222  25.976  1.00  0.00     0.049 A 
ATOM     65  H   UNL A   1      48.293  33.616  26.482  1.00  0.00     0.167 HD
ATOM     66  C   UNL A   1      51.014  33.217  25.805  1.00  0.00     0.074 A 
ATOM     67  C   UNL A   1      52.276  32.561  25.534  1.00  0.00     0.031 C 
ATOM     68  C   UNL A   1      50.813  34.556  25.699  1.00  0.00     0.031 A 
BRANCH  55  69
ATOM     69  C   UNL A   1      45.035  36.335  27.007  1.00  0.00    -0.014 A 
ATOM     70  C   UNL A   1      43.707  36.176  26.573  1.00  0.00     0.010 A 
ATOM     71  C   UNL A   1      45.427  37.564  27.571  1.00  0.00     0.010 A 
ATOM     72  C   UNL A   1      42.800  37.236  26.665  1.00  0.00     0.020 A 
ATOM     73  C   UNL A   1      44.516  38.615  27.695  1.00  0.00     0.020 A 
ATOM     74  C   UNL A   1      43.211  38.449  27.226  1.00  0.00     0.054 A 
BRANCH  74  75
ATOM     75  S   UNL A   1      42.006  39.799  27.356  1.00  0.00     0.124 S 
ATOM     76  O   UNL A   1      41.661  39.758  28.775  1.00  0.00    -0.237 OA
ATOM     77  O   UNL A   1      42.783  40.961  26.932  1.00  0.00    -0.237 OA
ATOM     78  O   UNL A   1      40.937  39.400  26.444  1.00  0.00    -0.744 OA
ENDBRANCH  74  75
ENDBRANCH  55  69
BRANCH  56  79
ATOM     79  C   UNL A   1      51.255  28.536  26.296  1.00  0.00    -0.014 A 
ATOM     80  C   UNL A   1      51.064  27.571  25.292  1.00  0.00     0.010 A 
ATOM     81  C   UNL A   1      52.338  28.391  27.184  1.00  0.00     0.010 A 
ATOM     82  C   UNL A   1      51.928  26.476  25.187  1.00  0.00     0.020 A 
ATOM     83  C   UNL A   1      53.221  27.315  27.064  1.00  0.00     0.020 A 
ATOM     84  C   UNL A   1      53.005  26.358  26.071  1.00  0.00     0.054 A 
BRANCH  84  85
ATOM     85  S   UNL A   1      54.143  24.958  25.881  1.00  0.00     0.124 S 
ATOM     86  O   UNL A   1      53.268  23.922  25.343  1.00  0.00    -0.237 OA
ATOM     87  O   UNL A   1      55.141  25.489  24.955  1.00  0.00    -0.237 OA
ATOM     88  O   UNL A   1      54.628  24.724  27.240  1.00  0.00    -0.744 OA
ENDBRANCH  84  85
ENDBRANCH  56  79
BRANCH  68  89
ATOM     89  C   UNL A   1      51.992  35.407  25.302  1.00  0.00    -0.014 A 
ATOM     90  C   UNL A   1      52.951  35.818  26.245  1.00  0.00     0.010 A 
ATOM     91  C   UNL A   1      52.168  35.763  23.952  1.00  0.00     0.010 A 
ATOM     92  C   UNL A   1      54.038  36.605  25.853  1.00  0.00     0.020 A 
ATOM     93  C   UNL A   1      53.272  36.520  23.549  1.00  0.00     0.020 A 
ATOM     94  C   UNL A   1      54.190  36.953  24.507  1.00  0.00     0.054 A 
BRANCH  94  95
ATOM     95  S   UNL A   1      55.623  37.952  24.021  1.00  0.00     0.124 S 
ATOM     96  O   UNL A   1      56.660  36.937  23.854  1.00  0.00    -0.237 OA
ATOM     97  O   UNL A   1      55.165  38.591  22.790  1.00  0.00    -0.237 OA
ATOM     98  O   UNL A   1      55.815  38.858  25.152  1.00  0.00    -0.744 OA
ENDBRANCH  94  95
ENDBRANCH  68  89
ENDBRANCH  42  43
ENDBRANCH  35  37
ENDBRANCH  34  35
ENDBRANCH  33  34
ENDBRANCH  32  33
ENDBRANCH  31  32
ENDBRANCH  30  31
ENDBRANCH  29  30
ENDBRANCH  28  29
ENDBRANCH   1  28
TORSDOF 29
ENDMDL
MODEL 3
REMARK VINA RESULT:      -6.8      0.786      7.769
REMARK SMILES CCOc1cc(C=O)ccc1OCc1ccc(C(=O)OCCOCCOCCOCCOC(=O)c2ccc(-c3c4nc(c(-c5ccc(S(=O)(=O)[O-])cc5)c5ccc([nH]5)c(-c5ccc(S(=O)(=O)[O-])cc5)c5nc(c(-c6ccc(S(=O)(=O)[O-])cc6)c6ccc3[nH]6)C=C5)C=C4)cc2)cc1
REMARK SMILES IDX 25 1 24 2 23 3 22 4 21 5 20 6 18 7 19 8 17 9 14 10 15 11
REMARK SMILES IDX 96 12 16 13 95 14 13 15 12 16 11 17 4 18 5 19 6 20 10 21
REMARK SMILES IDX 9 22 3 23 2 24 1 25 7 26 8 27 26 28 27 29 28 30 29 31 30 32
REMARK SMILES IDX 31 33 32 34 33 35 34 36 35 37 36 38 94 39 37 40 93 41 38 42
REMARK SMILES IDX 39 43 40 44 87 45 41 46 92 47 86 48 88 49 42 50 91 51 85 52
REMARK SMILES IDX 84 53 43 55 73 56 54 57 72 58 55 59 58 60 71 61 89 62 56 63
REMARK SMILES IDX 57 64 70 66 90 67 59 68 44 69 45 70 53 71 46 72 52 73 47 74
REMARK SMILES IDX 48 75 49 76 50 77 51 78 74 79 75 80 83 81 76 82 82 83 77 84
REMARK SMILES IDX 78 85 79 86 80 87 81 88 60 89 61 90 69 91 62 92 68 93 63 94
REMARK SMILES IDX 64 95 65 96 66 97 67 98
REMARK H PARENT 88 54 58 65
REMARK Flexibility Score: inf
ROOT
ATOM      1  C   UNL A   1      35.366  32.795  32.525  1.00  0.00     0.188 C 
ENDROOT
BRANCH   1   2
ATOM      2  C   UNL A   1      34.219  33.580  33.194  1.00  0.00     0.188 C 
BRANCH   2   3
ATOM      3  O   UNL A   1      34.550  34.921  33.489  1.00  0.00    -0.376 OA
BRANCH   3   4
ATOM      4  C   UNL A   1      34.493  35.914  32.484  1.00  0.00     0.202 C 
BRANCH   4   5
ATOM      5  C   UNL A   1      33.203  36.316  31.739  1.00  0.00     0.261 C 
BRANCH   5   6
ATOM      6  O   UNL A   1      32.701  35.415  30.752  1.00  0.00    -0.460 OA
BRANCH   6   7
ATOM      7  C   UNL A   1      33.038  35.659  29.467  1.00  0.00     0.338 C 
ATOM      8  O   UNL A   1      32.954  36.715  28.865  1.00  0.00    -0.246 OA
BRANCH   7   9
ATOM      9  C   UNL A   1      33.801  34.489  28.987  1.00  0.00     0.060 A 
ATOM     10  C   UNL A   1      35.147  32.265  27.879  1.00  0.00    -0.011 A 
ATOM     11  C   UNL A   1      33.780  32.469  27.670  1.00  0.00     0.008 A 
ATOM     12  C   UNL A   1      35.847  33.281  28.562  1.00  0.00     0.008 A 
ATOM     13  C   UNL A   1      33.093  33.506  28.300  1.00  0.00     0.016 A 
ATOM     14  C   UNL A   1      35.189  34.407  29.077  1.00  0.00     0.016 A 
BRANCH  10  15
ATOM     15  C   UNL A   1      35.851  30.926  27.631  1.00  0.00     0.265 C 
BRANCH  15  16
ATOM     16  O   UNL A   1      37.218  30.718  27.993  1.00  0.00    -0.485 OA
BRANCH  16  17
ATOM     17  C   UNL A   1      37.596  29.691  28.811  1.00  0.00     0.161 A 
ATOM     18  C   UNL A   1      38.677  28.806  28.648  1.00  0.00     0.161 A 
ATOM     19  C   UNL A   1      39.130  28.084  29.761  1.00  0.00     0.062 A 
ATOM     20  C   UNL A   1      38.429  28.175  30.978  1.00  0.00     0.018 A 
ATOM     21  C   UNL A   1      36.831  29.657  29.982  1.00  0.00     0.051 A 
ATOM     22  C   UNL A   1      37.239  28.897  31.068  1.00  0.00     0.015 A 
BRANCH  18  23
ATOM     23  O   UNL A   1      39.187  28.662  27.390  1.00  0.00    -0.490 OA
BRANCH  23  24
ATOM     24  C   UNL A   1      40.462  29.227  27.076  1.00  0.00     0.226 C 
ATOM     25  C   UNL A   1      41.128  28.274  26.087  1.00  0.00     0.049 C 
ENDBRANCH  23  24
ENDBRANCH  18  23
BRANCH  20  26
ATOM     26  C   UNL A   1      38.931  27.544  32.217  1.00  0.00     0.260 C 
ATOM     27  O   UNL A   1      38.208  27.324  33.179  1.00  0.00    -0.298 OA
ENDBRANCH  20  26
ENDBRANCH  16  17
ENDBRANCH  15  16
ENDBRANCH  10  15
ENDBRANCH   7   9
ENDBRANCH   6   7
ENDBRANCH   5   6
ENDBRANCH   4   5
ENDBRANCH   3   4
ENDBRANCH   2   3
ENDBRANCH   1   2
BRANCH   1  28
ATOM     28  O   UNL A   1      36.692  33.239  32.740  1.00  0.00    -0.377 OA
BRANCH  28  29
ATOM     29  C   UNL A   1      37.403  32.774  33.880  1.00  0.00     0.188 C 
BRANCH  29  30
ATOM     30  C   UNL A   1      37.273  33.453  35.267  1.00  0.00     0.188 C 
BRANCH  30  31
ATOM     31  O   UNL A   1      38.473  33.566  36.017  1.00  0.00    -0.376 OA
BRANCH  31  32
ATOM     32  C   UNL A   1      38.826  32.482  36.860  1.00  0.00     0.202 C 
BRANCH  32  33
ATOM     33  C   UNL A   1      38.233  32.485  38.276  1.00  0.00     0.261 C 
BRANCH  33  34
ATOM     34  O   UNL A   1      37.813  33.763  38.776  1.00  0.00    -0.460 OA
BRANCH  34  35
ATOM     35  C   UNL A   1      38.248  34.108  40.012  1.00  0.00     0.338 C 
ATOM     36  O   UNL A   1      37.969  33.577  41.061  1.00  0.00    -0.246 OA
BRANCH  35  37
ATOM     37  C   UNL A   1      39.296  35.138  39.835  1.00  0.00     0.060 A 
ATOM     38  C   UNL A   1      40.301  35.255  40.804  1.00  0.00     0.016 A 
ATOM     39  C   UNL A   1      39.297  35.964  38.708  1.00  0.00     0.016 A 
ATOM     40  C   UNL A   1      41.297  36.221  40.662  1.00  0.00     0.010 A 
ATOM     41  C   UNL A   1      40.279  36.948  38.582  1.00  0.00     0.010 A 
ATOM     42  C   UNL A   1      41.263  37.103  39.575  1.00  0.00    -0.014 A 
BRANCH  42  43
ATOM     43  C   UNL A   1      42.124  38.310  39.588  1.00  0.00     0.031 A 
ATOM     44  C   UNL A   1      41.586  39.558  40.234  1.00  0.00     0.074 A 
ATOM     45  C   UNL A   1      43.367  38.294  39.074  1.00  0.00     0.049 A 
ATOM     46  N   UNL A   1      42.141  40.734  40.359  1.00  0.00    -0.248 NA
ATOM     47  C   UNL A   1      40.236  39.464  40.816  1.00  0.00     0.031 C 
ATOM     48  C   UNL A   1      44.019  37.136  38.463  1.00  0.00     0.029 A 
ATOM     49  N   UNL A   1      44.303  39.295  38.985  1.00  0.00    -0.354 N 
ATOM     50  C   UNL A   1      41.210  41.521  41.027  1.00  0.00     0.074 A 
ATOM     51  C   UNL A   1      40.040  40.699  41.249  1.00  0.00     0.031 C 
ATOM     52  C   UNL A   1      45.250  37.495  38.058  1.00  0.00     0.029 A 
ATOM     53  C   UNL A   1      45.461  38.913  38.348  1.00  0.00     0.049 A 
ATOM     54  H   UNL A   1      44.159  40.200  39.343  1.00  0.00     0.167 HD
ATOM     55  C   UNL A   1      41.318  42.811  41.424  1.00  0.00     0.031 A 
ATOM     56  C   UNL A   1      46.554  39.630  38.022  1.00  0.00     0.031 A 
ATOM     57  C   UNL A   1      42.475  43.631  41.184  1.00  0.00     0.049 A 
ATOM     58  C   UNL A   1      46.620  41.089  38.403  1.00  0.00     0.074 A 
ATOM     59  C   UNL A   1      42.689  44.945  41.558  1.00  0.00     0.029 A 
ATOM     60  N   UNL A   1      43.608  43.221  40.497  1.00  0.00    -0.354 N 
ATOM     61  N   UNL A   1      45.744  41.812  39.062  1.00  0.00    -0.248 NA
ATOM     62  C   UNL A   1      47.828  41.825  38.004  1.00  0.00     0.031 C 
ATOM     63  C   UNL A   1      43.922  45.352  41.039  1.00  0.00     0.029 A 
ATOM     64  C   UNL A   1      44.510  44.268  40.405  1.00  0.00     0.049 A 
ATOM     65  H   UNL A   1      43.750  42.319  40.128  1.00  0.00     0.167 HD
ATOM     66  C   UNL A   1      46.308  43.080  39.178  1.00  0.00     0.074 A 
ATOM     67  C   UNL A   1      47.607  43.017  38.542  1.00  0.00     0.031 C 
ATOM     68  C   UNL A   1      45.798  44.195  39.761  1.00  0.00     0.031 A 
BRANCH  55  69
ATOM     69  C   UNL A   1      40.134  43.423  42.124  1.00  0.00    -0.014 A 
ATOM     70  C   UNL A   1      39.090  44.032  41.404  1.00  0.00     0.010 A 
ATOM     71  C   UNL A   1      40.049  43.360  43.528  1.00  0.00     0.010 A 
ATOM     72  C   UNL A   1      38.004  44.602  42.076  1.00  0.00     0.020 A 
ATOM     73  C   UNL A   1      38.951  43.899  44.201  1.00  0.00     0.020 A 
ATOM     74  C   UNL A   1      37.942  44.531  43.471  1.00  0.00     0.054 A 
BRANCH  74  75
ATOM     75  S   UNL A   1      36.509  45.255  44.315  1.00  0.00     0.124 S 
ATOM     76  O   UNL A   1      35.822  45.929  43.216  1.00  0.00    -0.237 OA
ATOM     77  O   UNL A   1      35.829  44.079  44.852  1.00  0.00    -0.237 OA
ATOM     78  O   UNL A   1      37.103  46.139  45.314  1.00  0.00    -0.744 OA
ENDBRANCH  74  75
ENDBRANCH  55  69
BRANCH  56  79
ATOM     79  C   UNL A   1      47.673  38.991  37.275  1.00  0.00    -0.014 A 
ATOM     80  C   UNL A   1      48.744  38.385  37.956  1.00  0.00     0.010 A 
ATOM     81  C   UNL A   1      47.676  38.995  35.867  1.00  0.00     0.010 A 
ATOM     82  C   UNL A   1      49.803  37.810  37.245  1.00  0.00     0.020 A 
ATOM     83  C   UNL A   1      48.717  38.395  35.153  1.00  0.00     0.020 A 
ATOM     84  C   UNL A   1      49.779  37.814  35.847  1.00  0.00     0.054 A 
BRANCH  84  85
ATOM     85  S   UNL A   1      51.137  37.014  34.948  1.00  0.00     0.124 S 
ATOM     86  O   UNL A   1      51.018  35.627  35.384  1.00  0.00    -0.237 OA
ATOM     87  O   UNL A   1      50.784  37.274  33.554  1.00  0.00    -0.237 OA
ATOM     88  O   UNL A   1      52.325  37.721  35.423  1.00  0.00    -0.744 OA
ENDBRANCH  84  85
ENDBRANCH  56  79
BRANCH  68  89
ATOM     89  C   UNL A   1      46.658  45.433  39.765  1.00  0.00    -0.014 A 
ATOM     90  C   UNL A   1      46.308  46.572  39.018  1.00  0.00     0.010 A 
ATOM     91  C   UNL A   1      47.812  45.473  40.569  1.00  0.00     0.010 A 
ATOM     92  C   UNL A   1      47.120  47.710  39.040  1.00  0.00     0.020 A 
ATOM     93  C   UNL A   1      48.608  46.621  40.621  1.00  0.00     0.020 A 
ATOM     94  C   UNL A   1      48.266  47.726  39.840  1.00  0.00     0.054 A 
BRANCH  94  95
ATOM     95  S   UNL A   1      49.288  49.225  39.871  1.00  0.00     0.124 S 
ATOM     96  O   UNL A   1      48.284  50.280  39.767  1.00  0.00    -0.237 OA
ATOM     97  O   UNL A   1      49.964  49.124  41.162  1.00  0.00    -0.237 OA
ATOM     98  O   UNL A   1      50.158  49.077  38.706  1.00  0.00    -0.744 OA
ENDBRANCH  94  95
ENDBRANCH  68  89
ENDBRANCH  42  43
ENDBRANCH  35  37
ENDBRANCH  34  35
ENDBRANCH  33  34
ENDBRANCH  32  33
ENDBRANCH  31  32
ENDBRANCH  30  31
ENDBRANCH  29  30
ENDBRANCH  28  29
ENDBRANCH   1  28
TORSDOF 29
ENDMDL
