MODEL 1
REMARK VINA RESULT:      -7.6      0.000      0.000
REMARK SMILES C[NH+]1CCC2(CC1)OC[C@@H](C(=O)OCCOCCOCCOCCOC(=O)c1ccc(-c3c4nc(c(-c5ccc(S(=O)(=O)[O-])cc5)c5ccc([nH]5)c(-c5ccc(S(=O)(=O)[O-])cc5)c5nc(c(-c6ccc(S(=O)(=O)[O-])cc6)c6ccc3[nH]6)C=C5)C=C4)cc1)N2C(=O)c1ccc2ccccc2c1
REMARK SMILES IDX 20 1 19 2 18 3 17 4 16 5 15 6 14 7 13 8 11 9 12 10 10 11
REMARK SMILES IDX 1 12 2 13 3 14 7 15 4 17 6 18 5 19 8 20 88 21 9 22 89 23
REMARK SMILES IDX 90 24 91 25 92 26 100 27 93 28 99 29 94 30 98 31 95 32 97 33
REMARK SMILES IDX 96 34 21 35 22 36 23 37 24 38 25 39 26 40 27 41 28 42 29 43
REMARK SMILES IDX 87 44 30 45 86 46 31 47 32 48 33 49 80 50 34 51 85 52 79 53
REMARK SMILES IDX 81 54 35 55 84 56 78 57 77 58 36 60 66 61 47 62 65 63 48 64
REMARK SMILES IDX 51 65 64 66 82 67 49 68 50 69 63 71 83 72 52 73 37 74 38 75
REMARK SMILES IDX 46 76 39 77 45 78 40 79 41 80 42 81 43 82 44 83 67 84 68 85
REMARK SMILES IDX 76 86 69 87 75 88 70 89 71 90 72 91 73 92 74 93 53 94 54 95
REMARK SMILES IDX 62 96 55 97 61 98 56 99 57 100 58 101 59 102 60 103
REMARK H PARENT 2 16 81 59 51 70
REMARK Flexibility Score: inf
ROOT
ATOM      1  C   UNL A   1      34.581  33.819  28.029  1.00  0.00     0.188 C 
ENDROOT
BRANCH   1   2
ATOM      2  O   UNL A   1      35.027  32.623  28.663  1.00  0.00    -0.377 OA
BRANCH   2   3
ATOM      3  C   UNL A   1      35.767  31.652  27.940  1.00  0.00     0.188 C 
BRANCH   3   4
ATOM      4  C   UNL A   1      35.480  30.205  28.337  1.00  0.00     0.188 C 
BRANCH   4   5
ATOM      5  O   UNL A   1      36.456  29.517  29.099  1.00  0.00    -0.376 OA
BRANCH   5   6
ATOM      6  C   UNL A   1      37.610  28.982  28.454  1.00  0.00     0.202 C 
BRANCH   6   7
ATOM      7  C   UNL A   1      38.972  29.708  28.517  1.00  0.00     0.261 C 
BRANCH   7   8
ATOM      8  O   UNL A   1      39.972  29.276  27.549  1.00  0.00    -0.462 OA
BRANCH   8   9
ATOM      9  C   UNL A   1      41.103  28.766  28.086  1.00  0.00     0.331 C 
ATOM     10  O   UNL A   1      41.641  29.262  29.084  1.00  0.00    -0.250 OA
BRANCH   9  11
ATOM     11  C   UNL A   1      41.761  27.529  27.429  1.00  0.00     0.224 C 
ATOM     12  C   UNL A   1      45.094  22.449  25.697  1.00  0.00     0.332 C 
ATOM     13  N   UNL A   1      45.084  23.901  25.709  1.00  0.00    -0.337 N 
ATOM     14  C   UNL A   1      43.929  24.480  25.033  1.00  0.00     0.267 C 
ATOM     15  C   UNL A   1      45.421  24.463  27.015  1.00  0.00     0.267 C 
ATOM     16  H   UNL A   1      45.858  24.208  25.120  1.00  0.00     0.347 HD
ATOM     17  C   UNL A   1      42.745  24.813  25.920  1.00  0.00     0.120 C 
ATOM     18  C   UNL A   1      44.277  24.895  27.916  1.00  0.00     0.120 C 
ATOM     19  C   UNL A   1      43.108  25.574  27.210  1.00  0.00     0.155 C 
ATOM     20  O   UNL A   1      41.979  25.264  28.073  1.00  0.00    -0.352 OA
ATOM     21  N   UNL A   1      43.128  27.063  27.103  1.00  0.00    -0.293 N 
ATOM     22  C   UNL A   1      41.311  26.460  28.411  1.00  0.00     0.200 C 
BRANCH  21  23
ATOM     23  C   UNL A   1      43.807  27.618  25.997  1.00  0.00     0.256 C 
ATOM     24  O   UNL A   1      43.248  27.812  24.919  1.00  0.00    -0.269 OA
BRANCH  23  25
ATOM     25  C   UNL A   1      45.297  27.799  26.080  1.00  0.00     0.040 A 
ATOM     26  C   UNL A   1      45.922  28.104  27.288  1.00  0.00     0.014 A 
ATOM     27  C   UNL A   1      46.095  27.539  24.946  1.00  0.00     0.022 A 
ATOM     28  C   UNL A   1      47.317  27.991  27.398  1.00  0.00     0.009 A 
ATOM     29  C   UNL A   1      47.489  27.335  25.062  1.00  0.00    -0.018 A 
ATOM     30  C   UNL A   1      48.101  27.534  26.319  1.00  0.00    -0.018 A 
ATOM     31  C   UNL A   1      48.272  26.854  23.992  1.00  0.00     0.009 A 
ATOM     32  C   UNL A   1      49.463  27.210  26.479  1.00  0.00     0.009 A 
ATOM     33  C   UNL A   1      49.621  26.530  24.171  1.00  0.00     0.001 A 
ATOM     34  C   UNL A   1      50.212  26.697  25.418  1.00  0.00     0.001 A 
ENDBRANCH  23  25
ENDBRANCH  21  23
ENDBRANCH   9  11
ENDBRANCH   8   9
ENDBRANCH   7   8
ENDBRANCH   6   7
ENDBRANCH   5   6
ENDBRANCH   4   5
ENDBRANCH   3   4
ENDBRANCH   2   3
ENDBRANCH   1   2
BRANCH   1  35
ATOM     35  C   UNL A   1      34.044  34.935  28.923  1.00  0.00     0.188 C 
BRANCH  35  36
ATOM     36  O   UNL A   1      33.289  34.546  30.076  1.00  0.00    -0.376 OA
BRANCH  36  37
ATOM     37  C   UNL A   1      33.238  35.442  31.185  1.00  0.00     0.202 C 
BRANCH  37  38
ATOM     38  C   UNL A   1      34.131  35.055  32.361  1.00  0.00     0.261 C 
BRANCH  38  39
ATOM     39  O   UNL A   1      34.668  33.731  32.220  1.00  0.00    -0.460 OA
BRANCH  39  40
ATOM     40  C   UNL A   1      35.246  33.240  33.337  1.00  0.00     0.338 C 
ATOM     41  O   UNL A   1      34.752  33.165  34.456  1.00  0.00    -0.246 OA
BRANCH  40  42
ATOM     42  C   UNL A   1      36.555  32.653  33.012  1.00  0.00     0.060 A 
ATOM     43  C   UNL A   1      37.642  32.999  33.824  1.00  0.00     0.016 A 
ATOM     44  C   UNL A   1      36.737  31.864  31.872  1.00  0.00     0.016 A 
ATOM     45  C   UNL A   1      38.927  32.618  33.459  1.00  0.00     0.010 A 
ATOM     46  C   UNL A   1      38.031  31.491  31.502  1.00  0.00     0.010 A 
ATOM     47  C   UNL A   1      39.131  31.911  32.268  1.00  0.00    -0.014 A 
BRANCH  47  48
ATOM     48  C   UNL A   1      40.515  31.779  31.758  1.00  0.00     0.031 A 
ATOM     49  C   UNL A   1      41.104  32.906  30.953  1.00  0.00     0.074 A 
ATOM     50  C   UNL A   1      41.258  30.710  32.090  1.00  0.00     0.049 A 
ATOM     51  N   UNL A   1      42.313  33.036  30.474  1.00  0.00    -0.248 NA
ATOM     52  C   UNL A   1      40.213  34.040  30.651  1.00  0.00     0.031 C 
ATOM     53  C   UNL A   1      40.799  29.584  32.904  1.00  0.00     0.029 A 
ATOM     54  N   UNL A   1      42.561  30.407  31.797  1.00  0.00    -0.354 N 
ATOM     55  C   UNL A   1      42.329  34.259  29.813  1.00  0.00     0.074 A 
ATOM     56  C   UNL A   1      40.998  34.816  29.919  1.00  0.00     0.031 C 
ATOM     57  C   UNL A   1      41.814  28.717  33.057  1.00  0.00     0.029 A 
ATOM     58  C   UNL A   1      42.980  29.211  32.327  1.00  0.00     0.049 A 
ATOM     59  H   UNL A   1      43.143  30.991  31.259  1.00  0.00     0.167 HD
ATOM     60  C   UNL A   1      43.361  34.867  29.181  1.00  0.00     0.031 A 
ATOM     61  C   UNL A   1      44.166  28.583  32.227  1.00  0.00     0.031 A 
ATOM     62  C   UNL A   1      44.678  34.296  29.068  1.00  0.00     0.049 A 
ATOM     63  C   UNL A   1      45.282  29.253  31.470  1.00  0.00     0.074 A 
ATOM     64  C   UNL A   1      45.800  34.829  28.458  1.00  0.00     0.029 A 
ATOM     65  N   UNL A   1      45.049  33.057  29.573  1.00  0.00    -0.354 N 
ATOM     66  N   UNL A   1      45.287  30.418  30.864  1.00  0.00    -0.248 NA
ATOM     67  C   UNL A   1      46.558  28.530  31.401  1.00  0.00     0.031 C 
ATOM     68  C   UNL A   1      46.830  33.884  28.536  1.00  0.00     0.029 A 
ATOM     69  C   UNL A   1      46.374  32.797  29.264  1.00  0.00     0.049 A 
ATOM     70  H   UNL A   1      44.458  32.453  30.077  1.00  0.00     0.167 HD
ATOM     71  C   UNL A   1      46.577  30.581  30.369  1.00  0.00     0.074 A 
ATOM     72  C   UNL A   1      47.326  29.407  30.768  1.00  0.00     0.031 C 
ATOM     73  C   UNL A   1      47.098  31.611  29.654  1.00  0.00     0.031 A 
BRANCH  60  74
ATOM     74  C   UNL A   1      43.095  36.200  28.528  1.00  0.00    -0.014 A 
ATOM     75  C   UNL A   1      42.534  36.290  27.240  1.00  0.00     0.010 A 
ATOM     76  C   UNL A   1      43.379  37.386  29.231  1.00  0.00     0.010 A 
ATOM     77  C   UNL A   1      42.296  37.538  26.656  1.00  0.00     0.020 A 
ATOM     78  C   UNL A   1      43.115  38.635  28.663  1.00  0.00     0.020 A 
ATOM     79  C   UNL A   1      42.588  38.704  27.372  1.00  0.00     0.054 A 
BRANCH  79  80
ATOM     80  S   UNL A   1      42.244  40.309  26.602  1.00  0.00     0.124 S 
ATOM     81  O   UNL A   1      43.590  40.826  26.366  1.00  0.00    -0.237 OA
ATOM     82  O   UNL A   1      41.497  39.934  25.403  1.00  0.00    -0.237 OA
ATOM     83  O   UNL A   1      41.472  41.023  27.615  1.00  0.00    -0.744 OA
ENDBRANCH  79  80
ENDBRANCH  60  74
BRANCH  61  84
ATOM     84  C   UNL A   1      44.355  27.248  32.857  1.00  0.00    -0.014 A 
ATOM     85  C   UNL A   1      44.175  26.065  32.118  1.00  0.00     0.010 A 
ATOM     86  C   UNL A   1      44.726  27.156  34.211  1.00  0.00     0.010 A 
ATOM     87  C   UNL A   1      44.343  24.817  32.727  1.00  0.00     0.020 A 
ATOM     88  C   UNL A   1      44.929  25.912  34.815  1.00  0.00     0.020 A 
ATOM     89  C   UNL A   1      44.724  24.750  34.070  1.00  0.00     0.054 A 
BRANCH  89  90
ATOM     90  S   UNL A   1      44.991  23.122  34.824  1.00  0.00     0.124 S 
ATOM     91  O   UNL A   1      45.267  23.471  36.214  1.00  0.00    -0.237 OA
ATOM     92  O   UNL A   1      43.717  22.450  34.579  1.00  0.00    -0.237 OA
ATOM     93  O   UNL A   1      46.125  22.582  34.076  1.00  0.00    -0.744 OA
ENDBRANCH  89  90
ENDBRANCH  61  84
BRANCH  73  94
ATOM     94  C   UNL A   1      48.559  31.524  29.294  1.00  0.00    -0.014 A 
ATOM     95  C   UNL A   1      49.561  32.022  30.148  1.00  0.00     0.010 A 
ATOM     96  C   UNL A   1      48.935  30.928  28.076  1.00  0.00     0.010 A 
ATOM     97  C   UNL A   1      50.903  31.990  29.757  1.00  0.00     0.020 A 
ATOM     98  C   UNL A   1      50.278  30.859  27.699  1.00  0.00     0.020 A 
ATOM     99  C   UNL A   1      51.252  31.417  28.530  1.00  0.00     0.054 A 
BRANCH  99 100
ATOM    100  S   UNL A   1      52.996  31.401  28.038  1.00  0.00     0.124 S 
ATOM    101  O   UNL A   1      52.929  31.904  26.669  1.00  0.00    -0.237 OA
ATOM    102  O   UNL A   1      53.611  32.302  29.010  1.00  0.00    -0.237 OA
ATOM    103  O   UNL A   1      53.381  29.998  28.169  1.00  0.00    -0.744 OA
ENDBRANCH  99 100
ENDBRANCH  73  94
ENDBRANCH  47  48
ENDBRANCH  40  42
ENDBRANCH  39  40
ENDBRANCH  38  39
ENDBRANCH  37  38
ENDBRANCH  36  37
ENDBRANCH  35  36
ENDBRANCH   1  35
TORSDOF 25
ENDMDL
MODEL 2
REMARK VINA RESULT:      -7.4      5.032      9.199
REMARK SMILES C[NH+]1CCC2(CC1)OC[C@@H](C(=O)OCCOCCOCCOCCOC(=O)c1ccc(-c3c4nc(c(-c5ccc(S(=O)(=O)[O-])cc5)c5ccc([nH]5)c(-c5ccc(S(=O)(=O)[O-])cc5)c5nc(c(-c6ccc(S(=O)(=O)[O-])cc6)c6ccc3[nH]6)C=C5)C=C4)cc1)N2C(=O)c1ccc2ccccc2c1
REMARK SMILES IDX 20 1 19 2 18 3 17 4 16 5 15 6 14 7 13 8 11 9 12 10 10 11
REMARK SMILES IDX 1 12 2 13 3 14 7 15 4 17 6 18 5 19 8 20 88 21 9 22 89 23
REMARK SMILES IDX 90 24 91 25 92 26 100 27 93 28 99 29 94 30 98 31 95 32 97 33
REMARK SMILES IDX 96 34 21 35 22 36 23 37 24 38 25 39 26 40 27 41 28 42 29 43
REMARK SMILES IDX 87 44 30 45 86 46 31 47 32 48 33 49 80 50 34 51 85 52 79 53
REMARK SMILES IDX 81 54 35 55 84 56 78 57 77 58 36 60 66 61 47 62 65 63 48 64
REMARK SMILES IDX 51 65 64 66 82 67 49 68 50 69 63 71 83 72 52 73 37 74 38 75
REMARK SMILES IDX 46 76 39 77 45 78 40 79 41 80 42 81 43 82 44 83 67 84 68 85
REMARK SMILES IDX 76 86 69 87 75 88 70 89 71 90 72 91 73 92 74 93 53 94 54 95
REMARK SMILES IDX 62 96 55 97 61 98 56 99 57 100 58 101 59 102 60 103
REMARK H PARENT 2 16 81 59 51 70
REMARK Flexibility Score: inf
ROOT
ATOM      1  C   UNL A   1      35.603  32.641  30.157  1.00  0.00     0.188 C 
ENDROOT
BRANCH   1   2
ATOM      2  O   UNL A   1      36.730  31.812  29.887  1.00  0.00    -0.377 OA
BRANCH   2   3
ATOM      3  C   UNL A   1      36.621  30.398  29.949  1.00  0.00     0.188 C 
BRANCH   3   4
ATOM      4  C   UNL A   1      36.441  29.711  28.596  1.00  0.00     0.188 C 
BRANCH   4   5
ATOM      5  O   UNL A   1      35.692  30.386  27.601  1.00  0.00    -0.376 OA
BRANCH   5   6
ATOM      6  C   UNL A   1      34.340  30.755  27.859  1.00  0.00     0.202 C 
BRANCH   6   7
ATOM      7  C   UNL A   1      33.238  30.560  26.794  1.00  0.00     0.261 C 
BRANCH   7   8
ATOM      8  O   UNL A   1      33.347  29.362  25.973  1.00  0.00    -0.462 OA
BRANCH   8   9
ATOM      9  C   UNL A   1      32.208  28.993  25.346  1.00  0.00     0.331 C 
ATOM     10  O   UNL A   1      31.313  29.802  25.074  1.00  0.00    -0.250 OA
BRANCH   9  11
ATOM     11  C   UNL A   1      32.001  27.507  24.965  1.00  0.00     0.224 C 
ATOM     12  C   UNL A   1      32.290  21.445  23.209  1.00  0.00     0.332 C 
ATOM     13  N   UNL A   1      32.167  22.806  22.720  1.00  0.00    -0.337 N 
ATOM     14  C   UNL A   1      31.019  23.520  23.269  1.00  0.00     0.267 C 
ATOM     15  C   UNL A   1      33.438  23.527  22.715  1.00  0.00     0.267 C 
ATOM     16  H   UNL A   1      31.933  22.745  21.729  1.00  0.00     0.347 HD
ATOM     17  C   UNL A   1      31.294  24.359  24.502  1.00  0.00     0.120 C 
ATOM     18  C   UNL A   1      33.732  24.452  23.883  1.00  0.00     0.120 C 
ATOM     19  C   UNL A   1      32.544  25.256  24.399  1.00  0.00     0.155 C 
ATOM     20  O   UNL A   1      32.876  25.474  25.797  1.00  0.00    -0.352 OA
ATOM     21  N   UNL A   1      32.322  26.617  23.826  1.00  0.00    -0.293 N 
ATOM     22  C   UNL A   1      32.795  26.853  26.084  1.00  0.00     0.200 C 
BRANCH  21  23
ATOM     23  C   UNL A   1      31.558  26.699  22.642  1.00  0.00     0.256 C 
ATOM     24  O   UNL A   1      31.952  26.225  21.578  1.00  0.00    -0.269 OA
BRANCH  23  25
ATOM     25  C   UNL A   1      30.321  27.552  22.639  1.00  0.00     0.040 A 
ATOM     26  C   UNL A   1      29.174  27.167  23.331  1.00  0.00     0.014 A 
ATOM     27  C   UNL A   1      30.352  28.823  22.027  1.00  0.00     0.022 A 
ATOM     28  C   UNL A   1      28.144  28.096  23.544  1.00  0.00     0.009 A 
ATOM     29  C   UNL A   1      29.366  29.796  22.307  1.00  0.00    -0.018 A 
ATOM     30  C   UNL A   1      28.261  29.431  23.107  1.00  0.00    -0.018 A 
ATOM     31  C   UNL A   1      29.493  31.138  21.893  1.00  0.00     0.009 A 
ATOM     32  C   UNL A   1      27.341  30.423  23.501  1.00  0.00     0.009 A 
ATOM     33  C   UNL A   1      28.573  32.111  22.299  1.00  0.00     0.001 A 
ATOM     34  C   UNL A   1      27.504  31.754  23.113  1.00  0.00     0.001 A 
ENDBRANCH  23  25
ENDBRANCH  21  23
ENDBRANCH   9  11
ENDBRANCH   8   9
ENDBRANCH   7   8
ENDBRANCH   6   7
ENDBRANCH   5   6
ENDBRANCH   4   5
ENDBRANCH   3   4
ENDBRANCH   2   3
ENDBRANCH   1   2
BRANCH   1  35
ATOM     35  C   UNL A   1      34.873  32.431  31.482  1.00  0.00     0.188 C 
BRANCH  35  36
ATOM     36  O   UNL A   1      35.191  33.325  32.555  1.00  0.00    -0.376 OA
BRANCH  36  37
ATOM     37  C   UNL A   1      35.942  32.818  33.658  1.00  0.00     0.202 C 
BRANCH  37  38
ATOM     38  C   UNL A   1      37.278  32.184  33.283  1.00  0.00     0.261 C 
BRANCH  38  39
ATOM     39  O   UNL A   1      38.373  33.101  33.429  1.00  0.00    -0.460 OA
BRANCH  39  40
ATOM     40  C   UNL A   1      38.690  33.778  32.305  1.00  0.00     0.338 C 
ATOM     41  O   UNL A   1      38.042  34.670  31.769  1.00  0.00    -0.246 OA
BRANCH  40  42
ATOM     42  C   UNL A   1      40.034  33.396  31.846  1.00  0.00     0.060 A 
ATOM     43  C   UNL A   1      40.423  33.798  30.563  1.00  0.00     0.016 A 
ATOM     44  C   UNL A   1      40.858  32.568  32.616  1.00  0.00     0.016 A 
ATOM     45  C   UNL A   1      41.603  33.316  30.014  1.00  0.00     0.010 A 
ATOM     46  C   UNL A   1      42.041  32.077  32.058  1.00  0.00     0.010 A 
ATOM     47  C   UNL A   1      42.388  32.410  30.738  1.00  0.00    -0.014 A 
BRANCH  47  48
ATOM     48  C   UNL A   1      43.469  31.691  30.027  1.00  0.00     0.031 A 
ATOM     49  C   UNL A   1      44.824  32.337  29.920  1.00  0.00     0.074 A 
ATOM     50  C   UNL A   1      43.264  30.445  29.567  1.00  0.00     0.049 A 
ATOM     51  N   UNL A   1      45.930  31.861  29.409  1.00  0.00    -0.248 NA
ATOM     52  C   UNL A   1      44.952  33.700  30.464  1.00  0.00     0.031 C 
ATOM     53  C   UNL A   1      42.002  29.709  29.661  1.00  0.00     0.029 A 
ATOM     54  N   UNL A   1      44.118  29.573  28.947  1.00  0.00    -0.354 N 
ATOM     55  C   UNL A   1      46.881  32.862  29.566  1.00  0.00     0.074 A 
ATOM     56  C   UNL A   1      46.215  33.987  30.184  1.00  0.00     0.031 C 
ATOM     57  C   UNL A   1      42.171  28.488  29.127  1.00  0.00     0.029 A 
ATOM     58  C   UNL A   1      43.539  28.369  28.628  1.00  0.00     0.049 A 
ATOM     59  H   UNL A   1      45.059  29.789  28.748  1.00  0.00     0.167 HD
ATOM     60  C   UNL A   1      48.194  32.843  29.233  1.00  0.00     0.031 A 
ATOM     61  C   UNL A   1      44.055  27.296  27.998  1.00  0.00     0.031 A 
ATOM     62  C   UNL A   1      48.843  31.721  28.603  1.00  0.00     0.049 A 
ATOM     63  C   UNL A   1      45.502  27.321  27.585  1.00  0.00     0.074 A 
ATOM     64  C   UNL A   1      50.169  31.591  28.230  1.00  0.00     0.029 A 
ATOM     65  N   UNL A   1      48.210  30.538  28.248  1.00  0.00    -0.354 N 
ATOM     66  N   UNL A   1      46.395  28.269  27.756  1.00  0.00    -0.248 NA
ATOM     67  C   UNL A   1      46.015  26.122  26.912  1.00  0.00     0.031 C 
ATOM     68  C   UNL A   1      50.323  30.357  27.590  1.00  0.00     0.029 A 
ATOM     69  C   UNL A   1      49.112  29.684  27.635  1.00  0.00     0.049 A 
ATOM     70  H   UNL A   1      47.260  30.336  28.409  1.00  0.00     0.167 HD
ATOM     71  C   UNL A   1      47.584  27.766  27.239  1.00  0.00     0.074 A 
ATOM     72  C   UNL A   1      47.299  26.424  26.772  1.00  0.00     0.031 C 
ATOM     73  C   UNL A   1      48.804  28.357  27.160  1.00  0.00     0.031 A 
BRANCH  60  74
ATOM     74  C   UNL A   1      49.004  34.085  29.505  1.00  0.00    -0.014 A 
ATOM     75  C   UNL A   1      49.693  34.264  30.719  1.00  0.00     0.010 A 
ATOM     76  C   UNL A   1      49.106  35.077  28.512  1.00  0.00     0.010 A 
ATOM     77  C   UNL A   1      50.438  35.425  30.948  1.00  0.00     0.020 A 
ATOM     78  C   UNL A   1      49.874  36.225  28.725  1.00  0.00     0.020 A 
ATOM     79  C   UNL A   1      50.524  36.399  29.948  1.00  0.00     0.054 A 
BRANCH  79  80
ATOM     80  S   UNL A   1      51.519  37.882  30.260  1.00  0.00     0.124 S 
ATOM     81  O   UNL A   1      51.928  38.261  28.909  1.00  0.00    -0.237 OA
ATOM     82  O   UNL A   1      50.562  38.781  30.901  1.00  0.00    -0.237 OA
ATOM     83  O   UNL A   1      52.596  37.405  31.124  1.00  0.00    -0.744 OA
ENDBRANCH  79  80
ENDBRANCH  60  74
BRANCH  61  84
ATOM     84  C   UNL A   1      43.193  26.115  27.719  1.00  0.00    -0.014 A 
ATOM     85  C   UNL A   1      43.213  24.988  28.560  1.00  0.00     0.010 A 
ATOM     86  C   UNL A   1      42.337  26.118  26.603  1.00  0.00     0.010 A 
ATOM     87  C   UNL A   1      42.408  23.880  28.278  1.00  0.00     0.020 A 
ATOM     88  C   UNL A   1      41.506  25.027  26.337  1.00  0.00     0.020 A 
ATOM     89  C   UNL A   1      41.556  23.910  27.171  1.00  0.00     0.054 A 
BRANCH  89  90
ATOM     90  S   UNL A   1      40.479  22.484  26.856  1.00  0.00     0.124 S 
ATOM     91  O   UNL A   1      40.482  21.809  28.150  1.00  0.00    -0.237 OA
ATOM     92  O   UNL A   1      39.221  23.120  26.475  1.00  0.00    -0.237 OA
ATOM     93  O   UNL A   1      41.161  21.773  25.776  1.00  0.00    -0.744 OA
ENDBRANCH  89  90
ENDBRANCH  61  84
BRANCH  73  94
ATOM     94  C   UNL A   1      49.927  27.534  26.582  1.00  0.00    -0.014 A 
ATOM     95  C   UNL A   1      50.592  26.555  27.343  1.00  0.00     0.010 A 
ATOM     96  C   UNL A   1      50.321  27.746  25.248  1.00  0.00     0.010 A 
ATOM     97  C   UNL A   1      51.676  25.856  26.803  1.00  0.00     0.020 A 
ATOM     98  C   UNL A   1      51.378  27.022  24.692  1.00  0.00     0.020 A 
ATOM     99  C   UNL A   1      52.067  26.101  25.483  1.00  0.00     0.054 A 
BRANCH  99 100
ATOM    100  S   UNL A   1      53.484  25.193  24.810  1.00  0.00     0.124 S 
ATOM    101  O   UNL A   1      54.608  25.853  25.470  1.00  0.00    -0.237 OA
ATOM    102  O   UNL A   1      53.220  23.822  25.240  1.00  0.00    -0.237 OA
ATOM    103  O   UNL A   1      53.388  25.416  23.370  1.00  0.00    -0.744 OA
ENDBRANCH  99 100
ENDBRANCH  73  94
ENDBRANCH  47  48
ENDBRANCH  40  42
ENDBRANCH  39  40
ENDBRANCH  38  39
ENDBRANCH  37  38
ENDBRANCH  36  37
ENDBRANCH  35  36
ENDBRANCH   1  35
TORSDOF 25
ENDMDL
MODEL 3
REMARK VINA RESULT:      -7.3      3.169      5.380
REMARK SMILES C[NH+]1CCC2(CC1)OC[C@@H](C(=O)OCCOCCOCCOCCOC(=O)c1ccc(-c3c4nc(c(-c5ccc(S(=O)(=O)[O-])cc5)c5ccc([nH]5)c(-c5ccc(S(=O)(=O)[O-])cc5)c5nc(c(-c6ccc(S(=O)(=O)[O-])cc6)c6ccc3[nH]6)C=C5)C=C4)cc1)N2C(=O)c1ccc2ccccc2c1
REMARK SMILES IDX 20 1 19 2 18 3 17 4 16 5 15 6 14 7 13 8 11 9 12 10 10 11
REMARK SMILES IDX 1 12 2 13 3 14 7 15 4 17 6 18 5 19 8 20 88 21 9 22 89 23
REMARK SMILES IDX 90 24 91 25 92 26 100 27 93 28 99 29 94 30 98 31 95 32 97 33
REMARK SMILES IDX 96 34 21 35 22 36 23 37 24 38 25 39 26 40 27 41 28 42 29 43
REMARK SMILES IDX 87 44 30 45 86 46 31 47 32 48 33 49 80 50 34 51 85 52 79 53
REMARK SMILES IDX 81 54 35 55 84 56 78 57 77 58 36 60 66 61 47 62 65 63 48 64
REMARK SMILES IDX 51 65 64 66 82 67 49 68 50 69 63 71 83 72 52 73 37 74 38 75
REMARK SMILES IDX 46 76 39 77 45 78 40 79 41 80 42 81 43 82 44 83 67 84 68 85
REMARK SMILES IDX 76 86 69 87 75 88 70 89 71 90 72 91 73 92 74 93 53 94 54 95
REMARK SMILES IDX 62 96 55 97 61 98 56 99 57 100 58 101 59 102 60 103
REMARK H PARENT 2 16 81 59 51 70
REMARK Flexibility Score: inf
ROOT
ATOM      1  C   UNL A   1      32.555  26.516  25.437  1.00  0.00     0.188 C 
ENDROOT
BRANCH   1   2
ATOM      2  O   UNL A   1      32.664  25.121  25.708  1.00  0.00    -0.377 OA
BRANCH   2   3
ATOM      3  C   UNL A   1      33.795  24.384  25.270  1.00  0.00     0.188 C 
BRANCH   3   4
ATOM      4  C   UNL A   1      34.502  23.588  26.365  1.00  0.00     0.188 C 
BRANCH   4   5
ATOM      5  O   UNL A   1      35.782  23.052  26.079  1.00  0.00    -0.376 OA
BRANCH   5   6
ATOM      6  C   UNL A   1      36.864  23.927  25.771  1.00  0.00     0.202 C 
BRANCH   6   7
ATOM      7  C   UNL A   1      38.329  23.443  25.830  1.00  0.00     0.261 C 
BRANCH   7   8
ATOM      8  O   UNL A   1      38.809  23.015  27.138  1.00  0.00    -0.462 OA
BRANCH   8   9
ATOM      9  C   UNL A   1      40.084  22.568  27.160  1.00  0.00     0.331 C 
ATOM     10  O   UNL A   1      40.367  21.393  27.421  1.00  0.00    -0.250 OA
BRANCH   9  11
ATOM     11  C   UNL A   1      41.237  23.558  26.865  1.00  0.00     0.224 C 
ATOM     12  C   UNL A   1      45.992  27.717  26.799  1.00  0.00     0.332 C 
ATOM     13  N   UNL A   1      44.547  27.583  26.843  1.00  0.00    -0.337 N 
ATOM     14  C   UNL A   1      43.998  26.843  25.713  1.00  0.00     0.267 C 
ATOM     15  C   UNL A   1      44.048  27.215  28.165  1.00  0.00     0.267 C 
ATOM     16  H   UNL A   1      44.159  28.516  26.702  1.00  0.00     0.347 HD
ATOM     17  C   UNL A   1      43.792  25.357  25.937  1.00  0.00     0.120 C 
ATOM     18  C   UNL A   1      43.740  25.750  28.423  1.00  0.00     0.120 C 
ATOM     19  C   UNL A   1      43.091  25.002  27.264  1.00  0.00     0.155 C 
ATOM     20  O   UNL A   1      43.521  23.630  27.476  1.00  0.00    -0.352 OA
ATOM     21  N   UNL A   1      41.600  24.949  27.217  1.00  0.00    -0.293 N 
ATOM     22  C   UNL A   1      42.390  22.786  27.486  1.00  0.00     0.200 C 
BRANCH  21  23
ATOM     23  C   UNL A   1      40.938  26.022  26.583  1.00  0.00     0.256 C 
ATOM     24  O   UNL A   1      40.979  26.186  25.365  1.00  0.00    -0.269 OA
BRANCH  23  25
ATOM     25  C   UNL A   1      40.326  27.099  27.435  1.00  0.00     0.040 A 
ATOM     26  C   UNL A   1      39.910  28.309  26.883  1.00  0.00     0.014 A 
ATOM     27  C   UNL A   1      40.054  26.841  28.795  1.00  0.00     0.022 A 
ATOM     28  C   UNL A   1      39.096  29.173  27.633  1.00  0.00     0.009 A 
ATOM     29  C   UNL A   1      39.166  27.656  29.532  1.00  0.00    -0.018 A 
ATOM     30  C   UNL A   1      38.654  28.824  28.925  1.00  0.00    -0.018 A 
ATOM     31  C   UNL A   1      38.701  27.296  30.815  1.00  0.00     0.009 A 
ATOM     32  C   UNL A   1      37.669  29.573  29.598  1.00  0.00     0.009 A 
ATOM     33  C   UNL A   1      37.717  28.048  31.466  1.00  0.00     0.001 A 
ATOM     34  C   UNL A   1      37.194  29.180  30.851  1.00  0.00     0.001 A 
ENDBRANCH  23  25
ENDBRANCH  21  23
ENDBRANCH   9  11
ENDBRANCH   8   9
ENDBRANCH   7   8
ENDBRANCH   6   7
ENDBRANCH   5   6
ENDBRANCH   4   5
ENDBRANCH   3   4
ENDBRANCH   2   3
ENDBRANCH   1   2
BRANCH   1  35
ATOM     35  C   UNL A   1      33.224  27.480  26.414  1.00  0.00     0.188 C 
BRANCH  35  36
ATOM     36  O   UNL A   1      33.242  28.867  26.058  1.00  0.00    -0.376 OA
BRANCH  36  37
ATOM     37  C   UNL A   1      34.211  29.712  26.678  1.00  0.00     0.202 C 
BRANCH  37  38
ATOM     38  C   UNL A   1      33.627  30.825  27.543  1.00  0.00     0.261 C 
BRANCH  38  39
ATOM     39  O   UNL A   1      34.498  31.183  28.626  1.00  0.00    -0.460 OA
BRANCH  39  40
ATOM     40  C   UNL A   1      34.518  32.502  28.916  1.00  0.00     0.338 C 
ATOM     41  O   UNL A   1      33.555  33.256  29.007  1.00  0.00    -0.246 OA
BRANCH  40  42
ATOM     42  C   UNL A   1      35.884  32.924  29.258  1.00  0.00     0.060 A 
ATOM     43  C   UNL A   1      36.895  32.681  28.320  1.00  0.00     0.016 A 
ATOM     44  C   UNL A   1      36.190  33.450  30.518  1.00  0.00     0.016 A 
ATOM     45  C   UNL A   1      38.223  32.894  28.663  1.00  0.00     0.010 A 
ATOM     46  C   UNL A   1      37.528  33.654  30.863  1.00  0.00     0.010 A 
ATOM     47  C   UNL A   1      38.548  33.328  29.954  1.00  0.00    -0.014 A 
BRANCH  47  48
ATOM     48  C   UNL A   1      39.963  33.263  30.382  1.00  0.00     0.031 A 
ATOM     49  C   UNL A   1      40.917  34.326  29.907  1.00  0.00     0.074 A 
ATOM     50  C   UNL A   1      40.363  32.322  31.255  1.00  0.00     0.049 A 
ATOM     51  N   UNL A   1      42.175  34.506  30.215  1.00  0.00    -0.248 NA
ATOM     52  C   UNL A   1      40.381  35.321  28.962  1.00  0.00     0.031 C 
ATOM     53  C   UNL A   1      39.509  31.274  31.814  1.00  0.00     0.029 A 
ATOM     54  N   UNL A   1      41.584  32.108  31.835  1.00  0.00    -0.354 N 
ATOM     55  C   UNL A   1      42.581  35.629  29.501  1.00  0.00     0.074 A 
ATOM     56  C   UNL A   1      41.448  36.065  28.715  1.00  0.00     0.031 C 
ATOM     57  C   UNL A   1      40.233  30.534  32.670  1.00  0.00     0.029 A 
ATOM     58  C   UNL A   1      41.605  31.037  32.695  1.00  0.00     0.049 A 
ATOM     59  H   UNL A   1      42.374  32.669  31.655  1.00  0.00     0.167 HD
ATOM     60  C   UNL A   1      43.788  36.244  29.508  1.00  0.00     0.031 A 
ATOM     61  C   UNL A   1      42.618  30.517  33.413  1.00  0.00     0.031 A 
ATOM     62  C   UNL A   1      44.913  35.791  30.283  1.00  0.00     0.049 A 
ATOM     63  C   UNL A   1      43.966  31.185  33.358  1.00  0.00     0.074 A 
ATOM     64  C   UNL A   1      46.179  36.344  30.370  1.00  0.00     0.029 A 
ATOM     65  N   UNL A   1      44.910  34.670  31.101  1.00  0.00    -0.354 N 
ATOM     66  N   UNL A   1      44.331  32.257  32.692  1.00  0.00    -0.248 NA
ATOM     67  C   UNL A   1      45.032  30.585  34.168  1.00  0.00     0.031 C 
ATOM     68  C   UNL A   1      46.960  35.520  31.189  1.00  0.00     0.029 A 
ATOM     69  C   UNL A   1      46.159  34.498  31.675  1.00  0.00     0.049 A 
ATOM     70  H   UNL A   1      44.134  34.083  31.252  1.00  0.00     0.167 HD
ATOM     71  C   UNL A   1      45.663  32.476  33.029  1.00  0.00     0.074 A 
ATOM     72  C   UNL A   1      46.027  31.440  33.974  1.00  0.00     0.031 C 
ATOM     73  C   UNL A   1      46.508  33.448  32.601  1.00  0.00     0.031 A 
BRANCH  60  74
ATOM     74  C   UNL A   1      43.963  37.449  28.618  1.00  0.00    -0.014 A 
ATOM     75  C   UNL A   1      44.299  37.317  27.257  1.00  0.00     0.010 A 
ATOM     76  C   UNL A   1      43.752  38.737  29.145  1.00  0.00     0.010 A 
ATOM     77  C   UNL A   1      44.456  38.450  26.452  1.00  0.00     0.020 A 
ATOM     78  C   UNL A   1      43.879  39.870  28.337  1.00  0.00     0.020 A 
ATOM     79  C   UNL A   1      44.245  39.720  26.998  1.00  0.00     0.054 A 
BRANCH  79  80
ATOM     80  S   UNL A   1      44.427  41.171  25.925  1.00  0.00     0.124 S 
ATOM     81  O   UNL A   1      44.521  42.257  26.898  1.00  0.00    -0.237 OA
ATOM     82  O   UNL A   1      45.657  40.874  25.194  1.00  0.00    -0.237 OA
ATOM     83  O   UNL A   1      43.210  41.163  25.118  1.00  0.00    -0.744 OA
ENDBRANCH  79  80
ENDBRANCH  60  74
BRANCH  61  84
ATOM     84  C   UNL A   1      42.394  29.300  34.239  1.00  0.00    -0.014 A 
ATOM     85  C   UNL A   1      41.957  29.398  35.572  1.00  0.00     0.010 A 
ATOM     86  C   UNL A   1      42.615  28.025  33.687  1.00  0.00     0.010 A 
ATOM     87  C   UNL A   1      41.763  28.247  36.341  1.00  0.00     0.020 A 
ATOM     88  C   UNL A   1      42.390  26.870  34.440  1.00  0.00     0.020 A 
ATOM     89  C   UNL A   1      41.976  26.990  35.767  1.00  0.00     0.054 A 
BRANCH  89  90
ATOM     90  S   UNL A   1      41.665  25.508  36.766  1.00  0.00     0.124 S 
ATOM     91  O   UNL A   1      42.976  25.256  37.355  1.00  0.00    -0.237 OA
ATOM     92  O   UNL A   1      40.631  25.965  37.691  1.00  0.00    -0.237 OA
ATOM     93  O   UNL A   1      41.219  24.522  35.783  1.00  0.00    -0.744 OA
ENDBRANCH  89  90
ENDBRANCH  61  84
BRANCH  73  94
ATOM     94  C   UNL A   1      47.898  33.454  33.186  1.00  0.00    -0.014 A 
ATOM     95  C   UNL A   1      48.207  34.189  34.346  1.00  0.00     0.010 A 
ATOM     96  C   UNL A   1      48.912  32.705  32.562  1.00  0.00     0.010 A 
ATOM     97  C   UNL A   1      49.519  34.232  34.826  1.00  0.00     0.020 A 
ATOM     98  C   UNL A   1      50.217  32.714  33.062  1.00  0.00     0.020 A 
ATOM     99  C   UNL A   1      50.517  33.500  34.175  1.00  0.00     0.054 A 
BRANCH  99 100
ATOM    100  S   UNL A   1      52.214  33.583  34.808  1.00  0.00     0.124 S 
ATOM    101  O   UNL A   1      51.995  33.745  36.242  1.00  0.00    -0.237 OA
ATOM    102  O   UNL A   1      52.772  32.296  34.398  1.00  0.00    -0.237 OA
ATOM    103  O   UNL A   1      52.782  34.745  34.128  1.00  0.00    -0.744 OA
ENDBRANCH  99 100
ENDBRANCH  73  94
ENDBRANCH  47  48
ENDBRANCH  40  42
ENDBRANCH  39  40
ENDBRANCH  38  39
ENDBRANCH  37  38
ENDBRANCH  36  37
ENDBRANCH  35  36
ENDBRANCH   1  35
TORSDOF 25
ENDMDL
