MODEL 1
REMARK VINA RESULT:      -9.3      0.000      0.000
REMARK SMILES COc1cc(C(=O)OCCOCCOCCOCCOC(=O)c2ccc(-c3c4nc(c(-c5ccc(S(=O)(=O)[O-])cc5)c5ccc([nH]5)c(-c5ccc(S(=O)(=O)[O-])cc5)c5nc(c(-c6ccc(S(=O)(=O)[O-])cc6)c6ccc3[nH]6)C=C5)C=C4)cc2)ccc1OCC(=O)N[C@H]1CCCC[C@H]1C
REMARK SMILES IDX 13 1 12 2 11 3 10 4 9 5 8 6 6 7 7 8 5 9 3 10 4 11 85 12
REMARK SMILES IDX 84 13 83 14 2 15 1 16 86 17 87 18 88 19 89 20 90 21 91 23
REMARK SMILES IDX 92 24 96 25 93 26 95 27 97 28 94 29 14 30 15 31 16 32 17 33
REMARK SMILES IDX 18 34 19 35 20 36 21 37 22 38 23 39 24 40 82 41 25 42 81 43
REMARK SMILES IDX 26 44 27 45 28 46 75 47 29 48 80 49 74 50 76 51 30 52 79 53
REMARK SMILES IDX 73 54 72 55 31 57 61 58 42 59 60 60 43 61 46 62 59 63 77 64
REMARK SMILES IDX 44 65 45 66 58 68 78 69 47 70 32 71 33 72 41 73 34 74 40 75
REMARK SMILES IDX 35 76 36 77 37 78 38 79 39 80 62 81 63 82 71 83 64 84 70 85
REMARK SMILES IDX 65 86 66 87 67 88 68 89 69 90 48 91 49 92 57 93 50 94 56 95
REMARK SMILES IDX 51 96 52 97 53 98 54 99 55 100
REMARK H PARENT 90 22 76 56 46 67
REMARK Flexibility Score: inf
ROOT
ATOM      1  C   UNL A   1      37.451  22.883  25.696  1.00  0.00     0.188 C 
ENDROOT
BRANCH   1   2
ATOM      2  C   UNL A   1      36.036  23.481  25.844  1.00  0.00     0.188 C 
BRANCH   2   3
ATOM      3  O   UNL A   1      35.047  22.522  26.164  1.00  0.00    -0.376 OA
BRANCH   3   4
ATOM      4  C   UNL A   1      34.533  22.426  27.479  1.00  0.00     0.202 C 
BRANCH   4   5
ATOM      5  C   UNL A   1      33.032  22.489  27.820  1.00  0.00     0.261 C 
BRANCH   5   6
ATOM      6  O   UNL A   1      32.101  22.326  26.748  1.00  0.00    -0.460 OA
BRANCH   6   7
ATOM      7  C   UNL A   1      30.967  23.059  26.740  1.00  0.00     0.338 C 
ATOM      8  O   UNL A   1      30.090  23.074  27.585  1.00  0.00    -0.246 OA
BRANCH   7   9
ATOM      9  C   UNL A   1      31.100  24.029  25.620  1.00  0.00     0.064 A 
ATOM     10  C   UNL A   1      31.939  24.538  23.395  1.00  0.00     0.161 A 
ATOM     11  C   UNL A   1      31.948  23.724  24.537  1.00  0.00     0.066 A 
ATOM     12  C   UNL A   1      31.180  25.711  23.387  1.00  0.00     0.161 A 
ATOM     13  C   UNL A   1      30.266  25.945  24.424  1.00  0.00     0.051 A 
ATOM     14  C   UNL A   1      30.229  25.120  25.544  1.00  0.00     0.020 A 
BRANCH  10  15
ATOM     15  O   UNL A   1      32.451  24.124  22.195  1.00  0.00    -0.493 OA
ATOM     16  C   UNL A   1      33.537  23.211  22.250  1.00  0.00     0.278 C 
ENDBRANCH  10  15
BRANCH  12  17
ATOM     17  O   UNL A   1      31.241  26.721  22.464  1.00  0.00    -0.480 OA
BRANCH  17  18
ATOM     18  C   UNL A   1      30.261  27.747  22.500  1.00  0.00     0.329 C 
BRANCH  18  19
ATOM     19  C   UNL A   1      30.542  29.244  22.800  1.00  0.00     0.258 C 
ATOM     20  O   UNL A   1      29.871  30.139  22.272  1.00  0.00    -0.271 OA
ATOM     21  N   UNL A   1      31.473  29.644  23.711  1.00  0.00    -0.350 N 
ATOM     22  H   UNL A   1      31.843  30.547  23.581  1.00  0.00     0.163 HD
BRANCH  21  23
ATOM     23  C   UNL A   1      31.986  28.903  24.848  1.00  0.00     0.085 C 
ATOM     24  C   UNL A   1      33.507  28.794  24.871  1.00  0.00     0.025 C 
ATOM     25  C   UNL A   1      31.471  29.500  26.183  1.00  0.00     0.008 C 
ATOM     26  C   UNL A   1      33.971  27.896  26.009  1.00  0.00     0.002 C 
ATOM     27  C   UNL A   1      31.944  28.607  27.342  1.00  0.00     0.005 C 
ATOM     28  C   UNL A   1      31.873  30.970  26.405  1.00  0.00     0.010 C 
ATOM     29  C   UNL A   1      33.456  28.388  27.355  1.00  0.00     0.000 C 
ENDBRANCH  21  23
ENDBRANCH  18  19
ENDBRANCH  17  18
ENDBRANCH  12  17
ENDBRANCH   7   9
ENDBRANCH   6   7
ENDBRANCH   5   6
ENDBRANCH   4   5
ENDBRANCH   3   4
ENDBRANCH   2   3
ENDBRANCH   1   2
BRANCH   1  30
ATOM     30  O   UNL A   1      38.511  23.686  26.182  1.00  0.00    -0.377 OA
BRANCH  30  31
ATOM     31  C   UNL A   1      39.572  23.072  26.912  1.00  0.00     0.188 C 
BRANCH  31  32
ATOM     32  C   UNL A   1      40.302  21.791  26.433  1.00  0.00     0.188 C 
BRANCH  32  33
ATOM     33  O   UNL A   1      40.292  20.705  27.346  1.00  0.00    -0.376 OA
BRANCH  33  34
ATOM     34  C   UNL A   1      41.300  19.717  27.248  1.00  0.00     0.202 C 
BRANCH  34  35
ATOM     35  C   UNL A   1      41.901  19.467  25.859  1.00  0.00     0.261 C 
BRANCH  35  36
ATOM     36  O   UNL A   1      43.328  19.347  25.807  1.00  0.00    -0.460 OA
BRANCH  36  37
ATOM     37  C   UNL A   1      43.973  20.187  24.973  1.00  0.00     0.338 C 
ATOM     38  O   UNL A   1      44.435  19.921  23.872  1.00  0.00    -0.246 OA
BRANCH  37  39
ATOM     39  C   UNL A   1      43.874  21.549  25.530  1.00  0.00     0.060 A 
ATOM     40  C   UNL A   1      43.500  22.602  24.684  1.00  0.00     0.016 A 
ATOM     41  C   UNL A   1      44.164  21.785  26.875  1.00  0.00     0.016 A 
ATOM     42  C   UNL A   1      43.482  23.909  25.169  1.00  0.00     0.010 A 
ATOM     43  C   UNL A   1      44.164  23.096  27.354  1.00  0.00     0.010 A 
ATOM     44  C   UNL A   1      43.875  24.166  26.488  1.00  0.00    -0.014 A 
BRANCH  44  45
ATOM     45  C   UNL A   1      44.242  25.549  26.877  1.00  0.00     0.031 A 
ATOM     46  C   UNL A   1      45.643  26.014  26.574  1.00  0.00     0.074 A 
ATOM     47  C   UNL A   1      43.353  26.385  27.444  1.00  0.00     0.049 A 
ATOM     48  N   UNL A   1      46.215  27.157  26.843  1.00  0.00    -0.248 NA
ATOM     49  C   UNL A   1      46.519  25.056  25.874  1.00  0.00     0.031 C 
ATOM     50  C   UNL A   1      41.956  26.070  27.735  1.00  0.00     0.029 A 
ATOM     51  N   UNL A   1      43.505  27.678  27.879  1.00  0.00    -0.354 N 
ATOM     52  C   UNL A   1      47.517  27.049  26.366  1.00  0.00     0.074 A 
ATOM     53  C   UNL A   1      47.661  25.723  25.812  1.00  0.00     0.031 C 
ATOM     54  C   UNL A   1      41.379  27.142  28.310  1.00  0.00     0.029 A 
ATOM     55  C   UNL A   1      42.374  28.203  28.459  1.00  0.00     0.049 A 
ATOM     56  H   UNL A   1      44.345  28.183  27.785  1.00  0.00     0.167 HD
ATOM     57  C   UNL A   1      48.504  27.975  26.383  1.00  0.00     0.031 A 
ATOM     58  C   UNL A   1      42.176  29.394  29.059  1.00  0.00     0.031 A 
ATOM     59  C   UNL A   1      48.355  29.294  26.931  1.00  0.00     0.049 A 
ATOM     60  C   UNL A   1      43.315  30.384  29.123  1.00  0.00     0.074 A 
ATOM     61  C   UNL A   1      49.289  30.314  26.977  1.00  0.00     0.029 A 
ATOM     62  N   UNL A   1      47.203  29.777  27.533  1.00  0.00    -0.354 N 
ATOM     63  N   UNL A   1      44.533  30.276  28.644  1.00  0.00    -0.248 NA
ATOM     64  C   UNL A   1      43.048  31.663  29.797  1.00  0.00     0.031 C 
ATOM     65  C   UNL A   1      48.724  31.390  27.666  1.00  0.00     0.029 A 
ATOM     66  C   UNL A   1      47.411  31.071  27.975  1.00  0.00     0.049 A 
ATOM     67  H   UNL A   1      46.362  29.273  27.630  1.00  0.00     0.167 HD
ATOM     68  C   UNL A   1      45.157  31.491  28.917  1.00  0.00     0.074 A 
ATOM     69  C   UNL A   1      44.181  32.319  29.592  1.00  0.00     0.031 C 
ATOM     70  C   UNL A   1      46.422  31.888  28.630  1.00  0.00     0.031 A 
BRANCH  57  71
ATOM     71  C   UNL A   1      49.846  27.585  25.822  1.00  0.00    -0.014 A 
ATOM     72  C   UNL A   1      50.822  26.962  26.619  1.00  0.00     0.010 A 
ATOM     73  C   UNL A   1      50.102  27.782  24.452  1.00  0.00     0.010 A 
ATOM     74  C   UNL A   1      52.037  26.556  26.058  1.00  0.00     0.020 A 
ATOM     75  C   UNL A   1      51.302  27.350  23.882  1.00  0.00     0.020 A 
ATOM     76  C   UNL A   1      52.265  26.746  24.691  1.00  0.00     0.054 A 
BRANCH  76  77
ATOM     77  S   UNL A   1      53.821  26.146  23.979  1.00  0.00     0.124 S 
ATOM     78  O   UNL A   1      53.915  24.803  24.546  1.00  0.00    -0.237 OA
ATOM     79  O   UNL A   1      53.556  26.204  22.543  1.00  0.00    -0.237 OA
ATOM     80  O   UNL A   1      54.817  27.098  24.465  1.00  0.00    -0.744 OA
ENDBRANCH  76  77
ENDBRANCH  57  71
BRANCH  58  81
ATOM     81  C   UNL A   1      40.859  29.723  29.676  1.00  0.00    -0.014 A 
ATOM     82  C   UNL A   1      39.780  30.166  28.887  1.00  0.00     0.010 A 
ATOM     83  C   UNL A   1      40.692  29.644  31.071  1.00  0.00     0.010 A 
ATOM     84  C   UNL A   1      38.580  30.564  29.484  1.00  0.00     0.020 A 
ATOM     85  C   UNL A   1      39.482  30.006  31.668  1.00  0.00     0.020 A 
ATOM     86  C   UNL A   1      38.439  30.483  30.873  1.00  0.00     0.054 A 
BRANCH  86  87
ATOM     87  S   UNL A   1      36.871  30.996  31.625  1.00  0.00     0.124 S 
ATOM     88  O   UNL A   1      37.302  32.050  32.539  1.00  0.00    -0.237 OA
ATOM     89  O   UNL A   1      36.096  31.438  30.469  1.00  0.00    -0.237 OA
ATOM     90  O   UNL A   1      36.383  29.776  32.264  1.00  0.00    -0.744 OA
ENDBRANCH  86  87
ENDBRANCH  58  81
BRANCH  70  91
ATOM     91  C   UNL A   1      46.807  33.307  28.969  1.00  0.00    -0.014 A 
ATOM     92  C   UNL A   1      47.265  33.665  30.249  1.00  0.00     0.010 A 
ATOM     93  C   UNL A   1      46.756  34.289  27.961  1.00  0.00     0.010 A 
ATOM     94  C   UNL A   1      47.623  34.989  30.525  1.00  0.00     0.020 A 
ATOM     95  C   UNL A   1      47.148  35.603  28.223  1.00  0.00     0.020 A 
ATOM     96  C   UNL A   1      47.561  35.949  29.509  1.00  0.00     0.054 A 
BRANCH  96  97
ATOM     97  S   UNL A   1      48.059  37.651  29.885  1.00  0.00     0.124 S 
ATOM     98  O   UNL A   1      47.617  37.799  31.269  1.00  0.00    -0.237 OA
ATOM     99  O   UNL A   1      49.506  37.613  29.688  1.00  0.00    -0.237 OA
ATOM    100  O   UNL A   1      47.324  38.452  28.907  1.00  0.00    -0.744 OA
ENDBRANCH  96  97
ENDBRANCH  70  91
ENDBRANCH  44  45
ENDBRANCH  37  39
ENDBRANCH  36  37
ENDBRANCH  35  36
ENDBRANCH  34  35
ENDBRANCH  33  34
ENDBRANCH  32  33
ENDBRANCH  31  32
ENDBRANCH  30  31
ENDBRANCH   1  30
TORSDOF 28
ENDMDL
MODEL 2
REMARK VINA RESULT:      -9.1      4.963      9.755
REMARK SMILES COc1cc(C(=O)OCCOCCOCCOCCOC(=O)c2ccc(-c3c4nc(c(-c5ccc(S(=O)(=O)[O-])cc5)c5ccc([nH]5)c(-c5ccc(S(=O)(=O)[O-])cc5)c5nc(c(-c6ccc(S(=O)(=O)[O-])cc6)c6ccc3[nH]6)C=C5)C=C4)cc2)ccc1OCC(=O)N[C@H]1CCCC[C@H]1C
REMARK SMILES IDX 13 1 12 2 11 3 10 4 9 5 8 6 6 7 7 8 5 9 3 10 4 11 85 12
REMARK SMILES IDX 84 13 83 14 2 15 1 16 86 17 87 18 88 19 89 20 90 21 91 23
REMARK SMILES IDX 92 24 96 25 93 26 95 27 97 28 94 29 14 30 15 31 16 32 17 33
REMARK SMILES IDX 18 34 19 35 20 36 21 37 22 38 23 39 24 40 82 41 25 42 81 43
REMARK SMILES IDX 26 44 27 45 28 46 75 47 29 48 80 49 74 50 76 51 30 52 79 53
REMARK SMILES IDX 73 54 72 55 31 57 61 58 42 59 60 60 43 61 46 62 59 63 77 64
REMARK SMILES IDX 44 65 45 66 58 68 78 69 47 70 32 71 33 72 41 73 34 74 40 75
REMARK SMILES IDX 35 76 36 77 37 78 38 79 39 80 62 81 63 82 71 83 64 84 70 85
REMARK SMILES IDX 65 86 66 87 67 88 68 89 69 90 48 91 49 92 57 93 50 94 56 95
REMARK SMILES IDX 51 96 52 97 53 98 54 99 55 100
REMARK H PARENT 90 22 76 56 46 67
REMARK Flexibility Score: inf
ROOT
ATOM      1  C   UNL A   1      35.750  21.876  26.089  1.00  0.00     0.188 C 
ENDROOT
BRANCH   1   2
ATOM      2  C   UNL A   1      35.587  21.057  24.792  1.00  0.00     0.188 C 
BRANCH   2   3
ATOM      3  O   UNL A   1      35.287  19.693  25.019  1.00  0.00    -0.376 OA
BRANCH   3   4
ATOM      4  C   UNL A   1      34.089  19.124  24.524  1.00  0.00     0.202 C 
BRANCH   4   5
ATOM      5  C   UNL A   1      32.682  19.607  24.921  1.00  0.00     0.261 C 
BRANCH   5   6
ATOM      6  O   UNL A   1      32.231  20.851  24.380  1.00  0.00    -0.460 OA
BRANCH   6   7
ATOM      7  C   UNL A   1      32.189  21.013  23.040  1.00  0.00     0.338 C 
ATOM      8  O   UNL A   1      31.997  20.155  22.197  1.00  0.00    -0.246 OA
BRANCH   7   9
ATOM      9  C   UNL A   1      32.181  22.479  22.793  1.00  0.00     0.064 A 
ATOM     10  C   UNL A   1      32.813  24.357  21.382  1.00  0.00     0.161 A 
ATOM     11  C   UNL A   1      32.956  23.008  21.742  1.00  0.00     0.066 A 
ATOM     12  C   UNL A   1      31.996  25.193  22.146  1.00  0.00     0.161 A 
ATOM     13  C   UNL A   1      31.156  24.633  23.118  1.00  0.00     0.051 A 
ATOM     14  C   UNL A   1      31.251  23.286  23.455  1.00  0.00     0.020 A 
BRANCH  10  15
ATOM     15  O   UNL A   1      33.250  24.846  20.182  1.00  0.00    -0.493 OA
ATOM     16  C   UNL A   1      32.249  25.269  19.267  1.00  0.00     0.278 C 
ENDBRANCH  10  15
BRANCH  12  17
ATOM     17  O   UNL A   1      31.930  26.560  22.079  1.00  0.00    -0.480 OA
BRANCH  17  18
ATOM     18  C   UNL A   1      32.572  27.331  23.082  1.00  0.00     0.329 C 
BRANCH  18  19
ATOM     19  C   UNL A   1      32.601  28.883  23.138  1.00  0.00     0.258 C 
ATOM     20  O   UNL A   1      33.663  29.507  23.029  1.00  0.00    -0.271 OA
ATOM     21  N   UNL A   1      31.466  29.632  23.224  1.00  0.00    -0.350 N 
ATOM     22  H   UNL A   1      31.570  30.530  23.616  1.00  0.00     0.163 HD
BRANCH  21  23
ATOM     23  C   UNL A   1      30.123  29.271  22.810  1.00  0.00     0.085 C 
ATOM     24  C   UNL A   1      29.414  28.336  23.784  1.00  0.00     0.025 C 
ATOM     25  C   UNL A   1      29.259  30.530  22.550  1.00  0.00     0.008 C 
ATOM     26  C   UNL A   1      28.069  27.889  23.230  1.00  0.00     0.002 C 
ATOM     27  C   UNL A   1      27.892  30.091  22.000  1.00  0.00     0.005 C 
ATOM     28  C   UNL A   1      29.103  31.444  23.781  1.00  0.00     0.010 C 
ATOM     29  C   UNL A   1      27.180  29.079  22.896  1.00  0.00     0.000 C 
ENDBRANCH  21  23
ENDBRANCH  18  19
ENDBRANCH  17  18
ENDBRANCH  12  17
ENDBRANCH   7   9
ENDBRANCH   6   7
ENDBRANCH   5   6
ENDBRANCH   4   5
ENDBRANCH   3   4
ENDBRANCH   2   3
ENDBRANCH   1   2
BRANCH   1  30
ATOM     30  O   UNL A   1      36.219  23.202  25.923  1.00  0.00    -0.377 OA
BRANCH  30  31
ATOM     31  C   UNL A   1      35.752  23.973  24.817  1.00  0.00     0.188 C 
BRANCH  31  32
ATOM     32  C   UNL A   1      34.460  24.827  24.863  1.00  0.00     0.188 C 
BRANCH  32  33
ATOM     33  O   UNL A   1      34.320  25.662  26.001  1.00  0.00    -0.376 OA
BRANCH  33  34
ATOM     34  C   UNL A   1      33.077  26.293  26.243  1.00  0.00     0.202 C 
BRANCH  34  35
ATOM     35  C   UNL A   1      33.108  27.782  26.611  1.00  0.00     0.261 C 
BRANCH  35  36
ATOM     36  O   UNL A   1      34.400  28.403  26.594  1.00  0.00    -0.460 OA
BRANCH  36  37
ATOM     37  C   UNL A   1      34.481  29.641  27.122  1.00  0.00     0.338 C 
ATOM     38  O   UNL A   1      33.622  30.511  27.092  1.00  0.00    -0.246 OA
BRANCH  37  39
ATOM     39  C   UNL A   1      35.722  29.718  27.914  1.00  0.00     0.060 A 
ATOM     40  C   UNL A   1      36.918  30.056  27.267  1.00  0.00     0.016 A 
ATOM     41  C   UNL A   1      35.707  29.442  29.282  1.00  0.00     0.016 A 
ATOM     42  C   UNL A   1      38.118  30.053  27.977  1.00  0.00     0.010 A 
ATOM     43  C   UNL A   1      36.911  29.419  29.988  1.00  0.00     0.010 A 
ATOM     44  C   UNL A   1      38.126  29.672  29.325  1.00  0.00    -0.014 A 
BRANCH  44  45
ATOM     45  C   UNL A   1      39.407  29.281  29.959  1.00  0.00     0.031 A 
ATOM     46  C   UNL A   1      39.818  30.008  31.214  1.00  0.00     0.074 A 
ATOM     47  C   UNL A   1      40.167  28.286  29.468  1.00  0.00     0.049 A 
ATOM     48  N   UNL A   1      40.901  29.878  31.933  1.00  0.00    -0.248 NA
ATOM     49  C   UNL A   1      38.879  31.025  31.725  1.00  0.00     0.031 C 
ATOM     50  C   UNL A   1      39.849  27.473  28.295  1.00  0.00     0.029 A 
ATOM     51  N   UNL A   1      41.373  27.794  29.901  1.00  0.00    -0.354 N 
ATOM     52  C   UNL A   1      40.784  30.803  32.964  1.00  0.00     0.074 A 
ATOM     53  C   UNL A   1      39.538  31.508  32.767  1.00  0.00     0.031 C 
ATOM     54  C   UNL A   1      40.842  26.585  28.098  1.00  0.00     0.029 A 
ATOM     55  C   UNL A   1      41.879  26.792  29.108  1.00  0.00     0.049 A 
ATOM     56  H   UNL A   1      41.832  28.127  30.706  1.00  0.00     0.167 HD
ATOM     57  C   UNL A   1      41.636  31.042  33.988  1.00  0.00     0.031 A 
ATOM     58  C   UNL A   1      43.056  26.137  29.178  1.00  0.00     0.031 A 
ATOM     59  C   UNL A   1      42.872  30.336  34.182  1.00  0.00     0.049 A 
ATOM     60  C   UNL A   1      44.018  26.470  30.293  1.00  0.00     0.074 A 
ATOM     61  C   UNL A   1      43.796  30.489  35.201  1.00  0.00     0.029 A 
ATOM     62  N   UNL A   1      43.361  29.349  33.341  1.00  0.00    -0.354 N 
ATOM     63  N   UNL A   1      43.881  27.330  31.275  1.00  0.00    -0.248 NA
ATOM     64  C   UNL A   1      45.290  25.732  30.317  1.00  0.00     0.031 C 
ATOM     65  C   UNL A   1      44.875  29.642  34.940  1.00  0.00     0.029 A 
ATOM     66  C   UNL A   1      44.586  28.902  33.804  1.00  0.00     0.049 A 
ATOM     67  H   UNL A   1      42.905  29.016  32.534  1.00  0.00     0.167 HD
ATOM     68  C   UNL A   1      45.026  27.200  32.057  1.00  0.00     0.074 A 
ATOM     69  C   UNL A   1      45.838  26.173  31.440  1.00  0.00     0.031 C 
ATOM     70  C   UNL A   1      45.372  27.865  33.188  1.00  0.00     0.031 A 
BRANCH  57  71
ATOM     71  C   UNL A   1      41.280  32.135  34.961  1.00  0.00    -0.014 A 
ATOM     72  C   UNL A   1      40.530  31.871  36.120  1.00  0.00     0.010 A 
ATOM     73  C   UNL A   1      41.772  33.435  34.743  1.00  0.00     0.010 A 
ATOM     74  C   UNL A   1      40.266  32.892  37.038  1.00  0.00     0.020 A 
ATOM     75  C   UNL A   1      41.536  34.451  35.673  1.00  0.00     0.020 A 
ATOM     76  C   UNL A   1      40.778  34.175  36.811  1.00  0.00     0.054 A 
BRANCH  76  77
ATOM     77  S   UNL A   1      40.479  35.461  38.053  1.00  0.00     0.124 S 
ATOM     78  O   UNL A   1      39.995  36.568  37.231  1.00  0.00    -0.237 OA
ATOM     79  O   UNL A   1      39.481  34.840  38.920  1.00  0.00    -0.237 OA
ATOM     80  O   UNL A   1      41.790  35.667  38.664  1.00  0.00    -0.744 OA
ENDBRANCH  76  77
ENDBRANCH  57  71
BRANCH  58  81
ATOM     81  C   UNL A   1      43.416  25.114  28.154  1.00  0.00    -0.014 A 
ATOM     82  C   UNL A   1      43.073  23.760  28.331  1.00  0.00     0.010 A 
ATOM     83  C   UNL A   1      44.155  25.483  27.015  1.00  0.00     0.010 A 
ATOM     84  C   UNL A   1      43.498  22.794  27.414  1.00  0.00     0.020 A 
ATOM     85  C   UNL A   1      44.551  24.526  26.078  1.00  0.00     0.020 A 
ATOM     86  C   UNL A   1      44.237  23.183  26.293  1.00  0.00     0.054 A 
BRANCH  86  87
ATOM     87  S   UNL A   1      44.772  21.914  25.112  1.00  0.00     0.124 S 
ATOM     88  O   UNL A   1      46.040  21.477  25.688  1.00  0.00    -0.237 OA
ATOM     89  O   UNL A   1      43.680  20.946  25.175  1.00  0.00    -0.237 OA
ATOM     90  O   UNL A   1      44.876  22.644  23.851  1.00  0.00    -0.744 OA
ENDBRANCH  86  87
ENDBRANCH  58  81
BRANCH  70  91
ATOM     91  C   UNL A   1      46.647  27.453  33.882  1.00  0.00    -0.014 A 
ATOM     92  C   UNL A   1      46.710  26.313  34.701  1.00  0.00     0.010 A 
ATOM     93  C   UNL A   1      47.819  28.202  33.660  1.00  0.00     0.010 A 
ATOM     94  C   UNL A   1      47.912  25.955  35.321  1.00  0.00     0.020 A 
ATOM     95  C   UNL A   1      49.029  27.827  34.247  1.00  0.00     0.020 A 
ATOM     96  C   UNL A   1      49.063  26.716  35.089  1.00  0.00     0.054 A 
BRANCH  96  97
ATOM     97  S   UNL A   1      50.615  26.214  35.881  1.00  0.00     0.124 S 
ATOM     98  O   UNL A   1      50.471  24.763  35.941  1.00  0.00    -0.237 OA
ATOM     99  O   UNL A   1      51.625  26.708  34.948  1.00  0.00    -0.237 OA
ATOM    100  O   UNL A   1      50.583  26.897  37.173  1.00  0.00    -0.744 OA
ENDBRANCH  96  97
ENDBRANCH  70  91
ENDBRANCH  44  45
ENDBRANCH  37  39
ENDBRANCH  36  37
ENDBRANCH  35  36
ENDBRANCH  34  35
ENDBRANCH  33  34
ENDBRANCH  32  33
ENDBRANCH  31  32
ENDBRANCH  30  31
ENDBRANCH   1  30
TORSDOF 28
ENDMDL
MODEL 3
REMARK VINA RESULT:      -9.0      3.943      7.761
REMARK SMILES COc1cc(C(=O)OCCOCCOCCOCCOC(=O)c2ccc(-c3c4nc(c(-c5ccc(S(=O)(=O)[O-])cc5)c5ccc([nH]5)c(-c5ccc(S(=O)(=O)[O-])cc5)c5nc(c(-c6ccc(S(=O)(=O)[O-])cc6)c6ccc3[nH]6)C=C5)C=C4)cc2)ccc1OCC(=O)N[C@H]1CCCC[C@H]1C
REMARK SMILES IDX 13 1 12 2 11 3 10 4 9 5 8 6 6 7 7 8 5 9 3 10 4 11 85 12
REMARK SMILES IDX 84 13 83 14 2 15 1 16 86 17 87 18 88 19 89 20 90 21 91 23
REMARK SMILES IDX 92 24 96 25 93 26 95 27 97 28 94 29 14 30 15 31 16 32 17 33
REMARK SMILES IDX 18 34 19 35 20 36 21 37 22 38 23 39 24 40 82 41 25 42 81 43
REMARK SMILES IDX 26 44 27 45 28 46 75 47 29 48 80 49 74 50 76 51 30 52 79 53
REMARK SMILES IDX 73 54 72 55 31 57 61 58 42 59 60 60 43 61 46 62 59 63 77 64
REMARK SMILES IDX 44 65 45 66 58 68 78 69 47 70 32 71 33 72 41 73 34 74 40 75
REMARK SMILES IDX 35 76 36 77 37 78 38 79 39 80 62 81 63 82 71 83 64 84 70 85
REMARK SMILES IDX 65 86 66 87 67 88 68 89 69 90 48 91 49 92 57 93 50 94 56 95
REMARK SMILES IDX 51 96 52 97 53 98 54 99 55 100
REMARK H PARENT 90 22 76 56 46 67
REMARK Flexibility Score: inf
ROOT
ATOM      1  C   UNL A   1      35.845  21.817  26.058  1.00  0.00     0.188 C 
ENDROOT
BRANCH   1   2
ATOM      2  C   UNL A   1      35.596  20.926  24.824  1.00  0.00     0.188 C 
BRANCH   2   3
ATOM      3  O   UNL A   1      35.199  19.608  25.148  1.00  0.00    -0.376 OA
BRANCH   3   4
ATOM      4  C   UNL A   1      34.029  19.045  24.584  1.00  0.00     0.202 C 
BRANCH   4   5
ATOM      5  C   UNL A   1      32.611  19.596  24.821  1.00  0.00     0.261 C 
BRANCH   5   6
ATOM      6  O   UNL A   1      32.302  20.885  24.286  1.00  0.00    -0.460 OA
BRANCH   6   7
ATOM      7  C   UNL A   1      32.191  21.036  22.948  1.00  0.00     0.338 C 
ATOM      8  O   UNL A   1      31.910  20.181  22.128  1.00  0.00    -0.246 OA
BRANCH   7   9
ATOM      9  C   UNL A   1      32.242  22.499  22.684  1.00  0.00     0.064 A 
ATOM     10  C   UNL A   1      32.871  24.328  21.211  1.00  0.00     0.161 A 
ATOM     11  C   UNL A   1      32.968  22.978  21.576  1.00  0.00     0.066 A 
ATOM     12  C   UNL A   1      32.153  25.213  22.019  1.00  0.00     0.161 A 
ATOM     13  C   UNL A   1      31.355  24.706  23.053  1.00  0.00     0.051 A 
ATOM     14  C   UNL A   1      31.403  23.359  23.399  1.00  0.00     0.020 A 
BRANCH  10  15
ATOM     15  O   UNL A   1      33.248  24.783  19.977  1.00  0.00    -0.493 OA
ATOM     16  C   UNL A   1      32.227  25.357  19.174  1.00  0.00     0.278 C 
ENDBRANCH  10  15
BRANCH  12  17
ATOM     17  O   UNL A   1      32.153  26.581  21.939  1.00  0.00    -0.480 OA
BRANCH  17  18
ATOM     18  C   UNL A   1      32.600  27.336  23.054  1.00  0.00     0.329 C 
BRANCH  18  19
ATOM     19  C   UNL A   1      32.622  28.886  23.136  1.00  0.00     0.258 C 
ATOM     20  O   UNL A   1      33.679  29.518  23.020  1.00  0.00    -0.271 OA
ATOM     21  N   UNL A   1      31.485  29.628  23.254  1.00  0.00    -0.350 N 
ATOM     22  H   UNL A   1      31.591  30.519  23.659  1.00  0.00     0.163 HD
BRANCH  21  23
ATOM     23  C   UNL A   1      30.137  29.266  22.856  1.00  0.00     0.085 C 
ATOM     24  C   UNL A   1      29.458  28.292  23.814  1.00  0.00     0.025 C 
ATOM     25  C   UNL A   1      29.255  30.524  22.656  1.00  0.00     0.008 C 
ATOM     26  C   UNL A   1      28.106  27.849  23.273  1.00  0.00     0.002 C 
ATOM     27  C   UNL A   1      27.881  30.089  22.120  1.00  0.00     0.005 C 
ATOM     28  C   UNL A   1      29.116  31.395  23.919  1.00  0.00     0.010 C 
ATOM     29  C   UNL A   1      27.198  29.040  22.997  1.00  0.00     0.000 C 
ENDBRANCH  21  23
ENDBRANCH  18  19
ENDBRANCH  17  18
ENDBRANCH  12  17
ENDBRANCH   7   9
ENDBRANCH   6   7
ENDBRANCH   5   6
ENDBRANCH   4   5
ENDBRANCH   3   4
ENDBRANCH   2   3
ENDBRANCH   1   2
BRANCH   1  30
ATOM     30  O   UNL A   1      36.440  23.076  25.797  1.00  0.00    -0.377 OA
BRANCH  30  31
ATOM     31  C   UNL A   1      36.008  23.830  24.665  1.00  0.00     0.188 C 
BRANCH  31  32
ATOM     32  C   UNL A   1      34.731  24.710  24.670  1.00  0.00     0.188 C 
BRANCH  32  33
ATOM     33  O   UNL A   1      34.497  25.439  25.864  1.00  0.00    -0.376 OA
BRANCH  33  34
ATOM     34  C   UNL A   1      33.199  25.942  26.119  1.00  0.00     0.202 C 
BRANCH  34  35
ATOM     35  C   UNL A   1      33.093  27.402  26.577  1.00  0.00     0.261 C 
BRANCH  35  36
ATOM     36  O   UNL A   1      34.328  28.126  26.648  1.00  0.00    -0.460 OA
BRANCH  36  37
ATOM     37  C   UNL A   1      34.298  29.306  27.300  1.00  0.00     0.338 C 
ATOM     38  O   UNL A   1      33.317  30.006  27.512  1.00  0.00    -0.246 OA
BRANCH  37  39
ATOM     39  C   UNL A   1      35.631  29.536  27.886  1.00  0.00     0.060 A 
ATOM     40  C   UNL A   1      36.686  29.913  27.043  1.00  0.00     0.016 A 
ATOM     41  C   UNL A   1      35.842  29.364  29.255  1.00  0.00     0.016 A 
ATOM     42  C   UNL A   1      37.972  30.053  27.561  1.00  0.00     0.010 A 
ATOM     43  C   UNL A   1      37.134  29.486  29.769  1.00  0.00     0.010 A 
ATOM     44  C   UNL A   1      38.211  29.778  28.913  1.00  0.00    -0.014 A 
BRANCH  44  45
ATOM     45  C   UNL A   1      39.601  29.533  29.368  1.00  0.00     0.031 A 
ATOM     46  C   UNL A   1      40.233  28.212  29.009  1.00  0.00     0.074 A 
ATOM     47  C   UNL A   1      40.301  30.464  30.041  1.00  0.00     0.049 A 
ATOM     48  N   UNL A   1      41.414  27.746  29.317  1.00  0.00    -0.248 NA
ATOM     49  C   UNL A   1      39.417  27.290  28.196  1.00  0.00     0.031 C 
ATOM     50  C   UNL A   1      39.819  31.797  30.397  1.00  0.00     0.029 A 
ATOM     51  N   UNL A   1      41.575  30.419  30.549  1.00  0.00    -0.354 N 
ATOM     52  C   UNL A   1      41.476  26.476  28.754  1.00  0.00     0.074 A 
ATOM     53  C   UNL A   1      40.207  26.231  28.108  1.00  0.00     0.031 C 
ATOM     54  C   UNL A   1      40.787  32.443  31.074  1.00  0.00     0.029 A 
ATOM     55  C   UNL A   1      41.940  31.557  31.229  1.00  0.00     0.049 A 
ATOM     56  H   UNL A   1      42.173  29.645  30.436  1.00  0.00     0.167 HD
ATOM     57  C   UNL A   1      42.501  25.593  28.770  1.00  0.00     0.031 A 
ATOM     58  C   UNL A   1      43.065  31.837  31.917  1.00  0.00     0.031 A 
ATOM     59  C   UNL A   1      43.762  25.842  29.411  1.00  0.00     0.049 A 
ATOM     60  C   UNL A   1      44.168  30.807  31.974  1.00  0.00     0.074 A 
ATOM     61  C   UNL A   1      44.874  25.019  29.465  1.00  0.00     0.029 A 
ATOM     62  N   UNL A   1      44.081  26.994  30.112  1.00  0.00    -0.354 N 
ATOM     63  N   UNL A   1      44.222  29.620  31.415  1.00  0.00    -0.248 NA
ATOM     64  C   UNL A   1      45.369  31.160  32.745  1.00  0.00     0.031 C 
ATOM     65  C   UNL A   1      45.840  25.646  30.255  1.00  0.00     0.029 A 
ATOM     66  C   UNL A   1      45.362  26.894  30.624  1.00  0.00     0.049 A 
ATOM     67  H   UNL A   1      43.484  27.769  30.228  1.00  0.00     0.167 HD
ATOM     68  C   UNL A   1      45.479  29.109  31.728  1.00  0.00     0.074 A 
ATOM     69  C   UNL A   1      46.156  30.119  32.514  1.00  0.00     0.031 C 
ATOM     70  C   UNL A   1      46.028  27.916  31.389  1.00  0.00     0.031 A 
BRANCH  57  71
ATOM     71  C   UNL A   1      42.293  24.259  28.104  1.00  0.00    -0.014 A 
ATOM     72  C   UNL A   1      42.894  23.951  26.870  1.00  0.00     0.010 A 
ATOM     73  C   UNL A   1      41.540  23.271  28.765  1.00  0.00     0.010 A 
ATOM     74  C   UNL A   1      42.734  22.683  26.304  1.00  0.00     0.020 A 
ATOM     75  C   UNL A   1      41.402  21.993  28.216  1.00  0.00     0.020 A 
ATOM     76  C   UNL A   1      41.995  21.710  26.985  1.00  0.00     0.054 A 
BRANCH  76  77
ATOM     77  S   UNL A   1      41.863  20.054  26.259  1.00  0.00     0.124 S 
ATOM     78  O   UNL A   1      42.781  20.146  25.127  1.00  0.00    -0.237 OA
ATOM     79  O   UNL A   1      42.300  19.191  27.353  1.00  0.00    -0.237 OA
ATOM     80  O   UNL A   1      40.450  19.940  25.906  1.00  0.00    -0.744 OA
ENDBRANCH  76  77
ENDBRANCH  57  71
BRANCH  58  81
ATOM     81  C   UNL A   1      43.212  33.137  32.633  1.00  0.00    -0.014 A 
ATOM     82  C   UNL A   1      42.869  33.257  33.993  1.00  0.00     0.010 A 
ATOM     83  C   UNL A   1      43.649  34.281  31.940  1.00  0.00     0.010 A 
ATOM     84  C   UNL A   1      42.918  34.500  34.631  1.00  0.00     0.020 A 
ATOM     85  C   UNL A   1      43.734  35.519  32.584  1.00  0.00     0.020 A 
ATOM     86  C   UNL A   1      43.349  35.625  33.921  1.00  0.00     0.054 A 
BRANCH  86  87
ATOM     87  S   UNL A   1      43.413  37.226  34.770  1.00  0.00     0.124 S 
ATOM     88  O   UNL A   1      44.843  37.381  35.021  1.00  0.00    -0.237 OA
ATOM     89  O   UNL A   1      42.843  38.132  33.777  1.00  0.00    -0.237 OA
ATOM     90  O   UNL A   1      42.589  37.016  35.958  1.00  0.00    -0.744 OA
ENDBRANCH  86  87
ENDBRANCH  58  81
BRANCH  70  91
ATOM     91  C   UNL A   1      47.458  27.660  31.796  1.00  0.00    -0.014 A 
ATOM     92  C   UNL A   1      47.781  26.942  32.959  1.00  0.00     0.010 A 
ATOM     93  C   UNL A   1      48.497  28.107  30.957  1.00  0.00     0.010 A 
ATOM     94  C   UNL A   1      49.119  26.714  33.300  1.00  0.00     0.020 A 
ATOM     95  C   UNL A   1      49.832  27.849  31.274  1.00  0.00     0.020 A 
ATOM     96  C   UNL A   1      50.136  27.171  32.454  1.00  0.00     0.054 A 
BRANCH  96  97
ATOM     97  S   UNL A   1      51.860  26.838  32.903  1.00  0.00     0.124 S 
ATOM     98  O   UNL A   1      51.984  27.539  34.177  1.00  0.00    -0.237 OA
ATOM     99  O   UNL A   1      51.894  25.379  32.981  1.00  0.00    -0.237 OA
ATOM    100  O   UNL A   1      52.625  27.413  31.797  1.00  0.00    -0.744 OA
ENDBRANCH  96  97
ENDBRANCH  70  91
ENDBRANCH  44  45
ENDBRANCH  37  39
ENDBRANCH  36  37
ENDBRANCH  35  36
ENDBRANCH  34  35
ENDBRANCH  33  34
ENDBRANCH  32  33
ENDBRANCH  31  32
ENDBRANCH  30  31
ENDBRANCH   1  30
TORSDOF 28
ENDMDL
