MODEL 1
REMARK VINA RESULT:      -8.2      0.000      0.000
REMARK SMILES O=C(OCCOCCOCCOCCOC(=O)[C@@H]1[C@H](C(=O)Nc2ccc(Cn3cncn3)cc2)[C@@H]2C=C[C@H]1CC2)c1ccc(-c2c3nc(c(-c4ccc(S(=O)(=O)[O-])cc4)c4ccc([nH]4)c(-c4ccc(S(=O)(=O)[O-])cc4)c4nc(c(-c5ccc(S(=O)(=O)[O-])cc5)c5ccc2[nH]5)C=C4)C=C3)cc1
REMARK SMILES IDX 10 1 9 2 8 3 7 4 6 5 5 6 4 7 3 8 2 9 1 10 41 11 42 12 100 13
REMARK SMILES IDX 43 14 99 15 44 16 45 17 46 18 93 19 47 20 98 21 92 22 94 23
REMARK SMILES IDX 48 24 97 25 91 26 90 27 49 29 79 30 60 31 78 32 61 33 64 34
REMARK SMILES IDX 77 35 95 36 62 37 63 38 76 40 96 41 65 42 50 43 51 44 59 45
REMARK SMILES IDX 52 46 58 47 53 48 54 49 55 50 56 51 57 52 80 53 81 54 89 55
REMARK SMILES IDX 82 56 88 57 83 58 84 59 85 60 86 61 87 62 66 63 67 64 75 65
REMARK SMILES IDX 68 66 74 67 69 68 70 69 71 70 72 71 73 72 11 73 12 74 13 75
REMARK SMILES IDX 14 76 15 77 16 78 17 79 18 80 19 81 38 82 35 83 37 84 39 85
REMARK SMILES IDX 36 86 40 87 20 88 21 89 22 90 23 92 24 93 34 94 25 95 33 96
REMARK SMILES IDX 26 97 27 98 28 99 29 100 32 101 30 102 31 103
REMARK H PARENT 94 28 64 39 22 91
REMARK Flexibility Score: inf
ROOT
ATOM      1  C   UNL A   1      42.240  34.998  33.487  1.00  0.00     0.188 C 
ENDROOT
BRANCH   1   2
ATOM      2  O   UNL A   1      42.743  35.055  34.807  1.00  0.00    -0.377 OA
BRANCH   2   3
ATOM      3  C   UNL A   1      42.067  34.307  35.816  1.00  0.00     0.188 C 
BRANCH   3   4
ATOM      4  C   UNL A   1      41.144  33.144  35.402  1.00  0.00     0.188 C 
BRANCH   4   5
ATOM      5  O   UNL A   1      41.793  31.896  35.242  1.00  0.00    -0.376 OA
BRANCH   5   6
ATOM      6  C   UNL A   1      42.085  31.022  36.312  1.00  0.00     0.202 C 
BRANCH   6   7
ATOM      7  C   UNL A   1      43.502  30.823  36.870  1.00  0.00     0.261 C 
BRANCH   7   8
ATOM      8  O   UNL A   1      43.892  29.512  37.279  1.00  0.00    -0.460 OA
BRANCH   8   9
ATOM      9  C   UNL A   1      43.978  28.344  36.619  1.00  0.00     0.338 C 
ATOM     10  O   UNL A   1      43.597  27.322  37.184  1.00  0.00    -0.246 OA
BRANCH   9  11
ATOM     11  C   UNL A   1      44.654  28.207  35.309  1.00  0.00     0.060 A 
ATOM     12  C   UNL A   1      45.977  28.557  35.058  1.00  0.00     0.016 A 
ATOM     13  C   UNL A   1      43.852  27.739  34.248  1.00  0.00     0.016 A 
ATOM     14  C   UNL A   1      46.469  28.518  33.767  1.00  0.00     0.010 A 
ATOM     15  C   UNL A   1      44.333  27.719  32.947  1.00  0.00     0.010 A 
ATOM     16  C   UNL A   1      45.626  28.162  32.714  1.00  0.00    -0.014 A 
BRANCH  16  17
ATOM     17  C   UNL A   1      46.173  28.311  31.379  1.00  0.00     0.031 A 
ATOM     18  C   UNL A   1      45.779  29.548  30.669  1.00  0.00     0.074 A 
ATOM     19  C   UNL A   1      46.924  27.359  30.796  1.00  0.00     0.049 A 
ATOM     20  N   UNL A   1      44.909  29.662  29.721  1.00  0.00    -0.248 NA
ATOM     21  C   UNL A   1      46.307  30.824  31.165  1.00  0.00     0.031 C 
ATOM     22  C   UNL A   1      47.571  26.201  31.417  1.00  0.00     0.029 A 
ATOM     23  N   UNL A   1      47.329  27.285  29.501  1.00  0.00    -0.354 N 
ATOM     24  C   UNL A   1      44.931  30.999  29.344  1.00  0.00     0.074 A 
ATOM     25  C   UNL A   1      45.682  31.690  30.363  1.00  0.00     0.031 C 
ATOM     26  C   UNL A   1      48.466  25.678  30.548  1.00  0.00     0.029 A 
ATOM     27  C   UNL A   1      48.341  26.364  29.273  1.00  0.00     0.049 A 
ATOM     28  H   UNL A   1      46.939  27.838  28.786  1.00  0.00     0.167 HD
ATOM     29  C   UNL A   1      44.529  31.399  28.106  1.00  0.00     0.031 A 
ATOM     30  C   UNL A   1      49.060  26.227  28.133  1.00  0.00     0.031 A 
ATOM     31  C   UNL A   1      43.758  30.385  27.435  1.00  0.00     0.049 A 
ATOM     32  C   UNL A   1      48.258  26.805  27.026  1.00  0.00     0.074 A 
ATOM     33  C   UNL A   1      42.580  29.716  27.707  1.00  0.00     0.029 A 
ATOM     34  N   UNL A   1      44.394  29.649  26.462  1.00  0.00    -0.354 N 
ATOM     35  N   UNL A   1      47.151  26.270  26.592  1.00  0.00    -0.248 NA
ATOM     36  C   UNL A   1      48.442  28.208  26.692  1.00  0.00     0.031 C 
ATOM     37  C   UNL A   1      42.797  28.385  27.247  1.00  0.00     0.029 A 
ATOM     38  C   UNL A   1      44.063  28.334  26.662  1.00  0.00     0.049 A 
ATOM     39  H   UNL A   1      44.979  30.002  25.754  1.00  0.00     0.167 HD
ATOM     40  C   UNL A   1      46.318  27.346  26.320  1.00  0.00     0.074 A 
ATOM     41  C   UNL A   1      47.199  28.511  26.305  1.00  0.00     0.031 C 
ATOM     42  C   UNL A   1      44.958  27.226  26.400  1.00  0.00     0.031 A 
BRANCH  29  43
ATOM     43  C   UNL A   1      45.178  32.535  27.353  1.00  0.00    -0.014 A 
ATOM     44  C   UNL A   1      46.509  32.386  26.908  1.00  0.00     0.010 A 
ATOM     45  C   UNL A   1      44.638  33.836  27.328  1.00  0.00     0.010 A 
ATOM     46  C   UNL A   1      47.280  33.497  26.543  1.00  0.00     0.020 A 
ATOM     47  C   UNL A   1      45.382  34.943  26.923  1.00  0.00     0.020 A 
ATOM     48  C   UNL A   1      46.713  34.772  26.571  1.00  0.00     0.054 A 
BRANCH  48  49
ATOM     49  S   UNL A   1      47.750  36.211  26.216  1.00  0.00     0.124 S 
ATOM     50  O   UNL A   1      46.751  37.237  25.940  1.00  0.00    -0.237 OA
ATOM     51  O   UNL A   1      48.498  36.367  27.458  1.00  0.00    -0.237 OA
ATOM     52  O   UNL A   1      48.545  35.781  25.063  1.00  0.00    -0.744 OA
ENDBRANCH  48  49
ENDBRANCH  29  43
BRANCH  30  53
ATOM     53  C   UNL A   1      50.510  25.941  28.017  1.00  0.00    -0.014 A 
ATOM     54  C   UNL A   1      51.033  25.312  26.872  1.00  0.00     0.010 A 
ATOM     55  C   UNL A   1      51.420  26.549  28.906  1.00  0.00     0.010 A 
ATOM     56  C   UNL A   1      52.408  25.355  26.592  1.00  0.00     0.020 A 
ATOM     57  C   UNL A   1      52.792  26.588  28.638  1.00  0.00     0.020 A 
ATOM     58  C   UNL A   1      53.277  26.014  27.467  1.00  0.00     0.054 A 
BRANCH  58  59
ATOM     59  S   UNL A   1      55.019  26.237  27.000  1.00  0.00     0.124 S 
ATOM     60  O   UNL A   1      55.364  24.928  26.455  1.00  0.00    -0.237 OA
ATOM     61  O   UNL A   1      54.952  27.328  26.032  1.00  0.00    -0.237 OA
ATOM     62  O   UNL A   1      55.673  26.576  28.263  1.00  0.00    -0.744 OA
ENDBRANCH  58  59
ENDBRANCH  30  53
BRANCH  42  63
ATOM     63  C   UNL A   1      44.353  25.843  26.448  1.00  0.00    -0.014 A 
ATOM     64  C   UNL A   1      44.181  25.094  27.628  1.00  0.00     0.010 A 
ATOM     65  C   UNL A   1      43.824  25.331  25.249  1.00  0.00     0.010 A 
ATOM     66  C   UNL A   1      43.538  23.847  27.598  1.00  0.00     0.020 A 
ATOM     67  C   UNL A   1      43.166  24.101  25.215  1.00  0.00     0.020 A 
ATOM     68  C   UNL A   1      43.039  23.356  26.386  1.00  0.00     0.054 A 
BRANCH  68  69
ATOM     69  S   UNL A   1      42.197  21.750  26.352  1.00  0.00     0.124 S 
ATOM     70  O   UNL A   1      42.306  21.305  27.739  1.00  0.00    -0.237 OA
ATOM     71  O   UNL A   1      40.849  22.100  25.907  1.00  0.00    -0.237 OA
ATOM     72  O   UNL A   1      42.974  20.969  25.389  1.00  0.00    -0.744 OA
ENDBRANCH  68  69
ENDBRANCH  42  63
ENDBRANCH  16  17
ENDBRANCH   9  11
ENDBRANCH   8   9
ENDBRANCH   7   8
ENDBRANCH   6   7
ENDBRANCH   5   6
ENDBRANCH   4   5
ENDBRANCH   3   4
ENDBRANCH   2   3
ENDBRANCH   1   2
BRANCH   1  73
ATOM     73  C   UNL A   1      43.186  34.365  32.450  1.00  0.00     0.188 C 
BRANCH  73  74
ATOM     74  O   UNL A   1      42.791  34.307  31.086  1.00  0.00    -0.376 OA
BRANCH  74  75
ATOM     75  C   UNL A   1      42.156  33.132  30.590  1.00  0.00     0.202 C 
BRANCH  75  76
ATOM     76  C   UNL A   1      42.078  31.897  31.495  1.00  0.00     0.261 C 
BRANCH  76  77
ATOM     77  O   UNL A   1      40.813  31.743  32.174  1.00  0.00    -0.463 OA
BRANCH  77  78
ATOM     78  C   UNL A   1      39.677  31.878  31.470  1.00  0.00     0.310 C 
ATOM     79  O   UNL A   1      38.991  32.898  31.488  1.00  0.00    -0.252 OA
BRANCH  78  80
ATOM     80  C   UNL A   1      39.186  30.624  30.736  1.00  0.00     0.119 C 
ATOM     81  C   UNL A   1      37.877  30.121  31.348  1.00  0.00     0.100 C 
ATOM     82  C   UNL A   1      39.969  29.403  30.113  1.00  0.00     0.026 C 
ATOM     83  C   UNL A   1      37.524  28.736  30.745  1.00  0.00     0.025 C 
ATOM     84  C   UNL A   1      39.805  28.074  30.847  1.00  0.00    -0.027 C 
ATOM     85  C   UNL A   1      39.196  29.056  28.805  1.00  0.00     0.009 C 
ATOM     86  C   UNL A   1      38.551  27.740  31.193  1.00  0.00    -0.027 C 
ATOM     87  C   UNL A   1      37.698  28.799  29.184  1.00  0.00     0.009 C 
BRANCH  81  88
ATOM     88  C   UNL A   1      37.663  30.302  32.864  1.00  0.00     0.228 C 
ATOM     89  O   UNL A   1      38.250  29.490  33.604  1.00  0.00    -0.274 OA
ATOM     90  N   UNL A   1      37.007  31.280  33.542  1.00  0.00    -0.326 N 
ATOM     91  H   UNL A   1      37.216  31.237  34.504  1.00  0.00     0.169 HD
BRANCH  90  92
ATOM     92  C   UNL A   1      36.116  32.335  33.274  1.00  0.00     0.041 A 
ATOM     93  C   UNL A   1      35.455  32.326  32.042  1.00  0.00     0.026 A 
ATOM     94  C   UNL A   1      35.860  33.410  34.104  1.00  0.00     0.026 A 
ATOM     95  C   UNL A   1      34.435  33.253  31.761  1.00  0.00     0.008 A 
ATOM     96  C   UNL A   1      34.871  34.356  33.832  1.00  0.00     0.008 A 
ATOM     97  C   UNL A   1      34.095  34.245  32.690  1.00  0.00    -0.026 A 
BRANCH  97  98
ATOM     98  C   UNL A   1      32.928  35.177  32.514  1.00  0.00     0.181 C 
BRANCH  98  99
ATOM     99  N   UNL A   1      32.947  35.831  31.225  1.00  0.00    -0.249 N 
ATOM    100  C   UNL A   1      33.263  37.125  30.958  1.00  0.00     0.220 A 
ATOM    101  N   UNL A   1      32.726  35.146  30.091  1.00  0.00    -0.160 NA
ATOM    102  N   UNL A   1      33.243  37.325  29.662  1.00  0.00    -0.224 NA
ATOM    103  C   UNL A   1      32.911  36.092  29.170  1.00  0.00     0.246 A 
ENDBRANCH  98  99
ENDBRANCH  97  98
ENDBRANCH  90  92
ENDBRANCH  81  88
ENDBRANCH  78  80
ENDBRANCH  77  78
ENDBRANCH  76  77
ENDBRANCH  75  76
ENDBRANCH  74  75
ENDBRANCH  73  74
ENDBRANCH   1  73
TORSDOF 27
ENDMDL
MODEL 2
REMARK VINA RESULT:      -8.1      6.009     10.812
REMARK SMILES O=C(OCCOCCOCCOCCOC(=O)[C@@H]1[C@H](C(=O)Nc2ccc(Cn3cncn3)cc2)[C@@H]2C=C[C@H]1CC2)c1ccc(-c2c3nc(c(-c4ccc(S(=O)(=O)[O-])cc4)c4ccc([nH]4)c(-c4ccc(S(=O)(=O)[O-])cc4)c4nc(c(-c5ccc(S(=O)(=O)[O-])cc5)c5ccc2[nH]5)C=C4)C=C3)cc1
REMARK SMILES IDX 10 1 9 2 8 3 7 4 6 5 5 6 4 7 3 8 2 9 1 10 41 11 42 12 100 13
REMARK SMILES IDX 43 14 99 15 44 16 45 17 46 18 93 19 47 20 98 21 92 22 94 23
REMARK SMILES IDX 48 24 97 25 91 26 90 27 49 29 79 30 60 31 78 32 61 33 64 34
REMARK SMILES IDX 77 35 95 36 62 37 63 38 76 40 96 41 65 42 50 43 51 44 59 45
REMARK SMILES IDX 52 46 58 47 53 48 54 49 55 50 56 51 57 52 80 53 81 54 89 55
REMARK SMILES IDX 82 56 88 57 83 58 84 59 85 60 86 61 87 62 66 63 67 64 75 65
REMARK SMILES IDX 68 66 74 67 69 68 70 69 71 70 72 71 73 72 11 73 12 74 13 75
REMARK SMILES IDX 14 76 15 77 16 78 17 79 18 80 19 81 38 82 35 83 37 84 39 85
REMARK SMILES IDX 36 86 40 87 20 88 21 89 22 90 23 92 24 93 34 94 25 95 33 96
REMARK SMILES IDX 26 97 27 98 28 99 29 100 32 101 30 102 31 103
REMARK H PARENT 94 28 64 39 22 91
REMARK Flexibility Score: inf
ROOT
ATOM      1  C   UNL A   1      36.061  31.830  29.319  1.00  0.00     0.188 C 
ENDROOT
BRANCH   1   2
ATOM      2  O   UNL A   1      34.883  32.593  29.153  1.00  0.00    -0.377 OA
BRANCH   2   3
ATOM      3  C   UNL A   1      34.999  34.015  29.147  1.00  0.00     0.188 C 
BRANCH   3   4
ATOM      4  C   UNL A   1      34.036  34.854  30.010  1.00  0.00     0.188 C 
BRANCH   4   5
ATOM      5  O   UNL A   1      33.570  34.208  31.180  1.00  0.00    -0.376 OA
BRANCH   5   6
ATOM      6  C   UNL A   1      34.356  34.022  32.338  1.00  0.00     0.202 C 
BRANCH   6   7
ATOM      7  C   UNL A   1      35.027  32.686  32.691  1.00  0.00     0.261 C 
BRANCH   7   8
ATOM      8  O   UNL A   1      35.701  32.576  33.945  1.00  0.00    -0.460 OA
BRANCH   8   9
ATOM      9  C   UNL A   1      37.003  32.600  34.281  1.00  0.00     0.338 C 
ATOM     10  O   UNL A   1      37.395  33.481  35.041  1.00  0.00    -0.246 OA
BRANCH   9  11
ATOM     11  C   UNL A   1      38.012  31.715  33.656  1.00  0.00     0.060 A 
ATOM     12  C   UNL A   1      38.144  30.355  33.916  1.00  0.00     0.016 A 
ATOM     13  C   UNL A   1      38.924  32.342  32.783  1.00  0.00     0.016 A 
ATOM     14  C   UNL A   1      39.206  29.650  33.384  1.00  0.00     0.010 A 
ATOM     15  C   UNL A   1      40.005  31.645  32.264  1.00  0.00     0.010 A 
ATOM     16  C   UNL A   1      40.164  30.313  32.615  1.00  0.00    -0.014 A 
BRANCH  16  17
ATOM     17  C   UNL A   1      41.330  29.538  32.239  1.00  0.00     0.031 A 
ATOM     18  C   UNL A   1      42.433  29.537  33.226  1.00  0.00     0.074 A 
ATOM     19  C   UNL A   1      41.436  28.924  31.047  1.00  0.00     0.049 A 
ATOM     20  N   UNL A   1      43.542  30.198  33.160  1.00  0.00    -0.248 NA
ATOM     21  C   UNL A   1      42.220  28.835  34.496  1.00  0.00     0.031 C 
ATOM     22  C   UNL A   1      40.383  28.650  30.067  1.00  0.00     0.029 A 
ATOM     23  N   UNL A   1      42.533  28.340  30.498  1.00  0.00    -0.354 N 
ATOM     24  C   UNL A   1      44.271  29.828  34.283  1.00  0.00     0.074 A 
ATOM     25  C   UNL A   1      43.352  29.121  35.143  1.00  0.00     0.031 C 
ATOM     26  C   UNL A   1      40.846  27.760  29.160  1.00  0.00     0.029 A 
ATOM     27  C   UNL A   1      42.259  27.526  29.409  1.00  0.00     0.049 A 
ATOM     28  H   UNL A   1      43.444  28.482  30.843  1.00  0.00     0.167 HD
ATOM     29  C   UNL A   1      45.628  29.929  34.319  1.00  0.00     0.031 A 
ATOM     30  C   UNL A   1      43.124  26.678  28.801  1.00  0.00     0.031 A 
ATOM     31  C   UNL A   1      46.134  30.780  33.274  1.00  0.00     0.049 A 
ATOM     32  C   UNL A   1      44.498  27.147  29.107  1.00  0.00     0.074 A 
ATOM     33  C   UNL A   1      45.948  32.102  32.918  1.00  0.00     0.029 A 
ATOM     34  N   UNL A   1      46.690  30.168  32.174  1.00  0.00    -0.354 N 
ATOM     35  N   UNL A   1      44.995  28.257  28.638  1.00  0.00    -0.248 NA
ATOM     36  C   UNL A   1      45.171  26.614  30.282  1.00  0.00     0.031 C 
ATOM     37  C   UNL A   1      45.949  32.104  31.493  1.00  0.00     0.029 A 
ATOM     38  C   UNL A   1      46.201  30.801  31.062  1.00  0.00     0.049 A 
ATOM     39  H   UNL A   1      47.323  29.414  32.185  1.00  0.00     0.167 HD
ATOM     40  C   UNL A   1      45.740  28.785  29.682  1.00  0.00     0.074 A 
ATOM     41  C   UNL A   1      45.893  27.685  30.630  1.00  0.00     0.031 C 
ATOM     42  C   UNL A   1      45.931  30.134  29.805  1.00  0.00     0.031 A 
BRANCH  29  43
ATOM     43  C   UNL A   1      46.512  28.938  35.037  1.00  0.00    -0.014 A 
ATOM     44  C   UNL A   1      47.378  29.403  36.049  1.00  0.00     0.010 A 
ATOM     45  C   UNL A   1      46.735  27.631  34.557  1.00  0.00     0.010 A 
ATOM     46  C   UNL A   1      48.460  28.631  36.490  1.00  0.00     0.020 A 
ATOM     47  C   UNL A   1      47.783  26.837  35.020  1.00  0.00     0.020 A 
ATOM     48  C   UNL A   1      48.664  27.358  35.956  1.00  0.00     0.054 A 
BRANCH  48  49
ATOM     49  S   UNL A   1      50.132  26.419  36.439  1.00  0.00     0.124 S 
ATOM     50  O   UNL A   1      51.124  26.904  35.487  1.00  0.00    -0.237 OA
ATOM     51  O   UNL A   1      50.322  26.832  37.825  1.00  0.00    -0.237 OA
ATOM     52  O   UNL A   1      49.718  25.025  36.260  1.00  0.00    -0.744 OA
ENDBRANCH  48  49
ENDBRANCH  29  43
BRANCH  30  53
ATOM     53  C   UNL A   1      42.831  25.324  28.274  1.00  0.00    -0.014 A 
ATOM     54  C   UNL A   1      42.513  24.264  29.143  1.00  0.00     0.010 A 
ATOM     55  C   UNL A   1      42.577  25.145  26.898  1.00  0.00     0.010 A 
ATOM     56  C   UNL A   1      41.898  23.097  28.660  1.00  0.00     0.020 A 
ATOM     57  C   UNL A   1      41.973  23.983  26.409  1.00  0.00     0.020 A 
ATOM     58  C   UNL A   1      41.610  22.975  27.297  1.00  0.00     0.054 A 
BRANCH  58  59
ATOM     59  S   UNL A   1      40.638  21.556  26.712  1.00  0.00     0.124 S 
ATOM     60  O   UNL A   1      41.269  21.255  25.430  1.00  0.00    -0.237 OA
ATOM     61  O   UNL A   1      40.848  20.569  27.767  1.00  0.00    -0.237 OA
ATOM     62  O   UNL A   1      39.277  22.083  26.625  1.00  0.00    -0.744 OA
ENDBRANCH  58  59
ENDBRANCH  30  53
BRANCH  42  63
ATOM     63  C   UNL A   1      45.624  31.021  28.622  1.00  0.00    -0.014 A 
ATOM     64  C   UNL A   1      44.332  31.230  28.103  1.00  0.00     0.010 A 
ATOM     65  C   UNL A   1      46.688  31.772  28.089  1.00  0.00     0.010 A 
ATOM     66  C   UNL A   1      44.121  32.132  27.048  1.00  0.00     0.020 A 
ATOM     67  C   UNL A   1      46.482  32.686  27.055  1.00  0.00     0.020 A 
ATOM     68  C   UNL A   1      45.202  32.851  26.527  1.00  0.00     0.054 A 
BRANCH  68  69
ATOM     69  S   UNL A   1      44.924  34.026  25.173  1.00  0.00     0.124 S 
ATOM     70  O   UNL A   1      44.077  35.037  25.800  1.00  0.00    -0.237 OA
ATOM     71  O   UNL A   1      46.279  34.459  24.838  1.00  0.00    -0.237 OA
ATOM     72  O   UNL A   1      44.268  33.222  24.143  1.00  0.00    -0.744 OA
ENDBRANCH  68  69
ENDBRANCH  42  63
ENDBRANCH  16  17
ENDBRANCH   9  11
ENDBRANCH   8   9
ENDBRANCH   7   8
ENDBRANCH   6   7
ENDBRANCH   5   6
ENDBRANCH   4   5
ENDBRANCH   3   4
ENDBRANCH   2   3
ENDBRANCH   1   2
BRANCH   1  73
ATOM     73  C   UNL A   1      36.407  30.890  28.150  1.00  0.00     0.188 C 
BRANCH  73  74
ATOM     74  O   UNL A   1      35.700  29.665  28.003  1.00  0.00    -0.376 OA
BRANCH  74  75
ATOM     75  C   UNL A   1      34.531  29.625  27.191  1.00  0.00     0.202 C 
BRANCH  75  76
ATOM     76  C   UNL A   1      33.707  28.335  27.145  1.00  0.00     0.261 C 
BRANCH  76  77
ATOM     77  O   UNL A   1      33.350  27.909  25.812  1.00  0.00    -0.463 OA
BRANCH  77  78
ATOM     78  C   UNL A   1      33.609  26.645  25.442  1.00  0.00     0.310 C 
ATOM     79  O   UNL A   1      34.339  25.892  26.083  1.00  0.00    -0.252 OA
BRANCH  78  80
ATOM     80  C   UNL A   1      33.056  26.216  24.078  1.00  0.00     0.119 C 
ATOM     81  C   UNL A   1      31.640  25.654  24.225  1.00  0.00     0.100 C 
ATOM     82  C   UNL A   1      33.752  25.544  22.830  1.00  0.00     0.026 C 
ATOM     83  C   UNL A   1      31.193  25.021  22.881  1.00  0.00     0.025 C 
ATOM     84  C   UNL A   1      33.358  24.093  22.561  1.00  0.00    -0.027 C 
ATOM     85  C   UNL A   1      33.085  26.212  21.590  1.00  0.00     0.009 C 
ATOM     86  C   UNL A   1      32.045  23.817  22.608  1.00  0.00    -0.027 C 
ATOM     87  C   UNL A   1      31.536  26.014  21.711  1.00  0.00     0.009 C 
BRANCH  81  88
ATOM     88  C   UNL A   1      31.292  24.883  25.514  1.00  0.00     0.228 C 
ATOM     89  O   UNL A   1      30.598  25.492  26.350  1.00  0.00    -0.274 OA
ATOM     90  N   UNL A   1      31.541  23.591  25.852  1.00  0.00    -0.326 N 
ATOM     91  H   UNL A   1      31.021  23.333  26.648  1.00  0.00     0.169 HD
BRANCH  90  92
ATOM     92  C   UNL A   1      32.324  22.513  25.400  1.00  0.00     0.041 A 
ATOM     93  C   UNL A   1      33.661  22.471  25.805  1.00  0.00     0.026 A 
ATOM     94  C   UNL A   1      31.903  21.505  24.553  1.00  0.00     0.026 A 
ATOM     95  C   UNL A   1      34.466  21.350  25.528  1.00  0.00     0.008 A 
ATOM     96  C   UNL A   1      32.695  20.399  24.244  1.00  0.00     0.008 A 
ATOM     97  C   UNL A   1      33.962  20.273  24.790  1.00  0.00    -0.026 A 
BRANCH  97  98
ATOM     98  C   UNL A   1      34.718  18.991  24.577  1.00  0.00     0.181 C 
BRANCH  98  99
ATOM     99  N   UNL A   1      33.912  17.830  24.882  1.00  0.00    -0.249 N 
ATOM    100  C   UNL A   1      32.800  17.776  25.660  1.00  0.00     0.220 A 
ATOM    101  N   UNL A   1      34.158  16.640  24.312  1.00  0.00    -0.160 NA
ATOM    102  N   UNL A   1      32.302  16.563  25.633  1.00  0.00    -0.224 NA
ATOM    103  C   UNL A   1      33.161  15.901  24.799  1.00  0.00     0.246 A 
ENDBRANCH  98  99
ENDBRANCH  97  98
ENDBRANCH  90  92
ENDBRANCH  81  88
ENDBRANCH  78  80
ENDBRANCH  77  78
ENDBRANCH  76  77
ENDBRANCH  75  76
ENDBRANCH  74  75
ENDBRANCH  73  74
ENDBRANCH   1  73
TORSDOF 27
ENDMDL
MODEL 3
REMARK VINA RESULT:      -7.9      4.935     10.171
REMARK SMILES O=C(OCCOCCOCCOCCOC(=O)[C@@H]1[C@H](C(=O)Nc2ccc(Cn3cncn3)cc2)[C@@H]2C=C[C@H]1CC2)c1ccc(-c2c3nc(c(-c4ccc(S(=O)(=O)[O-])cc4)c4ccc([nH]4)c(-c4ccc(S(=O)(=O)[O-])cc4)c4nc(c(-c5ccc(S(=O)(=O)[O-])cc5)c5ccc2[nH]5)C=C4)C=C3)cc1
REMARK SMILES IDX 10 1 9 2 8 3 7 4 6 5 5 6 4 7 3 8 2 9 1 10 41 11 42 12 100 13
REMARK SMILES IDX 43 14 99 15 44 16 45 17 46 18 93 19 47 20 98 21 92 22 94 23
REMARK SMILES IDX 48 24 97 25 91 26 90 27 49 29 79 30 60 31 78 32 61 33 64 34
REMARK SMILES IDX 77 35 95 36 62 37 63 38 76 40 96 41 65 42 50 43 51 44 59 45
REMARK SMILES IDX 52 46 58 47 53 48 54 49 55 50 56 51 57 52 80 53 81 54 89 55
REMARK SMILES IDX 82 56 88 57 83 58 84 59 85 60 86 61 87 62 66 63 67 64 75 65
REMARK SMILES IDX 68 66 74 67 69 68 70 69 71 70 72 71 73 72 11 73 12 74 13 75
REMARK SMILES IDX 14 76 15 77 16 78 17 79 18 80 19 81 38 82 35 83 37 84 39 85
REMARK SMILES IDX 36 86 40 87 20 88 21 89 22 90 23 92 24 93 34 94 25 95 33 96
REMARK SMILES IDX 26 97 27 98 28 99 29 100 32 101 30 102 31 103
REMARK H PARENT 94 28 64 39 22 91
REMARK Flexibility Score: inf
ROOT
ATOM      1  C   UNL A   1      38.153  19.891  24.890  1.00  0.00     0.188 C 
ENDROOT
BRANCH   1   2
ATOM      2  O   UNL A   1      39.283  19.232  25.426  1.00  0.00    -0.377 OA
BRANCH   2   3
ATOM      3  C   UNL A   1      40.340  20.032  25.951  1.00  0.00     0.188 C 
BRANCH   3   4
ATOM      4  C   UNL A   1      41.708  19.381  26.237  1.00  0.00     0.188 C 
BRANCH   4   5
ATOM      5  O   UNL A   1      42.543  19.229  25.104  1.00  0.00    -0.376 OA
BRANCH   5   6
ATOM      6  C   UNL A   1      43.933  19.473  25.118  1.00  0.00     0.202 C 
BRANCH   6   7
ATOM      7  C   UNL A   1      44.574  20.710  24.472  1.00  0.00     0.261 C 
BRANCH   7   8
ATOM      8  O   UNL A   1      43.810  21.915  24.409  1.00  0.00    -0.460 OA
BRANCH   8   9
ATOM      9  C   UNL A   1      43.486  22.833  25.337  1.00  0.00     0.338 C 
ATOM     10  O   UNL A   1      42.366  22.790  25.838  1.00  0.00    -0.246 OA
BRANCH   9  11
ATOM     11  C   UNL A   1      44.356  23.985  25.668  1.00  0.00     0.060 A 
ATOM     12  C   UNL A   1      44.183  25.276  25.180  1.00  0.00     0.016 A 
ATOM     13  C   UNL A   1      45.462  23.703  26.496  1.00  0.00     0.016 A 
ATOM     14  C   UNL A   1      45.131  26.247  25.442  1.00  0.00     0.010 A 
ATOM     15  C   UNL A   1      46.428  24.667  26.744  1.00  0.00     0.010 A 
ATOM     16  C   UNL A   1      46.278  25.919  26.167  1.00  0.00    -0.014 A 
BRANCH  16  17
ATOM     17  C   UNL A   1      47.296  26.948  26.251  1.00  0.00     0.031 A 
ATOM     18  C   UNL A   1      48.279  26.955  25.145  1.00  0.00     0.074 A 
ATOM     19  C   UNL A   1      47.390  27.788  27.297  1.00  0.00     0.049 A 
ATOM     20  N   UNL A   1      49.497  26.529  25.178  1.00  0.00    -0.248 NA
ATOM     21  C   UNL A   1      47.810  27.350  23.811  1.00  0.00     0.031 C 
ATOM     22  C   UNL A   1      46.401  28.052  28.345  1.00  0.00     0.029 A 
ATOM     23  N   UNL A   1      48.396  28.653  27.592  1.00  0.00    -0.354 N 
ATOM     24  C   UNL A   1      50.029  26.799  23.923  1.00  0.00     0.074 A 
ATOM     25  C   UNL A   1      48.911  27.152  23.082  1.00  0.00     0.031 C 
ATOM     26  C   UNL A   1      46.761  29.168  29.018  1.00  0.00     0.029 A 
ATOM     27  C   UNL A   1      48.069  29.598  28.553  1.00  0.00     0.049 A 
ATOM     28  H   UNL A   1      49.280  28.612  27.161  1.00  0.00     0.167 HD
ATOM     29  C   UNL A   1      51.370  26.937  23.730  1.00  0.00     0.031 A 
ATOM     30  C   UNL A   1      48.802  30.688  28.889  1.00  0.00     0.031 A 
ATOM     31  C   UNL A   1      52.132  26.407  24.830  1.00  0.00     0.049 A 
ATOM     32  C   UNL A   1      50.206  30.422  28.492  1.00  0.00     0.074 A 
ATOM     33  C   UNL A   1      52.247  25.167  25.427  1.00  0.00     0.029 A 
ATOM     34  N   UNL A   1      52.656  27.308  25.728  1.00  0.00    -0.354 N 
ATOM     35  N   UNL A   1      50.956  29.529  29.076  1.00  0.00    -0.248 NA
ATOM     36  C   UNL A   1      50.645  30.830  27.167  1.00  0.00     0.031 C 
ATOM     37  C   UNL A   1      52.383  25.439  26.819  1.00  0.00     0.029 A 
ATOM     38  C   UNL A   1      52.410  26.824  26.986  1.00  0.00     0.049 A 
ATOM     39  H   UNL A   1      53.122  28.147  25.506  1.00  0.00     0.167 HD
ATOM     40  C   UNL A   1      51.689  28.952  28.049  1.00  0.00     0.074 A 
ATOM     41  C   UNL A   1      51.529  29.859  26.916  1.00  0.00     0.031 C 
ATOM     42  C   UNL A   1      52.133  27.661  28.134  1.00  0.00     0.031 A 
BRANCH  29  43
ATOM     43  C   UNL A   1      51.966  27.914  22.745  1.00  0.00    -0.014 A 
ATOM     44  C   UNL A   1      53.355  28.158  22.781  1.00  0.00     0.010 A 
ATOM     45  C   UNL A   1      51.180  28.809  21.992  1.00  0.00     0.010 A 
ATOM     46  C   UNL A   1      53.909  29.290  22.169  1.00  0.00     0.020 A 
ATOM     47  C   UNL A   1      51.727  29.914  21.341  1.00  0.00     0.020 A 
ATOM     48  C   UNL A   1      53.085  30.170  21.468  1.00  0.00     0.054 A 
BRANCH  48  49
ATOM     49  S   UNL A   1      53.788  31.691  20.786  1.00  0.00     0.124 S 
ATOM     50  O   UNL A   1      54.223  31.253  19.465  1.00  0.00    -0.237 OA
ATOM     51  O   UNL A   1      52.648  32.598  20.814  1.00  0.00    -0.237 OA
ATOM     52  O   UNL A   1      54.863  32.018  21.726  1.00  0.00    -0.744 OA
ENDBRANCH  48  49
ENDBRANCH  29  43
BRANCH  30  53
ATOM     53  C   UNL A   1      48.295  32.044  29.212  1.00  0.00    -0.014 A 
ATOM     54  C   UNL A   1      48.910  32.826  30.206  1.00  0.00     0.010 A 
ATOM     55  C   UNL A   1      47.389  32.682  28.339  1.00  0.00     0.010 A 
ATOM     56  C   UNL A   1      48.680  34.210  30.276  1.00  0.00     0.020 A 
ATOM     57  C   UNL A   1      47.149  34.057  28.409  1.00  0.00     0.020 A 
ATOM     58  C   UNL A   1      47.818  34.821  29.361  1.00  0.00     0.054 A 
BRANCH  58  59
ATOM     59  S   UNL A   1      47.681  36.632  29.332  1.00  0.00     0.124 S 
ATOM     60  O   UNL A   1      48.175  37.002  30.654  1.00  0.00    -0.237 OA
ATOM     61  O   UNL A   1      48.539  36.998  28.209  1.00  0.00    -0.237 OA
ATOM     62  O   UNL A   1      46.253  36.866  29.116  1.00  0.00    -0.744 OA
ENDBRANCH  58  59
ENDBRANCH  30  53
BRANCH  42  63
ATOM     63  C   UNL A   1      52.122  26.977  29.481  1.00  0.00    -0.014 A 
ATOM     64  C   UNL A   1      51.064  26.176  29.954  1.00  0.00     0.010 A 
ATOM     65  C   UNL A   1      53.297  27.057  30.251  1.00  0.00     0.010 A 
ATOM     66  C   UNL A   1      51.165  25.512  31.187  1.00  0.00     0.020 A 
ATOM     67  C   UNL A   1      53.412  26.382  31.467  1.00  0.00     0.020 A 
ATOM     68  C   UNL A   1      52.340  25.625  31.938  1.00  0.00     0.054 A 
BRANCH  68  69
ATOM     69  S   UNL A   1      52.473  24.754  33.525  1.00  0.00     0.124 S 
ATOM     70  O   UNL A   1      53.905  24.816  33.801  1.00  0.00    -0.237 OA
ATOM     71  O   UNL A   1      51.625  25.555  34.405  1.00  0.00    -0.237 OA
ATOM     72  O   UNL A   1      51.957  23.416  33.232  1.00  0.00    -0.744 OA
ENDBRANCH  68  69
ENDBRANCH  42  63
ENDBRANCH  16  17
ENDBRANCH   9  11
ENDBRANCH   8   9
ENDBRANCH   7   8
ENDBRANCH   6   7
ENDBRANCH   5   6
ENDBRANCH   4   5
ENDBRANCH   3   4
ENDBRANCH   2   3
ENDBRANCH   1   2
BRANCH   1  73
ATOM     73  C   UNL A   1      37.978  21.358  25.326  1.00  0.00     0.188 C 
BRANCH  73  74
ATOM     74  O   UNL A   1      37.204  22.239  24.524  1.00  0.00    -0.376 OA
BRANCH  74  75
ATOM     75  C   UNL A   1      35.788  22.263  24.678  1.00  0.00     0.202 C 
BRANCH  75  76
ATOM     76  C   UNL A   1      35.145  23.435  25.426  1.00  0.00     0.261 C 
BRANCH  76  77
ATOM     77  O   UNL A   1      33.983  23.987  24.771  1.00  0.00    -0.463 OA
BRANCH  77  78
ATOM     78  C   UNL A   1      33.797  25.317  24.787  1.00  0.00     0.310 C 
ATOM     79  O   UNL A   1      34.410  26.073  25.538  1.00  0.00    -0.252 OA
BRANCH  78  80
ATOM     80  C   UNL A   1      32.658  25.848  23.909  1.00  0.00     0.119 C 
ATOM     81  C   UNL A   1      31.909  26.976  24.624  1.00  0.00     0.100 C 
ATOM     82  C   UNL A   1      31.669  25.116  22.921  1.00  0.00     0.026 C 
ATOM     83  C   UNL A   1      30.632  27.338  23.821  1.00  0.00     0.025 C 
ATOM     84  C   UNL A   1      30.216  25.039  23.383  1.00  0.00    -0.027 C 
ATOM     85  C   UNL A   1      31.492  26.099  21.726  1.00  0.00     0.009 C 
ATOM     86  C   UNL A   1      29.687  26.175  23.867  1.00  0.00    -0.027 C 
ATOM     87  C   UNL A   1      31.007  27.474  22.300  1.00  0.00     0.009 C 
BRANCH  81  88
ATOM     88  C   UNL A   1      31.777  26.904  26.158  1.00  0.00     0.228 C 
ATOM     89  O   UNL A   1      31.061  25.989  26.607  1.00  0.00    -0.274 OA
ATOM     90  N   UNL A   1      32.402  27.629  27.123  1.00  0.00    -0.326 N 
ATOM     91  H   UNL A   1      32.268  27.219  28.008  1.00  0.00     0.169 HD
BRANCH  90  92
ATOM     92  C   UNL A   1      33.184  28.794  27.228  1.00  0.00     0.041 A 
ATOM     93  C   UNL A   1      32.514  30.020  27.270  1.00  0.00     0.026 A 
ATOM     94  C   UNL A   1      34.564  28.843  27.254  1.00  0.00     0.026 A 
ATOM     95  C   UNL A   1      33.209  31.215  27.533  1.00  0.00     0.008 A 
ATOM     96  C   UNL A   1      35.274  30.021  27.486  1.00  0.00     0.008 A 
ATOM     97  C   UNL A   1      34.598  31.212  27.702  1.00  0.00    -0.026 A 
BRANCH  97  98
ATOM     98  C   UNL A   1      35.384  32.425  28.120  1.00  0.00     0.181 C 
BRANCH  98  99
ATOM     99  N   UNL A   1      34.534  33.456  28.671  1.00  0.00    -0.249 N 
ATOM    100  C   UNL A   1      34.240  33.675  29.979  1.00  0.00     0.220 A 
ATOM    101  N   UNL A   1      33.995  34.407  27.892  1.00  0.00    -0.160 NA
ATOM    102  N   UNL A   1      33.499  34.751  30.090  1.00  0.00    -0.224 NA
ATOM    103  C   UNL A   1      33.373  35.168  28.793  1.00  0.00     0.246 A 
ENDBRANCH  98  99
ENDBRANCH  97  98
ENDBRANCH  90  92
ENDBRANCH  81  88
ENDBRANCH  78  80
ENDBRANCH  77  78
ENDBRANCH  76  77
ENDBRANCH  75  76
ENDBRANCH  74  75
ENDBRANCH  73  74
ENDBRANCH   1  73
TORSDOF 27
ENDMDL
