MODEL 1
REMARK VINA RESULT:      -7.4      0.000      0.000
REMARK SMILES CN1C(=O)/C(=C\c2ccc(OCC(=O)OCCOCCOCCOCCOC(=O)c3ccc(-c4c5nc(c(-c6ccc(S(=O)(=O)[O-])cc6)c6ccc([nH]6)c(-c6ccc(S(=O)(=O)[O-])cc6)c6nc(c(-c7ccc(S(=O)(=O)[O-])cc7)c7ccc4[nH]7)C=C6)C=C5)cc3)cc2)C(O)=NC1=S
REMARK SMILES IDX 20 1 19 2 18 3 17 4 16 5 15 6 13 7 14 8 12 9 11 10 10 11
REMARK SMILES IDX 7 12 8 13 91 14 9 15 90 16 6 17 1 18 2 19 3 20 95 21 4 22
REMARK SMILES IDX 5 23 94 24 96 25 92 26 93 27 21 29 22 30 23 31 24 32 25 33
REMARK SMILES IDX 26 34 27 35 28 36 29 37 30 38 31 39 89 40 32 41 88 42 33 43
REMARK SMILES IDX 34 44 35 45 82 46 36 47 87 48 81 49 83 50 37 51 86 52 80 53
REMARK SMILES IDX 79 54 38 56 68 57 49 58 67 59 50 60 53 61 66 62 84 63 51 64
REMARK SMILES IDX 52 65 65 67 85 68 54 69 39 70 40 71 48 72 41 73 47 74 42 75
REMARK SMILES IDX 43 76 44 77 45 78 46 79 69 80 70 81 78 82 71 83 77 84 72 85
REMARK SMILES IDX 73 86 74 87 75 88 76 89 55 90 56 91 64 92 57 93 63 94 58 95
REMARK SMILES IDX 59 96 60 97 61 98 62 99
REMARK H PARENT 93 28 83 55 53 66
REMARK Flexibility Score: inf
ROOT
ATOM      1  C   UNL A   1      41.356  34.273  30.370  1.00  0.00     0.188 C 
ENDROOT
BRANCH   1   2
ATOM      2  C   UNL A   1      41.866  32.840  30.644  1.00  0.00     0.188 C 
BRANCH   2   3
ATOM      3  O   UNL A   1      43.209  32.628  31.076  1.00  0.00    -0.376 OA
BRANCH   3   4
ATOM      4  C   UNL A   1      44.208  32.749  30.083  1.00  0.00     0.202 C 
BRANCH   4   5
ATOM      5  C   UNL A   1      43.891  31.979  28.789  1.00  0.00     0.261 C 
BRANCH   5   6
ATOM      6  O   UNL A   1      45.056  31.600  28.005  1.00  0.00    -0.461 OA
BRANCH   6   7
ATOM      7  C   UNL A   1      45.118  32.044  26.717  1.00  0.00     0.344 C 
ATOM      8  O   UNL A   1      45.910  31.626  25.878  1.00  0.00    -0.248 OA
BRANCH   7   9
ATOM      9  C   UNL A   1      44.127  33.202  26.430  1.00  0.00     0.351 C 
BRANCH   9  10
ATOM     10  O   UNL A   1      44.569  34.503  26.051  1.00  0.00    -0.482 OA
BRANCH  10  11
ATOM     11  C   UNL A   1      43.855  35.630  26.383  1.00  0.00     0.120 A 
ATOM     12  C   UNL A   1      42.694  37.932  27.672  1.00  0.00    -0.024 A 
ATOM     13  C   UNL A   1      44.038  37.919  27.272  1.00  0.00     0.012 A 
ATOM     14  C   UNL A   1      41.916  36.828  27.276  1.00  0.00     0.012 A 
ATOM     15  C   UNL A   1      44.614  36.772  26.669  1.00  0.00     0.047 A 
ATOM     16  C   UNL A   1      42.485  35.694  26.628  1.00  0.00     0.047 A 
BRANCH  12  17
ATOM     17  C   UNL A   1      42.106  39.095  28.406  1.00  0.00     0.027 C 
ATOM     18  C   UNL A   1      45.001  39.702  32.125  1.00  0.00     0.156 C 
ATOM     19  N   UNL A   1      43.798  40.151  31.416  1.00  0.00    -0.286 N 
ATOM     20  C   UNL A   1      43.868  40.077  30.041  1.00  0.00     0.265 C 
ATOM     21  C   UNL A   1      42.779  40.912  31.991  1.00  0.00     0.205 C 
ATOM     22  O   UNL A   1      44.886  40.346  29.424  1.00  0.00    -0.268 OA
ATOM     23  C   UNL A   1      42.562  39.955  29.358  1.00  0.00     0.103 C 
ATOM     24  N   UNL A   1      41.775  41.391  31.170  1.00  0.00    -0.184 NA
ATOM     25  S   UNL A   1      42.755  41.339  33.629  1.00  0.00    -0.038 S 
ATOM     26  C   UNL A   1      41.678  40.959  29.963  1.00  0.00     0.226 C 
BRANCH  26  27
ATOM     27  O   UNL A   1      40.775  41.520  29.141  1.00  0.00    -0.493 OA
ATOM     28  H   UNL A   1      41.048  41.873  28.317  1.00  0.00     0.295 HD
ENDBRANCH  26  27
ENDBRANCH  12  17
ENDBRANCH  10  11
ENDBRANCH   9  10
ENDBRANCH   7   9
ENDBRANCH   6   7
ENDBRANCH   5   6
ENDBRANCH   4   5
ENDBRANCH   3   4
ENDBRANCH   2   3
ENDBRANCH   1   2
BRANCH   1  29
ATOM     29  O   UNL A   1      39.963  34.391  30.632  1.00  0.00    -0.377 OA
BRANCH  29  30
ATOM     30  C   UNL A   1      39.159  34.364  29.459  1.00  0.00     0.188 C 
BRANCH  30  31
ATOM     31  C   UNL A   1      37.884  33.548  29.652  1.00  0.00     0.188 C 
BRANCH  31  32
ATOM     32  O   UNL A   1      36.626  34.110  29.318  1.00  0.00    -0.376 OA
BRANCH  32  33
ATOM     33  C   UNL A   1      35.419  33.371  29.324  1.00  0.00     0.202 C 
BRANCH  33  34
ATOM     34  C   UNL A   1      34.676  32.969  28.057  1.00  0.00     0.261 C 
BRANCH  34  35
ATOM     35  O   UNL A   1      35.380  31.967  27.365  1.00  0.00    -0.460 OA
BRANCH  35  36
ATOM     36  C   UNL A   1      34.970  30.704  27.578  1.00  0.00     0.338 C 
ATOM     37  O   UNL A   1      33.829  30.257  27.630  1.00  0.00    -0.246 OA
BRANCH  36  38
ATOM     38  C   UNL A   1      36.165  30.119  28.173  1.00  0.00     0.060 A 
ATOM     39  C   UNL A   1      37.434  30.409  27.641  1.00  0.00     0.016 A 
ATOM     40  C   UNL A   1      36.002  29.543  29.430  1.00  0.00     0.016 A 
ATOM     41  C   UNL A   1      38.560  30.189  28.409  1.00  0.00     0.010 A 
ATOM     42  C   UNL A   1      37.126  29.295  30.187  1.00  0.00     0.010 A 
ATOM     43  C   UNL A   1      38.395  29.616  29.671  1.00  0.00    -0.014 A 
BRANCH  43  44
ATOM     44  C   UNL A   1      39.555  29.077  30.379  1.00  0.00     0.031 A 
ATOM     45  C   UNL A   1      39.956  29.814  31.614  1.00  0.00     0.074 A 
ATOM     46  C   UNL A   1      40.250  28.062  29.848  1.00  0.00     0.049 A 
ATOM     47  N   UNL A   1      41.046  29.712  32.315  1.00  0.00    -0.248 NA
ATOM     48  C   UNL A   1      39.008  30.836  32.105  1.00  0.00     0.031 C 
ATOM     49  C   UNL A   1      39.877  27.304  28.653  1.00  0.00     0.029 A 
ATOM     50  N   UNL A   1      41.443  27.524  30.234  1.00  0.00    -0.354 N 
ATOM     51  C   UNL A   1      40.930  30.674  33.309  1.00  0.00     0.074 A 
ATOM     52  C   UNL A   1      39.677  31.361  33.116  1.00  0.00     0.031 C 
ATOM     53  C   UNL A   1      40.845  26.409  28.386  1.00  0.00     0.029 A 
ATOM     54  C   UNL A   1      41.914  26.567  29.368  1.00  0.00     0.049 A 
ATOM     55  H   UNL A   1      41.920  27.794  31.052  1.00  0.00     0.167 HD
ATOM     56  C   UNL A   1      41.812  30.960  34.289  1.00  0.00     0.031 A 
ATOM     57  C   UNL A   1      43.097  25.929  29.371  1.00  0.00     0.031 A 
ATOM     58  C   UNL A   1      43.066  30.274  34.415  1.00  0.00     0.049 A 
ATOM     59  C   UNL A   1      44.075  26.279  30.462  1.00  0.00     0.074 A 
ATOM     60  C   UNL A   1      44.056  30.446  35.360  1.00  0.00     0.029 A 
ATOM     61  N   UNL A   1      43.496  29.279  33.546  1.00  0.00    -0.354 N 
ATOM     62  N   UNL A   1      43.954  27.172  31.419  1.00  0.00    -0.248 NA
ATOM     63  C   UNL A   1      45.340  25.539  30.479  1.00  0.00     0.031 C 
ATOM     64  C   UNL A   1      45.105  29.577  35.039  1.00  0.00     0.029 A 
ATOM     65  C   UNL A   1      44.745  28.831  33.924  1.00  0.00     0.049 A 
ATOM     66  H   UNL A   1      42.986  28.943  32.774  1.00  0.00     0.167 HD
ATOM     67  C   UNL A   1      45.117  27.084  32.171  1.00  0.00     0.074 A 
ATOM     68  C   UNL A   1      45.924  26.043  31.558  1.00  0.00     0.031 C 
ATOM     69  C   UNL A   1      45.494  27.788  33.269  1.00  0.00     0.031 A 
BRANCH  56  70
ATOM     70  C   UNL A   1      41.453  32.074  35.230  1.00  0.00    -0.014 A 
ATOM     71  C   UNL A   1      41.640  33.420  34.866  1.00  0.00     0.010 A 
ATOM     72  C   UNL A   1      40.964  31.773  36.512  1.00  0.00     0.010 A 
ATOM     73  C   UNL A   1      41.382  34.444  35.781  1.00  0.00     0.020 A 
ATOM     74  C   UNL A   1      40.678  32.795  37.422  1.00  0.00     0.020 A 
ATOM     75  C   UNL A   1      40.906  34.124  37.056  1.00  0.00     0.054 A 
BRANCH  75  76
ATOM     76  S   UNL A   1      40.562  35.471  38.220  1.00  0.00     0.124 S 
ATOM     77  O   UNL A   1      41.062  36.633  37.492  1.00  0.00    -0.237 OA
ATOM     78  O   UNL A   1      39.111  35.401  38.372  1.00  0.00    -0.237 OA
ATOM     79  O   UNL A   1      41.327  35.104  39.410  1.00  0.00    -0.744 OA
ENDBRANCH  75  76
ENDBRANCH  56  70
BRANCH  57  80
ATOM     80  C   UNL A   1      43.402  24.913  28.330  1.00  0.00    -0.014 A 
ATOM     81  C   UNL A   1      42.990  23.580  28.499  1.00  0.00     0.010 A 
ATOM     82  C   UNL A   1      44.067  25.275  27.143  1.00  0.00     0.010 A 
ATOM     83  C   UNL A   1      43.240  22.626  27.507  1.00  0.00     0.020 A 
ATOM     84  C   UNL A   1      44.300  24.328  26.138  1.00  0.00     0.020 A 
ATOM     85  C   UNL A   1      43.892  23.007  26.331  1.00  0.00     0.054 A 
BRANCH  85  86
ATOM     86  S   UNL A   1      44.144  21.767  25.030  1.00  0.00     0.124 S 
ATOM     87  O   UNL A   1      43.916  22.547  23.818  1.00  0.00    -0.237 OA
ATOM     88  O   UNL A   1      45.523  21.344  25.259  1.00  0.00    -0.237 OA
ATOM     89  O   UNL A   1      43.134  20.753  25.323  1.00  0.00    -0.744 OA
ENDBRANCH  85  86
ENDBRANCH  57  80
BRANCH  69  90
ATOM     90  C   UNL A   1      46.812  27.421  33.885  1.00  0.00    -0.014 A 
ATOM     91  C   UNL A   1      48.000  28.050  33.477  1.00  0.00     0.010 A 
ATOM     92  C   UNL A   1      46.842  26.488  34.935  1.00  0.00     0.010 A 
ATOM     93  C   UNL A   1      49.208  27.726  34.096  1.00  0.00     0.020 A 
ATOM     94  C   UNL A   1      48.042  26.182  35.573  1.00  0.00     0.020 A 
ATOM     95  C   UNL A   1      49.221  26.794  35.140  1.00  0.00     0.054 A 
BRANCH  95  96
ATOM     96  S   UNL A   1      50.793  26.427  35.962  1.00  0.00     0.124 S 
ATOM     97  O   UNL A   1      50.354  25.662  37.125  1.00  0.00    -0.237 OA
ATOM     98  O   UNL A   1      51.518  25.667  34.946  1.00  0.00    -0.237 OA
ATOM     99  O   UNL A   1      51.345  27.748  36.255  1.00  0.00    -0.744 OA
ENDBRANCH  95  96
ENDBRANCH  69  90
ENDBRANCH  43  44
ENDBRANCH  36  38
ENDBRANCH  35  36
ENDBRANCH  34  35
ENDBRANCH  33  34
ENDBRANCH  32  33
ENDBRANCH  31  32
ENDBRANCH  30  31
ENDBRANCH  29  30
ENDBRANCH   1  29
TORSDOF 27
ENDMDL
MODEL 2
REMARK VINA RESULT:      -7.0      5.542     13.723
REMARK SMILES CN1C(=O)/C(=C\c2ccc(OCC(=O)OCCOCCOCCOCCOC(=O)c3ccc(-c4c5nc(c(-c6ccc(S(=O)(=O)[O-])cc6)c6ccc([nH]6)c(-c6ccc(S(=O)(=O)[O-])cc6)c6nc(c(-c7ccc(S(=O)(=O)[O-])cc7)c7ccc4[nH]7)C=C6)C=C5)cc3)cc2)C(O)=NC1=S
REMARK SMILES IDX 20 1 19 2 18 3 17 4 16 5 15 6 13 7 14 8 12 9 11 10 10 11
REMARK SMILES IDX 7 12 8 13 91 14 9 15 90 16 6 17 1 18 2 19 3 20 95 21 4 22
REMARK SMILES IDX 5 23 94 24 96 25 92 26 93 27 21 29 22 30 23 31 24 32 25 33
REMARK SMILES IDX 26 34 27 35 28 36 29 37 30 38 31 39 89 40 32 41 88 42 33 43
REMARK SMILES IDX 34 44 35 45 82 46 36 47 87 48 81 49 83 50 37 51 86 52 80 53
REMARK SMILES IDX 79 54 38 56 68 57 49 58 67 59 50 60 53 61 66 62 84 63 51 64
REMARK SMILES IDX 52 65 65 67 85 68 54 69 39 70 40 71 48 72 41 73 47 74 42 75
REMARK SMILES IDX 43 76 44 77 45 78 46 79 69 80 70 81 78 82 71 83 77 84 72 85
REMARK SMILES IDX 73 86 74 87 75 88 76 89 55 90 56 91 64 92 57 93 63 94 58 95
REMARK SMILES IDX 59 96 60 97 61 98 62 99
REMARK H PARENT 93 28 83 55 53 66
REMARK Flexibility Score: inf
ROOT
ATOM      1  C   UNL A   1      41.463  28.141  27.560  1.00  0.00     0.188 C 
ENDROOT
BRANCH   1   2
ATOM      2  C   UNL A   1      41.123  28.026  26.057  1.00  0.00     0.188 C 
BRANCH   2   3
ATOM      3  O   UNL A   1      41.517  26.871  25.319  1.00  0.00    -0.376 OA
BRANCH   3   4
ATOM      4  C   UNL A   1      41.133  25.624  25.864  1.00  0.00     0.202 C 
BRANCH   4   5
ATOM      5  C   UNL A   1      42.317  24.689  26.165  1.00  0.00     0.261 C 
BRANCH   5   6
ATOM      6  O   UNL A   1      42.008  23.270  26.089  1.00  0.00    -0.461 OA
BRANCH   6   7
ATOM      7  C   UNL A   1      41.542  22.667  27.219  1.00  0.00     0.344 C 
ATOM      8  O   UNL A   1      42.176  22.569  28.264  1.00  0.00    -0.248 OA
BRANCH   7   9
ATOM      9  C   UNL A   1      40.137  22.038  27.030  1.00  0.00     0.351 C 
BRANCH   9  10
ATOM     10  O   UNL A   1      39.651  21.636  25.752  1.00  0.00    -0.482 OA
BRANCH  10  11
ATOM     11  C   UNL A   1      38.312  21.685  25.443  1.00  0.00     0.120 A 
ATOM     12  C   UNL A   1      35.436  21.880  25.471  1.00  0.00    -0.024 A 
ATOM     13  C   UNL A   1      36.246  22.995  25.726  1.00  0.00     0.012 A 
ATOM     14  C   UNL A   1      36.100  20.710  25.057  1.00  0.00     0.012 A 
ATOM     15  C   UNL A   1      37.660  22.889  25.744  1.00  0.00     0.047 A 
ATOM     16  C   UNL A   1      37.521  20.616  25.030  1.00  0.00     0.047 A 
BRANCH  12  17
ATOM     17  C   UNL A   1      33.945  21.959  25.556  1.00  0.00     0.027 C 
ATOM     18  C   UNL A   1      32.807  25.567  22.680  1.00  0.00     0.156 C 
ATOM     19  N   UNL A   1      32.330  24.531  23.604  1.00  0.00    -0.286 N 
ATOM     20  C   UNL A   1      33.028  23.342  23.560  1.00  0.00     0.265 C 
ATOM     21  C   UNL A   1      31.090  24.553  24.243  1.00  0.00     0.205 C 
ATOM     22  O   UNL A   1      33.438  22.865  22.515  1.00  0.00    -0.268 OA
ATOM     23  C   UNL A   1      32.973  22.544  24.803  1.00  0.00     0.103 C 
ATOM     24  N   UNL A   1      30.708  23.441  24.971  1.00  0.00    -0.184 NA
ATOM     25  S   UNL A   1      30.001  25.842  24.107  1.00  0.00    -0.038 S 
ATOM     26  C   UNL A   1      31.566  22.518  25.222  1.00  0.00     0.226 C 
BRANCH  26  27
ATOM     27  O   UNL A   1      31.153  21.391  25.826  1.00  0.00    -0.493 OA
ATOM     28  H   UNL A   1      31.702  20.969  26.456  1.00  0.00     0.295 HD
ENDBRANCH  26  27
ENDBRANCH  12  17
ENDBRANCH  10  11
ENDBRANCH   9  10
ENDBRANCH   7   9
ENDBRANCH   6   7
ENDBRANCH   5   6
ENDBRANCH   4   5
ENDBRANCH   3   4
ENDBRANCH   2   3
ENDBRANCH   1   2
BRANCH   1  29
ATOM     29  O   UNL A   1      40.482  28.895  28.262  1.00  0.00    -0.377 OA
BRANCH  29  30
ATOM     30  C   UNL A   1      39.211  28.262  28.320  1.00  0.00     0.188 C 
BRANCH  30  31
ATOM     31  C   UNL A   1      38.066  29.268  28.395  1.00  0.00     0.188 C 
BRANCH  31  32
ATOM     32  O   UNL A   1      36.974  29.036  29.269  1.00  0.00    -0.376 OA
BRANCH  32  33
ATOM     33  C   UNL A   1      36.741  29.796  30.439  1.00  0.00     0.202 C 
BRANCH  33  34
ATOM     34  C   UNL A   1      37.119  29.321  31.837  1.00  0.00     0.261 C 
BRANCH  34  35
ATOM     35  O   UNL A   1      38.473  29.590  32.104  1.00  0.00    -0.460 OA
BRANCH  35  36
ATOM     36  C   UNL A   1      38.716  30.469  33.091  1.00  0.00     0.338 C 
ATOM     37  O   UNL A   1      38.011  30.780  34.045  1.00  0.00    -0.246 OA
BRANCH  36  38
ATOM     38  C   UNL A   1      39.784  31.266  32.500  1.00  0.00     0.060 A 
ATOM     39  C   UNL A   1      41.023  31.386  33.156  1.00  0.00     0.016 A 
ATOM     40  C   UNL A   1      39.615  31.619  31.164  1.00  0.00     0.016 A 
ATOM     41  C   UNL A   1      42.132  31.794  32.443  1.00  0.00     0.010 A 
ATOM     42  C   UNL A   1      40.716  32.055  30.458  1.00  0.00     0.010 A 
ATOM     43  C   UNL A   1      41.963  32.142  31.102  1.00  0.00    -0.014 A 
BRANCH  43  44
ATOM     44  C   UNL A   1      43.020  32.871  30.405  1.00  0.00     0.031 A 
ATOM     45  C   UNL A   1      43.904  32.046  29.529  1.00  0.00     0.074 A 
ATOM     46  C   UNL A   1      43.218  34.172  30.661  1.00  0.00     0.049 A 
ATOM     47  N   UNL A   1      45.034  32.362  28.969  1.00  0.00    -0.248 NA
ATOM     48  C   UNL A   1      43.467  30.655  29.281  1.00  0.00     0.031 C 
ATOM     49  C   UNL A   1      42.361  35.017  31.496  1.00  0.00     0.029 A 
ATOM     50  N   UNL A   1      44.233  34.996  30.271  1.00  0.00    -0.354 N 
ATOM     51  C   UNL A   1      45.459  31.204  28.330  1.00  0.00     0.074 A 
ATOM     52  C   UNL A   1      44.479  30.176  28.581  1.00  0.00     0.031 C 
ATOM     53  C   UNL A   1      42.909  36.243  31.577  1.00  0.00     0.029 A 
ATOM     54  C   UNL A   1      44.165  36.246  30.834  1.00  0.00     0.049 A 
ATOM     55  H   UNL A   1      44.943  34.721  29.647  1.00  0.00     0.167 HD
ATOM     56  C   UNL A   1      46.584  31.025  27.608  1.00  0.00     0.031 A 
ATOM     57  C   UNL A   1      45.052  37.255  30.769  1.00  0.00     0.031 A 
ATOM     58  C   UNL A   1      47.549  32.069  27.421  1.00  0.00     0.049 A 
ATOM     59  C   UNL A   1      46.312  37.025  29.976  1.00  0.00     0.074 A 
ATOM     60  C   UNL A   1      48.730  32.041  26.708  1.00  0.00     0.029 A 
ATOM     61  N   UNL A   1      47.432  33.341  27.971  1.00  0.00    -0.354 N 
ATOM     62  N   UNL A   1      46.701  35.937  29.348  1.00  0.00    -0.248 NA
ATOM     63  C   UNL A   1      47.245  38.151  29.875  1.00  0.00     0.031 C 
ATOM     64  C   UNL A   1      49.346  33.288  26.858  1.00  0.00     0.029 A 
ATOM     65  C   UNL A   1      48.524  34.107  27.623  1.00  0.00     0.049 A 
ATOM     66  H   UNL A   1      46.680  33.650  28.526  1.00  0.00     0.167 HD
ATOM     67  C   UNL A   1      47.915  36.255  28.754  1.00  0.00     0.074 A 
ATOM     68  C   UNL A   1      48.188  37.640  29.093  1.00  0.00     0.031 C 
ATOM     69  C   UNL A   1      48.734  35.484  27.994  1.00  0.00     0.031 A 
BRANCH  56  70
ATOM     70  C   UNL A   1      46.821  29.656  27.038  1.00  0.00    -0.014 A 
ATOM     71  C   UNL A   1      47.503  28.671  27.776  1.00  0.00     0.010 A 
ATOM     72  C   UNL A   1      46.396  29.362  25.731  1.00  0.00     0.010 A 
ATOM     73  C   UNL A   1      47.791  27.429  27.202  1.00  0.00     0.020 A 
ATOM     74  C   UNL A   1      46.658  28.112  25.163  1.00  0.00     0.020 A 
ATOM     75  C   UNL A   1      47.370  27.159  25.897  1.00  0.00     0.054 A 
BRANCH  75  76
ATOM     76  S   UNL A   1      47.740  25.535  25.181  1.00  0.00     0.124 S 
ATOM     77  O   UNL A   1      48.823  25.855  24.254  1.00  0.00    -0.237 OA
ATOM     78  O   UNL A   1      48.126  24.749  26.350  1.00  0.00    -0.237 OA
ATOM     79  O   UNL A   1      46.482  25.137  24.555  1.00  0.00    -0.744 OA
ENDBRANCH  75  76
ENDBRANCH  56  70
BRANCH  57  80
ATOM     80  C   UNL A   1      44.775  38.542  31.459  1.00  0.00    -0.014 A 
ATOM     81  C   UNL A   1      45.255  38.765  32.760  1.00  0.00     0.010 A 
ATOM     82  C   UNL A   1      44.068  39.571  30.808  1.00  0.00     0.010 A 
ATOM     83  C   UNL A   1      45.031  39.988  33.402  1.00  0.00     0.020 A 
ATOM     84  C   UNL A   1      43.860  40.803  31.438  1.00  0.00     0.020 A 
ATOM     85  C   UNL A   1      44.336  41.001  32.735  1.00  0.00     0.054 A 
BRANCH  85  86
ATOM     86  S   UNL A   1      44.116  42.602  33.562  1.00  0.00     0.124 S 
ATOM     87  O   UNL A   1      42.663  42.711  33.633  1.00  0.00    -0.237 OA
ATOM     88  O   UNL A   1      44.798  42.395  34.837  1.00  0.00    -0.237 OA
ATOM     89  O   UNL A   1      44.773  43.545  32.660  1.00  0.00    -0.744 OA
ENDBRANCH  85  86
ENDBRANCH  57  80
BRANCH  69  90
ATOM     90  C   UNL A   1      49.971  36.142  27.457  1.00  0.00    -0.014 A 
ATOM     91  C   UNL A   1      49.953  36.824  26.229  1.00  0.00     0.010 A 
ATOM     92  C   UNL A   1      51.143  36.135  28.233  1.00  0.00     0.010 A 
ATOM     93  C   UNL A   1      51.103  37.467  25.771  1.00  0.00     0.020 A 
ATOM     94  C   UNL A   1      52.286  36.799  27.791  1.00  0.00     0.020 A 
ATOM     95  C   UNL A   1      52.262  37.450  26.555  1.00  0.00     0.054 A 
BRANCH  95  96
ATOM     96  S   UNL A   1      53.728  38.335  25.964  1.00  0.00     0.124 S 
ATOM     97  O   UNL A   1      53.440  38.478  24.540  1.00  0.00    -0.237 OA
ATOM     98  O   UNL A   1      53.693  39.572  26.741  1.00  0.00    -0.237 OA
ATOM     99  O   UNL A   1      54.830  37.432  26.291  1.00  0.00    -0.744 OA
ENDBRANCH  95  96
ENDBRANCH  69  90
ENDBRANCH  43  44
ENDBRANCH  36  38
ENDBRANCH  35  36
ENDBRANCH  34  35
ENDBRANCH  33  34
ENDBRANCH  32  33
ENDBRANCH  31  32
ENDBRANCH  30  31
ENDBRANCH  29  30
ENDBRANCH   1  29
TORSDOF 27
ENDMDL
MODEL 3
REMARK VINA RESULT:      -6.7      5.469     11.728
REMARK SMILES CN1C(=O)/C(=C\c2ccc(OCC(=O)OCCOCCOCCOCCOC(=O)c3ccc(-c4c5nc(c(-c6ccc(S(=O)(=O)[O-])cc6)c6ccc([nH]6)c(-c6ccc(S(=O)(=O)[O-])cc6)c6nc(c(-c7ccc(S(=O)(=O)[O-])cc7)c7ccc4[nH]7)C=C6)C=C5)cc3)cc2)C(O)=NC1=S
REMARK SMILES IDX 20 1 19 2 18 3 17 4 16 5 15 6 13 7 14 8 12 9 11 10 10 11
REMARK SMILES IDX 7 12 8 13 91 14 9 15 90 16 6 17 1 18 2 19 3 20 95 21 4 22
REMARK SMILES IDX 5 23 94 24 96 25 92 26 93 27 21 29 22 30 23 31 24 32 25 33
REMARK SMILES IDX 26 34 27 35 28 36 29 37 30 38 31 39 89 40 32 41 88 42 33 43
REMARK SMILES IDX 34 44 35 45 82 46 36 47 87 48 81 49 83 50 37 51 86 52 80 53
REMARK SMILES IDX 79 54 38 56 68 57 49 58 67 59 50 60 53 61 66 62 84 63 51 64
REMARK SMILES IDX 52 65 65 67 85 68 54 69 39 70 40 71 48 72 41 73 47 74 42 75
REMARK SMILES IDX 43 76 44 77 45 78 46 79 69 80 70 81 78 82 71 83 77 84 72 85
REMARK SMILES IDX 73 86 74 87 75 88 76 89 55 90 56 91 64 92 57 93 63 94 58 95
REMARK SMILES IDX 59 96 60 97 61 98 62 99
REMARK H PARENT 93 28 83 55 53 66
REMARK Flexibility Score: inf
ROOT
ATOM      1  C   UNL A   1      41.531  28.161  27.524  1.00  0.00     0.188 C 
ENDROOT
BRANCH   1   2
ATOM      2  C   UNL A   1      41.251  27.989  26.014  1.00  0.00     0.188 C 
BRANCH   2   3
ATOM      3  O   UNL A   1      41.693  26.818  25.331  1.00  0.00    -0.376 OA
BRANCH   3   4
ATOM      4  C   UNL A   1      41.290  25.583  25.890  1.00  0.00     0.202 C 
BRANCH   4   5
ATOM      5  C   UNL A   1      42.462  24.707  26.366  1.00  0.00     0.261 C 
BRANCH   5   6
ATOM      6  O   UNL A   1      42.191  23.279  26.376  1.00  0.00    -0.461 OA
BRANCH   6   7
ATOM      7  C   UNL A   1      41.606  22.757  27.491  1.00  0.00     0.344 C 
ATOM      8  O   UNL A   1      42.147  22.691  28.590  1.00  0.00    -0.248 OA
BRANCH   7   9
ATOM      9  C   UNL A   1      40.196  22.174  27.215  1.00  0.00     0.351 C 
BRANCH   9  10
ATOM     10  O   UNL A   1      39.765  21.817  25.904  1.00  0.00    -0.482 OA
BRANCH  10  11
ATOM     11  C   UNL A   1      38.436  21.841  25.552  1.00  0.00     0.120 A 
ATOM     12  C   UNL A   1      35.556  21.952  25.489  1.00  0.00    -0.024 A 
ATOM     13  C   UNL A   1      36.324  23.079  25.816  1.00  0.00     0.012 A 
ATOM     14  C   UNL A   1      36.268  20.820  25.052  1.00  0.00     0.012 A 
ATOM     15  C   UNL A   1      37.739  23.012  25.879  1.00  0.00     0.047 A 
ATOM     16  C   UNL A   1      37.692  20.767  25.069  1.00  0.00     0.047 A 
BRANCH  12  17
ATOM     17  C   UNL A   1      34.061  21.985  25.526  1.00  0.00     0.027 C 
ATOM     18  C   UNL A   1      32.908  25.603  22.669  1.00  0.00     0.156 C 
ATOM     19  N   UNL A   1      32.433  24.539  23.561  1.00  0.00    -0.286 N 
ATOM     20  C   UNL A   1      33.168  23.372  23.522  1.00  0.00     0.265 C 
ATOM     21  C   UNL A   1      31.173  24.513  24.159  1.00  0.00     0.205 C 
ATOM     22  O   UNL A   1      33.626  22.924  22.484  1.00  0.00    -0.268 OA
ATOM     23  C   UNL A   1      33.097  22.553  24.751  1.00  0.00     0.103 C 
ATOM     24  N   UNL A   1      30.801  23.378  24.858  1.00  0.00    -0.184 NA
ATOM     25  S   UNL A   1      30.050  25.771  24.007  1.00  0.00    -0.038 S 
ATOM     26  C   UNL A   1      31.679  22.478  25.123  1.00  0.00     0.226 C 
BRANCH  26  27
ATOM     27  O   UNL A   1      31.281  21.329  25.695  1.00  0.00    -0.493 OA
ATOM     28  H   UNL A   1      31.910  20.766  26.101  1.00  0.00     0.295 HD
ENDBRANCH  26  27
ENDBRANCH  12  17
ENDBRANCH  10  11
ENDBRANCH   9  10
ENDBRANCH   7   9
ENDBRANCH   6   7
ENDBRANCH   5   6
ENDBRANCH   4   5
ENDBRANCH   3   4
ENDBRANCH   2   3
ENDBRANCH   1   2
BRANCH   1  29
ATOM     29  O   UNL A   1      40.515  28.924  28.161  1.00  0.00    -0.377 OA
BRANCH  29  30
ATOM     30  C   UNL A   1      39.255  28.265  28.213  1.00  0.00     0.188 C 
BRANCH  30  31
ATOM     31  C   UNL A   1      38.091  29.248  28.300  1.00  0.00     0.188 C 
BRANCH  31  32
ATOM     32  O   UNL A   1      37.141  29.131  29.346  1.00  0.00    -0.376 OA
BRANCH  32  33
ATOM     33  C   UNL A   1      37.316  29.714  30.623  1.00  0.00     0.202 C 
BRANCH  33  34
ATOM     34  C   UNL A   1      37.271  28.920  31.921  1.00  0.00     0.261 C 
BRANCH  34  35
ATOM     35  O   UNL A   1      38.572  28.658  32.388  1.00  0.00    -0.460 OA
BRANCH  35  36
ATOM     36  C   UNL A   1      39.147  29.635  33.111  1.00  0.00     0.338 C 
ATOM     37  O   UNL A   1      38.641  30.642  33.596  1.00  0.00    -0.246 OA
BRANCH  36  38
ATOM     38  C   UNL A   1      40.553  29.439  32.778  1.00  0.00     0.060 A 
ATOM     39  C   UNL A   1      41.552  29.762  33.714  1.00  0.00     0.016 A 
ATOM     40  C   UNL A   1      40.811  28.654  31.658  1.00  0.00     0.016 A 
ATOM     41  C   UNL A   1      42.817  29.229  33.569  1.00  0.00     0.010 A 
ATOM     42  C   UNL A   1      42.082  28.145  31.495  1.00  0.00     0.010 A 
ATOM     43  C   UNL A   1      43.074  28.438  32.448  1.00  0.00    -0.014 A 
BRANCH  43  44
ATOM     44  C   UNL A   1      44.455  28.122  32.087  1.00  0.00     0.031 A 
ATOM     45  C   UNL A   1      45.049  26.942  32.784  1.00  0.00     0.074 A 
ATOM     46  C   UNL A   1      45.138  28.937  31.272  1.00  0.00     0.049 A 
ATOM     47  N   UNL A   1      46.289  26.557  32.837  1.00  0.00    -0.248 NA
ATOM     48  C   UNL A   1      44.114  26.100  33.560  1.00  0.00     0.031 C 
ATOM     49  C   UNL A   1      44.584  30.088  30.556  1.00  0.00     0.029 A 
ATOM     50  N   UNL A   1      46.462  28.937  30.945  1.00  0.00    -0.354 N 
ATOM     51  C   UNL A   1      46.290  25.449  33.675  1.00  0.00     0.074 A 
ATOM     52  C   UNL A   1      44.936  25.230  34.120  1.00  0.00     0.031 C 
ATOM     53  C   UNL A   1      45.578  30.704  29.890  1.00  0.00     0.029 A 
ATOM     54  C   UNL A   1      46.831  30.010  30.171  1.00  0.00     0.049 A 
ATOM     55  H   UNL A   1      47.092  28.237  31.234  1.00  0.00     0.167 HD
ATOM     56  C   UNL A   1      47.345  24.694  34.045  1.00  0.00     0.031 A 
ATOM     57  C   UNL A   1      48.059  30.387  29.775  1.00  0.00     0.031 A 
ATOM     58  C   UNL A   1      48.681  24.978  33.606  1.00  0.00     0.049 A 
ATOM     59  C   UNL A   1      49.225  29.542  30.218  1.00  0.00     0.074 A 
ATOM     60  C   UNL A   1      49.848  24.298  33.888  1.00  0.00     0.029 A 
ATOM     61  N   UNL A   1      49.018  26.049  32.787  1.00  0.00    -0.354 N 
ATOM     62  N   UNL A   1      49.223  28.478  30.989  1.00  0.00    -0.248 NA
ATOM     63  C   UNL A   1      50.551  29.940  29.736  1.00  0.00     0.031 C 
ATOM     64  C   UNL A   1      50.899  24.982  33.267  1.00  0.00     0.029 A 
ATOM     65  C   UNL A   1      50.378  26.058  32.559  1.00  0.00     0.049 A 
ATOM     66  H   UNL A   1      48.380  26.704  32.423  1.00  0.00     0.167 HD
ATOM     67  C   UNL A   1      50.544  28.060  31.066  1.00  0.00     0.074 A 
ATOM     68  C   UNL A   1      51.315  28.986  30.254  1.00  0.00     0.031 C 
ATOM     69  C   UNL A   1      51.083  27.011  31.737  1.00  0.00     0.031 A 
BRANCH  56  70
ATOM     70  C   UNL A   1      47.076  23.557  34.987  1.00  0.00    -0.014 A 
ATOM     71  C   UNL A   1      46.861  23.787  36.359  1.00  0.00     0.010 A 
ATOM     72  C   UNL A   1      47.082  22.237  34.507  1.00  0.00     0.010 A 
ATOM     73  C   UNL A   1      46.696  22.714  37.239  1.00  0.00     0.020 A 
ATOM     74  C   UNL A   1      46.890  21.162  35.379  1.00  0.00     0.020 A 
ATOM     75  C   UNL A   1      46.716  21.407  36.744  1.00  0.00     0.054 A 
BRANCH  75  76
ATOM     76  S   UNL A   1      46.483  20.033  37.903  1.00  0.00     0.124 S 
ATOM     77  O   UNL A   1      46.043  20.728  39.110  1.00  0.00    -0.237 OA
ATOM     78  O   UNL A   1      45.465  19.223  37.240  1.00  0.00    -0.237 OA
ATOM     79  O   UNL A   1      47.806  19.420  37.985  1.00  0.00    -0.744 OA
ENDBRANCH  75  76
ENDBRANCH  56  70
BRANCH  57  80
ATOM     80  C   UNL A   1      48.234  31.595  28.926  1.00  0.00    -0.014 A 
ATOM     81  C   UNL A   1      48.505  32.841  29.516  1.00  0.00     0.010 A 
ATOM     82  C   UNL A   1      48.176  31.504  27.522  1.00  0.00     0.010 A 
ATOM     83  C   UNL A   1      48.708  33.975  28.723  1.00  0.00     0.020 A 
ATOM     84  C   UNL A   1      48.400  32.632  26.724  1.00  0.00     0.020 A 
ATOM     85  C   UNL A   1      48.657  33.863  27.330  1.00  0.00     0.054 A 
BRANCH  85  86
ATOM     86  S   UNL A   1      48.991  35.333  26.321  1.00  0.00     0.124 S 
ATOM     87  O   UNL A   1      49.216  34.752  25.002  1.00  0.00    -0.237 OA
ATOM     88  O   UNL A   1      47.760  36.106  26.470  1.00  0.00    -0.237 OA
ATOM     89  O   UNL A   1      50.167  35.924  26.955  1.00  0.00    -0.744 OA
ENDBRANCH  85  86
ENDBRANCH  57  80
BRANCH  69  90
ATOM     90  C   UNL A   1      52.560  26.799  31.583  1.00  0.00    -0.014 A 
ATOM     91  C   UNL A   1      53.082  26.123  30.467  1.00  0.00     0.010 A 
ATOM     92  C   UNL A   1      53.434  27.350  32.536  1.00  0.00     0.010 A 
ATOM     93  C   UNL A   1      54.461  25.978  30.322  1.00  0.00     0.020 A 
ATOM     94  C   UNL A   1      54.814  27.230  32.380  1.00  0.00     0.020 A 
ATOM     95  C   UNL A   1      55.319  26.532  31.280  1.00  0.00     0.054 A 
BRANCH  95  96
ATOM     96  S   UNL A   1      57.107  26.375  31.044  1.00  0.00     0.124 S 
ATOM     97  O   UNL A   1      57.594  26.368  32.420  1.00  0.00    -0.237 OA
ATOM     98  O   UNL A   1      57.228  25.107  30.328  1.00  0.00    -0.237 OA
ATOM     99  O   UNL A   1      57.458  27.560  30.264  1.00  0.00    -0.744 OA
ENDBRANCH  95  96
ENDBRANCH  69  90
ENDBRANCH  43  44
ENDBRANCH  36  38
ENDBRANCH  35  36
ENDBRANCH  34  35
ENDBRANCH  33  34
ENDBRANCH  32  33
ENDBRANCH  31  32
ENDBRANCH  30  31
ENDBRANCH  29  30
ENDBRANCH   1  29
TORSDOF 27
ENDMDL
