MODEL 1
REMARK VINA RESULT:      -9.8      0.000      0.000
REMARK SMILES C[C@H](C(=O)OCCOCCOCCOCCOC(=O)c1ccc(-c2c3nc(c(-c4ccc(S(=O)(=O)[O-])cc4)c4ccc([nH]4)c(-c4ccc(S(=O)(=O)[O-])cc4)c4nc(c(-c5ccc(S(=O)(=O)[O-])cc5)c5ccc2[nH]5)C=C4)C=C3)cc1)N1C(=O)C[C@@H](N2C(=O)/C(=C/c3ccccc3)SC2=S)C1=O
REMARK SMILES IDX 11 1 10 2 9 3 8 4 7 5 6 6 5 7 3 8 4 9 2 10 1 11 80 12 81 13
REMARK SMILES IDX 99 14 82 15 83 16 84 17 100 18 85 19 86 20 97 21 87 22 88 23
REMARK SMILES IDX 96 24 98 25 89 26 90 27 91 28 95 29 92 30 94 31 93 32 12 33
REMARK SMILES IDX 13 34 14 35 15 36 16 37 17 38 18 39 19 40 20 41 21 42 79 43
REMARK SMILES IDX 22 44 78 45 23 46 24 47 25 48 72 49 26 50 77 51 71 52 73 53
REMARK SMILES IDX 27 54 76 55 70 56 69 57 28 59 58 60 39 61 57 62 40 63 43 64
REMARK SMILES IDX 56 65 74 66 41 67 42 68 55 70 75 71 44 72 29 73 30 74 38 75
REMARK SMILES IDX 31 76 37 77 32 78 33 79 34 80 35 81 36 82 59 83 60 84 68 85
REMARK SMILES IDX 61 86 67 87 62 88 63 89 64 90 65 91 66 92 45 93 46 94 54 95
REMARK SMILES IDX 47 96 53 97 48 98 49 99 50 100 51 101 52 102
REMARK H PARENT 73 58 43 69
REMARK Flexibility Score: inf
ROOT
ATOM      1  O   UNL A   1      32.529  31.545  26.935  1.00  0.00    -0.377 OA
ENDROOT
BRANCH   1   2
ATOM      2  C   UNL A   1      31.229  31.149  26.538  1.00  0.00     0.188 C 
BRANCH   2   3
ATOM      3  C   UNL A   1      30.663  31.997  25.400  1.00  0.00     0.188 C 
BRANCH   3   4
ATOM      4  O   UNL A   1      29.903  31.328  24.403  1.00  0.00    -0.376 OA
BRANCH   4   5
ATOM      5  C   UNL A   1      30.121  29.927  24.219  1.00  0.00     0.202 C 
BRANCH   5   6
ATOM      6  C   UNL A   1      29.796  29.291  22.851  1.00  0.00     0.261 C 
BRANCH   6   7
ATOM      7  O   UNL A   1      30.905  28.666  22.152  1.00  0.00    -0.462 OA
BRANCH   7   8
ATOM      8  C   UNL A   1      31.330  27.469  22.642  1.00  0.00     0.329 C 
ATOM      9  O   UNL A   1      30.574  26.584  23.038  1.00  0.00    -0.250 OA
BRANCH   8  10
ATOM     10  C   UNL A   1      32.846  27.236  22.564  1.00  0.00     0.200 C 
ATOM     11  C   UNL A   1      33.592  28.564  22.405  1.00  0.00     0.044 C 
BRANCH  10  12
ATOM     12  N   UNL A   1      33.457  26.345  23.552  1.00  0.00    -0.267 N 
ATOM     13  C   UNL A   1      33.384  26.651  24.884  1.00  0.00     0.232 C 
ATOM     14  C   UNL A   1      33.995  25.107  23.338  1.00  0.00     0.253 C 
ATOM     15  O   UNL A   1      32.941  27.685  25.362  1.00  0.00    -0.274 OA
ATOM     16  C   UNL A   1      33.861  25.498  25.711  1.00  0.00     0.136 C 
ATOM     17  C   UNL A   1      34.404  24.521  24.682  1.00  0.00     0.191 C 
ATOM     18  O   UNL A   1      34.064  24.492  22.283  1.00  0.00    -0.272 OA
BRANCH  17  19
ATOM     19  N   UNL A   1      33.898  23.143  24.816  1.00  0.00    -0.280 N 
ATOM     20  C   UNL A   1      34.746  22.087  24.526  1.00  0.00     0.266 C 
ATOM     21  C   UNL A   1      32.611  22.805  25.181  1.00  0.00     0.149 C 
ATOM     22  O   UNL A   1      35.893  22.189  24.111  1.00  0.00    -0.268 OA
ATOM     23  C   UNL A   1      34.068  20.786  24.760  1.00  0.00     0.081 C 
ATOM     24  S   UNL A   1      32.436  21.053  25.210  1.00  0.00    -0.054 SA
ATOM     25  S   UNL A   1      31.338  23.822  25.530  1.00  0.00    -0.052 S 
ATOM     26  C   UNL A   1      34.717  19.621  24.621  1.00  0.00     0.029 C 
BRANCH  26  27
ATOM     27  C   UNL A   1      34.137  18.279  24.736  1.00  0.00    -0.024 A 
ATOM     28  C   UNL A   1      32.764  18.117  24.955  1.00  0.00     0.008 A 
ATOM     29  C   UNL A   1      34.962  17.146  24.708  1.00  0.00     0.008 A 
ATOM     30  C   UNL A   1      32.223  16.839  25.127  1.00  0.00     0.001 A 
ATOM     31  C   UNL A   1      34.421  15.871  24.879  1.00  0.00     0.001 A 
ATOM     32  C   UNL A   1      33.051  15.718  25.089  1.00  0.00     0.000 A 
ENDBRANCH  26  27
ENDBRANCH  17  19
ENDBRANCH  10  12
ENDBRANCH   8  10
ENDBRANCH   7   8
ENDBRANCH   6   7
ENDBRANCH   5   6
ENDBRANCH   4   5
ENDBRANCH   3   4
ENDBRANCH   2   3
ENDBRANCH   1   2
BRANCH   1  33
ATOM     33  C   UNL A   1      33.431  30.532  27.371  1.00  0.00     0.188 C 
BRANCH  33  34
ATOM     34  C   UNL A   1      34.870  30.982  27.669  1.00  0.00     0.188 C 
BRANCH  34  35
ATOM     35  O   UNL A   1      35.152  32.387  27.737  1.00  0.00    -0.376 OA
BRANCH  35  36
ATOM     36  C   UNL A   1      36.033  32.882  28.743  1.00  0.00     0.202 C 
BRANCH  36  37
ATOM     37  C   UNL A   1      36.539  31.853  29.752  1.00  0.00     0.261 C 
BRANCH  37  38
ATOM     38  O   UNL A   1      37.774  31.252  29.347  1.00  0.00    -0.460 OA
BRANCH  38  39
ATOM     39  C   UNL A   1      37.779  29.897  29.383  1.00  0.00     0.338 C 
ATOM     40  O   UNL A   1      36.846  29.159  29.630  1.00  0.00    -0.246 OA
BRANCH  39  41
ATOM     41  C   UNL A   1      39.092  29.420  28.914  1.00  0.00     0.060 A 
ATOM     42  C   UNL A   1      40.070  29.114  29.870  1.00  0.00     0.016 A 
ATOM     43  C   UNL A   1      39.374  29.345  27.550  1.00  0.00     0.016 A 
ATOM     44  C   UNL A   1      41.355  28.776  29.462  1.00  0.00     0.010 A 
ATOM     45  C   UNL A   1      40.667  29.029  27.141  1.00  0.00     0.010 A 
ATOM     46  C   UNL A   1      41.668  28.789  28.098  1.00  0.00    -0.014 A 
BRANCH  46  47
ATOM     47  C   UNL A   1      43.083  28.762  27.679  1.00  0.00     0.031 A 
ATOM     48  C   UNL A   1      43.629  27.486  27.105  1.00  0.00     0.074 A 
ATOM     49  C   UNL A   1      43.852  29.857  27.799  1.00  0.00     0.049 A 
ATOM     50  N   UNL A   1      44.848  27.203  26.731  1.00  0.00    -0.248 NA
ATOM     51  C   UNL A   1      42.672  26.378  26.936  1.00  0.00     0.031 C 
ATOM     52  C   UNL A   1      43.402  31.159  28.288  1.00  0.00     0.029 A 
ATOM     53  N   UNL A   1      45.181  30.038  27.521  1.00  0.00    -0.354 N 
ATOM     54  C   UNL A   1      44.809  25.881  26.301  1.00  0.00     0.074 A 
ATOM     55  C   UNL A   1      43.455  25.411  26.482  1.00  0.00     0.031 C 
ATOM     56  C   UNL A   1      44.446  32.006  28.286  1.00  0.00     0.029 A 
ATOM     57  C   UNL A   1      45.640  31.293  27.837  1.00  0.00     0.049 A 
ATOM     58  H   UNL A   1      45.752  29.336  27.133  1.00  0.00     0.167 HD
ATOM     59  C   UNL A   1      45.817  25.130  25.799  1.00  0.00     0.031 A 
ATOM     60  C   UNL A   1      46.888  31.794  27.791  1.00  0.00     0.031 A 
ATOM     61  C   UNL A   1      47.164  25.610  25.640  1.00  0.00     0.049 A 
ATOM     62  C   UNL A   1      48.010  30.913  27.305  1.00  0.00     0.074 A 
ATOM     63  C   UNL A   1      48.260  24.942  25.127  1.00  0.00     0.029 A 
ATOM     64  N   UNL A   1      47.599  26.876  26.004  1.00  0.00    -0.354 N 
ATOM     65  N   UNL A   1      47.960  29.673  26.878  1.00  0.00    -0.248 NA
ATOM     66  C   UNL A   1      49.355  31.503  27.289  1.00  0.00     0.031 C 
ATOM     67  C   UNL A   1      49.373  25.780  25.245  1.00  0.00     0.029 A 
ATOM     68  C   UNL A   1      48.955  26.997  25.759  1.00  0.00     0.049 A 
ATOM     69  H   UNL A   1      47.028  27.583  26.382  1.00  0.00     0.167 HD
ATOM     70  C   UNL A   1      49.260  29.346  26.509  1.00  0.00     0.074 A 
ATOM     71  C   UNL A   1      50.070  30.523  26.753  1.00  0.00     0.031 C 
ATOM     72  C   UNL A   1      49.743  28.180  26.010  1.00  0.00     0.031 A 
BRANCH  59  73
ATOM     73  C   UNL A   1      45.511  23.701  25.435  1.00  0.00    -0.014 A 
ATOM     74  C   UNL A   1      45.522  22.677  26.401  1.00  0.00     0.010 A 
ATOM     75  C   UNL A   1      45.170  23.383  24.109  1.00  0.00     0.010 A 
ATOM     76  C   UNL A   1      45.234  21.359  26.037  1.00  0.00     0.020 A 
ATOM     77  C   UNL A   1      44.850  22.073  23.746  1.00  0.00     0.020 A 
ATOM     78  C   UNL A   1      44.899  21.065  24.711  1.00  0.00     0.054 A 
BRANCH  78  79
ATOM     79  S   UNL A   1      44.500  19.351  24.274  1.00  0.00     0.124 S 
ATOM     80  O   UNL A   1      45.574  18.613  24.935  1.00  0.00    -0.237 OA
ATOM     81  O   UNL A   1      43.170  19.176  24.852  1.00  0.00    -0.237 OA
ATOM     82  O   UNL A   1      44.548  19.343  22.814  1.00  0.00    -0.744 OA
ENDBRANCH  78  79
ENDBRANCH  59  73
BRANCH  60  83
ATOM     83  C   UNL A   1      47.146  33.192  28.232  1.00  0.00    -0.014 A 
ATOM     84  C   UNL A   1      47.058  34.258  27.321  1.00  0.00     0.010 A 
ATOM     85  C   UNL A   1      47.476  33.464  29.573  1.00  0.00     0.010 A 
ATOM     86  C   UNL A   1      47.315  35.568  27.737  1.00  0.00     0.020 A 
ATOM     87  C   UNL A   1      47.701  34.775  30.000  1.00  0.00     0.020 A 
ATOM     88  C   UNL A   1      47.630  35.818  29.075  1.00  0.00     0.054 A 
BRANCH  88  89
ATOM     89  S   UNL A   1      47.911  37.532  29.600  1.00  0.00     0.124 S 
ATOM     90  O   UNL A   1      46.645  37.863  30.246  1.00  0.00    -0.237 OA
ATOM     91  O   UNL A   1      49.062  37.401  30.489  1.00  0.00    -0.237 OA
ATOM     92  O   UNL A   1      48.177  38.234  28.346  1.00  0.00    -0.744 OA
ENDBRANCH  88  89
ENDBRANCH  60  83
BRANCH  72  93
ATOM     93  C   UNL A   1      51.205  28.131  25.649  1.00  0.00    -0.014 A 
ATOM     94  C   UNL A   1      52.180  27.740  26.583  1.00  0.00     0.010 A 
ATOM     95  C   UNL A   1      51.598  28.424  24.330  1.00  0.00     0.010 A 
ATOM     96  C   UNL A   1      53.526  27.678  26.213  1.00  0.00     0.020 A 
ATOM     97  C   UNL A   1      52.938  28.330  23.947  1.00  0.00     0.020 A 
ATOM     98  C   UNL A   1      53.896  27.971  24.896  1.00  0.00     0.054 A 
BRANCH  98  99
ATOM     99  S   UNL A   1      55.644  27.839  24.433  1.00  0.00     0.124 S 
ATOM    100  O   UNL A   1      55.580  26.999  23.239  1.00  0.00    -0.237 OA
ATOM    101  O   UNL A   1      56.019  29.232  24.202  1.00  0.00    -0.237 OA
ATOM    102  O   UNL A   1      56.267  27.216  25.599  1.00  0.00    -0.744 OA
ENDBRANCH  98  99
ENDBRANCH  72  93
ENDBRANCH  46  47
ENDBRANCH  39  41
ENDBRANCH  38  39
ENDBRANCH  37  38
ENDBRANCH  36  37
ENDBRANCH  35  36
ENDBRANCH  34  35
ENDBRANCH  33  34
ENDBRANCH   1  33
TORSDOF 26
ENDMDL
MODEL 2
REMARK VINA RESULT:      -9.2      6.467     11.447
REMARK SMILES C[C@H](C(=O)OCCOCCOCCOCCOC(=O)c1ccc(-c2c3nc(c(-c4ccc(S(=O)(=O)[O-])cc4)c4ccc([nH]4)c(-c4ccc(S(=O)(=O)[O-])cc4)c4nc(c(-c5ccc(S(=O)(=O)[O-])cc5)c5ccc2[nH]5)C=C4)C=C3)cc1)N1C(=O)C[C@@H](N2C(=O)/C(=C/c3ccccc3)SC2=S)C1=O
REMARK SMILES IDX 11 1 10 2 9 3 8 4 7 5 6 6 5 7 3 8 4 9 2 10 1 11 80 12 81 13
REMARK SMILES IDX 99 14 82 15 83 16 84 17 100 18 85 19 86 20 97 21 87 22 88 23
REMARK SMILES IDX 96 24 98 25 89 26 90 27 91 28 95 29 92 30 94 31 93 32 12 33
REMARK SMILES IDX 13 34 14 35 15 36 16 37 17 38 18 39 19 40 20 41 21 42 79 43
REMARK SMILES IDX 22 44 78 45 23 46 24 47 25 48 72 49 26 50 77 51 71 52 73 53
REMARK SMILES IDX 27 54 76 55 70 56 69 57 28 59 58 60 39 61 57 62 40 63 43 64
REMARK SMILES IDX 56 65 74 66 41 67 42 68 55 70 75 71 44 72 29 73 30 74 38 75
REMARK SMILES IDX 31 76 37 77 32 78 33 79 34 80 35 81 36 82 59 83 60 84 68 85
REMARK SMILES IDX 61 86 67 87 62 88 63 89 64 90 65 91 66 92 45 93 46 94 54 95
REMARK SMILES IDX 47 96 53 97 48 98 49 99 50 100 51 101 52 102
REMARK H PARENT 73 58 43 69
REMARK Flexibility Score: inf
ROOT
ATOM      1  O   UNL A   1      36.319  30.415  29.604  1.00  0.00    -0.377 OA
ENDROOT
BRANCH   1   2
ATOM      2  C   UNL A   1      36.241  29.874  28.297  1.00  0.00     0.188 C 
BRANCH   2   3
ATOM      3  C   UNL A   1      35.200  30.570  27.421  1.00  0.00     0.188 C 
BRANCH   3   4
ATOM      4  O   UNL A   1      33.854  30.131  27.534  1.00  0.00    -0.376 OA
BRANCH   4   5
ATOM      5  C   UNL A   1      33.432  29.037  26.717  1.00  0.00     0.202 C 
BRANCH   5   6
ATOM      6  C   UNL A   1      32.004  29.043  26.132  1.00  0.00     0.261 C 
BRANCH   6   7
ATOM      7  O   UNL A   1      31.642  27.905  25.305  1.00  0.00    -0.462 OA
BRANCH   7   8
ATOM      8  C   UNL A   1      31.036  26.866  25.941  1.00  0.00     0.329 C 
ATOM      9  O   UNL A   1      30.977  26.750  27.163  1.00  0.00    -0.250 OA
BRANCH   8  10
ATOM     10  C   UNL A   1      30.310  25.875  25.019  1.00  0.00     0.200 C 
ATOM     11  C   UNL A   1      29.399  26.616  24.035  1.00  0.00     0.044 C 
BRANCH  10  12
ATOM     12  N   UNL A   1      31.100  24.816  24.388  1.00  0.00    -0.267 N 
ATOM     13  C   UNL A   1      31.554  24.975  23.107  1.00  0.00     0.232 C 
ATOM     14  C   UNL A   1      31.603  23.689  24.976  1.00  0.00     0.253 C 
ATOM     15  O   UNL A   1      31.274  25.894  22.351  1.00  0.00    -0.274 OA
ATOM     16  C   UNL A   1      32.523  23.888  22.759  1.00  0.00     0.136 C 
ATOM     17  C   UNL A   1      32.450  22.949  23.950  1.00  0.00     0.191 C 
ATOM     18  O   UNL A   1      31.503  23.345  26.146  1.00  0.00    -0.272 OA
BRANCH  17  19
ATOM     19  N   UNL A   1      33.756  22.587  24.530  1.00  0.00    -0.280 N 
ATOM     20  C   UNL A   1      34.709  23.577  24.706  1.00  0.00     0.266 C 
ATOM     21  C   UNL A   1      34.134  21.311  24.892  1.00  0.00     0.149 C 
ATOM     22  O   UNL A   1      34.587  24.749  24.372  1.00  0.00    -0.268 OA
ATOM     23  C   UNL A   1      35.934  23.025  25.338  1.00  0.00     0.081 C 
ATOM     24  S   UNL A   1      35.774  21.329  25.535  1.00  0.00    -0.054 SA
ATOM     25  S   UNL A   1      33.261  19.898  24.752  1.00  0.00    -0.052 S 
ATOM     26  C   UNL A   1      36.965  23.812  25.678  1.00  0.00     0.029 C 
BRANCH  26  27
ATOM     27  C   UNL A   1      38.255  23.375  26.222  1.00  0.00    -0.024 A 
ATOM     28  C   UNL A   1      38.734  22.086  25.962  1.00  0.00     0.008 A 
ATOM     29  C   UNL A   1      38.984  24.214  27.075  1.00  0.00     0.008 A 
ATOM     30  C   UNL A   1      39.933  21.651  26.534  1.00  0.00     0.001 A 
ATOM     31  C   UNL A   1      40.182  23.779  27.644  1.00  0.00     0.001 A 
ATOM     32  C   UNL A   1      40.656  22.497  27.373  1.00  0.00     0.000 A 
ENDBRANCH  26  27
ENDBRANCH  17  19
ENDBRANCH  10  12
ENDBRANCH   8  10
ENDBRANCH   7   8
ENDBRANCH   6   7
ENDBRANCH   5   6
ENDBRANCH   4   5
ENDBRANCH   3   4
ENDBRANCH   2   3
ENDBRANCH   1   2
BRANCH   1  33
ATOM     33  C   UNL A   1      37.473  31.182  29.940  1.00  0.00     0.188 C 
BRANCH  33  34
ATOM     34  C   UNL A   1      37.567  32.582  29.312  1.00  0.00     0.188 C 
BRANCH  34  35
ATOM     35  O   UNL A   1      36.705  33.617  29.806  1.00  0.00    -0.376 OA
BRANCH  35  36
ATOM     36  C   UNL A   1      35.385  33.745  29.280  1.00  0.00     0.202 C 
BRANCH  36  37
ATOM     37  C   UNL A   1      34.252  33.700  30.304  1.00  0.00     0.261 C 
BRANCH  37  38
ATOM     38  O   UNL A   1      34.410  32.636  31.248  1.00  0.00    -0.460 OA
BRANCH  38  39
ATOM     39  C   UNL A   1      34.226  32.998  32.541  1.00  0.00     0.338 C 
ATOM     40  O   UNL A   1      33.200  32.933  33.189  1.00  0.00    -0.246 OA
BRANCH  39  41
ATOM     41  C   UNL A   1      35.533  33.354  33.120  1.00  0.00     0.060 A 
ATOM     42  C   UNL A   1      35.865  34.711  33.230  1.00  0.00     0.016 A 
ATOM     43  C   UNL A   1      36.443  32.360  33.481  1.00  0.00     0.016 A 
ATOM     44  C   UNL A   1      37.135  35.080  33.660  1.00  0.00     0.010 A 
ATOM     45  C   UNL A   1      37.722  32.729  33.890  1.00  0.00     0.010 A 
ATOM     46  C   UNL A   1      38.082  34.087  33.935  1.00  0.00    -0.014 A 
BRANCH  46  47
ATOM     47  C   UNL A   1      39.504  34.459  34.065  1.00  0.00     0.031 A 
ATOM     48  C   UNL A   1      39.996  34.925  35.406  1.00  0.00     0.074 A 
ATOM     49  C   UNL A   1      40.333  34.370  33.012  1.00  0.00     0.049 A 
ATOM     50  N   UNL A   1      41.179  35.364  35.745  1.00  0.00    -0.248 NA
ATOM     51  C   UNL A   1      39.022  34.896  36.511  1.00  0.00     0.031 C 
ATOM     52  C   UNL A   1      39.967  33.875  31.685  1.00  0.00     0.029 A 
ATOM     53  N   UNL A   1      41.657  34.702  32.898  1.00  0.00    -0.354 N 
ATOM     54  C   UNL A   1      41.086  35.682  37.095  1.00  0.00     0.074 A 
ATOM     55  C   UNL A   1      39.728  35.410  37.507  1.00  0.00     0.031 C 
ATOM     56  C   UNL A   1      41.043  33.947  30.884  1.00  0.00     0.029 A 
ATOM     57  C   UNL A   1      42.157  34.531  31.630  1.00  0.00     0.049 A 
ATOM     58  H   UNL A   1      42.197  35.033  33.651  1.00  0.00     0.167 HD
ATOM     59  C   UNL A   1      42.052  36.158  37.916  1.00  0.00     0.031 A 
ATOM     60  C   UNL A   1      43.368  34.837  31.129  1.00  0.00     0.031 A 
ATOM     61  C   UNL A   1      43.395  36.439  37.484  1.00  0.00     0.049 A 
ATOM     62  C   UNL A   1      44.402  35.444  32.043  1.00  0.00     0.074 A 
ATOM     63  C   UNL A   1      44.458  36.908  38.233  1.00  0.00     0.029 A 
ATOM     64  N   UNL A   1      43.855  36.287  36.184  1.00  0.00    -0.354 N 
ATOM     65  N   UNL A   1      44.312  35.718  33.324  1.00  0.00    -0.248 NA
ATOM     66  C   UNL A   1      45.701  35.774  31.444  1.00  0.00     0.031 C 
ATOM     67  C   UNL A   1      45.541  37.105  37.372  1.00  0.00     0.029 A 
ATOM     68  C   UNL A   1      45.177  36.686  36.102  1.00  0.00     0.049 A 
ATOM     69  H   UNL A   1      43.320  35.946  35.432  1.00  0.00     0.167 HD
ATOM     70  C   UNL A   1      45.556  36.221  33.691  1.00  0.00     0.074 A 
ATOM     71  C   UNL A   1      46.381  36.200  32.500  1.00  0.00     0.031 C 
ATOM     72  C   UNL A   1      45.981  36.657  34.904  1.00  0.00     0.031 A 
BRANCH  59  73
ATOM     73  C   UNL A   1      41.674  36.452  39.344  1.00  0.00    -0.014 A 
ATOM     74  C   UNL A   1      41.791  35.476  40.351  1.00  0.00     0.010 A 
ATOM     75  C   UNL A   1      41.227  37.739  39.690  1.00  0.00     0.010 A 
ATOM     76  C   UNL A   1      41.434  35.774  41.669  1.00  0.00     0.020 A 
ATOM     77  C   UNL A   1      40.899  38.051  41.012  1.00  0.00     0.020 A 
ATOM     78  C   UNL A   1      40.991  37.061  41.991  1.00  0.00     0.054 A 
BRANCH  78  79
ATOM     79  S   UNL A   1      40.564  37.427  43.715  1.00  0.00     0.124 S 
ATOM     80  O   UNL A   1      41.542  36.625  44.446  1.00  0.00    -0.237 OA
ATOM     81  O   UNL A   1      40.755  38.873  43.790  1.00  0.00    -0.237 OA
ATOM     82  O   UNL A   1      39.179  36.978  43.835  1.00  0.00    -0.744 OA
ENDBRANCH  78  79
ENDBRANCH  59  73
BRANCH  60  83
ATOM     83  C   UNL A   1      43.662  34.593  29.691  1.00  0.00    -0.014 A 
ATOM     84  C   UNL A   1      44.357  33.439  29.289  1.00  0.00     0.010 A 
ATOM     85  C   UNL A   1      43.243  35.514  28.714  1.00  0.00     0.010 A 
ATOM     86  C   UNL A   1      44.643  33.221  27.938  1.00  0.00     0.020 A 
ATOM     87  C   UNL A   1      43.499  35.284  27.360  1.00  0.00     0.020 A 
ATOM     88  C   UNL A   1      44.209  34.143  26.982  1.00  0.00     0.054 A 
BRANCH  88  89
ATOM     89  S   UNL A   1      44.551  33.812  25.232  1.00  0.00     0.124 S 
ATOM     90  O   UNL A   1      43.396  34.418  24.577  1.00  0.00    -0.237 OA
ATOM     91  O   UNL A   1      45.827  34.493  25.029  1.00  0.00    -0.237 OA
ATOM     92  O   UNL A   1      44.615  32.353  25.166  1.00  0.00    -0.744 OA
ENDBRANCH  88  89
ENDBRANCH  60  83
BRANCH  72  93
ATOM     93  C   UNL A   1      47.415  37.104  35.019  1.00  0.00    -0.014 A 
ATOM     94  C   UNL A   1      48.448  36.197  35.311  1.00  0.00     0.010 A 
ATOM     95  C   UNL A   1      47.737  38.452  34.768  1.00  0.00     0.010 A 
ATOM     96  C   UNL A   1      49.772  36.635  35.385  1.00  0.00     0.020 A 
ATOM     97  C   UNL A   1      49.063  38.887  34.807  1.00  0.00     0.020 A 
ATOM     98  C   UNL A   1      50.072  37.978  35.130  1.00  0.00     0.054 A 
BRANCH  98  99
ATOM     99  S   UNL A   1      51.804  38.510  35.190  1.00  0.00     0.124 S 
ATOM    100  O   UNL A   1      52.420  37.456  35.992  1.00  0.00    -0.237 OA
ATOM    101  O   UNL A   1      52.181  38.528  33.778  1.00  0.00    -0.237 OA
ATOM    102  O   UNL A   1      51.743  39.823  35.829  1.00  0.00    -0.744 OA
ENDBRANCH  98  99
ENDBRANCH  72  93
ENDBRANCH  46  47
ENDBRANCH  39  41
ENDBRANCH  38  39
ENDBRANCH  37  38
ENDBRANCH  36  37
ENDBRANCH  35  36
ENDBRANCH  34  35
ENDBRANCH  33  34
ENDBRANCH   1  33
TORSDOF 26
ENDMDL
MODEL 3
REMARK VINA RESULT:      -9.2      2.022      7.848
REMARK SMILES C[C@H](C(=O)OCCOCCOCCOCCOC(=O)c1ccc(-c2c3nc(c(-c4ccc(S(=O)(=O)[O-])cc4)c4ccc([nH]4)c(-c4ccc(S(=O)(=O)[O-])cc4)c4nc(c(-c5ccc(S(=O)(=O)[O-])cc5)c5ccc2[nH]5)C=C4)C=C3)cc1)N1C(=O)C[C@@H](N2C(=O)/C(=C/c3ccccc3)SC2=S)C1=O
REMARK SMILES IDX 11 1 10 2 9 3 8 4 7 5 6 6 5 7 3 8 4 9 2 10 1 11 80 12 81 13
REMARK SMILES IDX 99 14 82 15 83 16 84 17 100 18 85 19 86 20 97 21 87 22 88 23
REMARK SMILES IDX 96 24 98 25 89 26 90 27 91 28 95 29 92 30 94 31 93 32 12 33
REMARK SMILES IDX 13 34 14 35 15 36 16 37 17 38 18 39 19 40 20 41 21 42 79 43
REMARK SMILES IDX 22 44 78 45 23 46 24 47 25 48 72 49 26 50 77 51 71 52 73 53
REMARK SMILES IDX 27 54 76 55 70 56 69 57 28 59 58 60 39 61 57 62 40 63 43 64
REMARK SMILES IDX 56 65 74 66 41 67 42 68 55 70 75 71 44 72 29 73 30 74 38 75
REMARK SMILES IDX 31 76 37 77 32 78 33 79 34 80 35 81 36 82 59 83 60 84 68 85
REMARK SMILES IDX 61 86 67 87 62 88 63 89 64 90 65 91 66 92 45 93 46 94 54 95
REMARK SMILES IDX 47 96 53 97 48 98 49 99 50 100 51 101 52 102
REMARK H PARENT 73 58 43 69
REMARK Flexibility Score: inf
ROOT
ATOM      1  O   UNL A   1      33.015  30.467  27.608  1.00  0.00    -0.377 OA
ENDROOT
BRANCH   1   2
ATOM      2  C   UNL A   1      31.957  29.873  26.877  1.00  0.00     0.188 C 
BRANCH   2   3
ATOM      3  C   UNL A   1      31.859  30.382  25.440  1.00  0.00     0.188 C 
BRANCH   3   4
ATOM      4  O   UNL A   1      30.682  30.058  24.712  1.00  0.00    -0.376 OA
BRANCH   4   5
ATOM      5  C   UNL A   1      30.452  28.687  24.382  1.00  0.00     0.202 C 
BRANCH   5   6
ATOM      6  C   UNL A   1      29.956  28.329  22.965  1.00  0.00     0.261 C 
BRANCH   6   7
ATOM      7  O   UNL A   1      30.967  27.880  22.023  1.00  0.00    -0.462 OA
BRANCH   7   8
ATOM      8  C   UNL A   1      31.549  26.680  22.291  1.00  0.00     0.329 C 
ATOM      9  O   UNL A   1      30.937  25.614  22.332  1.00  0.00    -0.250 OA
BRANCH   8  10
ATOM     10  C   UNL A   1      33.079  26.716  22.429  1.00  0.00     0.200 C 
ATOM     11  C   UNL A   1      33.579  28.159  22.548  1.00  0.00     0.044 C 
BRANCH  10  12
ATOM     12  N   UNL A   1      33.704  25.807  23.391  1.00  0.00    -0.267 N 
ATOM     13  C   UNL A   1      33.720  26.127  24.721  1.00  0.00     0.232 C 
ATOM     14  C   UNL A   1      34.173  24.544  23.160  1.00  0.00     0.253 C 
ATOM     15  O   UNL A   1      33.351  27.184  25.213  1.00  0.00    -0.274 OA
ATOM     16  C   UNL A   1      34.192  24.961  25.533  1.00  0.00     0.136 C 
ATOM     17  C   UNL A   1      34.631  23.951  24.487  1.00  0.00     0.191 C 
ATOM     18  O   UNL A   1      34.156  23.917  22.110  1.00  0.00    -0.272 OA
BRANCH  17  19
ATOM     19  N   UNL A   1      34.073  22.599  24.663  1.00  0.00    -0.280 N 
ATOM     20  C   UNL A   1      34.920  21.506  24.569  1.00  0.00     0.266 C 
ATOM     21  C   UNL A   1      32.741  22.316  24.887  1.00  0.00     0.149 C 
ATOM     22  O   UNL A   1      36.113  21.552  24.298  1.00  0.00    -0.268 OA
ATOM     23  C   UNL A   1      34.180  20.242  24.817  1.00  0.00     0.081 C 
ATOM     24  S   UNL A   1      32.512  20.576  25.032  1.00  0.00    -0.054 SA
ATOM     25  S   UNL A   1      31.464  23.382  24.988  1.00  0.00    -0.052 S 
ATOM     26  C   UNL A   1      34.807  19.058  24.855  1.00  0.00     0.029 C 
BRANCH  26  27
ATOM     27  C   UNL A   1      34.178  17.741  25.001  1.00  0.00    -0.024 A 
ATOM     28  C   UNL A   1      32.892  17.626  25.541  1.00  0.00     0.008 A 
ATOM     29  C   UNL A   1      34.889  16.577  24.677  1.00  0.00     0.008 A 
ATOM     30  C   UNL A   1      32.321  16.365  25.738  1.00  0.00     0.001 A 
ATOM     31  C   UNL A   1      34.317  15.320  24.872  1.00  0.00     0.001 A 
ATOM     32  C   UNL A   1      33.032  15.214  25.403  1.00  0.00     0.000 A 
ENDBRANCH  26  27
ENDBRANCH  17  19
ENDBRANCH  10  12
ENDBRANCH   8  10
ENDBRANCH   7   8
ENDBRANCH   6   7
ENDBRANCH   5   6
ENDBRANCH   4   5
ENDBRANCH   3   4
ENDBRANCH   2   3
ENDBRANCH   1   2
BRANCH   1  33
ATOM     33  C   UNL A   1      34.313  29.892  27.489  1.00  0.00     0.188 C 
BRANCH  33  34
ATOM     34  C   UNL A   1      35.496  30.874  27.482  1.00  0.00     0.188 C 
BRANCH  34  35
ATOM     35  O   UNL A   1      36.441  30.820  28.561  1.00  0.00    -0.376 OA
BRANCH  35  36
ATOM     36  C   UNL A   1      36.354  29.771  29.523  1.00  0.00     0.202 C 
BRANCH  36  37
ATOM     37  C   UNL A   1      36.556  30.183  30.980  1.00  0.00     0.261 C 
BRANCH  37  38
ATOM     38  O   UNL A   1      36.939  31.556  31.112  1.00  0.00    -0.460 OA
BRANCH  38  39
ATOM     39  C   UNL A   1      37.732  31.819  32.179  1.00  0.00     0.338 C 
ATOM     40  O   UNL A   1      37.384  32.098  33.309  1.00  0.00    -0.246 OA
BRANCH  39  41
ATOM     41  C   UNL A   1      39.131  31.560  31.799  1.00  0.00     0.060 A 
ATOM     42  C   UNL A   1      39.545  31.904  30.505  1.00  0.00     0.016 A 
ATOM     43  C   UNL A   1      40.002  30.924  32.685  1.00  0.00     0.016 A 
ATOM     44  C   UNL A   1      40.822  31.565  30.073  1.00  0.00     0.010 A 
ATOM     45  C   UNL A   1      41.273  30.565  32.245  1.00  0.00     0.010 A 
ATOM     46  C   UNL A   1      41.667  30.845  30.926  1.00  0.00    -0.014 A 
BRANCH  46  47
ATOM     47  C   UNL A   1      42.874  30.201  30.374  1.00  0.00     0.031 A 
ATOM     48  C   UNL A   1      44.156  30.984  30.366  1.00  0.00     0.074 A 
ATOM     49  C   UNL A   1      42.824  28.943  29.905  1.00  0.00     0.049 A 
ATOM     50  N   UNL A   1      45.322  30.656  29.877  1.00  0.00    -0.248 NA
ATOM     51  C   UNL A   1      44.116  32.319  30.989  1.00  0.00     0.031 C 
ATOM     52  C   UNL A   1      41.644  28.079  29.921  1.00  0.00     0.029 A 
ATOM     53  N   UNL A   1      43.796  28.180  29.315  1.00  0.00    -0.354 N 
ATOM     54  C   UNL A   1      46.148  31.748  30.116  1.00  0.00     0.074 A 
ATOM     55  C   UNL A   1      45.346  32.757  30.769  1.00  0.00     0.031 C 
ATOM     56  C   UNL A   1      41.961  26.903  29.355  1.00  0.00     0.029 A 
ATOM     57  C   UNL A   1      43.350  26.949  28.900  1.00  0.00     0.049 A 
ATOM     58  H   UNL A   1      44.725  28.484  29.200  1.00  0.00     0.167 HD
ATOM     59  C   UNL A   1      47.459  31.893  29.814  1.00  0.00     0.031 A 
ATOM     60  C   UNL A   1      43.987  25.986  28.209  1.00  0.00     0.031 A 
ATOM     61  C   UNL A   1      48.239  30.884  29.149  1.00  0.00     0.049 A 
ATOM     62  C   UNL A   1      45.425  26.203  27.812  1.00  0.00     0.074 A 
ATOM     63  C   UNL A   1      49.579  30.917  28.809  1.00  0.00     0.029 A 
ATOM     64  N   UNL A   1      47.743  29.664  28.711  1.00  0.00    -0.354 N 
ATOM     65  N   UNL A   1      46.204  27.230  28.063  1.00  0.00    -0.248 NA
ATOM     66  C   UNL A   1      46.069  25.129  27.047  1.00  0.00     0.031 C 
ATOM     67  C   UNL A   1      49.876  29.746  28.105  1.00  0.00     0.029 A 
ATOM     68  C   UNL A   1      48.742  28.950  28.074  1.00  0.00     0.049 A 
ATOM     69  H   UNL A   1      46.817  29.353  28.835  1.00  0.00     0.167 HD
ATOM     70  C   UNL A   1      47.442  26.908  27.515  1.00  0.00     0.074 A 
ATOM     71  C   UNL A   1      47.308  25.589  26.933  1.00  0.00     0.031 C 
ATOM     72  C   UNL A   1      48.587  27.636  27.499  1.00  0.00     0.031 A 
BRANCH  59  73
ATOM     73  C   UNL A   1      48.115  33.205  30.156  1.00  0.00    -0.014 A 
ATOM     74  C   UNL A   1      48.646  33.450  31.437  1.00  0.00     0.010 A 
ATOM     75  C   UNL A   1      48.234  34.197  29.167  1.00  0.00     0.010 A 
ATOM     76  C   UNL A   1      49.249  34.677  31.729  1.00  0.00     0.020 A 
ATOM     77  C   UNL A   1      48.865  35.413  29.445  1.00  0.00     0.020 A 
ATOM     78  C   UNL A   1      49.356  35.650  30.731  1.00  0.00     0.054 A 
BRANCH  78  79
ATOM     79  S   UNL A   1      50.172  37.220  31.130  1.00  0.00     0.124 S 
ATOM     80  O   UNL A   1      51.523  36.780  31.469  1.00  0.00    -0.237 OA
ATOM     81  O   UNL A   1      50.050  37.968  29.882  1.00  0.00    -0.237 OA
ATOM     82  O   UNL A   1      49.391  37.745  32.247  1.00  0.00    -0.744 OA
ENDBRANCH  78  79
ENDBRANCH  59  73
BRANCH  60  83
ATOM     83  C   UNL A   1      43.267  24.739  27.834  1.00  0.00    -0.014 A 
ATOM     84  C   UNL A   1      42.593  24.643  26.604  1.00  0.00     0.010 A 
ATOM     85  C   UNL A   1      43.257  23.635  28.707  1.00  0.00     0.010 A 
ATOM     86  C   UNL A   1      41.907  23.473  26.263  1.00  0.00     0.020 A 
ATOM     87  C   UNL A   1      42.599  22.454  28.356  1.00  0.00     0.020 A 
ATOM     88  C   UNL A   1      41.918  22.385  27.139  1.00  0.00     0.054 A 
BRANCH  88  89
ATOM     89  S   UNL A   1      41.061  20.863  26.651  1.00  0.00     0.124 S 
ATOM     90  O   UNL A   1      40.967  20.147  27.919  1.00  0.00    -0.237 OA
ATOM     91  O   UNL A   1      39.802  21.373  26.114  1.00  0.00    -0.237 OA
ATOM     92  O   UNL A   1      41.957  20.269  25.660  1.00  0.00    -0.744 OA
ENDBRANCH  88  89
ENDBRANCH  60  83
BRANCH  72  93
ATOM     93  C   UNL A   1      49.802  27.004  26.871  1.00  0.00    -0.014 A 
ATOM     94  C   UNL A   1      50.602  27.704  25.952  1.00  0.00     0.010 A 
ATOM     95  C   UNL A   1      50.181  25.705  27.259  1.00  0.00     0.010 A 
ATOM     96  C   UNL A   1      51.739  27.103  25.404  1.00  0.00     0.020 A 
ATOM     97  C   UNL A   1      51.335  25.114  26.740  1.00  0.00     0.020 A 
ATOM     98  C   UNL A   1      52.100  25.812  25.804  1.00  0.00     0.054 A 
BRANCH  98  99
ATOM     99  S   UNL A   1      53.604  25.073  25.112  1.00  0.00     0.124 S 
ATOM    100  O   UNL A   1      54.625  25.523  26.054  1.00  0.00    -0.237 OA
ATOM    101  O   UNL A   1      53.303  23.644  25.147  1.00  0.00    -0.237 OA
ATOM    102  O   UNL A   1      53.692  25.654  23.774  1.00  0.00    -0.744 OA
ENDBRANCH  98  99
ENDBRANCH  72  93
ENDBRANCH  46  47
ENDBRANCH  39  41
ENDBRANCH  38  39
ENDBRANCH  37  38
ENDBRANCH  36  37
ENDBRANCH  35  36
ENDBRANCH  34  35
ENDBRANCH  33  34
ENDBRANCH   1  33
TORSDOF 26
ENDMDL
