MODEL 1
REMARK VINA RESULT:      -8.5      0.000      0.000
REMARK SMILES CC[C@@](C)(NC(=O)[C@@H](C)NC(=O)c1ccco1)C(=O)OCCOCCOCCOCCOC(=O)c1ccc(-c2c3nc(c(-c4ccc(S(=O)(=O)[O-])cc4)c4ccc([nH]4)c(-c4ccc(S(=O)(=O)[O-])cc4)c4nc(c(-c5ccc(S(=O)(=O)[O-])cc5)c5ccc2[nH]5)C=C4)C=C3)cc1
REMARK SMILES IDX 25 1 24 2 23 3 22 4 21 5 20 6 18 7 19 8 3 9 4 10 2 11 1 12
REMARK SMILES IDX 5 13 6 14 7 16 8 17 9 18 10 19 11 20 12 22 13 23 14 24 17 25
REMARK SMILES IDX 15 26 16 27 26 28 27 29 28 30 29 31 30 32 31 33 32 34 33 35
REMARK SMILES IDX 34 36 35 37 36 38 94 39 37 40 93 41 38 42 39 43 40 44 87 45
REMARK SMILES IDX 41 46 92 47 86 48 88 49 42 50 91 51 85 52 84 53 43 55 73 56
REMARK SMILES IDX 54 57 72 58 55 59 58 60 71 61 89 62 56 63 57 64 70 66 90 67
REMARK SMILES IDX 59 68 44 69 45 70 53 71 46 72 52 73 47 74 48 75 49 76 50 77
REMARK SMILES IDX 51 78 74 79 75 80 83 81 76 82 82 83 77 84 78 85 79 86 80 87
REMARK SMILES IDX 81 88 60 89 61 90 69 91 62 92 68 93 63 94 64 95 65 96 66 97
REMARK SMILES IDX 67 98
REMARK H PARENT 5 15 10 21 88 54 58 65
REMARK Flexibility Score: inf
ROOT
ATOM      1  C   UNL A   1      30.577  27.222  24.332  1.00  0.00     0.188 C 
ENDROOT
BRANCH   1   2
ATOM      2  C   UNL A   1      29.698  25.977  24.318  1.00  0.00     0.188 C 
BRANCH   2   3
ATOM      3  O   UNL A   1      29.677  25.337  23.043  1.00  0.00    -0.376 OA
BRANCH   3   4
ATOM      4  C   UNL A   1      30.784  24.467  22.758  1.00  0.00     0.202 C 
BRANCH   4   5
ATOM      5  C   UNL A   1      30.767  23.118  23.476  1.00  0.00     0.261 C 
BRANCH   5   6
ATOM      6  O   UNL A   1      31.848  23.064  24.432  1.00  0.00    -0.462 OA
BRANCH   6   7
ATOM      7  C   UNL A   1      31.696  22.119  25.386  1.00  0.00     0.331 C 
ATOM      8  O   UNL A   1      30.649  21.949  26.002  1.00  0.00    -0.249 OA
BRANCH   7   9
ATOM      9  C   UNL A   1      32.899  21.135  25.474  1.00  0.00     0.135 C 
ATOM     10  C   UNL A   1      33.410  21.157  26.923  1.00  0.00     0.047 C 
BRANCH   9  11
ATOM     11  C   UNL A   1      32.317  19.727  25.101  1.00  0.00     0.037 C 
ATOM     12  C   UNL A   1      33.207  18.508  25.278  1.00  0.00     0.007 C 
ENDBRANCH   9  11
BRANCH   9  13
ATOM     13  N   UNL A   1      34.093  21.222  24.583  1.00  0.00    -0.339 N 
ATOM     14  C   UNL A   1      35.228  21.970  24.586  1.00  0.00     0.243 C 
ATOM     15  H   UNL A   1      34.049  20.599  23.822  1.00  0.00     0.164 HD
ATOM     16  O   UNL A   1      36.265  21.364  24.292  1.00  0.00    -0.273 OA
BRANCH  14  17
ATOM     17  C   UNL A   1      35.186  23.495  24.554  1.00  0.00     0.168 C 
ATOM     18  C   UNL A   1      36.548  23.959  25.108  1.00  0.00     0.041 C 
BRANCH  17  19
ATOM     19  N   UNL A   1      34.824  24.087  23.270  1.00  0.00    -0.338 N 
ATOM     20  C   UNL A   1      34.138  25.275  23.090  1.00  0.00     0.287 C 
ATOM     21  H   UNL A   1      35.091  23.597  22.460  1.00  0.00     0.164 HD
ATOM     22  O   UNL A   1      33.986  25.696  21.946  1.00  0.00    -0.266 OA
BRANCH  20  23
ATOM     23  C   UNL A   1      33.780  26.000  24.284  1.00  0.00     0.191 A 
ATOM     24  C   UNL A   1      34.077  27.296  24.657  1.00  0.00     0.056 A 
ATOM     25  O   UNL A   1      33.233  25.327  25.342  1.00  0.00    -0.459 OA
ATOM     26  C   UNL A   1      33.890  27.340  26.057  1.00  0.00     0.043 A 
ATOM     27  C   UNL A   1      33.286  26.158  26.412  1.00  0.00     0.196 A 
ENDBRANCH  20  23
ENDBRANCH  17  19
ENDBRANCH  14  17
ENDBRANCH   9  13
ENDBRANCH   7   9
ENDBRANCH   6   7
ENDBRANCH   5   6
ENDBRANCH   4   5
ENDBRANCH   3   4
ENDBRANCH   2   3
ENDBRANCH   1   2
BRANCH   1  28
ATOM     28  O   UNL A   1      30.175  28.190  23.360  1.00  0.00    -0.377 OA
BRANCH  28  29
ATOM     29  C   UNL A   1      30.183  29.559  23.778  1.00  0.00     0.188 C 
BRANCH  29  30
ATOM     30  C   UNL A   1      31.276  29.927  24.790  1.00  0.00     0.188 C 
BRANCH  30  31
ATOM     31  O   UNL A   1      31.071  31.114  25.551  1.00  0.00    -0.376 OA
BRANCH  31  32
ATOM     32  C   UNL A   1      31.739  31.215  26.802  1.00  0.00     0.202 C 
BRANCH  32  33
ATOM     33  C   UNL A   1      33.165  30.659  26.711  1.00  0.00     0.261 C 
BRANCH  33  34
ATOM     34  O   UNL A   1      33.877  30.732  27.960  1.00  0.00    -0.460 OA
BRANCH  34  35
ATOM     35  C   UNL A   1      35.061  31.397  27.884  1.00  0.00     0.338 C 
ATOM     36  O   UNL A   1      35.222  32.585  27.660  1.00  0.00    -0.246 OA
BRANCH  35  37
ATOM     37  C   UNL A   1      36.201  30.482  28.120  1.00  0.00     0.060 A 
ATOM     38  C   UNL A   1      36.358  29.929  29.399  1.00  0.00     0.016 A 
ATOM     39  C   UNL A   1      37.186  30.285  27.148  1.00  0.00     0.016 A 
ATOM     40  C   UNL A   1      37.524  29.232  29.731  1.00  0.00     0.010 A 
ATOM     41  C   UNL A   1      38.358  29.597  27.485  1.00  0.00     0.010 A 
ATOM     42  C   UNL A   1      38.550  29.098  28.787  1.00  0.00    -0.014 A 
BRANCH  42  43
ATOM     43  C   UNL A   1      39.902  28.637  29.193  1.00  0.00     0.031 A 
ATOM     44  C   UNL A   1      40.850  29.649  29.772  1.00  0.00     0.074 A 
ATOM     45  C   UNL A   1      40.320  27.371  29.009  1.00  0.00     0.049 A 
ATOM     46  N   UNL A   1      42.078  29.479  30.188  1.00  0.00    -0.248 NA
ATOM     47  C   UNL A   1      40.341  31.021  29.927  1.00  0.00     0.031 C 
ATOM     48  C   UNL A   1      39.501  26.269  28.529  1.00  0.00     0.029 A 
ATOM     49  N   UNL A   1      41.563  26.809  29.160  1.00  0.00    -0.354 N 
ATOM     50  C   UNL A   1      42.465  30.703  30.712  1.00  0.00     0.074 A 
ATOM     51  C   UNL A   1      41.375  31.628  30.490  1.00  0.00     0.031 C 
ATOM     52  C   UNL A   1      40.279  25.204  28.281  1.00  0.00     0.029 A 
ATOM     53  C   UNL A   1      41.648  25.529  28.663  1.00  0.00     0.049 A 
ATOM     54  H   UNL A   1      42.320  27.276  29.583  1.00  0.00     0.167 HD
ATOM     55  C   UNL A   1      43.607  31.016  31.366  1.00  0.00     0.031 A 
ATOM     56  C   UNL A   1      42.705  24.708  28.534  1.00  0.00     0.031 A 
ATOM     57  C   UNL A   1      44.707  30.114  31.547  1.00  0.00     0.049 A 
ATOM     58  C   UNL A   1      44.028  25.131  29.106  1.00  0.00     0.074 A 
ATOM     59  C   UNL A   1      45.889  30.317  32.237  1.00  0.00     0.029 A 
ATOM     60  N   UNL A   1      44.773  28.840  31.005  1.00  0.00    -0.354 N 
ATOM     61  N   UNL A   1      44.338  26.252  29.710  1.00  0.00    -0.248 NA
ATOM     62  C   UNL A   1      45.127  24.158  29.031  1.00  0.00     0.031 C 
ATOM     63  C   UNL A   1      46.687  29.177  32.078  1.00  0.00     0.029 A 
ATOM     64  C   UNL A   1      45.988  28.255  31.314  1.00  0.00     0.049 A 
ATOM     65  H   UNL A   1      44.059  28.413  30.477  1.00  0.00     0.167 HD
ATOM     66  C   UNL A   1      45.645  26.093  30.150  1.00  0.00     0.074 A 
ATOM     67  C   UNL A   1      46.080  24.782  29.712  1.00  0.00     0.031 C 
ATOM     68  C   UNL A   1      46.402  26.945  30.883  1.00  0.00     0.031 A 
BRANCH  55  69
ATOM     69  C   UNL A   1      43.685  32.398  31.943  1.00  0.00    -0.014 A 
ATOM     70  C   UNL A   1      44.170  33.461  31.157  1.00  0.00     0.010 A 
ATOM     71  C   UNL A   1      43.316  32.635  33.275  1.00  0.00     0.010 A 
ATOM     72  C   UNL A   1      44.333  34.730  31.713  1.00  0.00     0.020 A 
ATOM     73  C   UNL A   1      43.465  33.909  33.830  1.00  0.00     0.020 A 
ATOM     74  C   UNL A   1      43.995  34.942  33.052  1.00  0.00     0.054 A 
BRANCH  74  75
ATOM     75  S   UNL A   1      44.245  36.590  33.765  1.00  0.00     0.124 S 
ATOM     76  O   UNL A   1      44.554  36.269  35.157  1.00  0.00    -0.237 OA
ATOM     77  O   UNL A   1      45.358  37.119  32.982  1.00  0.00    -0.237 OA
ATOM     78  O   UNL A   1      42.963  37.256  33.548  1.00  0.00    -0.744 OA
ENDBRANCH  74  75
ENDBRANCH  55  69
BRANCH  56  79
ATOM     79  C   UNL A   1      42.555  23.391  27.865  1.00  0.00    -0.014 A 
ATOM     80  C   UNL A   1      41.975  22.303  28.540  1.00  0.00     0.010 A 
ATOM     81  C   UNL A   1      43.014  23.215  26.547  1.00  0.00     0.010 A 
ATOM     82  C   UNL A   1      41.889  21.053  27.921  1.00  0.00     0.020 A 
ATOM     83  C   UNL A   1      42.918  21.969  25.920  1.00  0.00     0.020 A 
ATOM     84  C   UNL A   1      42.371  20.891  26.618  1.00  0.00     0.054 A 
BRANCH  84  85
ATOM     85  S   UNL A   1      42.253  19.257  25.837  1.00  0.00     0.124 S 
ATOM     86  O   UNL A   1      43.067  19.437  24.638  1.00  0.00    -0.237 OA
ATOM     87  O   UNL A   1      42.817  18.376  26.856  1.00  0.00    -0.237 OA
ATOM     88  O   UNL A   1      40.820  19.092  25.601  1.00  0.00    -0.744 OA
ENDBRANCH  84  85
ENDBRANCH  56  79
BRANCH  68  89
ATOM     89  C   UNL A   1      47.755  26.462  31.316  1.00  0.00    -0.014 A 
ATOM     90  C   UNL A   1      48.906  26.744  30.561  1.00  0.00     0.010 A 
ATOM     91  C   UNL A   1      47.878  25.763  32.530  1.00  0.00     0.010 A 
ATOM     92  C   UNL A   1      50.160  26.322  31.010  1.00  0.00     0.020 A 
ATOM     93  C   UNL A   1      49.132  25.356  32.990  1.00  0.00     0.020 A 
ATOM     94  C   UNL A   1      50.265  25.629  32.221  1.00  0.00     0.054 A 
BRANCH  94  95
ATOM     95  S   UNL A   1      51.906  25.147  32.824  1.00  0.00     0.124 S 
ATOM     96  O   UNL A   1      52.725  25.284  31.623  1.00  0.00    -0.237 OA
ATOM     97  O   UNL A   1      52.168  26.125  33.878  1.00  0.00    -0.237 OA
ATOM     98  O   UNL A   1      51.709  23.777  33.293  1.00  0.00    -0.744 OA
ENDBRANCH  94  95
ENDBRANCH  68  89
ENDBRANCH  42  43
ENDBRANCH  35  37
ENDBRANCH  34  35
ENDBRANCH  33  34
ENDBRANCH  32  33
ENDBRANCH  31  32
ENDBRANCH  30  31
ENDBRANCH  29  30
ENDBRANCH  28  29
ENDBRANCH   1  28
TORSDOF 28
ENDMDL
MODEL 2
REMARK VINA RESULT:      -8.4      2.536      4.020
REMARK SMILES CC[C@@](C)(NC(=O)[C@@H](C)NC(=O)c1ccco1)C(=O)OCCOCCOCCOCCOC(=O)c1ccc(-c2c3nc(c(-c4ccc(S(=O)(=O)[O-])cc4)c4ccc([nH]4)c(-c4ccc(S(=O)(=O)[O-])cc4)c4nc(c(-c5ccc(S(=O)(=O)[O-])cc5)c5ccc2[nH]5)C=C4)C=C3)cc1
REMARK SMILES IDX 25 1 24 2 23 3 22 4 21 5 20 6 18 7 19 8 3 9 4 10 2 11 1 12
REMARK SMILES IDX 5 13 6 14 7 16 8 17 9 18 10 19 11 20 12 22 13 23 14 24 17 25
REMARK SMILES IDX 15 26 16 27 26 28 27 29 28 30 29 31 30 32 31 33 32 34 33 35
REMARK SMILES IDX 34 36 35 37 36 38 94 39 37 40 93 41 38 42 39 43 40 44 87 45
REMARK SMILES IDX 41 46 92 47 86 48 88 49 42 50 91 51 85 52 84 53 43 55 73 56
REMARK SMILES IDX 54 57 72 58 55 59 58 60 71 61 89 62 56 63 57 64 70 66 90 67
REMARK SMILES IDX 59 68 44 69 45 70 53 71 46 72 52 73 47 74 48 75 49 76 50 77
REMARK SMILES IDX 51 78 74 79 75 80 83 81 76 82 82 83 77 84 78 85 79 86 80 87
REMARK SMILES IDX 81 88 60 89 61 90 69 91 62 92 68 93 63 94 64 95 65 96 66 97
REMARK SMILES IDX 67 98
REMARK H PARENT 5 15 10 21 88 54 58 65
REMARK Flexibility Score: inf
ROOT
ATOM      1  C   UNL A   1      30.670  26.638  23.199  1.00  0.00     0.188 C 
ENDROOT
BRANCH   1   2
ATOM      2  C   UNL A   1      30.132  25.924  24.433  1.00  0.00     0.188 C 
BRANCH   2   3
ATOM      3  O   UNL A   1      30.570  24.569  24.515  1.00  0.00    -0.376 OA
BRANCH   3   4
ATOM      4  C   UNL A   1      31.645  24.310  25.433  1.00  0.00     0.202 C 
BRANCH   4   5
ATOM      5  C   UNL A   1      32.771  25.343  25.440  1.00  0.00     0.261 C 
BRANCH   5   6
ATOM      6  O   UNL A   1      33.846  24.881  26.287  1.00  0.00    -0.462 OA
BRANCH   6   7
ATOM      7  C   UNL A   1      33.960  23.536  26.351  1.00  0.00     0.331 C 
ATOM      8  O   UNL A   1      33.296  22.842  27.115  1.00  0.00    -0.249 OA
BRANCH   7   9
ATOM      9  C   UNL A   1      34.850  22.938  25.224  1.00  0.00     0.135 C 
ATOM     10  C   UNL A   1      36.043  23.885  25.023  1.00  0.00     0.047 C 
BRANCH   9  11
ATOM     11  C   UNL A   1      35.322  21.540  25.758  1.00  0.00     0.037 C 
ATOM     12  C   UNL A   1      36.301  20.738  24.918  1.00  0.00     0.007 C 
ENDBRANCH   9  11
BRANCH   9  13
ATOM     13  N   UNL A   1      34.329  22.591  23.869  1.00  0.00    -0.339 N 
ATOM     14  C   UNL A   1      33.200  21.986  23.412  1.00  0.00     0.243 C 
ATOM     15  H   UNL A   1      34.938  22.859  23.144  1.00  0.00     0.164 HD
ATOM     16  O   UNL A   1      32.691  22.498  22.409  1.00  0.00    -0.273 OA
BRANCH  14  17
ATOM     17  C   UNL A   1      32.816  20.573  23.841  1.00  0.00     0.168 C 
ATOM     18  C   UNL A   1      31.851  20.748  25.031  1.00  0.00     0.041 C 
BRANCH  17  19
ATOM     19  N   UNL A   1      32.312  19.709  22.778  1.00  0.00    -0.338 N 
ATOM     20  C   UNL A   1      32.451  18.334  22.717  1.00  0.00     0.287 C 
ATOM     21  H   UNL A   1      31.831  20.144  22.038  1.00  0.00     0.164 HD
ATOM     22  O   UNL A   1      31.891  17.729  21.806  1.00  0.00    -0.266 OA
BRANCH  20  23
ATOM     23  C   UNL A   1      33.129  17.705  23.823  1.00  0.00     0.191 A 
ATOM     24  C   UNL A   1      34.414  17.210  23.909  1.00  0.00     0.056 A 
ATOM     25  O   UNL A   1      32.412  17.327  24.926  1.00  0.00    -0.459 OA
ATOM     26  C   UNL A   1      34.408  16.325  25.010  1.00  0.00     0.043 A 
ATOM     27  C   UNL A   1      33.207  16.504  25.653  1.00  0.00     0.196 A 
ENDBRANCH  20  23
ENDBRANCH  17  19
ENDBRANCH  14  17
ENDBRANCH   9  13
ENDBRANCH   7   9
ENDBRANCH   6   7
ENDBRANCH   5   6
ENDBRANCH   4   5
ENDBRANCH   3   4
ENDBRANCH   2   3
ENDBRANCH   1   2
BRANCH   1  28
ATOM     28  O   UNL A   1      29.886  27.777  22.837  1.00  0.00    -0.377 OA
BRANCH  28  29
ATOM     29  C   UNL A   1      30.439  29.061  23.149  1.00  0.00     0.188 C 
BRANCH  29  30
ATOM     30  C   UNL A   1      31.194  29.141  24.482  1.00  0.00     0.188 C 
BRANCH  30  31
ATOM     31  O   UNL A   1      31.526  30.444  24.953  1.00  0.00    -0.376 OA
BRANCH  31  32
ATOM     32  C   UNL A   1      31.396  30.691  26.346  1.00  0.00     0.202 C 
BRANCH  32  33
ATOM     33  C   UNL A   1      32.213  29.681  27.163  1.00  0.00     0.261 C 
BRANCH  33  34
ATOM     34  O   UNL A   1      33.519  30.172  27.516  1.00  0.00    -0.460 OA
BRANCH  34  35
ATOM     35  C   UNL A   1      34.543  29.437  27.003  1.00  0.00     0.338 C 
ATOM     36  O   UNL A   1      34.508  28.720  26.017  1.00  0.00    -0.246 OA
BRANCH  35  37
ATOM     37  C   UNL A   1      35.776  29.612  27.804  1.00  0.00     0.060 A 
ATOM     38  C   UNL A   1      36.983  29.840  27.128  1.00  0.00     0.016 A 
ATOM     39  C   UNL A   1      35.777  29.406  29.186  1.00  0.00     0.016 A 
ATOM     40  C   UNL A   1      38.199  29.803  27.818  1.00  0.00     0.010 A 
ATOM     41  C   UNL A   1      36.995  29.358  29.874  1.00  0.00     0.010 A 
ATOM     42  C   UNL A   1      38.215  29.519  29.190  1.00  0.00    -0.014 A 
BRANCH  42  43
ATOM     43  C   UNL A   1      39.484  29.177  29.881  1.00  0.00     0.031 A 
ATOM     44  C   UNL A   1      39.930  30.056  31.015  1.00  0.00     0.074 A 
ATOM     45  C   UNL A   1      40.266  28.154  29.492  1.00  0.00     0.049 A 
ATOM     46  N   UNL A   1      41.001  29.956  31.757  1.00  0.00    -0.248 NA
ATOM     47  C   UNL A   1      39.042  31.172  31.378  1.00  0.00     0.031 C 
ATOM     48  C   UNL A   1      39.939  27.179  28.464  1.00  0.00     0.029 A 
ATOM     49  N   UNL A   1      41.530  27.794  29.889  1.00  0.00    -0.354 N 
ATOM     50  C   UNL A   1      40.885  30.954  32.713  1.00  0.00     0.074 A 
ATOM     51  C   UNL A   1      39.683  31.699  32.410  1.00  0.00     0.031 C 
ATOM     52  C   UNL A   1      41.015  26.422  28.200  1.00  0.00     0.029 A 
ATOM     53  C   UNL A   1      42.091  26.813  29.103  1.00  0.00     0.049 A 
ATOM     54  H   UNL A   1      41.990  28.197  30.661  1.00  0.00     0.167 HD
ATOM     55  C   UNL A   1      41.683  31.198  33.778  1.00  0.00     0.031 A 
ATOM     56  C   UNL A   1      43.328  26.285  29.111  1.00  0.00     0.031 A 
ATOM     57  C   UNL A   1      42.899  30.491  34.055  1.00  0.00     0.049 A 
ATOM     58  C   UNL A   1      44.283  26.689  30.197  1.00  0.00     0.074 A 
ATOM     59  C   UNL A   1      43.753  30.627  35.135  1.00  0.00     0.029 A 
ATOM     60  N   UNL A   1      43.452  29.529  33.223  1.00  0.00    -0.354 N 
ATOM     61  N   UNL A   1      44.103  27.552  31.168  1.00  0.00    -0.248 NA
ATOM     62  C   UNL A   1      45.586  26.010  30.224  1.00  0.00     0.031 C 
ATOM     63  C   UNL A   1      44.846  29.773  34.935  1.00  0.00     0.029 A 
ATOM     64  C   UNL A   1      44.654  29.086  33.746  1.00  0.00     0.049 A 
ATOM     65  H   UNL A   1      43.050  29.209  32.384  1.00  0.00     0.167 HD
ATOM     66  C   UNL A   1      45.239  27.467  31.962  1.00  0.00     0.074 A 
ATOM     67  C   UNL A   1      46.116  26.496  31.339  1.00  0.00     0.031 C 
ATOM     68  C   UNL A   1      45.511  28.111  33.122  1.00  0.00     0.031 A 
BRANCH  55  69
ATOM     69  C   UNL A   1      41.222  32.270  34.721  1.00  0.00    -0.014 A 
ATOM     70  C   UNL A   1      41.671  33.594  34.552  1.00  0.00     0.010 A 
ATOM     71  C   UNL A   1      40.379  31.957  35.798  1.00  0.00     0.010 A 
ATOM     72  C   UNL A   1      41.324  34.578  35.477  1.00  0.00     0.020 A 
ATOM     73  C   UNL A   1      40.018  32.946  36.718  1.00  0.00     0.020 A 
ATOM     74  C   UNL A   1      40.512  34.243  36.564  1.00  0.00     0.054 A 
BRANCH  74  75
ATOM     75  S   UNL A   1      40.098  35.529  37.773  1.00  0.00     0.124 S 
ATOM     76  O   UNL A   1      39.667  36.625  36.908  1.00  0.00    -0.237 OA
ATOM     77  O   UNL A   1      39.041  34.905  38.566  1.00  0.00    -0.237 OA
ATOM     78  O   UNL A   1      41.355  35.752  38.483  1.00  0.00    -0.744 OA
ENDBRANCH  74  75
ENDBRANCH  55  69
BRANCH  56  79
ATOM     79  C   UNL A   1      43.727  25.294  28.080  1.00  0.00    -0.014 A 
ATOM     80  C   UNL A   1      43.611  23.916  28.325  1.00  0.00     0.010 A 
ATOM     81  C   UNL A   1      44.248  25.732  26.849  1.00  0.00     0.010 A 
ATOM     82  C   UNL A   1      44.041  22.991  27.369  1.00  0.00     0.020 A 
ATOM     83  C   UNL A   1      44.668  24.810  25.886  1.00  0.00     0.020 A 
ATOM     84  C   UNL A   1      44.578  23.443  26.160  1.00  0.00     0.054 A 
BRANCH  84  85
ATOM     85  S   UNL A   1      45.135  22.224  24.937  1.00  0.00     0.124 S 
ATOM     86  O   UNL A   1      45.650  23.078  23.871  1.00  0.00    -0.237 OA
ATOM     87  O   UNL A   1      46.140  21.466  25.678  1.00  0.00    -0.237 OA
ATOM     88  O   UNL A   1      43.918  21.482  24.612  1.00  0.00    -0.744 OA
ENDBRANCH  84  85
ENDBRANCH  56  79
BRANCH  68  89
ATOM     89  C   UNL A   1      46.780  27.740  33.832  1.00  0.00    -0.014 A 
ATOM     90  C   UNL A   1      47.974  28.443  33.605  1.00  0.00     0.010 A 
ATOM     91  C   UNL A   1      46.756  26.705  34.784  1.00  0.00     0.010 A 
ATOM     92  C   UNL A   1      49.131  28.106  34.312  1.00  0.00     0.020 A 
ATOM     93  C   UNL A   1      47.906  26.378  35.505  1.00  0.00     0.020 A 
ATOM     94  C   UNL A   1      49.091  27.075  35.257  1.00  0.00     0.054 A 
BRANCH  94  95
ATOM     95  S   UNL A   1      50.583  26.695  36.216  1.00  0.00     0.124 S 
ATOM     96  O   UNL A   1      50.308  27.364  37.485  1.00  0.00    -0.237 OA
ATOM     97  O   UNL A   1      50.578  25.235  36.262  1.00  0.00    -0.237 OA
ATOM     98  O   UNL A   1      51.659  27.281  35.420  1.00  0.00    -0.744 OA
ENDBRANCH  94  95
ENDBRANCH  68  89
ENDBRANCH  42  43
ENDBRANCH  35  37
ENDBRANCH  34  35
ENDBRANCH  33  34
ENDBRANCH  32  33
ENDBRANCH  31  32
ENDBRANCH  30  31
ENDBRANCH  29  30
ENDBRANCH  28  29
ENDBRANCH   1  28
TORSDOF 28
ENDMDL
MODEL 3
REMARK VINA RESULT:      -8.2      2.035      2.559
REMARK SMILES CC[C@@](C)(NC(=O)[C@@H](C)NC(=O)c1ccco1)C(=O)OCCOCCOCCOCCOC(=O)c1ccc(-c2c3nc(c(-c4ccc(S(=O)(=O)[O-])cc4)c4ccc([nH]4)c(-c4ccc(S(=O)(=O)[O-])cc4)c4nc(c(-c5ccc(S(=O)(=O)[O-])cc5)c5ccc2[nH]5)C=C4)C=C3)cc1
REMARK SMILES IDX 25 1 24 2 23 3 22 4 21 5 20 6 18 7 19 8 3 9 4 10 2 11 1 12
REMARK SMILES IDX 5 13 6 14 7 16 8 17 9 18 10 19 11 20 12 22 13 23 14 24 17 25
REMARK SMILES IDX 15 26 16 27 26 28 27 29 28 30 29 31 30 32 31 33 32 34 33 35
REMARK SMILES IDX 34 36 35 37 36 38 94 39 37 40 93 41 38 42 39 43 40 44 87 45
REMARK SMILES IDX 41 46 92 47 86 48 88 49 42 50 91 51 85 52 84 53 43 55 73 56
REMARK SMILES IDX 54 57 72 58 55 59 58 60 71 61 89 62 56 63 57 64 70 66 90 67
REMARK SMILES IDX 59 68 44 69 45 70 53 71 46 72 52 73 47 74 48 75 49 76 50 77
REMARK SMILES IDX 51 78 74 79 75 80 83 81 76 82 82 83 77 84 78 85 79 86 80 87
REMARK SMILES IDX 81 88 60 89 61 90 69 91 62 92 68 93 63 94 64 95 65 96 66 97
REMARK SMILES IDX 67 98
REMARK H PARENT 5 15 10 21 88 54 58 65
REMARK Flexibility Score: inf
ROOT
ATOM      1  C   UNL A   1      30.637  27.116  24.422  1.00  0.00     0.188 C 
ENDROOT
BRANCH   1   2
ATOM      2  C   UNL A   1      29.815  25.836  24.514  1.00  0.00     0.188 C 
BRANCH   2   3
ATOM      3  O   UNL A   1      29.791  25.112  23.285  1.00  0.00    -0.376 OA
BRANCH   3   4
ATOM      4  C   UNL A   1      30.929  24.275  23.025  1.00  0.00     0.202 C 
BRANCH   4   5
ATOM      5  C   UNL A   1      30.980  22.966  23.812  1.00  0.00     0.261 C 
BRANCH   5   6
ATOM      6  O   UNL A   1      32.147  22.958  24.663  1.00  0.00    -0.462 OA
BRANCH   6   7
ATOM      7  C   UNL A   1      32.054  22.123  25.721  1.00  0.00     0.331 C 
ATOM      8  O   UNL A   1      31.038  22.012  26.401  1.00  0.00    -0.249 OA
BRANCH   7   9
ATOM      9  C   UNL A   1      33.274  21.168  25.862  1.00  0.00     0.135 C 
ATOM     10  C   UNL A   1      33.872  21.382  27.260  1.00  0.00     0.047 C 
BRANCH   9  11
ATOM     11  C   UNL A   1      32.692  19.719  25.712  1.00  0.00     0.037 C 
ATOM     12  C   UNL A   1      33.312  18.794  24.677  1.00  0.00     0.007 C 
ENDBRANCH   9  11
BRANCH   9  13
ATOM     13  N   UNL A   1      34.410  21.146  24.893  1.00  0.00    -0.339 N 
ATOM     14  C   UNL A   1      35.571  21.844  24.775  1.00  0.00     0.243 C 
ATOM     15  H   UNL A   1      34.293  20.476  24.181  1.00  0.00     0.164 HD
ATOM     16  O   UNL A   1      36.562  21.177  24.459  1.00  0.00    -0.273 OA
BRANCH  14  17
ATOM     17  C   UNL A   1      35.584  23.364  24.642  1.00  0.00     0.168 C 
ATOM     18  C   UNL A   1      37.043  23.790  24.904  1.00  0.00     0.041 C 
BRANCH  17  19
ATOM     19  N   UNL A   1      35.014  23.892  23.407  1.00  0.00    -0.338 N 
ATOM     20  C   UNL A   1      34.308  25.075  23.281  1.00  0.00     0.287 C 
ATOM     21  H   UNL A   1      35.142  23.358  22.591  1.00  0.00     0.164 HD
ATOM     22  O   UNL A   1      33.969  25.438  22.157  1.00  0.00    -0.266 OA
BRANCH  20  23
ATOM     23  C   UNL A   1      34.155  25.865  24.477  1.00  0.00     0.191 A 
ATOM     24  C   UNL A   1      33.749  25.488  25.742  1.00  0.00     0.056 A 
ATOM     25  O   UNL A   1      34.210  27.230  24.396  1.00  0.00    -0.459 OA
ATOM     26  C   UNL A   1      33.345  26.681  26.382  1.00  0.00     0.043 A 
ATOM     27  C   UNL A   1      33.734  27.717  25.568  1.00  0.00     0.196 A 
ENDBRANCH  20  23
ENDBRANCH  17  19
ENDBRANCH  14  17
ENDBRANCH   9  13
ENDBRANCH   7   9
ENDBRANCH   6   7
ENDBRANCH   5   6
ENDBRANCH   4   5
ENDBRANCH   3   4
ENDBRANCH   2   3
ENDBRANCH   1   2
BRANCH   1  28
ATOM     28  O   UNL A   1      30.141  28.019  23.431  1.00  0.00    -0.377 OA
BRANCH  28  29
ATOM     29  C   UNL A   1      30.074  29.401  23.799  1.00  0.00     0.188 C 
BRANCH  29  30
ATOM     30  C   UNL A   1      31.159  29.869  24.777  1.00  0.00     0.188 C 
BRANCH  30  31
ATOM     31  O   UNL A   1      30.913  31.092  25.468  1.00  0.00    -0.376 OA
BRANCH  31  32
ATOM     32  C   UNL A   1      31.574  31.287  26.711  1.00  0.00     0.202 C 
BRANCH  32  33
ATOM     33  C   UNL A   1      33.012  30.756  26.659  1.00  0.00     0.261 C 
BRANCH  33  34
ATOM     34  O   UNL A   1      33.707  30.893  27.913  1.00  0.00    -0.460 OA
BRANCH  34  35
ATOM     35  C   UNL A   1      34.888  31.561  27.821  1.00  0.00     0.338 C 
ATOM     36  O   UNL A   1      35.052  32.715  27.462  1.00  0.00    -0.246 OA
BRANCH  35  37
ATOM     37  C   UNL A   1      36.019  30.699  28.230  1.00  0.00     0.060 A 
ATOM     38  C   UNL A   1      35.903  29.966  29.420  1.00  0.00     0.016 A 
ATOM     39  C   UNL A   1      37.235  30.721  27.539  1.00  0.00     0.016 A 
ATOM     40  C   UNL A   1      37.013  29.305  29.956  1.00  0.00     0.010 A 
ATOM     41  C   UNL A   1      38.347  30.068  28.082  1.00  0.00     0.010 A 
ATOM     42  C   UNL A   1      38.254  29.388  29.311  1.00  0.00    -0.014 A 
BRANCH  42  43
ATOM     43  C   UNL A   1      39.499  28.960  29.999  1.00  0.00     0.031 A 
ATOM     44  C   UNL A   1      40.037  29.835  31.096  1.00  0.00     0.074 A 
ATOM     45  C   UNL A   1      40.183  27.859  29.636  1.00  0.00     0.049 A 
ATOM     46  N   UNL A   1      41.106  29.667  31.827  1.00  0.00    -0.248 NA
ATOM     47  C   UNL A   1      39.254  31.036  31.429  1.00  0.00     0.031 C 
ATOM     48  C   UNL A   1      39.756  26.882  28.647  1.00  0.00     0.029 A 
ATOM     49  N   UNL A   1      41.416  27.404  30.030  1.00  0.00    -0.354 N 
ATOM     50  C   UNL A   1      41.092  30.704  32.749  1.00  0.00     0.074 A 
ATOM     51  C   UNL A   1      39.954  31.540  32.434  1.00  0.00     0.031 C 
ATOM     52  C   UNL A   1      40.759  26.026  28.397  1.00  0.00     0.029 A 
ATOM     53  C   UNL A   1      41.878  26.352  29.273  1.00  0.00     0.049 A 
ATOM     54  H   UNL A   1      41.921  27.791  30.782  1.00  0.00     0.167 HD
ATOM     55  C   UNL A   1      41.923  30.913  33.795  1.00  0.00     0.031 A 
ATOM     56  C   UNL A   1      43.065  25.719  29.285  1.00  0.00     0.031 A 
ATOM     57  C   UNL A   1      43.078  30.112  34.081  1.00  0.00     0.049 A 
ATOM     58  C   UNL A   1      44.068  26.075  30.344  1.00  0.00     0.074 A 
ATOM     59  C   UNL A   1      43.957  30.210  35.145  1.00  0.00     0.029 A 
ATOM     60  N   UNL A   1      43.533  29.078  33.278  1.00  0.00    -0.354 N 
ATOM     61  N   UNL A   1      43.978  26.982  31.286  1.00  0.00    -0.248 NA
ATOM     62  C   UNL A   1      45.307  25.285  30.378  1.00  0.00     0.031 C 
ATOM     63  C   UNL A   1      44.968  29.258  34.962  1.00  0.00     0.029 A 
ATOM     64  C   UNL A   1      44.700  28.550  33.801  1.00  0.00     0.049 A 
ATOM     65  H   UNL A   1      43.091  28.766  32.455  1.00  0.00     0.167 HD
ATOM     66  C   UNL A   1      45.114  26.826  32.068  1.00  0.00     0.074 A 
ATOM     67  C   UNL A   1      45.894  25.761  31.470  1.00  0.00     0.031 C 
ATOM     68  C   UNL A   1      45.459  27.483  33.202  1.00  0.00     0.031 A 
BRANCH  55  69
ATOM     69  C   UNL A   1      41.573  32.052  34.704  1.00  0.00    -0.014 A 
ATOM     70  C   UNL A   1      40.557  31.896  35.667  1.00  0.00     0.010 A 
ATOM     71  C   UNL A   1      42.220  33.290  34.578  1.00  0.00     0.010 A 
ATOM     72  C   UNL A   1      40.159  32.977  36.454  1.00  0.00     0.020 A 
ATOM     73  C   UNL A   1      41.834  34.372  35.375  1.00  0.00     0.020 A 
ATOM     74  C   UNL A   1      40.790  34.214  36.290  1.00  0.00     0.054 A 
BRANCH  74  75
ATOM     75  S   UNL A   1      40.238  35.615  37.299  1.00  0.00     0.124 S 
ATOM     76  O   UNL A   1      39.184  35.005  38.106  1.00  0.00    -0.237 OA
ATOM     77  O   UNL A   1      41.448  35.990  38.028  1.00  0.00    -0.237 OA
ATOM     78  O   UNL A   1      39.783  36.591  36.313  1.00  0.00    -0.744 OA
ENDBRANCH  74  75
ENDBRANCH  55  69
BRANCH  56  79
ATOM     79  C   UNL A   1      43.360  24.662  28.284  1.00  0.00    -0.014 A 
ATOM     80  C   UNL A   1      44.115  24.952  27.135  1.00  0.00     0.010 A 
ATOM     81  C   UNL A   1      42.866  23.359  28.471  1.00  0.00     0.010 A 
ATOM     82  C   UNL A   1      44.341  23.965  26.171  1.00  0.00     0.020 A 
ATOM     83  C   UNL A   1      43.100  22.365  27.515  1.00  0.00     0.020 A 
ATOM     84  C   UNL A   1      43.822  22.680  26.362  1.00  0.00     0.054 A 
BRANCH  84  85
ATOM     85  S   UNL A   1      44.124  21.416  25.095  1.00  0.00     0.124 S 
ATOM     86  O   UNL A   1      43.149  20.391  25.454  1.00  0.00    -0.237 OA
ATOM     87  O   UNL A   1      43.853  22.138  23.854  1.00  0.00    -0.237 OA
ATOM     88  O   UNL A   1      45.523  21.048  25.303  1.00  0.00    -0.744 OA
ENDBRANCH  84  85
ENDBRANCH  56  79
BRANCH  68  89
ATOM     89  C   UNL A   1      46.701  27.027  33.909  1.00  0.00    -0.014 A 
ATOM     90  C   UNL A   1      47.946  27.625  33.654  1.00  0.00     0.010 A 
ATOM     91  C   UNL A   1      46.604  26.019  34.886  1.00  0.00     0.010 A 
ATOM     92  C   UNL A   1      49.080  27.213  34.359  1.00  0.00     0.020 A 
ATOM     93  C   UNL A   1      47.733  25.618  35.604  1.00  0.00     0.020 A 
ATOM     94  C   UNL A   1      48.967  26.211  35.328  1.00  0.00     0.054 A 
BRANCH  94  95
ATOM     95  S   UNL A   1      50.433  25.733  36.283  1.00  0.00     0.124 S 
ATOM     96  O   UNL A   1      50.995  27.031  36.647  1.00  0.00    -0.237 OA
ATOM     97  O   UNL A   1      49.868  24.961  37.387  1.00  0.00    -0.237 OA
ATOM     98  O   UNL A   1      51.222  24.955  35.330  1.00  0.00    -0.744 OA
ENDBRANCH  94  95
ENDBRANCH  68  89
ENDBRANCH  42  43
ENDBRANCH  35  37
ENDBRANCH  34  35
ENDBRANCH  33  34
ENDBRANCH  32  33
ENDBRANCH  31  32
ENDBRANCH  30  31
ENDBRANCH  29  30
ENDBRANCH  28  29
ENDBRANCH   1  28
TORSDOF 28
ENDMDL
