MODEL 1
REMARK VINA RESULT:      -9.0      0.000      0.000
REMARK SMILES C[C@H](CCCO)Nc1ccc2c(C(=O)OCCOCCOCCOCCOC(=O)c3ccc(-c4c5nc(c(-c6ccc(S(=O)(=O)[O-])cc6)c6ccc([nH]6)c(-c6ccc(S(=O)(=O)[O-])cc6)c6nc(c(-c7ccc(S(=O)(=O)[O-])cc7)c7ccc4[nH]7)C=C6)C=C5)cc3)cccc2n1
REMARK SMILES IDX 19 1 18 2 17 3 16 4 15 5 13 6 14 7 12 8 8 9 9 10 94 11 10 12
REMARK SMILES IDX 93 13 11 14 92 15 91 16 90 17 7 18 2 20 1 21 3 22 4 23 5 24
REMARK SMILES IDX 6 25 20 27 21 28 22 29 23 30 24 31 25 32 26 33 27 34 28 35
REMARK SMILES IDX 29 36 30 37 31 38 89 39 32 40 88 41 33 42 34 43 35 44 82 45
REMARK SMILES IDX 36 46 87 47 81 48 83 49 37 50 86 51 80 52 79 53 38 55 68 56
REMARK SMILES IDX 49 57 67 58 50 59 53 60 66 61 84 62 51 63 52 64 65 66 85 67
REMARK SMILES IDX 54 68 39 69 40 70 48 71 41 72 47 73 42 74 43 75 44 76 45 77
REMARK SMILES IDX 46 78 69 79 70 80 78 81 71 82 77 83 72 84 73 85 74 86 75 87
REMARK SMILES IDX 76 88 55 89 56 90 64 91 57 92 63 93 58 94 59 95 60 96 61 97
REMARK SMILES IDX 62 98
REMARK H PARENT 7 19 6 26 83 54 53 65
REMARK Flexibility Score: inf
ROOT
ATOM      1  C   UNL A   1      32.464  28.354  23.554  1.00  0.00     0.188 C 
ENDROOT
BRANCH   1   2
ATOM      2  O   UNL A   1      31.215  28.592  24.184  1.00  0.00    -0.376 OA
BRANCH   2   3
ATOM      3  C   UNL A   1      30.084  27.914  23.661  1.00  0.00     0.202 C 
BRANCH   3   4
ATOM      4  C   UNL A   1      29.885  26.473  24.147  1.00  0.00     0.261 C 
BRANCH   4   5
ATOM      5  O   UNL A   1      30.795  26.062  25.178  1.00  0.00    -0.460 OA
BRANCH   5   6
ATOM      6  C   UNL A   1      30.637  24.820  25.688  1.00  0.00     0.338 C 
ATOM      7  O   UNL A   1      29.864  24.489  26.570  1.00  0.00    -0.246 OA
BRANCH   6   8
ATOM      8  C   UNL A   1      31.449  23.890  24.862  1.00  0.00     0.069 A 
ATOM      9  C   UNL A   1      35.095  22.220  26.108  1.00  0.00     0.126 A 
ATOM     10  C   UNL A   1      34.403  22.986  27.026  1.00  0.00     0.047 A 
ATOM     11  N   UNL A   1      34.610  21.979  24.876  1.00  0.00    -0.231 NA
ATOM     12  C   UNL A   1      33.210  23.584  26.635  1.00  0.00     0.015 A 
ATOM     13  C   UNL A   1      33.417  22.490  24.521  1.00  0.00     0.073 A 
ATOM     14  C   UNL A   1      32.676  23.356  25.350  1.00  0.00     0.015 A 
ATOM     15  C   UNL A   1      32.896  22.133  23.284  1.00  0.00     0.029 A 
ATOM     16  C   UNL A   1      31.664  22.606  22.832  1.00  0.00     0.003 A 
ATOM     17  C   UNL A   1      30.943  23.496  23.616  1.00  0.00     0.016 A 
BRANCH   9  18
ATOM     18  N   UNL A   1      36.376  21.806  26.416  1.00  0.00    -0.368 N 
ATOM     19  H   UNL A   1      36.621  21.544  27.333  1.00  0.00     0.162 HD
BRANCH  18  20
ATOM     20  C   UNL A   1      37.349  21.773  25.339  1.00  0.00     0.077 C 
ATOM     21  C   UNL A   1      37.688  20.333  24.990  1.00  0.00     0.031 C 
BRANCH  20  22
ATOM     22  C   UNL A   1      38.552  22.663  25.710  1.00  0.00     0.027 C 
BRANCH  22  23
ATOM     23  C   UNL A   1      39.619  22.086  26.651  1.00  0.00     0.030 C 
BRANCH  23  24
ATOM     24  C   UNL A   1      41.019  21.926  26.068  1.00  0.00     0.156 C 
BRANCH  24  25
ATOM     25  O   UNL A   1      41.339  20.560  25.856  1.00  0.00    -0.396 OA
ATOM     26  H   UNL A   1      40.685  20.001  26.303  1.00  0.00     0.210 HD
ENDBRANCH  24  25
ENDBRANCH  23  24
ENDBRANCH  22  23
ENDBRANCH  20  22
ENDBRANCH  18  20
ENDBRANCH   9  18
ENDBRANCH   6   8
ENDBRANCH   5   6
ENDBRANCH   4   5
ENDBRANCH   3   4
ENDBRANCH   2   3
ENDBRANCH   1   2
BRANCH   1  27
ATOM     27  C   UNL A   1      33.617  27.970  24.505  1.00  0.00     0.188 C 
BRANCH  27  28
ATOM     28  O   UNL A   1      34.172  28.936  25.383  1.00  0.00    -0.377 OA
BRANCH  28  29
ATOM     29  C   UNL A   1      33.625  29.107  26.684  1.00  0.00     0.188 C 
BRANCH  29  30
ATOM     30  C   UNL A   1      32.771  30.353  27.007  1.00  0.00     0.188 C 
BRANCH  30  31
ATOM     31  O   UNL A   1      33.401  31.296  27.864  1.00  0.00    -0.376 OA
BRANCH  31  32
ATOM     32  C   UNL A   1      34.771  31.565  27.617  1.00  0.00     0.202 C 
BRANCH  32  33
ATOM     33  C   UNL A   1      35.742  31.212  28.751  1.00  0.00     0.261 C 
BRANCH  33  34
ATOM     34  O   UNL A   1      36.407  29.943  28.637  1.00  0.00    -0.460 OA
BRANCH  34  35
ATOM     35  C   UNL A   1      37.033  29.456  29.732  1.00  0.00     0.338 C 
ATOM     36  O   UNL A   1      36.528  29.172  30.803  1.00  0.00    -0.246 OA
BRANCH  35  37
ATOM     37  C   UNL A   1      38.420  29.137  29.334  1.00  0.00     0.060 A 
ATOM     38  C   UNL A   1      39.292  28.570  30.273  1.00  0.00     0.016 A 
ATOM     39  C   UNL A   1      38.837  29.352  28.018  1.00  0.00     0.016 A 
ATOM     40  C   UNL A   1      40.591  28.220  29.896  1.00  0.00     0.010 A 
ATOM     41  C   UNL A   1      40.144  29.026  27.650  1.00  0.00     0.010 A 
ATOM     42  C   UNL A   1      41.032  28.474  28.590  1.00  0.00    -0.014 A 
BRANCH  42  43
ATOM     43  C   UNL A   1      42.464  28.311  28.239  1.00  0.00     0.031 A 
ATOM     44  C   UNL A   1      43.385  29.483  28.433  1.00  0.00     0.074 A 
ATOM     45  C   UNL A   1      42.935  27.151  27.749  1.00  0.00     0.049 A 
ATOM     46  N   UNL A   1      44.653  29.598  28.135  1.00  0.00    -0.248 NA
ATOM     47  C   UNL A   1      42.797  30.688  29.040  1.00  0.00     0.031 C 
ATOM     48  C   UNL A   1      42.152  25.932  27.552  1.00  0.00     0.029 A 
ATOM     49  N   UNL A   1      44.194  26.815  27.312  1.00  0.00    -0.354 N 
ATOM     50  C   UNL A   1      45.012  30.886  28.509  1.00  0.00     0.074 A 
ATOM     51  C   UNL A   1      43.825  31.523  29.035  1.00  0.00     0.031 C 
ATOM     52  C   UNL A   1      42.945  24.986  27.019  1.00  0.00     0.029 A 
ATOM     53  C   UNL A   1      44.280  25.542  26.802  1.00  0.00     0.049 A 
ATOM     54  H   UNL A   1      44.962  27.429  27.360  1.00  0.00     0.167 HD
ATOM     55  C   UNL A   1      46.223  31.486  28.423  1.00  0.00     0.031 A 
ATOM     56  C   UNL A   1      45.307  24.910  26.200  1.00  0.00     0.031 A 
ATOM     57  C   UNL A   1      47.398  30.857  27.880  1.00  0.00     0.049 A 
ATOM     58  C   UNL A   1      46.624  25.629  26.037  1.00  0.00     0.074 A 
ATOM     59  C   UNL A   1      48.676  31.374  27.771  1.00  0.00     0.029 A 
ATOM     60  N   UNL A   1      47.434  29.581  27.339  1.00  0.00    -0.354 N 
ATOM     61  N   UNL A   1      46.961  26.833  26.433  1.00  0.00    -0.248 NA
ATOM     62  C   UNL A   1      47.698  24.901  25.345  1.00  0.00     0.031 C 
ATOM     63  C   UNL A   1      49.470  30.437  27.102  1.00  0.00     0.029 A 
ATOM     64  C   UNL A   1      48.704  29.308  26.858  1.00  0.00     0.049 A 
ATOM     65  H   UNL A   1      46.671  28.960  27.303  1.00  0.00     0.167 HD
ATOM     66  C   UNL A   1      48.291  26.999  26.058  1.00  0.00     0.074 A 
ATOM     67  C   UNL A   1      48.703  25.764  25.422  1.00  0.00     0.031 C 
ATOM     68  C   UNL A   1      49.099  28.077  26.221  1.00  0.00     0.031 A 
BRANCH  55  69
ATOM     69  C   UNL A   1      46.330  32.913  28.891  1.00  0.00    -0.014 A 
ATOM     70  C   UNL A   1      46.470  33.973  27.977  1.00  0.00     0.010 A 
ATOM     71  C   UNL A   1      46.240  33.200  30.266  1.00  0.00     0.010 A 
ATOM     72  C   UNL A   1      46.550  35.292  28.433  1.00  0.00     0.020 A 
ATOM     73  C   UNL A   1      46.290  34.520  30.722  1.00  0.00     0.020 A 
ATOM     74  C   UNL A   1      46.458  35.557  29.803  1.00  0.00     0.054 A 
BRANCH  74  75
ATOM     75  S   UNL A   1      46.528  37.281  30.361  1.00  0.00     0.124 S 
ATOM     76  O   UNL A   1      47.962  37.470  30.577  1.00  0.00    -0.237 OA
ATOM     77  O   UNL A   1      45.963  38.006  29.228  1.00  0.00    -0.237 OA
ATOM     78  O   UNL A   1      45.711  37.288  31.573  1.00  0.00    -0.744 OA
ENDBRANCH  74  75
ENDBRANCH  55  69
BRANCH  56  79
ATOM     79  C   UNL A   1      45.128  23.529  25.668  1.00  0.00    -0.014 A 
ATOM     80  C   UNL A   1      45.396  22.406  26.469  1.00  0.00     0.010 A 
ATOM     81  C   UNL A   1      44.700  23.333  24.341  1.00  0.00     0.010 A 
ATOM     82  C   UNL A   1      45.253  21.114  25.951  1.00  0.00     0.020 A 
ATOM     83  C   UNL A   1      44.527  22.044  23.829  1.00  0.00     0.020 A 
ATOM     84  C   UNL A   1      44.816  20.941  24.634  1.00  0.00     0.054 A 
BRANCH  84  85
ATOM     85  S   UNL A   1      44.587  19.257  24.000  1.00  0.00     0.124 S 
ATOM     86  O   UNL A   1      45.741  18.562  24.560  1.00  0.00    -0.237 OA
ATOM     87  O   UNL A   1      43.290  18.885  24.560  1.00  0.00    -0.237 OA
ATOM     88  O   UNL A   1      44.602  19.432  22.550  1.00  0.00    -0.744 OA
ENDBRANCH  84  85
ENDBRANCH  56  79
BRANCH  68  89
ATOM     89  C   UNL A   1      50.517  27.969  25.723  1.00  0.00    -0.014 A 
ATOM     90  C   UNL A   1      51.572  27.649  26.594  1.00  0.00     0.010 A 
ATOM     91  C   UNL A   1      50.788  28.129  24.351  1.00  0.00     0.010 A 
ATOM     92  C   UNL A   1      52.877  27.521  26.109  1.00  0.00     0.020 A 
ATOM     93  C   UNL A   1      52.085  27.973  23.856  1.00  0.00     0.020 A 
ATOM     94  C   UNL A   1      53.125  27.683  24.741  1.00  0.00     0.054 A 
BRANCH  94  95
ATOM     95  S   UNL A   1      54.820  27.466  24.131  1.00  0.00     0.124 S 
ATOM     96  O   UNL A   1      55.330  28.835  24.160  1.00  0.00    -0.237 OA
ATOM     97  O   UNL A   1      55.401  26.558  25.116  1.00  0.00    -0.237 OA
ATOM     98  O   UNL A   1      54.638  26.897  22.797  1.00  0.00    -0.744 OA
ENDBRANCH  94  95
ENDBRANCH  68  89
ENDBRANCH  42  43
ENDBRANCH  35  37
ENDBRANCH  34  35
ENDBRANCH  33  34
ENDBRANCH  32  33
ENDBRANCH  31  32
ENDBRANCH  30  31
ENDBRANCH  29  30
ENDBRANCH  28  29
ENDBRANCH  27  28
ENDBRANCH   1  27
TORSDOF 29
ENDMDL
MODEL 2
REMARK VINA RESULT:      -8.3      6.236      8.489
REMARK SMILES C[C@H](CCCO)Nc1ccc2c(C(=O)OCCOCCOCCOCCOC(=O)c3ccc(-c4c5nc(c(-c6ccc(S(=O)(=O)[O-])cc6)c6ccc([nH]6)c(-c6ccc(S(=O)(=O)[O-])cc6)c6nc(c(-c7ccc(S(=O)(=O)[O-])cc7)c7ccc4[nH]7)C=C6)C=C5)cc3)cccc2n1
REMARK SMILES IDX 19 1 18 2 17 3 16 4 15 5 13 6 14 7 12 8 8 9 9 10 94 11 10 12
REMARK SMILES IDX 93 13 11 14 92 15 91 16 90 17 7 18 2 20 1 21 3 22 4 23 5 24
REMARK SMILES IDX 6 25 20 27 21 28 22 29 23 30 24 31 25 32 26 33 27 34 28 35
REMARK SMILES IDX 29 36 30 37 31 38 89 39 32 40 88 41 33 42 34 43 35 44 82 45
REMARK SMILES IDX 36 46 87 47 81 48 83 49 37 50 86 51 80 52 79 53 38 55 68 56
REMARK SMILES IDX 49 57 67 58 50 59 53 60 66 61 84 62 51 63 52 64 65 66 85 67
REMARK SMILES IDX 54 68 39 69 40 70 48 71 41 72 47 73 42 74 43 75 44 76 45 77
REMARK SMILES IDX 46 78 69 79 70 80 78 81 71 82 77 83 72 84 73 85 74 86 75 87
REMARK SMILES IDX 76 88 55 89 56 90 64 91 57 92 63 93 58 94 59 95 60 96 61 97
REMARK SMILES IDX 62 98
REMARK H PARENT 7 19 6 26 83 54 53 65
REMARK Flexibility Score: inf
ROOT
ATOM      1  C   UNL A   1      31.437  27.828  25.107  1.00  0.00     0.188 C 
ENDROOT
BRANCH   1   2
ATOM      2  O   UNL A   1      32.461  27.512  24.176  1.00  0.00    -0.376 OA
BRANCH   2   3
ATOM      3  C   UNL A   1      32.791  26.143  24.012  1.00  0.00     0.202 C 
BRANCH   3   4
ATOM      4  C   UNL A   1      32.006  25.391  22.931  1.00  0.00     0.261 C 
BRANCH   4   5
ATOM      5  O   UNL A   1      31.958  23.968  23.111  1.00  0.00    -0.460 OA
BRANCH   5   6
ATOM      6  C   UNL A   1      32.889  23.228  22.469  1.00  0.00     0.338 C 
ATOM      7  O   UNL A   1      33.323  23.421  21.346  1.00  0.00    -0.246 OA
BRANCH   6   8
ATOM      8  C   UNL A   1      33.422  22.238  23.439  1.00  0.00     0.069 A 
ATOM      9  C   UNL A   1      37.375  22.235  24.857  1.00  0.00     0.126 A 
ATOM     10  C   UNL A   1      36.996  23.281  24.037  1.00  0.00     0.047 A 
ATOM     11  N   UNL A   1      36.508  21.273  25.224  1.00  0.00    -0.231 NA
ATOM     12  C   UNL A   1      35.706  23.294  23.521  1.00  0.00     0.015 A 
ATOM     13  C   UNL A   1      35.236  21.325  24.791  1.00  0.00     0.073 A 
ATOM     14  C   UNL A   1      34.774  22.299  23.882  1.00  0.00     0.015 A 
ATOM     15  C   UNL A   1      34.342  20.379  25.276  1.00  0.00     0.029 A 
ATOM     16  C   UNL A   1      33.001  20.358  24.890  1.00  0.00     0.003 A 
ATOM     17  C   UNL A   1      32.541  21.280  23.961  1.00  0.00     0.016 A 
BRANCH   9  18
ATOM     18  N   UNL A   1      38.708  22.101  25.194  1.00  0.00    -0.368 N 
ATOM     19  H   UNL A   1      39.388  21.897  24.511  1.00  0.00     0.162 HD
BRANCH  18  20
ATOM     20  C   UNL A   1      39.068  22.272  26.589  1.00  0.00     0.077 C 
ATOM     21  C   UNL A   1      39.015  23.745  26.962  1.00  0.00     0.031 C 
BRANCH  20  22
ATOM     22  C   UNL A   1      40.415  21.571  26.859  1.00  0.00     0.027 C 
BRANCH  22  23
ATOM     23  C   UNL A   1      40.504  20.057  26.619  1.00  0.00     0.030 C 
BRANCH  23  24
ATOM     24  C   UNL A   1      41.907  19.462  26.576  1.00  0.00     0.156 C 
BRANCH  24  25
ATOM     25  O   UNL A   1      42.356  19.100  27.874  1.00  0.00    -0.396 OA
ATOM     26  H   UNL A   1      41.624  19.184  28.504  1.00  0.00     0.210 HD
ENDBRANCH  24  25
ENDBRANCH  23  24
ENDBRANCH  22  23
ENDBRANCH  20  22
ENDBRANCH  18  20
ENDBRANCH   9  18
ENDBRANCH   6   8
ENDBRANCH   5   6
ENDBRANCH   4   5
ENDBRANCH   3   4
ENDBRANCH   2   3
ENDBRANCH   1   2
BRANCH   1  27
ATOM     27  C   UNL A   1      31.482  29.264  25.670  1.00  0.00     0.188 C 
BRANCH  27  28
ATOM     28  O   UNL A   1      32.373  29.590  26.726  1.00  0.00    -0.377 OA
BRANCH  28  29
ATOM     29  C   UNL A   1      32.703  30.950  26.977  1.00  0.00     0.188 C 
BRANCH  29  30
ATOM     30  C   UNL A   1      33.897  31.300  27.894  1.00  0.00     0.188 C 
BRANCH  30  31
ATOM     31  O   UNL A   1      34.779  32.282  27.369  1.00  0.00    -0.376 OA
BRANCH  31  32
ATOM     32  C   UNL A   1      34.929  33.473  28.124  1.00  0.00     0.202 C 
BRANCH  32  33
ATOM     33  C   UNL A   1      33.663  34.324  28.299  1.00  0.00     0.261 C 
BRANCH  33  34
ATOM     34  O   UNL A   1      32.908  34.086  29.498  1.00  0.00    -0.460 OA
BRANCH  34  35
ATOM     35  C   UNL A   1      33.213  34.816  30.593  1.00  0.00     0.338 C 
ATOM     36  O   UNL A   1      32.551  35.707  31.093  1.00  0.00    -0.246 OA
BRANCH  35  37
ATOM     37  C   UNL A   1      34.413  34.204  31.203  1.00  0.00     0.060 A 
ATOM     38  C   UNL A   1      35.597  34.949  31.290  1.00  0.00     0.016 A 
ATOM     39  C   UNL A   1      34.346  32.914  31.733  1.00  0.00     0.016 A 
ATOM     40  C   UNL A   1      36.723  34.399  31.906  1.00  0.00     0.010 A 
ATOM     41  C   UNL A   1      35.481  32.356  32.326  1.00  0.00     0.010 A 
ATOM     42  C   UNL A   1      36.679  33.088  32.401  1.00  0.00    -0.014 A 
BRANCH  42  43
ATOM     43  C   UNL A   1      37.921  32.418  32.857  1.00  0.00     0.031 A 
ATOM     44  C   UNL A   1      38.424  32.712  34.242  1.00  0.00     0.074 A 
ATOM     45  C   UNL A   1      38.595  31.575  32.054  1.00  0.00     0.049 A 
ATOM     46  N   UNL A   1      39.517  32.300  34.831  1.00  0.00    -0.248 NA
ATOM     47  C   UNL A   1      37.585  33.590  35.074  1.00  0.00     0.031 C 
ATOM     48  C   UNL A   1      38.189  31.179  30.707  1.00  0.00     0.029 A 
ATOM     49  N   UNL A   1      39.779  30.908  32.258  1.00  0.00    -0.354 N 
ATOM     50  C   UNL A   1      39.501  32.875  36.096  1.00  0.00     0.074 A 
ATOM     51  C   UNL A   1      38.303  33.682  36.182  1.00  0.00     0.031 C 
ATOM     52  C   UNL A   1      39.118  30.350  30.198  1.00  0.00     0.029 A 
ATOM     53  C   UNL A   1      40.201  30.186  31.167  1.00  0.00     0.049 A 
ATOM     54  H   UNL A   1      40.278  30.944  33.106  1.00  0.00     0.167 HD
ATOM     55  C   UNL A   1      40.403  32.742  37.097  1.00  0.00     0.031 A 
ATOM     56  C   UNL A   1      41.342  29.499  30.963  1.00  0.00     0.031 A 
ATOM     57  C   UNL A   1      41.604  31.956  37.000  1.00  0.00     0.049 A 
ATOM     58  C   UNL A   1      42.374  29.436  32.062  1.00  0.00     0.074 A 
ATOM     59  C   UNL A   1      42.569  31.741  37.969  1.00  0.00     0.029 A 
ATOM     60  N   UNL A   1      42.013  31.271  35.867  1.00  0.00    -0.354 N 
ATOM     61  N   UNL A   1      42.327  29.950  33.268  1.00  0.00    -0.248 NA
ATOM     62  C   UNL A   1      43.613  28.699  31.772  1.00  0.00     0.031 C 
ATOM     63  C   UNL A   1      43.596  30.982  37.398  1.00  0.00     0.029 A 
ATOM     64  C   UNL A   1      43.238  30.665  36.098  1.00  0.00     0.049 A 
ATOM     65  H   UNL A   1      41.509  31.222  35.023  1.00  0.00     0.167 HD
ATOM     66  C   UNL A   1      43.518  29.581  33.886  1.00  0.00     0.074 A 
ATOM     67  C   UNL A   1      44.256  28.783  32.929  1.00  0.00     0.031 C 
ATOM     68  C   UNL A   1      43.964  29.879  35.133  1.00  0.00     0.031 A 
BRANCH  55  69
ATOM     69  C   UNL A   1      40.146  33.499  38.373  1.00  0.00    -0.014 A 
ATOM     70  C   UNL A   1      40.530  34.845  38.514  1.00  0.00     0.010 A 
ATOM     71  C   UNL A   1      39.466  32.866  39.430  1.00  0.00     0.010 A 
ATOM     72  C   UNL A   1      40.266  35.534  39.701  1.00  0.00     0.020 A 
ATOM     73  C   UNL A   1      39.174  33.561  40.607  1.00  0.00     0.020 A 
ATOM     74  C   UNL A   1      39.589  34.887  40.740  1.00  0.00     0.054 A 
BRANCH  74  75
ATOM     75  S   UNL A   1      39.228  35.818  42.254  1.00  0.00     0.124 S 
ATOM     76  O   UNL A   1      39.501  37.191  41.835  1.00  0.00    -0.237 OA
ATOM     77  O   UNL A   1      37.823  35.503  42.494  1.00  0.00    -0.237 OA
ATOM     78  O   UNL A   1      40.164  35.268  43.232  1.00  0.00    -0.744 OA
ENDBRANCH  74  75
ENDBRANCH  55  69
BRANCH  56  79
ATOM     79  C   UNL A   1      41.596  28.842  29.649  1.00  0.00    -0.014 A 
ATOM     80  C   UNL A   1      42.055  27.515  29.581  1.00  0.00     0.010 A 
ATOM     81  C   UNL A   1      41.391  29.554  28.452  1.00  0.00     0.010 A 
ATOM     82  C   UNL A   1      42.319  26.918  28.344  1.00  0.00     0.020 A 
ATOM     83  C   UNL A   1      41.624  28.951  27.213  1.00  0.00     0.020 A 
ATOM     84  C   UNL A   1      42.098  27.640  27.166  1.00  0.00     0.054 A 
BRANCH  84  85
ATOM     85  S   UNL A   1      42.396  26.827  25.572  1.00  0.00     0.124 S 
ATOM     86  O   UNL A   1      42.622  27.966  24.688  1.00  0.00    -0.237 OA
ATOM     87  O   UNL A   1      43.567  26.001  25.855  1.00  0.00    -0.237 OA
ATOM     88  O   UNL A   1      41.162  26.082  25.331  1.00  0.00    -0.744 OA
ENDBRANCH  84  85
ENDBRANCH  56  79
BRANCH  68  89
ATOM     89  C   UNL A   1      45.304  29.325  35.546  1.00  0.00    -0.014 A 
ATOM     90  C   UNL A   1      46.477  30.091  35.426  1.00  0.00     0.010 A 
ATOM     91  C   UNL A   1      45.381  28.042  36.120  1.00  0.00     0.010 A 
ATOM     92  C   UNL A   1      47.706  29.573  35.844  1.00  0.00     0.020 A 
ATOM     93  C   UNL A   1      46.603  27.533  36.567  1.00  0.00     0.020 A 
ATOM     94  C   UNL A   1      47.761  28.297  36.414  1.00  0.00     0.054 A 
BRANCH  94  95
ATOM     95  S   UNL A   1      49.362  27.668  36.990  1.00  0.00     0.124 S 
ATOM     96  O   UNL A   1      50.284  28.685  36.492  1.00  0.00    -0.237 OA
ATOM     97  O   UNL A   1      49.188  27.631  38.440  1.00  0.00    -0.237 OA
ATOM     98  O   UNL A   1      49.472  26.359  36.348  1.00  0.00    -0.744 OA
ENDBRANCH  94  95
ENDBRANCH  68  89
ENDBRANCH  42  43
ENDBRANCH  35  37
ENDBRANCH  34  35
ENDBRANCH  33  34
ENDBRANCH  32  33
ENDBRANCH  31  32
ENDBRANCH  30  31
ENDBRANCH  29  30
ENDBRANCH  28  29
ENDBRANCH  27  28
ENDBRANCH   1  27
TORSDOF 29
ENDMDL
MODEL 3
REMARK VINA RESULT:      -8.2      1.605      8.068
REMARK SMILES C[C@H](CCCO)Nc1ccc2c(C(=O)OCCOCCOCCOCCOC(=O)c3ccc(-c4c5nc(c(-c6ccc(S(=O)(=O)[O-])cc6)c6ccc([nH]6)c(-c6ccc(S(=O)(=O)[O-])cc6)c6nc(c(-c7ccc(S(=O)(=O)[O-])cc7)c7ccc4[nH]7)C=C6)C=C5)cc3)cccc2n1
REMARK SMILES IDX 19 1 18 2 17 3 16 4 15 5 13 6 14 7 12 8 8 9 9 10 94 11 10 12
REMARK SMILES IDX 93 13 11 14 92 15 91 16 90 17 7 18 2 20 1 21 3 22 4 23 5 24
REMARK SMILES IDX 6 25 20 27 21 28 22 29 23 30 24 31 25 32 26 33 27 34 28 35
REMARK SMILES IDX 29 36 30 37 31 38 89 39 32 40 88 41 33 42 34 43 35 44 82 45
REMARK SMILES IDX 36 46 87 47 81 48 83 49 37 50 86 51 80 52 79 53 38 55 68 56
REMARK SMILES IDX 49 57 67 58 50 59 53 60 66 61 84 62 51 63 52 64 65 66 85 67
REMARK SMILES IDX 54 68 39 69 40 70 48 71 41 72 47 73 42 74 43 75 44 76 45 77
REMARK SMILES IDX 46 78 69 79 70 80 78 81 71 82 77 83 72 84 73 85 74 86 75 87
REMARK SMILES IDX 76 88 55 89 56 90 64 91 57 92 63 93 58 94 59 95 60 96 61 97
REMARK SMILES IDX 62 98
REMARK H PARENT 7 19 6 26 83 54 53 65
REMARK Flexibility Score: inf
ROOT
ATOM      1  C   UNL A   1      31.202  27.656  25.231  1.00  0.00     0.188 C 
ENDROOT
BRANCH   1   2
ATOM      2  O   UNL A   1      32.049  27.003  24.298  1.00  0.00    -0.376 OA
BRANCH   2   3
ATOM      3  C   UNL A   1      32.060  25.585  24.311  1.00  0.00     0.202 C 
BRANCH   3   4
ATOM      4  C   UNL A   1      31.365  24.901  23.128  1.00  0.00     0.261 C 
BRANCH   4   5
ATOM      5  O   UNL A   1      31.603  23.488  23.035  1.00  0.00    -0.460 OA
BRANCH   5   6
ATOM      6  C   UNL A   1      32.759  23.088  22.459  1.00  0.00     0.338 C 
ATOM      7  O   UNL A   1      33.307  23.602  21.498  1.00  0.00    -0.246 OA
BRANCH   6   8
ATOM      8  C   UNL A   1      33.337  22.018  23.309  1.00  0.00     0.069 A 
ATOM      9  C   UNL A   1      37.143  22.222  25.072  1.00  0.00     0.126 A 
ATOM     10  C   UNL A   1      36.699  23.340  24.392  1.00  0.00     0.047 A 
ATOM     11  N   UNL A   1      36.379  21.122  25.204  1.00  0.00    -0.231 NA
ATOM     12  C   UNL A   1      35.459  23.294  23.766  1.00  0.00     0.015 A 
ATOM     13  C   UNL A   1      35.146  21.103  24.667  1.00  0.00     0.073 A 
ATOM     14  C   UNL A   1      34.635  22.155  23.880  1.00  0.00     0.015 A 
ATOM     15  C   UNL A   1      34.343  19.997  24.914  1.00  0.00     0.029 A 
ATOM     16  C   UNL A   1      33.048  19.890  24.407  1.00  0.00     0.003 A 
ATOM     17  C   UNL A   1      32.547  20.896  23.593  1.00  0.00     0.016 A 
BRANCH   9  18
ATOM     18  N   UNL A   1      38.454  22.183  25.507  1.00  0.00    -0.368 N 
ATOM     19  H   UNL A   1      39.125  21.624  25.053  1.00  0.00     0.162 HD
BRANCH  18  20
ATOM     20  C   UNL A   1      38.805  22.997  26.657  1.00  0.00     0.077 C 
ATOM     21  C   UNL A   1      38.175  24.375  26.529  1.00  0.00     0.031 C 
BRANCH  20  22
ATOM     22  C   UNL A   1      40.335  22.983  26.845  1.00  0.00     0.027 C 
BRANCH  22  23
ATOM     23  C   UNL A   1      40.936  21.960  27.819  1.00  0.00     0.030 C 
BRANCH  23  24
ATOM     24  C   UNL A   1      42.439  21.727  27.711  1.00  0.00     0.156 C 
BRANCH  24  25
ATOM     25  O   UNL A   1      43.093  21.986  28.944  1.00  0.00    -0.396 OA
ATOM     26  H   UNL A   1      44.053  21.951  28.814  1.00  0.00     0.210 HD
ENDBRANCH  24  25
ENDBRANCH  23  24
ENDBRANCH  22  23
ENDBRANCH  20  22
ENDBRANCH  18  20
ENDBRANCH   9  18
ENDBRANCH   6   8
ENDBRANCH   5   6
ENDBRANCH   4   5
ENDBRANCH   3   4
ENDBRANCH   2   3
ENDBRANCH   1   2
BRANCH   1  27
ATOM     27  C   UNL A   1      31.701  29.032  25.721  1.00  0.00     0.188 C 
BRANCH  27  28
ATOM     28  O   UNL A   1      32.746  29.114  26.678  1.00  0.00    -0.377 OA
BRANCH  28  29
ATOM     29  C   UNL A   1      33.090  30.373  27.242  1.00  0.00     0.188 C 
BRANCH  29  30
ATOM     30  C   UNL A   1      34.571  30.803  27.332  1.00  0.00     0.188 C 
BRANCH  30  31
ATOM     31  O   UNL A   1      34.778  32.107  27.856  1.00  0.00    -0.376 OA
BRANCH  31  32
ATOM     32  C   UNL A   1      36.067  32.387  28.377  1.00  0.00     0.202 C 
BRANCH  32  33
ATOM     33  C   UNL A   1      36.702  31.283  29.233  1.00  0.00     0.261 C 
BRANCH  33  34
ATOM     34  O   UNL A   1      37.403  30.255  28.514  1.00  0.00    -0.460 OA
BRANCH  34  35
ATOM     35  C   UNL A   1      38.062  29.319  29.233  1.00  0.00     0.338 C 
ATOM     36  O   UNL A   1      37.579  28.486  29.977  1.00  0.00    -0.246 OA
BRANCH  35  37
ATOM     37  C   UNL A   1      39.475  29.353  28.798  1.00  0.00     0.060 A 
ATOM     38  C   UNL A   1      39.780  29.208  27.437  1.00  0.00     0.016 A 
ATOM     39  C   UNL A   1      40.489  29.581  29.731  1.00  0.00     0.016 A 
ATOM     40  C   UNL A   1      41.106  29.287  27.008  1.00  0.00     0.010 A 
ATOM     41  C   UNL A   1      41.817  29.634  29.303  1.00  0.00     0.010 A 
ATOM     42  C   UNL A   1      42.134  29.470  27.943  1.00  0.00    -0.014 A 
BRANCH  42  43
ATOM     43  C   UNL A   1      43.553  29.337  27.531  1.00  0.00     0.031 A 
ATOM     44  C   UNL A   1      44.025  28.009  27.011  1.00  0.00     0.074 A 
ATOM     45  C   UNL A   1      44.408  30.371  27.628  1.00  0.00     0.049 A 
ATOM     46  N   UNL A   1      45.227  27.638  26.657  1.00  0.00    -0.248 NA
ATOM     47  C   UNL A   1      43.004  26.956  26.874  1.00  0.00     0.031 C 
ATOM     48  C   UNL A   1      44.063  31.718  28.079  1.00  0.00     0.029 A 
ATOM     49  N   UNL A   1      45.753  30.441  27.361  1.00  0.00    -0.354 N 
ATOM     50  C   UNL A   1      45.111  26.310  26.264  1.00  0.00     0.074 A 
ATOM     51  C   UNL A   1      43.726  25.933  26.445  1.00  0.00     0.031 C 
ATOM     52  C   UNL A   1      45.173  32.477  28.073  1.00  0.00     0.029 A 
ATOM     53  C   UNL A   1      46.312  31.662  27.653  1.00  0.00     0.049 A 
ATOM     54  H   UNL A   1      46.269  29.686  26.994  1.00  0.00     0.167 HD
ATOM     55  C   UNL A   1      46.072  25.479  25.795  1.00  0.00     0.031 A 
ATOM     56  C   UNL A   1      47.598  32.065  27.618  1.00  0.00     0.031 A 
ATOM     57  C   UNL A   1      47.453  25.851  25.638  1.00  0.00     0.049 A 
ATOM     58  C   UNL A   1      48.665  31.095  27.175  1.00  0.00     0.074 A 
ATOM     59  C   UNL A   1      48.497  25.086  25.149  1.00  0.00     0.029 A 
ATOM     60  N   UNL A   1      47.985  27.084  25.981  1.00  0.00    -0.354 N 
ATOM     61  N   UNL A   1      48.535  29.855  26.767  1.00  0.00    -0.248 NA
ATOM     62  C   UNL A   1      50.053  31.581  27.186  1.00  0.00     0.031 C 
ATOM     63  C   UNL A   1      49.673  25.834  25.260  1.00  0.00     0.029 A 
ATOM     64  C   UNL A   1      49.351  27.089  25.752  1.00  0.00     0.049 A 
ATOM     65  H   UNL A   1      47.468  27.844  26.334  1.00  0.00     0.167 HD
ATOM     66  C   UNL A   1      49.819  29.420  26.454  1.00  0.00     0.074 A 
ATOM     67  C   UNL A   1      50.709  30.535  26.699  1.00  0.00     0.031 C 
ATOM     68  C   UNL A   1      50.227  28.205  26.008  1.00  0.00     0.031 A 
BRANCH  55  69
ATOM     69  C   UNL A   1      45.669  24.068  25.458  1.00  0.00    -0.014 A 
ATOM     70  C   UNL A   1      45.216  23.726  24.171  1.00  0.00     0.010 A 
ATOM     71  C   UNL A   1      45.792  23.060  26.432  1.00  0.00     0.010 A 
ATOM     72  C   UNL A   1      44.864  22.406  23.875  1.00  0.00     0.020 A 
ATOM     73  C   UNL A   1      45.468  21.735  26.131  1.00  0.00     0.020 A 
ATOM     74  C   UNL A   1      44.993  21.418  24.856  1.00  0.00     0.054 A 
BRANCH  74  75
ATOM     75  S   UNL A   1      44.563  19.709  24.432  1.00  0.00     0.124 S 
ATOM     76  O   UNL A   1      44.436  19.783  22.977  1.00  0.00    -0.237 OA
ATOM     77  O   UNL A   1      45.715  18.959  24.923  1.00  0.00    -0.237 OA
ATOM     78  O   UNL A   1      43.314  19.474  25.154  1.00  0.00    -0.744 OA
ENDBRANCH  74  75
ENDBRANCH  55  69
BRANCH  56  79
ATOM     79  C   UNL A   1      47.962  33.444  28.051  1.00  0.00    -0.014 A 
ATOM     80  C   UNL A   1      48.077  34.488  27.116  1.00  0.00     0.010 A 
ATOM     81  C   UNL A   1      48.211  33.716  29.410  1.00  0.00     0.010 A 
ATOM     82  C   UNL A   1      48.449  35.772  27.529  1.00  0.00     0.020 A 
ATOM     83  C   UNL A   1      48.553  35.005  29.830  1.00  0.00     0.020 A 
ATOM     84  C   UNL A   1      48.681  36.023  28.885  1.00  0.00     0.054 A 
BRANCH  84  85
ATOM     85  S   UNL A   1      49.109  37.708  29.403  1.00  0.00     0.124 S 
ATOM     86  O   UNL A   1      49.550  37.500  30.778  1.00  0.00    -0.237 OA
ATOM     87  O   UNL A   1      50.155  38.073  28.450  1.00  0.00    -0.237 OA
ATOM     88  O   UNL A   1      47.855  38.442  29.251  1.00  0.00    -0.744 OA
ENDBRANCH  84  85
ENDBRANCH  56  79
BRANCH  68  89
ATOM     89  C   UNL A   1      51.698  28.019  25.734  1.00  0.00    -0.014 A 
ATOM     90  C   UNL A   1      52.600  27.730  26.773  1.00  0.00     0.010 A 
ATOM     91  C   UNL A   1      52.172  28.072  24.411  1.00  0.00     0.010 A 
ATOM     92  C   UNL A   1      53.955  27.529  26.497  1.00  0.00     0.020 A 
ATOM     93  C   UNL A   1      53.521  27.841  24.127  1.00  0.00     0.020 A 
ATOM     94  C   UNL A   1      54.407  27.584  25.173  1.00  0.00     0.054 A 
BRANCH  94  95
ATOM     95  S   UNL A   1      56.163  27.273  24.838  1.00  0.00     0.124 S 
ATOM     96  O   UNL A   1      56.452  28.256  23.796  1.00  0.00    -0.237 OA
ATOM     97  O   UNL A   1      56.786  27.528  26.134  1.00  0.00    -0.237 OA
ATOM     98  O   UNL A   1      56.191  25.878  24.403  1.00  0.00    -0.744 OA
ENDBRANCH  94  95
ENDBRANCH  68  89
ENDBRANCH  42  43
ENDBRANCH  35  37
ENDBRANCH  34  35
ENDBRANCH  33  34
ENDBRANCH  32  33
ENDBRANCH  31  32
ENDBRANCH  30  31
ENDBRANCH  29  30
ENDBRANCH  28  29
ENDBRANCH  27  28
ENDBRANCH   1  27
TORSDOF 29
ENDMDL
