MODEL 1
REMARK VINA RESULT:      -9.5      0.000      0.000
REMARK SMILES CN1C(=O)C[C@@H](C(=O)OCCOCCOCCOCCOC(=O)c2ccc(-c3c4nc(c(-c5ccc(S(=O)(=O)[O-])cc5)c5ccc([nH]5)c(-c5ccc(S(=O)(=O)[O-])cc5)c5nc(c(-c6ccc(S(=O)(=O)[O-])cc6)c6ccc3[nH]6)C=C5)C=C4)cc2)C12CCN(C(=O)c1ccccc1-n1cccn1)CC2
REMARK SMILES IDX 16 1 15 2 14 3 13 4 12 5 11 6 10 7 9 8 7 9 8 10 6 11 1 12
REMARK SMILES IDX 2 13 3 14 84 15 4 16 5 17 85 18 102 19 86 20 101 21 87 22
REMARK SMILES IDX 88 23 89 24 90 25 91 26 95 27 92 28 94 29 93 30 96 31 97 32
REMARK SMILES IDX 100 33 98 34 99 35 17 36 18 37 19 38 20 39 21 40 22 41 23 42
REMARK SMILES IDX 24 43 25 44 83 45 26 46 82 47 27 48 28 49 29 50 76 51 30 52
REMARK SMILES IDX 81 53 75 54 77 55 31 56 80 57 74 58 73 59 32 61 62 62 43 63
REMARK SMILES IDX 61 64 44 65 47 66 60 67 78 68 45 69 46 70 59 72 79 73 48 74
REMARK SMILES IDX 33 75 34 76 42 77 35 78 41 79 36 80 37 81 38 82 39 83 40 84
REMARK SMILES IDX 63 85 64 86 72 87 65 88 71 89 66 90 67 91 68 92 69 93 70 94
REMARK SMILES IDX 49 95 50 96 58 97 51 98 57 99 52 100 53 101 54 102 55 103
REMARK SMILES IDX 56 104
REMARK H PARENT 77 60 47 71
REMARK Flexibility Score: inf
ROOT
ATOM      1  C   UNL A   1      43.086  24.063  27.082  1.00  0.00     0.188 C 
ENDROOT
BRANCH   1   2
ATOM      2  O   UNL A   1      42.329  25.013  26.336  1.00  0.00    -0.377 OA
BRANCH   2   3
ATOM      3  C   UNL A   1      41.427  25.894  26.976  1.00  0.00     0.188 C 
BRANCH   3   4
ATOM      4  C   UNL A   1      40.477  25.262  27.988  1.00  0.00     0.188 C 
BRANCH   4   5
ATOM      5  O   UNL A   1      39.690  24.169  27.569  1.00  0.00    -0.376 OA
BRANCH   5   6
ATOM      6  C   UNL A   1      38.469  24.414  26.869  1.00  0.00     0.202 C 
BRANCH   6   7
ATOM      7  C   UNL A   1      37.777  23.314  26.038  1.00  0.00     0.261 C 
BRANCH   7   8
ATOM      8  O   UNL A   1      37.608  23.574  24.612  1.00  0.00    -0.463 OA
BRANCH   8   9
ATOM      9  C   UNL A   1      36.474  23.094  24.060  1.00  0.00     0.311 C 
ATOM     10  O   UNL A   1      36.292  23.022  22.843  1.00  0.00    -0.252 OA
BRANCH   9  11
ATOM     11  C   UNL A   1      35.307  22.753  24.975  1.00  0.00     0.134 C 
ATOM     12  C   UNL A   1      32.324  20.875  23.661  1.00  0.00     0.147 C 
ATOM     13  N   UNL A   1      33.561  21.366  24.245  1.00  0.00    -0.339 N 
ATOM     14  C   UNL A   1      34.548  20.498  24.682  1.00  0.00     0.223 C 
ATOM     15  C   UNL A   1      33.778  22.759  24.686  1.00  0.00     0.060 C 
ATOM     16  O   UNL A   1      34.553  19.283  24.578  1.00  0.00    -0.275 OA
ATOM     17  C   UNL A   1      35.589  21.298  25.408  1.00  0.00     0.118 C 
ATOM     18  C   UNL A   1      33.209  23.775  23.681  1.00  0.00     0.051 C 
ATOM     19  C   UNL A   1      33.012  22.955  26.040  1.00  0.00     0.051 C 
ATOM     20  C   UNL A   1      33.015  25.205  24.194  1.00  0.00     0.122 C 
ATOM     21  C   UNL A   1      32.926  24.405  26.507  1.00  0.00     0.122 C 
ATOM     22  N   UNL A   1      32.344  25.265  25.487  1.00  0.00    -0.338 N 
ATOM     23  C   UNL A   1      31.427  26.240  25.897  1.00  0.00     0.256 C 
ATOM     24  O   UNL A   1      31.064  26.357  27.068  1.00  0.00    -0.269 OA
BRANCH  23  25
ATOM     25  C   UNL A   1      30.849  27.227  24.951  1.00  0.00     0.065 A 
ATOM     26  C   UNL A   1      29.820  26.738  24.122  1.00  0.00     0.016 A 
ATOM     27  C   UNL A   1      31.278  28.551  24.788  1.00  0.00     0.077 A 
ATOM     28  C   UNL A   1      29.237  27.548  23.143  1.00  0.00     0.001 A 
ATOM     29  C   UNL A   1      30.673  29.367  23.811  1.00  0.00     0.029 A 
ATOM     30  C   UNL A   1      29.678  28.856  22.974  1.00  0.00     0.002 A 
BRANCH  27  31
ATOM     31  N   UNL A   1      32.293  29.134  25.579  1.00  0.00    -0.240 N 
ATOM     32  C   UNL A   1      33.639  28.849  25.610  1.00  0.00     0.115 A 
ATOM     33  N   UNL A   1      31.970  30.089  26.489  1.00  0.00    -0.177 NA
ATOM     34  C   UNL A   1      34.177  29.573  26.647  1.00  0.00     0.042 A 
ATOM     35  C   UNL A   1      33.096  30.295  27.173  1.00  0.00     0.135 A 
ENDBRANCH  27  31
ENDBRANCH  23  25
ENDBRANCH   9  11
ENDBRANCH   8   9
ENDBRANCH   7   8
ENDBRANCH   6   7
ENDBRANCH   5   6
ENDBRANCH   4   5
ENDBRANCH   3   4
ENDBRANCH   2   3
ENDBRANCH   1   2
BRANCH   1  36
ATOM     36  C   UNL A   1      43.274  22.652  26.522  1.00  0.00     0.188 C 
BRANCH  36  37
ATOM     37  O   UNL A   1      44.626  22.235  26.301  1.00  0.00    -0.376 OA
BRANCH  37  38
ATOM     38  C   UNL A   1      45.137  22.367  24.973  1.00  0.00     0.202 C 
BRANCH  38  39
ATOM     39  C   UNL A   1      46.398  23.209  24.896  1.00  0.00     0.261 C 
BRANCH  39  40
ATOM     40  O   UNL A   1      46.132  24.535  25.367  1.00  0.00    -0.460 OA
BRANCH  40  41
ATOM     41  C   UNL A   1      46.818  24.873  26.473  1.00  0.00     0.338 C 
ATOM     42  O   UNL A   1      47.424  24.122  27.230  1.00  0.00    -0.246 OA
BRANCH  41  43
ATOM     43  C   UNL A   1      46.904  26.330  26.561  1.00  0.00     0.060 A 
ATOM     44  C   UNL A   1      47.453  26.865  27.729  1.00  0.00     0.016 A 
ATOM     45  C   UNL A   1      46.334  27.151  25.583  1.00  0.00     0.016 A 
ATOM     46  C   UNL A   1      47.352  28.227  27.970  1.00  0.00     0.010 A 
ATOM     47  C   UNL A   1      46.228  28.522  25.831  1.00  0.00     0.010 A 
ATOM     48  C   UNL A   1      46.683  29.049  27.052  1.00  0.00    -0.014 A 
BRANCH  48  49
ATOM     49  C   UNL A   1      46.282  30.402  27.501  1.00  0.00     0.031 A 
ATOM     50  C   UNL A   1      45.004  30.547  28.284  1.00  0.00     0.074 A 
ATOM     51  C   UNL A   1      47.101  31.451  27.313  1.00  0.00     0.049 A 
ATOM     52  N   UNL A   1      44.508  31.606  28.868  1.00  0.00    -0.248 NA
ATOM     53  C   UNL A   1      44.183  29.334  28.438  1.00  0.00     0.031 C 
ATOM     54  C   UNL A   1      48.386  31.405  26.617  1.00  0.00     0.029 A 
ATOM     55  N   UNL A   1      46.979  32.756  27.713  1.00  0.00    -0.354 N 
ATOM     56  C   UNL A   1      43.323  31.187  29.463  1.00  0.00     0.074 A 
ATOM     57  C   UNL A   1      43.154  29.788  29.139  1.00  0.00     0.031 C 
ATOM     58  C   UNL A   1      48.942  32.628  26.648  1.00  0.00     0.029 A 
ATOM     59  C   UNL A   1      48.042  33.545  27.343  1.00  0.00     0.049 A 
ATOM     60  H   UNL A   1      46.205  33.096  28.217  1.00  0.00     0.167 HD
ATOM     61  C   UNL A   1      42.457  31.902  30.219  1.00  0.00     0.031 A 
ATOM     62  C   UNL A   1      48.255  34.861  27.541  1.00  0.00     0.031 A 
ATOM     63  C   UNL A   1      42.627  33.297  30.519  1.00  0.00     0.049 A 
ATOM     64  C   UNL A   1      47.239  35.654  28.318  1.00  0.00     0.074 A 
ATOM     65  C   UNL A   1      41.813  34.122  31.274  1.00  0.00     0.029 A 
ATOM     66  N   UNL A   1      43.682  34.078  30.067  1.00  0.00    -0.354 N 
ATOM     67  N   UNL A   1      46.135  35.238  28.894  1.00  0.00    -0.248 NA
ATOM     68  C   UNL A   1      47.500  37.091  28.480  1.00  0.00     0.031 C 
ATOM     69  C   UNL A   1      42.345  35.415  31.231  1.00  0.00     0.029 A 
ATOM     70  C   UNL A   1      43.523  35.383  30.501  1.00  0.00     0.049 A 
ATOM     71  H   UNL A   1      44.432  33.752  29.520  1.00  0.00     0.167 HD
ATOM     72  C   UNL A   1      45.580  36.358  29.504  1.00  0.00     0.074 A 
ATOM     73  C   UNL A   1      46.480  37.464  29.242  1.00  0.00     0.031 C 
ATOM     74  C   UNL A   1      44.431  36.465  30.217  1.00  0.00     0.031 A 
BRANCH  61  75
ATOM     75  C   UNL A   1      41.233  31.193  30.734  1.00  0.00    -0.014 A 
ATOM     76  C   UNL A   1      40.153  30.887  29.887  1.00  0.00     0.010 A 
ATOM     77  C   UNL A   1      41.172  30.806  32.086  1.00  0.00     0.010 A 
ATOM     78  C   UNL A   1      39.018  30.242  30.391  1.00  0.00     0.020 A 
ATOM     79  C   UNL A   1      40.052  30.139  32.588  1.00  0.00     0.020 A 
ATOM     80  C   UNL A   1      38.973  29.876  31.740  1.00  0.00     0.054 A 
BRANCH  80  81
ATOM     81  S   UNL A   1      37.497  29.027  32.365  1.00  0.00     0.124 S 
ATOM     82  O   UNL A   1      37.683  27.676  31.842  1.00  0.00    -0.237 OA
ATOM     83  O   UNL A   1      37.638  29.164  33.812  1.00  0.00    -0.237 OA
ATOM     84  O   UNL A   1      36.390  29.775  31.776  1.00  0.00    -0.744 OA
ENDBRANCH  80  81
ENDBRANCH  61  75
BRANCH  62  85
ATOM     85  C   UNL A   1      49.474  35.507  26.978  1.00  0.00    -0.014 A 
ATOM     86  C   UNL A   1      50.668  35.569  27.716  1.00  0.00     0.010 A 
ATOM     87  C   UNL A   1      49.442  36.058  25.683  1.00  0.00     0.010 A 
ATOM     88  C   UNL A   1      51.803  36.181  27.175  1.00  0.00     0.020 A 
ATOM     89  C   UNL A   1      50.581  36.646  25.129  1.00  0.00     0.020 A 
ATOM     90  C   UNL A   1      51.752  36.715  25.883  1.00  0.00     0.054 A 
BRANCH  90  91
ATOM     91  S   UNL A   1      53.252  37.458  25.182  1.00  0.00     0.124 S 
ATOM     92  O   UNL A   1      53.098  37.163  23.760  1.00  0.00    -0.237 OA
ATOM     93  O   UNL A   1      53.111  38.863  25.556  1.00  0.00    -0.237 OA
ATOM     94  O   UNL A   1      54.334  36.745  25.857  1.00  0.00    -0.744 OA
ENDBRANCH  90  91
ENDBRANCH  62  85
BRANCH  74  95
ATOM     95  C   UNL A   1      44.091  37.820  30.779  1.00  0.00    -0.014 A 
ATOM     96  C   UNL A   1      43.664  38.866  29.942  1.00  0.00     0.010 A 
ATOM     97  C   UNL A   1      44.138  38.027  32.170  1.00  0.00     0.010 A 
ATOM     98  C   UNL A   1      43.318  40.105  30.485  1.00  0.00     0.020 A 
ATOM     99  C   UNL A   1      43.766  39.256  32.719  1.00  0.00     0.020 A 
ATOM    100  C   UNL A   1      43.371  40.293  31.870  1.00  0.00     0.054 A 
BRANCH 100 101
ATOM    101  S   UNL A   1      42.871  41.896  32.553  1.00  0.00     0.124 S 
ATOM    102  O   UNL A   1      41.878  42.344  31.580  1.00  0.00    -0.237 OA
ATOM    103  O   UNL A   1      42.345  41.535  33.867  1.00  0.00    -0.237 OA
ATOM    104  O   UNL A   1      44.113  42.666  32.576  1.00  0.00    -0.744 OA
ENDBRANCH 100 101
ENDBRANCH  74  95
ENDBRANCH  48  49
ENDBRANCH  41  43
ENDBRANCH  40  41
ENDBRANCH  39  40
ENDBRANCH  38  39
ENDBRANCH  37  38
ENDBRANCH  36  37
ENDBRANCH   1  36
TORSDOF 25
ENDMDL
MODEL 2
REMARK VINA RESULT:      -9.5      4.312      6.428
REMARK SMILES CN1C(=O)C[C@@H](C(=O)OCCOCCOCCOCCOC(=O)c2ccc(-c3c4nc(c(-c5ccc(S(=O)(=O)[O-])cc5)c5ccc([nH]5)c(-c5ccc(S(=O)(=O)[O-])cc5)c5nc(c(-c6ccc(S(=O)(=O)[O-])cc6)c6ccc3[nH]6)C=C5)C=C4)cc2)C12CCN(C(=O)c1ccccc1-n1cccn1)CC2
REMARK SMILES IDX 16 1 15 2 14 3 13 4 12 5 11 6 10 7 9 8 7 9 8 10 6 11 1 12
REMARK SMILES IDX 2 13 3 14 84 15 4 16 5 17 85 18 102 19 86 20 101 21 87 22
REMARK SMILES IDX 88 23 89 24 90 25 91 26 95 27 92 28 94 29 93 30 96 31 97 32
REMARK SMILES IDX 100 33 98 34 99 35 17 36 18 37 19 38 20 39 21 40 22 41 23 42
REMARK SMILES IDX 24 43 25 44 83 45 26 46 82 47 27 48 28 49 29 50 76 51 30 52
REMARK SMILES IDX 81 53 75 54 77 55 31 56 80 57 74 58 73 59 32 61 62 62 43 63
REMARK SMILES IDX 61 64 44 65 47 66 60 67 78 68 45 69 46 70 59 72 79 73 48 74
REMARK SMILES IDX 33 75 34 76 42 77 35 78 41 79 36 80 37 81 38 82 39 83 40 84
REMARK SMILES IDX 63 85 64 86 72 87 65 88 71 89 66 90 67 91 68 92 69 93 70 94
REMARK SMILES IDX 49 95 50 96 58 97 51 98 57 99 52 100 53 101 54 102 55 103
REMARK SMILES IDX 56 104
REMARK H PARENT 77 60 47 71
REMARK Flexibility Score: inf
ROOT
ATOM      1  C   UNL A   1      42.915  23.119  27.059  1.00  0.00     0.188 C 
ENDROOT
BRANCH   1   2
ATOM      2  O   UNL A   1      41.973  23.746  26.192  1.00  0.00    -0.377 OA
BRANCH   2   3
ATOM      3  C   UNL A   1      41.204  24.850  26.624  1.00  0.00     0.188 C 
BRANCH   3   4
ATOM      4  C   UNL A   1      40.485  24.685  27.959  1.00  0.00     0.188 C 
BRANCH   4   5
ATOM      5  O   UNL A   1      39.096  24.434  27.940  1.00  0.00    -0.376 OA
BRANCH   5   6
ATOM      6  C   UNL A   1      38.340  24.779  26.779  1.00  0.00     0.202 C 
BRANCH   6   7
ATOM      7  C   UNL A   1      37.189  23.887  26.268  1.00  0.00     0.261 C 
BRANCH   7   8
ATOM      8  O   UNL A   1      37.489  23.004  25.144  1.00  0.00    -0.463 OA
BRANCH   8   9
ATOM      9  C   UNL A   1      36.427  22.605  24.414  1.00  0.00     0.311 C 
ATOM     10  O   UNL A   1      36.418  22.599  23.181  1.00  0.00    -0.252 OA
BRANCH   9  11
ATOM     11  C   UNL A   1      35.128  22.277  25.136  1.00  0.00     0.134 C 
ATOM     12  C   UNL A   1      32.256  20.692  23.295  1.00  0.00     0.147 C 
ATOM     13  N   UNL A   1      33.426  21.061  24.075  1.00  0.00    -0.339 N 
ATOM     14  C   UNL A   1      34.294  20.102  24.571  1.00  0.00     0.223 C 
ATOM     15  C   UNL A   1      33.656  22.402  24.647  1.00  0.00     0.060 C 
ATOM     16  O   UNL A   1      34.248  18.900  24.375  1.00  0.00    -0.275 OA
ATOM     17  C   UNL A   1      35.268  20.781  25.489  1.00  0.00     0.118 C 
ATOM     18  C   UNL A   1      33.287  23.521  23.657  1.00  0.00     0.051 C 
ATOM     19  C   UNL A   1      32.723  22.553  25.898  1.00  0.00     0.051 C 
ATOM     20  C   UNL A   1      33.103  24.921  24.249  1.00  0.00     0.122 C 
ATOM     21  C   UNL A   1      32.653  23.970  26.461  1.00  0.00     0.122 C 
ATOM     22  N   UNL A   1      32.265  24.934  25.442  1.00  0.00    -0.338 N 
ATOM     23  C   UNL A   1      31.354  25.936  25.800  1.00  0.00     0.256 C 
ATOM     24  O   UNL A   1      30.840  25.995  26.918  1.00  0.00    -0.269 OA
BRANCH  23  25
ATOM     25  C   UNL A   1      30.967  27.021  24.865  1.00  0.00     0.065 A 
ATOM     26  C   UNL A   1      29.922  26.707  23.973  1.00  0.00     0.016 A 
ATOM     27  C   UNL A   1      31.583  28.277  24.769  1.00  0.00     0.077 A 
ATOM     28  C   UNL A   1      29.507  27.618  22.998  1.00  0.00     0.001 A 
ATOM     29  C   UNL A   1      31.146  29.197  23.795  1.00  0.00     0.029 A 
ATOM     30  C   UNL A   1      30.134  28.856  22.897  1.00  0.00     0.002 A 
BRANCH  27  31
ATOM     31  N   UNL A   1      32.629  28.688  25.625  1.00  0.00    -0.240 N 
ATOM     32  C   UNL A   1      33.989  28.564  25.455  1.00  0.00     0.115 A 
ATOM     33  N   UNL A   1      32.331  29.258  26.823  1.00  0.00    -0.177 NA
ATOM     34  C   UNL A   1      34.578  28.975  26.627  1.00  0.00     0.042 A 
ATOM     35  C   UNL A   1      33.506  29.361  27.445  1.00  0.00     0.135 A 
ENDBRANCH  27  31
ENDBRANCH  23  25
ENDBRANCH   9  11
ENDBRANCH   8   9
ENDBRANCH   7   8
ENDBRANCH   6   7
ENDBRANCH   5   6
ENDBRANCH   4   5
ENDBRANCH   3   4
ENDBRANCH   2   3
ENDBRANCH   1   2
BRANCH   1  36
ATOM     36  C   UNL A   1      43.504  21.762  26.667  1.00  0.00     0.188 C 
BRANCH  36  37
ATOM     37  O   UNL A   1      44.795  21.788  26.049  1.00  0.00    -0.376 OA
BRANCH  37  38
ATOM     38  C   UNL A   1      44.832  21.952  24.631  1.00  0.00     0.202 C 
BRANCH  38  39
ATOM     39  C   UNL A   1      46.169  22.461  24.119  1.00  0.00     0.261 C 
BRANCH  39  40
ATOM     40  O   UNL A   1      46.771  23.321  25.094  1.00  0.00    -0.460 OA
BRANCH  40  41
ATOM     41  C   UNL A   1      47.111  24.532  24.621  1.00  0.00     0.338 C 
ATOM     42  O   UNL A   1      47.667  24.787  23.558  1.00  0.00    -0.246 OA
BRANCH  41  43
ATOM     43  C   UNL A   1      46.546  25.565  25.490  1.00  0.00     0.060 A 
ATOM     44  C   UNL A   1      47.445  26.314  26.253  1.00  0.00     0.016 A 
ATOM     45  C   UNL A   1      45.165  25.699  25.654  1.00  0.00     0.016 A 
ATOM     46  C   UNL A   1      46.965  27.142  27.257  1.00  0.00     0.010 A 
ATOM     47  C   UNL A   1      44.684  26.528  26.671  1.00  0.00     0.010 A 
ATOM     48  C   UNL A   1      45.588  27.202  27.511  1.00  0.00    -0.014 A 
BRANCH  48  49
ATOM     49  C   UNL A   1      45.146  27.796  28.793  1.00  0.00     0.031 A 
ATOM     50  C   UNL A   1      45.141  26.925  30.021  1.00  0.00     0.074 A 
ATOM     51  C   UNL A   1      44.872  29.109  28.875  1.00  0.00     0.049 A 
ATOM     52  N   UNL A   1      44.899  27.250  31.264  1.00  0.00    -0.248 NA
ATOM     53  C   UNL A   1      45.462  25.501  29.823  1.00  0.00     0.031 C 
ATOM     54  C   UNL A   1      44.904  30.050  27.756  1.00  0.00     0.029 A 
ATOM     55  N   UNL A   1      44.535  29.880  29.956  1.00  0.00    -0.354 N 
ATOM     56  C   UNL A   1      45.044  26.075  31.995  1.00  0.00     0.074 A 
ATOM     57  C   UNL A   1      45.358  25.023  31.055  1.00  0.00     0.031 C 
ATOM     58  C   UNL A   1      44.608  31.279  28.213  1.00  0.00     0.029 A 
ATOM     59  C   UNL A   1      44.343  31.206  29.647  1.00  0.00     0.049 A 
ATOM     60  H   UNL A   1      44.439  29.520  30.868  1.00  0.00     0.167 HD
ATOM     61  C   UNL A   1      44.934  25.892  33.332  1.00  0.00     0.031 A 
ATOM     62  C   UNL A   1      43.987  32.238  30.437  1.00  0.00     0.031 A 
ATOM     63  C   UNL A   1      44.603  26.943  34.255  1.00  0.00     0.049 A 
ATOM     64  C   UNL A   1      43.794  31.994  31.910  1.00  0.00     0.074 A 
ATOM     65  C   UNL A   1      44.464  26.871  35.630  1.00  0.00     0.029 A 
ATOM     66  N   UNL A   1      44.348  28.258  33.893  1.00  0.00    -0.354 N 
ATOM     67  N   UNL A   1      43.958  30.883  32.589  1.00  0.00    -0.248 NA
ATOM     68  C   UNL A   1      43.375  33.143  32.724  1.00  0.00     0.031 C 
ATOM     69  C   UNL A   1      44.068  28.130  36.092  1.00  0.00     0.029 A 
ATOM     70  C   UNL A   1      44.021  29.001  35.014  1.00  0.00     0.049 A 
ATOM     71  H   UNL A   1      44.393  28.610  32.975  1.00  0.00     0.167 HD
ATOM     72  C   UNL A   1      43.683  31.204  33.914  1.00  0.00     0.074 A 
ATOM     73  C   UNL A   1      43.360  32.617  33.942  1.00  0.00     0.031 C 
ATOM     74  C   UNL A   1      43.695  30.405  35.010  1.00  0.00     0.031 A 
BRANCH  61  75
ATOM     75  C   UNL A   1      45.134  24.497  33.862  1.00  0.00    -0.014 A 
ATOM     76  C   UNL A   1      46.406  24.034  34.244  1.00  0.00     0.010 A 
ATOM     77  C   UNL A   1      44.025  23.641  33.999  1.00  0.00     0.010 A 
ATOM     78  C   UNL A   1      46.572  22.729  34.719  1.00  0.00     0.020 A 
ATOM     79  C   UNL A   1      44.183  22.344  34.496  1.00  0.00     0.020 A 
ATOM     80  C   UNL A   1      45.459  21.891  34.838  1.00  0.00     0.054 A 
BRANCH  80  81
ATOM     81  S   UNL A   1      45.698  20.207  35.469  1.00  0.00     0.124 S 
ATOM     82  O   UNL A   1      45.645  20.417  36.914  1.00  0.00    -0.237 OA
ATOM     83  O   UNL A   1      44.563  19.486  34.898  1.00  0.00    -0.237 OA
ATOM     84  O   UNL A   1      47.005  19.821  34.945  1.00  0.00    -0.744 OA
ENDBRANCH  80  81
ENDBRANCH  61  75
BRANCH  62  85
ATOM     85  C   UNL A   1      43.778  33.587  29.843  1.00  0.00    -0.014 A 
ATOM     86  C   UNL A   1      42.511  33.992  29.390  1.00  0.00     0.010 A 
ATOM     87  C   UNL A   1      44.858  34.484  29.739  1.00  0.00     0.010 A 
ATOM     88  C   UNL A   1      42.331  35.262  28.832  1.00  0.00     0.020 A 
ATOM     89  C   UNL A   1      44.677  35.763  29.208  1.00  0.00     0.020 A 
ATOM     90  C   UNL A   1      43.416  36.140  28.746  1.00  0.00     0.054 A 
BRANCH  90  91
ATOM     91  S   UNL A   1      43.148  37.801  28.067  1.00  0.00     0.124 S 
ATOM     92  O   UNL A   1      41.783  38.087  28.497  1.00  0.00    -0.237 OA
ATOM     93  O   UNL A   1      44.195  38.581  28.723  1.00  0.00    -0.237 OA
ATOM     94  O   UNL A   1      43.327  37.615  26.629  1.00  0.00    -0.744 OA
ENDBRANCH  90  91
ENDBRANCH  62  85
BRANCH  74  95
ATOM     95  C   UNL A   1      43.368  31.044  36.334  1.00  0.00    -0.014 A 
ATOM     96  C   UNL A   1      44.386  31.448  37.215  1.00  0.00     0.010 A 
ATOM     97  C   UNL A   1      42.026  31.298  36.670  1.00  0.00     0.010 A 
ATOM     98  C   UNL A   1      44.065  32.071  38.423  1.00  0.00     0.020 A 
ATOM     99  C   UNL A   1      41.702  31.947  37.863  1.00  0.00     0.020 A 
ATOM    100  C   UNL A   1      42.725  32.317  38.740  1.00  0.00     0.054 A 
BRANCH 100 101
ATOM    101  S   UNL A   1      42.338  33.171  40.291  1.00  0.00     0.124 S 
ATOM    102  O   UNL A   1      40.994  33.679  40.031  1.00  0.00    -0.237 OA
ATOM    103  O   UNL A   1      42.424  32.098  41.279  1.00  0.00    -0.237 OA
ATOM    104  O   UNL A   1      43.380  34.190  40.396  1.00  0.00    -0.744 OA
ENDBRANCH 100 101
ENDBRANCH  74  95
ENDBRANCH  48  49
ENDBRANCH  41  43
ENDBRANCH  40  41
ENDBRANCH  39  40
ENDBRANCH  38  39
ENDBRANCH  37  38
ENDBRANCH  36  37
ENDBRANCH   1  36
TORSDOF 25
ENDMDL
MODEL 3
REMARK VINA RESULT:      -8.9      5.466      6.727
REMARK SMILES CN1C(=O)C[C@@H](C(=O)OCCOCCOCCOCCOC(=O)c2ccc(-c3c4nc(c(-c5ccc(S(=O)(=O)[O-])cc5)c5ccc([nH]5)c(-c5ccc(S(=O)(=O)[O-])cc5)c5nc(c(-c6ccc(S(=O)(=O)[O-])cc6)c6ccc3[nH]6)C=C5)C=C4)cc2)C12CCN(C(=O)c1ccccc1-n1cccn1)CC2
REMARK SMILES IDX 16 1 15 2 14 3 13 4 12 5 11 6 10 7 9 8 7 9 8 10 6 11 1 12
REMARK SMILES IDX 2 13 3 14 84 15 4 16 5 17 85 18 102 19 86 20 101 21 87 22
REMARK SMILES IDX 88 23 89 24 90 25 91 26 95 27 92 28 94 29 93 30 96 31 97 32
REMARK SMILES IDX 100 33 98 34 99 35 17 36 18 37 19 38 20 39 21 40 22 41 23 42
REMARK SMILES IDX 24 43 25 44 83 45 26 46 82 47 27 48 28 49 29 50 76 51 30 52
REMARK SMILES IDX 81 53 75 54 77 55 31 56 80 57 74 58 73 59 32 61 62 62 43 63
REMARK SMILES IDX 61 64 44 65 47 66 60 67 78 68 45 69 46 70 59 72 79 73 48 74
REMARK SMILES IDX 33 75 34 76 42 77 35 78 41 79 36 80 37 81 38 82 39 83 40 84
REMARK SMILES IDX 63 85 64 86 72 87 65 88 71 89 66 90 67 91 68 92 69 93 70 94
REMARK SMILES IDX 49 95 50 96 58 97 51 98 57 99 52 100 53 101 54 102 55 103
REMARK SMILES IDX 56 104
REMARK H PARENT 77 60 47 71
REMARK Flexibility Score: inf
ROOT
ATOM      1  C   UNL A   1      42.692  22.788  26.353  1.00  0.00     0.188 C 
ENDROOT
BRANCH   1   2
ATOM      2  O   UNL A   1      42.030  22.388  27.551  1.00  0.00    -0.377 OA
BRANCH   2   3
ATOM      3  C   UNL A   1      40.626  22.225  27.590  1.00  0.00     0.188 C 
BRANCH   3   4
ATOM      4  C   UNL A   1      39.799  23.453  27.223  1.00  0.00     0.188 C 
BRANCH   4   5
ATOM      5  O   UNL A   1      38.830  23.322  26.206  1.00  0.00    -0.376 OA
BRANCH   5   6
ATOM      6  C   UNL A   1      37.979  22.175  26.194  1.00  0.00     0.202 C 
BRANCH   6   7
ATOM      7  C   UNL A   1      37.641  21.431  24.885  1.00  0.00     0.261 C 
BRANCH   7   8
ATOM      8  O   UNL A   1      36.257  21.500  24.427  1.00  0.00    -0.463 OA
BRANCH   8   9
ATOM      9  C   UNL A   1      35.457  20.489  24.827  1.00  0.00     0.311 C 
ATOM     10  O   UNL A   1      35.845  19.325  24.941  1.00  0.00    -0.252 OA
BRANCH   9  11
ATOM     11  C   UNL A   1      33.972  20.767  25.016  1.00  0.00     0.134 C 
ATOM     12  C   UNL A   1      31.764  21.494  22.058  1.00  0.00     0.147 C 
ATOM     13  N   UNL A   1      32.534  20.968  23.174  1.00  0.00    -0.339 N 
ATOM     14  C   UNL A   1      32.616  19.607  23.416  1.00  0.00     0.223 C 
ATOM     15  C   UNL A   1      33.049  21.786  24.290  1.00  0.00     0.060 C 
ATOM     16  O   UNL A   1      32.151  18.711  22.731  1.00  0.00    -0.275 OA
ATOM     17  C   UNL A   1      33.302  19.405  24.735  1.00  0.00     0.118 C 
ATOM     18  C   UNL A   1      33.641  23.119  23.800  1.00  0.00     0.051 C 
ATOM     19  C   UNL A   1      31.839  22.125  25.230  1.00  0.00     0.051 C 
ATOM     20  C   UNL A   1      33.839  24.207  24.859  1.00  0.00     0.122 C 
ATOM     21  C   UNL A   1      32.149  23.171  26.297  1.00  0.00     0.122 C 
ATOM     22  N   UNL A   1      32.673  24.397  25.713  1.00  0.00    -0.338 N 
ATOM     23  C   UNL A   1      32.217  25.616  26.228  1.00  0.00     0.256 C 
ATOM     24  O   UNL A   1      31.361  25.683  27.112  1.00  0.00    -0.269 OA
BRANCH  23  25
ATOM     25  C   UNL A   1      32.758  26.919  25.769  1.00  0.00     0.065 A 
ATOM     26  C   UNL A   1      33.383  27.698  26.763  1.00  0.00     0.016 A 
ATOM     27  C   UNL A   1      32.647  27.439  24.471  1.00  0.00     0.077 A 
ATOM     28  C   UNL A   1      33.876  28.974  26.475  1.00  0.00     0.001 A 
ATOM     29  C   UNL A   1      33.164  28.719  24.185  1.00  0.00     0.029 A 
ATOM     30  C   UNL A   1      33.747  29.492  25.191  1.00  0.00     0.002 A 
BRANCH  27  31
ATOM     31  N   UNL A   1      32.050  26.729  23.406  1.00  0.00    -0.240 N 
ATOM     32  C   UNL A   1      30.810  26.136  23.347  1.00  0.00     0.115 A 
ATOM     33  N   UNL A   1      32.750  26.525  22.260  1.00  0.00    -0.177 NA
ATOM     34  C   UNL A   1      30.754  25.443  22.161  1.00  0.00     0.042 A 
ATOM     35  C   UNL A   1      31.990  25.693  21.548  1.00  0.00     0.135 A 
ENDBRANCH  27  31
ENDBRANCH  23  25
ENDBRANCH   9  11
ENDBRANCH   8   9
ENDBRANCH   7   8
ENDBRANCH   6   7
ENDBRANCH   5   6
ENDBRANCH   4   5
ENDBRANCH   3   4
ENDBRANCH   2   3
ENDBRANCH   1   2
BRANCH   1  36
ATOM     36  C   UNL A   1      44.006  22.108  25.963  1.00  0.00     0.188 C 
BRANCH  36  37
ATOM     37  O   UNL A   1      44.749  22.727  24.907  1.00  0.00    -0.376 OA
BRANCH  37  38
ATOM     38  C   UNL A   1      44.480  24.105  24.646  1.00  0.00     0.202 C 
BRANCH  38  39
ATOM     39  C   UNL A   1      45.340  25.051  25.467  1.00  0.00     0.261 C 
BRANCH  39  40
ATOM     40  O   UNL A   1      44.654  25.419  26.669  1.00  0.00    -0.460 OA
BRANCH  40  41
ATOM     41  C   UNL A   1      43.943  26.555  26.568  1.00  0.00     0.338 C 
ATOM     42  O   UNL A   1      43.129  26.849  25.698  1.00  0.00    -0.246 OA
BRANCH  41  43
ATOM     43  C   UNL A   1      44.137  27.355  27.777  1.00  0.00     0.060 A 
ATOM     44  C   UNL A   1      43.596  26.855  28.964  1.00  0.00     0.016 A 
ATOM     45  C   UNL A   1      44.715  28.626  27.720  1.00  0.00     0.016 A 
ATOM     46  C   UNL A   1      43.546  27.667  30.088  1.00  0.00     0.010 A 
ATOM     47  C   UNL A   1      44.657  29.445  28.852  1.00  0.00     0.010 A 
ATOM     48  C   UNL A   1      44.018  28.984  30.016  1.00  0.00    -0.014 A 
BRANCH  48  49
ATOM     49  C   UNL A   1      43.626  29.918  31.097  1.00  0.00     0.031 A 
ATOM     50  C   UNL A   1      42.285  30.597  31.004  1.00  0.00     0.074 A 
ATOM     51  C   UNL A   1      44.400  30.060  32.186  1.00  0.00     0.049 A 
ATOM     52  N   UNL A   1      41.686  31.366  31.876  1.00  0.00    -0.248 NA
ATOM     53  C   UNL A   1      41.512  30.370  29.771  1.00  0.00     0.031 C 
ATOM     54  C   UNL A   1      45.689  29.403  32.397  1.00  0.00     0.029 A 
ATOM     55  N   UNL A   1      44.200  30.789  33.329  1.00  0.00    -0.354 N 
ATOM     56  C   UNL A   1      40.468  31.709  31.300  1.00  0.00     0.074 A 
ATOM     57  C   UNL A   1      40.426  31.096  29.991  1.00  0.00     0.031 C 
ATOM     58  C   UNL A   1      46.162  29.751  33.607  1.00  0.00     0.029 A 
ATOM     59  C   UNL A   1      45.222  30.672  34.241  1.00  0.00     0.049 A 
ATOM     60  H   UNL A   1      43.401  31.344  33.483  1.00  0.00     0.167 HD
ATOM     61  C   UNL A   1      39.469  32.460  31.820  1.00  0.00     0.031 A 
ATOM     62  C   UNL A   1      45.378  31.251  35.447  1.00  0.00     0.031 A 
ATOM     63  C   UNL A   1      39.529  33.079  33.115  1.00  0.00     0.049 A 
ATOM     64  C   UNL A   1      44.287  32.146  35.971  1.00  0.00     0.074 A 
ATOM     65  C   UNL A   1      38.575  33.861  33.743  1.00  0.00     0.029 A 
ATOM     66  N   UNL A   1      40.611  32.993  33.980  1.00  0.00    -0.354 N 
ATOM     67  N   UNL A   1      43.130  32.441  35.425  1.00  0.00    -0.248 NA
ATOM     68  C   UNL A   1      44.517  32.780  37.276  1.00  0.00     0.031 C 
ATOM     69  C   UNL A   1      39.105  34.296  34.962  1.00  0.00     0.029 A 
ATOM     70  C   UNL A   1      40.363  33.734  35.122  1.00  0.00     0.049 A 
ATOM     71  H   UNL A   1      41.433  32.481  33.807  1.00  0.00     0.167 HD
ATOM     72  C   UNL A   1      42.486  33.278  36.331  1.00  0.00     0.074 A 
ATOM     73  C   UNL A   1      43.375  33.427  37.466  1.00  0.00     0.031 C 
ATOM     74  C   UNL A   1      41.270  33.872  36.233  1.00  0.00     0.031 A 
BRANCH  61  75
ATOM     75  C   UNL A   1      38.248  32.682  30.965  1.00  0.00    -0.014 A 
ATOM     76  C   UNL A   1      38.211  33.696  29.992  1.00  0.00     0.010 A 
ATOM     77  C   UNL A   1      37.127  31.847  31.126  1.00  0.00     0.010 A 
ATOM     78  C   UNL A   1      37.062  33.896  29.221  1.00  0.00     0.020 A 
ATOM     79  C   UNL A   1      35.986  32.026  30.340  1.00  0.00     0.020 A 
ATOM     80  C   UNL A   1      35.954  33.062  29.403  1.00  0.00     0.054 A 
BRANCH  80  81
ATOM     81  S   UNL A   1      34.481  33.332  28.380  1.00  0.00     0.124 S 
ATOM     82  O   UNL A   1      33.505  33.782  29.369  1.00  0.00    -0.237 OA
ATOM     83  O   UNL A   1      34.930  34.350  27.433  1.00  0.00    -0.237 OA
ATOM     84  O   UNL A   1      34.215  32.019  27.797  1.00  0.00    -0.744 OA
ENDBRANCH  80  81
ENDBRANCH  61  75
BRANCH  62  85
ATOM     85  C   UNL A   1      46.623  31.012  36.228  1.00  0.00    -0.014 A 
ATOM     86  C   UNL A   1      46.709  29.954  37.149  1.00  0.00     0.010 A 
ATOM     87  C   UNL A   1      47.741  31.847  36.040  1.00  0.00     0.010 A 
ATOM     88  C   UNL A   1      47.885  29.744  37.878  1.00  0.00     0.020 A 
ATOM     89  C   UNL A   1      48.926  31.624  36.746  1.00  0.00     0.020 A 
ATOM     90  C   UNL A   1      48.987  30.580  37.669  1.00  0.00     0.054 A 
BRANCH  90  91
ATOM     91  S   UNL A   1      50.519  30.257  38.586  1.00  0.00     0.124 S 
ATOM     92  O   UNL A   1      50.228  28.974  39.219  1.00  0.00    -0.237 OA
ATOM     93  O   UNL A   1      51.521  30.225  37.524  1.00  0.00    -0.237 OA
ATOM     94  O   UNL A   1      50.620  31.396  39.495  1.00  0.00    -0.744 OA
ENDBRANCH  90  91
ENDBRANCH  62  85
BRANCH  74  95
ATOM     95  C   UNL A   1      40.822  34.721  37.393  1.00  0.00    -0.014 A 
ATOM     96  C   UNL A   1      40.953  36.120  37.360  1.00  0.00     0.010 A 
ATOM     97  C   UNL A   1      40.203  34.114  38.501  1.00  0.00     0.010 A 
ATOM     98  C   UNL A   1      40.499  36.895  38.429  1.00  0.00     0.020 A 
ATOM     99  C   UNL A   1      39.722  34.887  39.559  1.00  0.00     0.020 A 
ATOM    100  C   UNL A   1      39.886  36.274  39.522  1.00  0.00     0.054 A 
BRANCH 100 101
ATOM    101  S   UNL A   1      39.262  37.306  40.875  1.00  0.00     0.124 S 
ATOM    102  O   UNL A   1      38.379  38.231  40.169  1.00  0.00    -0.237 OA
ATOM    103  O   UNL A   1      38.594  36.336  41.739  1.00  0.00    -0.237 OA
ATOM    104  O   UNL A   1      40.469  37.906  41.440  1.00  0.00    -0.744 OA
ENDBRANCH 100 101
ENDBRANCH  74  95
ENDBRANCH  48  49
ENDBRANCH  41  43
ENDBRANCH  40  41
ENDBRANCH  39  40
ENDBRANCH  38  39
ENDBRANCH  37  38
ENDBRANCH  36  37
ENDBRANCH   1  36
TORSDOF 25
ENDMDL
