MODEL 1
REMARK VINA RESULT:      -8.8      0.000      0.000
REMARK SMILES Cc1ccccc1NC(=O)C[NH+]1CCC(CC(=O)OCCOCCOCCOCCOC(=O)c2ccc(-c3c4nc(c(-c5ccc(S(=O)(=O)[O-])cc5)c5ccc([nH]5)c(-c5ccc(S(=O)(=O)[O-])cc5)c5nc(c(-c6ccc(S(=O)(=O)[O-])cc6)c6ccc3[nH]6)C=C5)C=C4)cc2)CC1
REMARK SMILES IDX 24 1 23 2 22 3 21 4 20 5 19 6 17 7 18 8 16 9 15 10 12 11
REMARK SMILES IDX 13 12 95 13 14 15 94 16 11 17 9 18 8 19 10 21 7 22 1 23 2 24
REMARK SMILES IDX 3 25 4 26 6 27 5 28 25 29 26 30 27 31 28 32 29 33 30 34
REMARK SMILES IDX 31 35 32 36 33 37 34 38 35 39 93 40 36 41 92 42 37 43 38 44
REMARK SMILES IDX 39 45 86 46 40 47 91 48 85 49 87 50 41 51 90 52 84 53 83 54
REMARK SMILES IDX 42 56 72 57 53 58 71 59 54 60 57 61 70 62 88 63 55 64 56 65
REMARK SMILES IDX 69 67 89 68 58 69 43 70 44 71 52 72 45 73 51 74 46 75 47 76
REMARK SMILES IDX 48 77 49 78 50 79 73 80 74 81 82 82 75 83 81 84 76 85 77 86
REMARK SMILES IDX 78 87 79 88 80 89 59 90 60 91 68 92 61 93 67 94 62 95 63 96
REMARK SMILES IDX 64 97 65 98 66 99
REMARK H PARENT 12 14 8 20 87 55 57 66
REMARK Flexibility Score: inf
ROOT
ATOM      1  C   UNL A   1      39.831  27.378  29.049  1.00  0.00     0.188 C 
ENDROOT
BRANCH   1   2
ATOM      2  C   UNL A   1      39.601  28.267  30.351  1.00  0.00     0.188 C 
BRANCH   2   3
ATOM      3  O   UNL A   1      38.720  29.450  30.724  1.00  0.00    -0.376 OA
BRANCH   3   4
ATOM      4  C   UNL A   1      37.249  29.944  30.112  1.00  0.00     0.202 C 
BRANCH   4   5
ATOM      5  C   UNL A   1      36.585  31.104  28.790  1.00  0.00     0.261 C 
BRANCH   5   6
ATOM      6  O   UNL A   1      35.212  30.991  27.556  1.00  0.00    -0.463 OA
BRANCH   6   7
ATOM      7  C   UNL A   1      33.657  30.745  27.383  1.00  0.00     0.306 C 
ATOM      8  O   UNL A   1      32.894  31.719  27.303  1.00  0.00    -0.252 OA
BRANCH   7   9
ATOM      9  C   UNL A   1      32.846  29.137  27.477  1.00  0.00     0.126 C 
BRANCH   9  10
ATOM     10  C   UNL A   1      32.699  27.719  26.528  1.00  0.00     0.011 C 
ATOM     11  N   UNL A   1      32.093  26.108  23.918  1.00  0.00    -0.327 N 
ATOM     12  C   UNL A   1      31.222  26.044  25.070  1.00  0.00     0.262 C 
ATOM     13  C   UNL A   1      33.457  26.409  24.360  1.00  0.00     0.262 C 
ATOM     14  H   UNL A   1      31.881  26.894  23.303  1.00  0.00     0.348 HD
ATOM     15  C   UNL A   1      31.386  27.323  25.870  1.00  0.00     0.066 C 
ATOM     16  C   UNL A   1      33.634  27.691  25.275  1.00  0.00     0.066 C 
BRANCH  11  17
ATOM     17  C   UNL A   1      31.840  24.983  22.970  1.00  0.00     0.363 C 
BRANCH  17  18
ATOM     18  C   UNL A   1      32.980  24.593  21.983  1.00  0.00     0.279 C 
ATOM     19  N   UNL A   1      33.697  23.431  22.117  1.00  0.00    -0.321 N 
ATOM     20  H   UNL A   1      34.266  23.178  21.355  1.00  0.00     0.170 HD
ATOM     21  O   UNL A   1      33.261  25.319  21.021  1.00  0.00    -0.268 OA
BRANCH  19  22
ATOM     22  C   UNL A   1      33.707  22.567  23.213  1.00  0.00     0.044 A 
ATOM     23  C   UNL A   1      31.826  21.122  22.216  1.00  0.00     0.046 C 
ATOM     24  C   UNL A   1      32.763  21.533  23.319  1.00  0.00    -0.027 A 
ATOM     25  C   UNL A   1      32.639  20.884  24.561  1.00  0.00     0.005 A 
ATOM     26  C   UNL A   1      33.465  21.218  25.639  1.00  0.00     0.000 A 
ATOM     27  C   UNL A   1      34.617  22.799  24.252  1.00  0.00     0.026 A 
ATOM     28  C   UNL A   1      34.484  22.146  25.471  1.00  0.00     0.002 A 
ENDBRANCH  19  22
ENDBRANCH  17  18
ENDBRANCH  11  17
ENDBRANCH   9  10
ENDBRANCH   7   9
ENDBRANCH   6   7
ENDBRANCH   5   6
ENDBRANCH   4   5
ENDBRANCH   3   4
ENDBRANCH   2   3
ENDBRANCH   1   2
BRANCH   1  29
ATOM     29  O   UNL A   1      40.901  26.482  28.855  1.00  0.00    -0.377 OA
BRANCH  29  30
ATOM     30  C   UNL A   1      40.754  25.749  27.663  1.00  0.00     0.188 C 
BRANCH  30  31
ATOM     31  C   UNL A   1      40.892  24.232  27.850  1.00  0.00     0.188 C 
BRANCH  31  32
ATOM     32  O   UNL A   1      40.297  23.472  26.793  1.00  0.00    -0.376 OA
BRANCH  32  33
ATOM     33  C   UNL A   1      41.056  22.388  26.278  1.00  0.00     0.202 C 
BRANCH  33  34
ATOM     34  C   UNL A   1      42.548  22.729  26.303  1.00  0.00     0.261 C 
BRANCH  34  35
ATOM     35  O   UNL A   1      42.964  23.290  25.038  1.00  0.00    -0.460 OA
BRANCH  35  36
ATOM     36  C   UNL A   1      43.467  24.556  25.122  1.00  0.00     0.338 C 
ATOM     37  O   UNL A   1      42.813  25.570  24.985  1.00  0.00    -0.246 OA
BRANCH  36  38
ATOM     38  C   UNL A   1      44.958  24.482  25.241  1.00  0.00     0.060 A 
ATOM     39  C   UNL A   1      45.524  23.428  25.941  1.00  0.00     0.016 A 
ATOM     40  C   UNL A   1      45.766  25.574  24.904  1.00  0.00     0.016 A 
ATOM     41  C   UNL A   1      46.840  23.557  26.422  1.00  0.00     0.010 A 
ATOM     42  C   UNL A   1      47.004  25.770  25.535  1.00  0.00     0.010 A 
ATOM     43  C   UNL A   1      47.540  24.801  26.398  1.00  0.00    -0.014 A 
BRANCH  43  44
ATOM     44  C   UNL A   1      48.952  25.192  27.150  1.00  0.00     0.031 A 
ATOM     45  C   UNL A   1      48.030  25.808  28.568  1.00  0.00     0.074 A 
ATOM     46  C   UNL A   1      50.560  25.352  26.711  1.00  0.00     0.049 A 
ATOM     47  N   UNL A   1      48.321  26.854  29.294  1.00  0.00    -0.248 NA
ATOM     48  C   UNL A   1      46.654  25.402  28.978  1.00  0.00     0.031 C 
ATOM     49  C   UNL A   1      51.997  25.782  27.517  1.00  0.00     0.029 A 
ATOM     50  N   UNL A   1      51.326  25.686  25.442  1.00  0.00    -0.354 N 
ATOM     51  C   UNL A   1      47.629  26.833  30.456  1.00  0.00     0.074 A 
ATOM     52  C   UNL A   1      46.444  26.106  30.102  1.00  0.00     0.031 C 
ATOM     53  C   UNL A   1      53.015  26.257  26.822  1.00  0.00     0.029 A 
ATOM     54  C   UNL A   1      52.436  26.578  25.596  1.00  0.00     0.049 A 
ATOM     55  H   UNL A   1      51.075  25.311  24.566  1.00  0.00     0.167 HD
ATOM     56  C   UNL A   1      48.228  27.256  31.610  1.00  0.00     0.031 A 
ATOM     57  C   UNL A   1      52.671  27.816  25.074  1.00  0.00     0.031 A 
ATOM     58  C   UNL A   1      49.666  27.644  31.427  1.00  0.00     0.049 A 
ATOM     59  C   UNL A   1      52.766  28.900  26.221  1.00  0.00     0.074 A 
ATOM     60  C   UNL A   1      50.867  27.065  31.818  1.00  0.00     0.029 A 
ATOM     61  N   UNL A   1      50.051  28.628  30.497  1.00  0.00    -0.354 N 
ATOM     62  N   UNL A   1      52.561  28.638  27.504  1.00  0.00    -0.248 NA
ATOM     63  C   UNL A   1      53.030  30.326  26.048  1.00  0.00     0.031 C 
ATOM     64  C   UNL A   1      51.953  27.711  31.133  1.00  0.00     0.029 A 
ATOM     65  C   UNL A   1      51.444  28.705  30.311  1.00  0.00     0.049 A 
ATOM     66  H   UNL A   1      49.409  29.204  30.023  1.00  0.00     0.167 HD
ATOM     67  C   UNL A   1      52.480  29.773  28.264  1.00  0.00     0.074 A 
ATOM     68  C   UNL A   1      52.877  30.804  27.304  1.00  0.00     0.031 C 
ATOM     69  C   UNL A   1      52.048  29.844  29.575  1.00  0.00     0.031 A 
BRANCH  56  70
ATOM     70  C   UNL A   1      47.546  26.938  32.939  1.00  0.00    -0.014 A 
ATOM     71  C   UNL A   1      46.551  27.769  33.487  1.00  0.00     0.010 A 
ATOM     72  C   UNL A   1      47.911  25.823  33.730  1.00  0.00     0.010 A 
ATOM     73  C   UNL A   1      46.042  27.567  34.789  1.00  0.00     0.020 A 
ATOM     74  C   UNL A   1      47.457  25.640  35.047  1.00  0.00     0.020 A 
ATOM     75  C   UNL A   1      46.525  26.521  35.575  1.00  0.00     0.054 A 
BRANCH  75  76
ATOM     76  S   UNL A   1      45.927  26.315  37.279  1.00  0.00     0.124 S 
ATOM     77  O   UNL A   1      47.159  26.365  38.062  1.00  0.00    -0.237 OA
ATOM     78  O   UNL A   1      45.032  27.458  37.438  1.00  0.00    -0.237 OA
ATOM     79  O   UNL A   1      45.266  25.011  37.262  1.00  0.00    -0.744 OA
ENDBRANCH  75  76
ENDBRANCH  56  70
BRANCH  57  80
ATOM     80  C   UNL A   1      52.311  27.881  23.629  1.00  0.00    -0.014 A 
ATOM     81  C   UNL A   1      53.117  27.076  22.770  1.00  0.00     0.010 A 
ATOM     82  C   UNL A   1      51.084  28.331  23.134  1.00  0.00     0.010 A 
ATOM     83  C   UNL A   1      52.632  26.567  21.562  1.00  0.00     0.020 A 
ATOM     84  C   UNL A   1      50.593  27.823  21.912  1.00  0.00     0.020 A 
ATOM     85  C   UNL A   1      51.348  26.915  21.157  1.00  0.00     0.054 A 
BRANCH  85  86
ATOM     86  S   UNL A   1      50.591  26.104  19.712  1.00  0.00     0.124 S 
ATOM     87  O   UNL A   1      51.547  25.044  19.410  1.00  0.00    -0.237 OA
ATOM     88  O   UNL A   1      49.294  25.647  20.204  1.00  0.00    -0.237 OA
ATOM     89  O   UNL A   1      50.524  27.181  18.727  1.00  0.00    -0.744 OA
ENDBRANCH  85  86
ENDBRANCH  57  80
BRANCH  69  90
ATOM     90  C   UNL A   1      52.181  31.128  30.362  1.00  0.00    -0.014 A 
ATOM     91  C   UNL A   1      51.176  32.108  30.369  1.00  0.00     0.010 A 
ATOM     92  C   UNL A   1      53.398  31.442  31.006  1.00  0.00     0.010 A 
ATOM     93  C   UNL A   1      51.326  33.286  31.109  1.00  0.00     0.020 A 
ATOM     94  C   UNL A   1      53.572  32.627  31.719  1.00  0.00     0.020 A 
ATOM     95  C   UNL A   1      52.513  33.521  31.807  1.00  0.00     0.054 A 
BRANCH  95  96
ATOM     96  S   UNL A   1      52.667  35.003  32.830  1.00  0.00     0.124 S 
ATOM     97  O   UNL A   1      52.107  36.048  31.975  1.00  0.00    -0.237 OA
ATOM     98  O   UNL A   1      51.858  34.643  33.992  1.00  0.00    -0.237 OA
ATOM     99  O   UNL A   1      54.102  35.108  33.077  1.00  0.00    -0.744 OA
ENDBRANCH  95  96
ENDBRANCH  69  90
ENDBRANCH  43  44
ENDBRANCH  36  38
ENDBRANCH  35  36
ENDBRANCH  34  35
ENDBRANCH  33  34
ENDBRANCH  32  33
ENDBRANCH  31  32
ENDBRANCH  30  31
ENDBRANCH  29  30
ENDBRANCH   1  29
TORSDOF 27
ENDMDL
MODEL 2
REMARK VINA RESULT:      -8.8      5.014      9.293
REMARK SMILES Cc1ccccc1NC(=O)C[NH+]1CCC(CC(=O)OCCOCCOCCOCCOC(=O)c2ccc(-c3c4nc(c(-c5ccc(S(=O)(=O)[O-])cc5)c5ccc([nH]5)c(-c5ccc(S(=O)(=O)[O-])cc5)c5nc(c(-c6ccc(S(=O)(=O)[O-])cc6)c6ccc3[nH]6)C=C5)C=C4)cc2)CC1
REMARK SMILES IDX 24 1 23 2 22 3 21 4 20 5 19 6 17 7 18 8 16 9 15 10 12 11
REMARK SMILES IDX 13 12 95 13 14 15 94 16 11 17 9 18 8 19 10 21 7 22 1 23 2 24
REMARK SMILES IDX 3 25 4 26 6 27 5 28 25 29 26 30 27 31 28 32 29 33 30 34
REMARK SMILES IDX 31 35 32 36 33 37 34 38 35 39 93 40 36 41 92 42 37 43 38 44
REMARK SMILES IDX 39 45 86 46 40 47 91 48 85 49 87 50 41 51 90 52 84 53 83 54
REMARK SMILES IDX 42 56 72 57 53 58 71 59 54 60 57 61 70 62 88 63 55 64 56 65
REMARK SMILES IDX 69 67 89 68 58 69 43 70 44 71 52 72 45 73 51 74 46 75 47 76
REMARK SMILES IDX 48 77 49 78 50 79 73 80 74 81 82 82 75 83 81 84 76 85 77 86
REMARK SMILES IDX 78 87 79 88 80 89 59 90 60 91 68 92 61 93 67 94 62 95 63 96
REMARK SMILES IDX 64 97 65 98 66 99
REMARK H PARENT 12 14 8 20 87 55 57 66
REMARK Flexibility Score: inf
ROOT
ATOM      1  C   UNL A   1      43.686  35.170  34.332  1.00  0.00     0.188 C 
ENDROOT
BRANCH   1   2
ATOM      2  C   UNL A   1      42.127  35.266  34.015  1.00  0.00     0.188 C 
BRANCH   2   3
ATOM      3  O   UNL A   1      40.870  34.550  34.486  1.00  0.00    -0.376 OA
BRANCH   3   4
ATOM      4  C   UNL A   1      39.270  34.785  34.082  1.00  0.00     0.202 C 
BRANCH   4   5
ATOM      5  C   UNL A   1      38.078  34.329  32.702  1.00  0.00     0.261 C 
BRANCH   5   6
ATOM      6  O   UNL A   1      37.600  32.737  31.890  1.00  0.00    -0.463 OA
BRANCH   6   7
ATOM      7  C   UNL A   1      36.376  31.879  31.367  1.00  0.00     0.306 C 
ATOM      8  O   UNL A   1      35.257  32.405  31.284  1.00  0.00    -0.252 OA
BRANCH   7   9
ATOM      9  C   UNL A   1      36.419  30.105  31.044  1.00  0.00     0.126 C 
BRANCH   9  10
ATOM     10  C   UNL A   1      37.315  28.997  30.095  1.00  0.00     0.011 C 
ATOM     11  N   UNL A   1      39.924  27.644  29.027  1.00  0.00    -0.327 N 
ATOM     12  C   UNL A   1      39.111  28.495  28.188  1.00  0.00     0.262 C 
ATOM     13  C   UNL A   1      39.078  27.027  30.053  1.00  0.00     0.262 C 
ATOM     14  H   UNL A   1      40.601  28.165  29.583  1.00  0.00     0.348 HD
ATOM     15  C   UNL A   1      38.345  29.458  29.076  1.00  0.00     0.066 C 
ATOM     16  C   UNL A   1      38.200  28.013  30.929  1.00  0.00     0.066 C 
BRANCH  11  17
ATOM     17  C   UNL A   1      40.862  26.807  28.223  1.00  0.00     0.363 C 
BRANCH  17  18
ATOM     18  C   UNL A   1      40.328  25.461  27.649  1.00  0.00     0.279 C 
ATOM     19  N   UNL A   1      41.086  24.317  27.644  1.00  0.00    -0.321 N 
ATOM     20  H   UNL A   1      40.612  23.481  27.434  1.00  0.00     0.170 HD
ATOM     21  O   UNL A   1      39.179  25.377  27.197  1.00  0.00    -0.268 OA
BRANCH  19  22
ATOM     22  C   UNL A   1      42.453  24.210  27.904  1.00  0.00     0.044 A 
ATOM     23  C   UNL A   1      43.054  24.592  25.432  1.00  0.00     0.046 C 
ATOM     24  C   UNL A   1      43.386  24.237  26.856  1.00  0.00    -0.027 A 
ATOM     25  C   UNL A   1      44.705  23.842  27.143  1.00  0.00     0.005 A 
ATOM     26  C   UNL A   1      45.090  23.487  28.439  1.00  0.00     0.000 A 
ATOM     27  C   UNL A   1      42.877  23.984  29.220  1.00  0.00     0.026 A 
ATOM     28  C   UNL A   1      44.185  23.599  29.487  1.00  0.00     0.002 A 
ENDBRANCH  19  22
ENDBRANCH  17  18
ENDBRANCH  11  17
ENDBRANCH   9  10
ENDBRANCH   7   9
ENDBRANCH   6   7
ENDBRANCH   5   6
ENDBRANCH   4   5
ENDBRANCH   3   4
ENDBRANCH   2   3
ENDBRANCH   1   2
BRANCH   1  29
ATOM     29  O   UNL A   1      44.465  36.197  34.900  1.00  0.00    -0.377 OA
BRANCH  29  30
ATOM     30  C   UNL A   1      45.807  35.804  35.057  1.00  0.00     0.188 C 
BRANCH  30  31
ATOM     31  C   UNL A   1      46.772  36.499  34.086  1.00  0.00     0.188 C 
BRANCH  31  32
ATOM     32  O   UNL A   1      46.279  36.565  32.744  1.00  0.00    -0.376 OA
BRANCH  32  33
ATOM     33  C   UNL A   1      46.609  37.727  31.997  1.00  0.00     0.202 C 
BRANCH  33  34
ATOM     34  C   UNL A   1      45.883  37.711  30.649  1.00  0.00     0.261 C 
BRANCH  34  35
ATOM     35  O   UNL A   1      46.599  36.896  29.694  1.00  0.00    -0.460 OA
BRANCH  35  36
ATOM     36  C   UNL A   1      46.151  37.012  28.409  1.00  0.00     0.338 C 
ATOM     37  O   UNL A   1      45.876  38.062  27.866  1.00  0.00    -0.246 OA
BRANCH  36  38
ATOM     38  C   UNL A   1      45.901  35.643  27.855  1.00  0.00     0.060 A 
ATOM     39  C   UNL A   1      44.638  35.331  27.381  1.00  0.00     0.016 A 
ATOM     40  C   UNL A   1      46.820  34.604  28.051  1.00  0.00     0.016 A 
ATOM     41  C   UNL A   1      44.269  33.978  27.261  1.00  0.00     0.010 A 
ATOM     42  C   UNL A   1      46.390  33.270  28.101  1.00  0.00     0.010 A 
ATOM     43  C   UNL A   1      45.064  32.922  27.800  1.00  0.00    -0.014 A 
BRANCH  43  44
ATOM     44  C   UNL A   1      44.662  31.337  27.990  1.00  0.00     0.031 A 
ATOM     45  C   UNL A   1      44.158  31.664  29.686  1.00  0.00     0.074 A 
ATOM     46  C   UNL A   1      44.935  29.905  27.164  1.00  0.00     0.049 A 
ATOM     47  N   UNL A   1      44.333  30.882  30.718  1.00  0.00    -0.248 NA
ATOM     48  C   UNL A   1      43.714  32.974  30.244  1.00  0.00     0.031 C 
ATOM     49  C   UNL A   1      44.519  28.272  27.404  1.00  0.00     0.029 A 
ATOM     50  N   UNL A   1      46.003  29.360  26.231  1.00  0.00    -0.354 N 
ATOM     51  C   UNL A   1      43.551  31.274  31.749  1.00  0.00     0.074 A 
ATOM     52  C   UNL A   1      43.415  32.684  31.521  1.00  0.00     0.031 C 
ATOM     53  C   UNL A   1      45.250  27.326  26.842  1.00  0.00     0.029 A 
ATOM     54  C   UNL A   1      46.404  28.004  26.461  1.00  0.00     0.049 A 
ATOM     55  H   UNL A   1      46.396  29.906  25.511  1.00  0.00     0.167 HD
ATOM     56  C   UNL A   1      42.960  30.334  32.547  1.00  0.00     0.031 A 
ATOM     57  C   UNL A   1      47.612  27.473  26.807  1.00  0.00     0.031 A 
ATOM     58  C   UNL A   1      43.223  28.925  32.104  1.00  0.00     0.049 A 
ATOM     59  C   UNL A   1      47.530  26.767  28.220  1.00  0.00     0.074 A 
ATOM     60  C   UNL A   1      42.430  27.944  31.521  1.00  0.00     0.029 A 
ATOM     61  N   UNL A   1      44.533  28.431  31.958  1.00  0.00    -0.354 N 
ATOM     62  N   UNL A   1      46.449  26.771  28.986  1.00  0.00    -0.248 NA
ATOM     63  C   UNL A   1      48.614  26.069  28.905  1.00  0.00     0.031 C 
ATOM     64  C   UNL A   1      43.264  26.874  31.047  1.00  0.00     0.029 A 
ATOM     65  C   UNL A   1      44.588  27.171  31.334  1.00  0.00     0.049 A 
ATOM     66  H   UNL A   1      45.331  28.920  32.264  1.00  0.00     0.167 HD
ATOM     67  C   UNL A   1      46.695  26.291  30.243  1.00  0.00     0.074 A 
ATOM     68  C   UNL A   1      48.058  25.776  30.104  1.00  0.00     0.031 C 
ATOM     69  C   UNL A   1      45.845  26.382  31.330  1.00  0.00     0.031 A 
BRANCH  56  70
ATOM     70  C   UNL A   1      41.851  30.784  33.497  1.00  0.00    -0.014 A 
ATOM     71  C   UNL A   1      42.093  31.039  34.860  1.00  0.00     0.010 A 
ATOM     72  C   UNL A   1      40.505  30.916  33.082  1.00  0.00     0.010 A 
ATOM     73  C   UNL A   1      41.043  31.292  35.770  1.00  0.00     0.020 A 
ATOM     74  C   UNL A   1      39.444  31.109  33.983  1.00  0.00     0.020 A 
ATOM     75  C   UNL A   1      39.719  31.291  35.331  1.00  0.00     0.054 A 
BRANCH  75  76
ATOM     76  S   UNL A   1      38.367  31.533  36.521  1.00  0.00     0.124 S 
ATOM     77  O   UNL A   1      38.000  30.165  36.877  1.00  0.00    -0.237 OA
ATOM     78  O   UNL A   1      39.012  32.308  37.576  1.00  0.00    -0.237 OA
ATOM     79  O   UNL A   1      37.353  32.257  35.754  1.00  0.00    -0.744 OA
ENDBRANCH  75  76
ENDBRANCH  56  70
BRANCH  57  80
ATOM     80  C   UNL A   1      48.726  28.088  26.031  1.00  0.00    -0.014 A 
ATOM     81  C   UNL A   1      49.291  29.260  26.613  1.00  0.00     0.010 A 
ATOM     82  C   UNL A   1      49.468  27.430  25.047  1.00  0.00     0.010 A 
ATOM     83  C   UNL A   1      50.618  29.636  26.383  1.00  0.00     0.020 A 
ATOM     84  C   UNL A   1      50.807  27.809  24.807  1.00  0.00     0.020 A 
ATOM     85  C   UNL A   1      51.385  28.878  25.505  1.00  0.00     0.054 A 
BRANCH  85  86
ATOM     86  S   UNL A   1      53.172  29.190  25.345  1.00  0.00     0.124 S 
ATOM     87  O   UNL A   1      53.566  29.477  26.720  1.00  0.00    -0.237 OA
ATOM     88  O   UNL A   1      53.700  27.944  24.796  1.00  0.00    -0.237 OA
ATOM     89  O   UNL A   1      53.228  30.330  24.431  1.00  0.00    -0.744 OA
ENDBRANCH  85  86
ENDBRANCH  57  80
BRANCH  69  90
ATOM     90  C   UNL A   1      46.156  25.648  32.615  1.00  0.00    -0.014 A 
ATOM     91  C   UNL A   1      47.182  26.061  33.481  1.00  0.00     0.010 A 
ATOM     92  C   UNL A   1      45.507  24.430  32.911  1.00  0.00     0.010 A 
ATOM     93  C   UNL A   1      47.444  25.363  34.666  1.00  0.00     0.020 A 
ATOM     94  C   UNL A   1      45.784  23.708  34.071  1.00  0.00     0.020 A 
ATOM     95  C   UNL A   1      46.718  24.208  34.967  1.00  0.00     0.054 A 
BRANCH  95  96
ATOM     96  S   UNL A   1      47.003  23.362  36.539  1.00  0.00     0.124 S 
ATOM     97  O   UNL A   1      45.832  23.740  37.328  1.00  0.00    -0.237 OA
ATOM     98  O   UNL A   1      47.050  21.965  36.115  1.00  0.00    -0.237 OA
ATOM     99  O   UNL A   1      48.270  23.916  37.008  1.00  0.00    -0.744 OA
ENDBRANCH  95  96
ENDBRANCH  69  90
ENDBRANCH  43  44
ENDBRANCH  36  38
ENDBRANCH  35  36
ENDBRANCH  34  35
ENDBRANCH  33  34
ENDBRANCH  32  33
ENDBRANCH  31  32
ENDBRANCH  30  31
ENDBRANCH  29  30
ENDBRANCH   1  29
TORSDOF 27
ENDMDL
MODEL 3
REMARK VINA RESULT:      -8.7      4.985      6.841
REMARK SMILES Cc1ccccc1NC(=O)C[NH+]1CCC(CC(=O)OCCOCCOCCOCCOC(=O)c2ccc(-c3c4nc(c(-c5ccc(S(=O)(=O)[O-])cc5)c5ccc([nH]5)c(-c5ccc(S(=O)(=O)[O-])cc5)c5nc(c(-c6ccc(S(=O)(=O)[O-])cc6)c6ccc3[nH]6)C=C5)C=C4)cc2)CC1
REMARK SMILES IDX 24 1 23 2 22 3 21 4 20 5 19 6 17 7 18 8 16 9 15 10 12 11
REMARK SMILES IDX 13 12 95 13 14 15 94 16 11 17 9 18 8 19 10 21 7 22 1 23 2 24
REMARK SMILES IDX 3 25 4 26 6 27 5 28 25 29 26 30 27 31 28 32 29 33 30 34
REMARK SMILES IDX 31 35 32 36 33 37 34 38 35 39 93 40 36 41 92 42 37 43 38 44
REMARK SMILES IDX 39 45 86 46 40 47 91 48 85 49 87 50 41 51 90 52 84 53 83 54
REMARK SMILES IDX 42 56 72 57 53 58 71 59 54 60 57 61 70 62 88 63 55 64 56 65
REMARK SMILES IDX 69 67 89 68 58 69 43 70 44 71 52 72 45 73 51 74 46 75 47 76
REMARK SMILES IDX 48 77 49 78 50 79 73 80 74 81 82 82 75 83 81 84 76 85 77 86
REMARK SMILES IDX 78 87 79 88 80 89 59 90 60 91 68 92 61 93 67 94 62 95 63 96
REMARK SMILES IDX 64 97 65 98 66 99
REMARK H PARENT 12 14 8 20 87 55 57 66
REMARK Flexibility Score: inf
ROOT
ATOM      1  C   UNL A   1      39.008  27.428  28.543  1.00  0.00     0.188 C 
ENDROOT
BRANCH   1   2
ATOM      2  C   UNL A   1      38.721  28.365  29.800  1.00  0.00     0.188 C 
BRANCH   2   3
ATOM      3  O   UNL A   1      37.737  29.478  30.131  1.00  0.00    -0.376 OA
BRANCH   3   4
ATOM      4  C   UNL A   1      36.247  29.841  29.475  1.00  0.00     0.202 C 
BRANCH   4   5
ATOM      5  C   UNL A   1      35.520  30.949  28.142  1.00  0.00     0.261 C 
BRANCH   5   6
ATOM      6  O   UNL A   1      34.049  30.822  27.028  1.00  0.00    -0.463 OA
BRANCH   6   7
ATOM      7  C   UNL A   1      32.514  30.436  26.968  1.00  0.00     0.306 C 
ATOM      8  O   UNL A   1      31.666  31.333  26.848  1.00  0.00    -0.252 OA
BRANCH   7   9
ATOM      9  C   UNL A   1      31.851  28.782  27.246  1.00  0.00     0.126 C 
BRANCH   9  10
ATOM     10  C   UNL A   1      31.958  27.224  26.543  1.00  0.00     0.011 C 
ATOM     11  N   UNL A   1      31.884  25.167  24.189  1.00  0.00    -0.327 N 
ATOM     12  C   UNL A   1      30.852  25.201  25.201  1.00  0.00     0.262 C 
ATOM     13  C   UNL A   1      33.137  25.668  24.760  1.00  0.00     0.262 C 
ATOM     14  H   UNL A   1      31.712  25.820  23.425  1.00  0.00     0.348 HD
ATOM     15  C   UNL A   1      30.796  26.601  25.786  1.00  0.00     0.066 C 
ATOM     16  C   UNL A   1      33.075  27.090  25.457  1.00  0.00     0.066 C 
BRANCH  11  17
ATOM     17  C   UNL A   1      31.865  23.887  23.423  1.00  0.00     0.363 C 
BRANCH  17  18
ATOM     18  C   UNL A   1      33.128  23.519  22.589  1.00  0.00     0.279 C 
ATOM     19  N   UNL A   1      34.073  22.636  23.046  1.00  0.00    -0.321 N 
ATOM     20  H   UNL A   1      34.735  22.325  22.387  1.00  0.00     0.170 HD
ATOM     21  O   UNL A   1      33.306  24.000  21.463  1.00  0.00    -0.268 OA
BRANCH  19  22
ATOM     22  C   UNL A   1      34.199  22.129  24.340  1.00  0.00     0.044 A 
ATOM     23  C   UNL A   1      32.635  20.153  23.825  1.00  0.00     0.046 C 
ATOM     24  C   UNL A   1      33.449  21.017  24.750  1.00  0.00    -0.027 A 
ATOM     25  C   UNL A   1      33.401  20.730  26.127  1.00  0.00     0.005 A 
ATOM     26  C   UNL A   1      34.120  21.492  27.052  1.00  0.00     0.000 A 
ATOM     27  C   UNL A   1      35.021  22.801  25.255  1.00  0.00     0.026 A 
ATOM     28  C   UNL A   1      34.965  22.503  26.611  1.00  0.00     0.002 A 
ENDBRANCH  19  22
ENDBRANCH  17  18
ENDBRANCH  11  17
ENDBRANCH   9  10
ENDBRANCH   7   9
ENDBRANCH   6   7
ENDBRANCH   5   6
ENDBRANCH   4   5
ENDBRANCH   3   4
ENDBRANCH   2   3
ENDBRANCH   1   2
BRANCH   1  29
ATOM     29  O   UNL A   1      40.131  26.591  28.394  1.00  0.00    -0.377 OA
BRANCH  29  30
ATOM     30  C   UNL A   1      39.960  25.677  27.339  1.00  0.00     0.188 C 
BRANCH  30  31
ATOM     31  C   UNL A   1      40.198  24.215  27.743  1.00  0.00     0.188 C 
BRANCH  31  32
ATOM     32  O   UNL A   1      40.079  23.297  26.652  1.00  0.00    -0.376 OA
BRANCH  32  33
ATOM     33  C   UNL A   1      40.521  21.967  26.882  1.00  0.00     0.202 C 
BRANCH  33  34
ATOM     34  C   UNL A   1      41.484  21.930  28.071  1.00  0.00     0.261 C 
BRANCH  34  35
ATOM     35  O   UNL A   1      42.852  21.817  27.615  1.00  0.00    -0.460 OA
BRANCH  35  36
ATOM     36  C   UNL A   1      43.487  23.013  27.443  1.00  0.00     0.338 C 
ATOM     37  O   UNL A   1      43.554  23.614  26.390  1.00  0.00    -0.246 OA
BRANCH  36  38
ATOM     38  C   UNL A   1      44.215  23.365  28.704  1.00  0.00     0.060 A 
ATOM     39  C   UNL A   1      43.654  23.017  29.922  1.00  0.00     0.016 A 
ATOM     40  C   UNL A   1      45.291  24.261  28.692  1.00  0.00     0.016 A 
ATOM     41  C   UNL A   1      44.078  23.687  31.084  1.00  0.00     0.010 A 
ATOM     42  C   UNL A   1      45.580  25.046  29.818  1.00  0.00     0.010 A 
ATOM     43  C   UNL A   1      44.907  24.848  31.034  1.00  0.00    -0.014 A 
BRANCH  43  44
ATOM     44  C   UNL A   1      45.268  25.898  32.249  1.00  0.00     0.031 A 
ATOM     45  C   UNL A   1      44.258  27.162  31.462  1.00  0.00     0.074 A 
ATOM     46  C   UNL A   1      46.384  25.979  33.496  1.00  0.00     0.049 A 
ATOM     47  N   UNL A   1      44.514  28.442  31.404  1.00  0.00    -0.248 NA
ATOM     48  C   UNL A   1      43.123  26.934  30.521  1.00  0.00     0.031 C 
ATOM     49  C   UNL A   1      46.743  27.098  34.727  1.00  0.00     0.029 A 
ATOM     50  N   UNL A   1      47.779  25.439  33.759  1.00  0.00    -0.354 N 
ATOM     51  C   UNL A   1      43.407  29.131  31.045  1.00  0.00     0.074 A 
ATOM     52  C   UNL A   1      42.684  28.176  30.256  1.00  0.00     0.031 C 
ATOM     53  C   UNL A   1      47.950  27.107  35.266  1.00  0.00     0.029 A 
ATOM     54  C   UNL A   1      48.701  26.352  34.369  1.00  0.00     0.049 A 
ATOM     55  H   UNL A   1      48.036  24.517  33.526  1.00  0.00     0.167 HD
ATOM     56  C   UNL A   1      43.149  30.346  31.618  1.00  0.00     0.031 A 
ATOM     57  C   UNL A   1      49.883  26.864  33.923  1.00  0.00     0.031 A 
ATOM     58  C   UNL A   1      44.150  30.734  32.667  1.00  0.00     0.049 A 
ATOM     59  C   UNL A   1      49.789  28.435  33.762  1.00  0.00     0.074 A 
ATOM     60  C   UNL A   1      44.091  30.830  34.053  1.00  0.00     0.029 A 
ATOM     61  N   UNL A   1      45.526  30.810  32.382  1.00  0.00    -0.354 N 
ATOM     62  N   UNL A   1      48.680  29.132  33.961  1.00  0.00    -0.248 NA
ATOM     63  C   UNL A   1      50.860  29.328  33.331  1.00  0.00     0.031 C 
ATOM     64  C   UNL A   1      45.420  30.974  34.578  1.00  0.00     0.029 A 
ATOM     65  C   UNL A   1      46.325  30.977  33.527  1.00  0.00     0.049 A 
ATOM     66  H   UNL A   1      45.891  30.752  31.469  1.00  0.00     0.167 HD
ATOM     67  C   UNL A   1      48.796  30.430  33.545  1.00  0.00     0.074 A 
ATOM     68  C   UNL A   1      50.225  30.520  33.242  1.00  0.00     0.031 C 
ATOM     69  C   UNL A   1      47.761  31.335  33.404  1.00  0.00     0.031 A 
BRANCH  56  70
ATOM     70  C   UNL A   1      41.760  30.954  31.433  1.00  0.00    -0.014 A 
ATOM     71  C   UNL A   1      41.475  31.866  30.401  1.00  0.00     0.010 A 
ATOM     72  C   UNL A   1      40.691  30.685  32.320  1.00  0.00     0.010 A 
ATOM     73  C   UNL A   1      40.243  32.554  30.330  1.00  0.00     0.020 A 
ATOM     74  C   UNL A   1      39.483  31.401  32.299  1.00  0.00     0.020 A 
ATOM     75  C   UNL A   1      39.266  32.341  31.302  1.00  0.00     0.054 A 
BRANCH  75  76
ATOM     76  S   UNL A   1      37.716  33.290  31.254  1.00  0.00     0.124 S 
ATOM     77  O   UNL A   1      37.395  33.312  29.829  1.00  0.00    -0.237 OA
ATOM     78  O   UNL A   1      36.828  32.483  32.087  1.00  0.00    -0.237 OA
ATOM     79  O   UNL A   1      38.083  34.587  31.818  1.00  0.00    -0.744 OA
ENDBRANCH  75  76
ENDBRANCH  56  70
BRANCH  57  80
ATOM     80  C   UNL A   1      50.730  25.817  33.284  1.00  0.00    -0.014 A 
ATOM     81  C   UNL A   1      52.027  25.659  33.856  1.00  0.00     0.010 A 
ATOM     82  C   UNL A   1      50.246  24.782  32.480  1.00  0.00     0.010 A 
ATOM     83  C   UNL A   1      52.716  24.443  33.806  1.00  0.00     0.020 A 
ATOM     84  C   UNL A   1      50.940  23.555  32.423  1.00  0.00     0.020 A 
ATOM     85  C   UNL A   1      52.145  23.379  33.119  1.00  0.00     0.054 A 
BRANCH  85  86
ATOM     86  S   UNL A   1      52.890  21.720  33.215  1.00  0.00     0.124 S 
ATOM     87  O   UNL A   1      52.315  21.188  34.446  1.00  0.00    -0.237 OA
ATOM     88  O   UNL A   1      52.444  21.062  31.989  1.00  0.00    -0.237 OA
ATOM     89  O   UNL A   1      54.322  22.004  33.268  1.00  0.00    -0.744 OA
ENDBRANCH  85  86
ENDBRANCH  57  80
BRANCH  69  90
ATOM     90  C   UNL A   1      48.043  32.792  33.116  1.00  0.00    -0.014 A 
ATOM     91  C   UNL A   1      48.701  33.209  31.947  1.00  0.00     0.010 A 
ATOM     92  C   UNL A   1      47.775  33.774  34.094  1.00  0.00     0.010 A 
ATOM     93  C   UNL A   1      48.947  34.565  31.706  1.00  0.00     0.020 A 
ATOM     94  C   UNL A   1      48.046  35.124  33.880  1.00  0.00     0.020 A 
ATOM     95  C   UNL A   1      48.586  35.517  32.663  1.00  0.00     0.054 A 
BRANCH  95  96
ATOM     96  S   UNL A   1      48.827  37.273  32.308  1.00  0.00     0.124 S 
ATOM     97  O   UNL A   1      50.156  37.535  32.857  1.00  0.00    -0.237 OA
ATOM     98  O   UNL A   1      48.735  37.293  30.850  1.00  0.00    -0.237 OA
ATOM     99  O   UNL A   1      47.727  37.925  33.013  1.00  0.00    -0.744 OA
ENDBRANCH  95  96
ENDBRANCH  69  90
ENDBRANCH  43  44
ENDBRANCH  36  38
ENDBRANCH  35  36
ENDBRANCH  34  35
ENDBRANCH  33  34
ENDBRANCH  32  33
ENDBRANCH  31  32
ENDBRANCH  30  31
ENDBRANCH  29  30
ENDBRANCH   1  29
TORSDOF 27
ENDMDL
