MODEL 1
REMARK VINA RESULT:      -8.0      0.000      0.000
REMARK SMILES COc1ccc(-c2[nH]nc3nc(-c4ccc(C(F)(F)F)cc4)cc(C(=O)OCCOCCOCCOCCOC(=O)c4ccc(-c5c6nc(c(-c7ccc(S(=O)(=O)[O-])cc7)c7ccc([nH]7)c(-c7ccc(S(=O)(=O)[O-])cc7)c7nc(c(-c8ccc(S(=O)(=O)[O-])cc8)c8ccc5[nH]8)C=C7)C=C6)cc4)c23)cc1
REMARK SMILES IDX 34 1 33 2 32 3 31 4 30 5 29 6 28 7 27 8 25 9 26 10 24 11
REMARK SMILES IDX 7 12 8 13 102 14 9 15 10 17 11 18 23 19 12 20 6 21 3 22 4 23
REMARK SMILES IDX 104 24 5 25 103 26 2 27 1 28 13 29 14 30 22 31 15 32 21 33
REMARK SMILES IDX 16 34 17 35 18 36 19 37 20 38 35 39 36 40 37 41 38 42 39 43
REMARK SMILES IDX 40 44 41 45 42 46 43 47 101 48 44 49 100 50 45 51 46 52
REMARK SMILES IDX 47 53 94 54 48 55 99 56 93 57 95 58 49 59 98 60 92 61 91 62
REMARK SMILES IDX 50 64 80 65 61 66 79 67 62 68 65 69 78 70 96 71 63 72 64 73
REMARK SMILES IDX 77 75 97 76 66 77 51 78 52 79 60 80 53 81 59 82 54 83 55 84
REMARK SMILES IDX 56 85 57 86 58 87 81 88 82 89 90 90 83 91 89 92 84 93 85 94
REMARK SMILES IDX 86 95 87 96 88 97 67 98 68 99 76 100 69 101 75 102 70 103
REMARK SMILES IDX 71 104 72 105 73 106 74 107
REMARK H PARENT 8 16 95 63 65 74
REMARK Flexibility Score: inf
ROOT
ATOM      1  C   UNL A   1      32.861  35.883  31.025  1.00  0.00     0.188 C 
ENDROOT
BRANCH   1   2
ATOM      2  O   UNL A   1      34.008  35.889  31.869  1.00  0.00    -0.377 OA
BRANCH   2   3
ATOM      3  C   UNL A   1      34.072  34.875  32.864  1.00  0.00     0.188 C 
BRANCH   3   4
ATOM      4  C   UNL A   1      35.445  34.256  33.086  1.00  0.00     0.188 C 
BRANCH   4   5
ATOM      5  O   UNL A   1      35.485  33.153  33.967  1.00  0.00    -0.376 OA
BRANCH   5   6
ATOM      6  C   UNL A   1      36.663  32.375  34.119  1.00  0.00     0.202 C 
BRANCH   6   7
ATOM      7  C   UNL A   1      37.939  32.732  33.338  1.00  0.00     0.261 C 
BRANCH   7   8
ATOM      8  O   UNL A   1      39.053  33.167  34.138  1.00  0.00    -0.460 OA
BRANCH   8   9
ATOM      9  C   UNL A   1      39.224  34.493  34.325  1.00  0.00     0.339 C 
ATOM     10  O   UNL A   1      38.408  35.238  34.844  1.00  0.00    -0.246 OA
BRANCH   9  11
ATOM     11  C   UNL A   1      40.600  34.840  33.890  1.00  0.00     0.075 A 
ATOM     12  C   UNL A   1      41.805  35.134  36.095  1.00  0.00     0.075 A 
ATOM     13  N   UNL A   1      43.082  35.583  36.342  1.00  0.00    -0.275 N 
ATOM     14  C   UNL A   1      41.682  35.181  34.715  1.00  0.00     0.061 A 
ATOM     15  N   UNL A   1      43.835  35.770  35.248  1.00  0.00    -0.154 NA
ATOM     16  H   UNL A   1      43.418  35.755  37.251  1.00  0.00     0.190 HD
ATOM     17  C   UNL A   1      43.011  35.469  34.246  1.00  0.00     0.182 A 
ATOM     18  N   UNL A   1      43.362  35.392  32.940  1.00  0.00    -0.226 NA
ATOM     19  C   UNL A   1      41.023  34.724  32.544  1.00  0.00     0.045 A 
ATOM     20  C   UNL A   1      42.353  34.997  32.116  1.00  0.00     0.074 A 
BRANCH  12  21
ATOM     21  C   UNL A   1      40.994  34.613  37.188  1.00  0.00     0.001 A 
ATOM     22  C   UNL A   1      39.378  33.562  39.242  1.00  0.00     0.118 A 
ATOM     23  C   UNL A   1      39.551  34.943  39.101  1.00  0.00     0.047 A 
ATOM     24  C   UNL A   1      40.041  32.704  38.368  1.00  0.00     0.047 A 
ATOM     25  C   UNL A   1      40.362  35.468  38.090  1.00  0.00     0.014 A 
ATOM     26  C   UNL A   1      40.851  33.228  37.352  1.00  0.00     0.014 A 
BRANCH  22  27
ATOM     27  O   UNL A   1      38.526  33.191  40.247  1.00  0.00    -0.497 OA
ATOM     28  C   UNL A   1      38.089  34.218  41.130  1.00  0.00     0.278 C 
ENDBRANCH  22  27
ENDBRANCH  12  21
BRANCH  20  29
ATOM     29  C   UNL A   1      42.728  34.906  30.679  1.00  0.00     0.000 A 
ATOM     30  C   UNL A   1      43.240  36.009  29.968  1.00  0.00     0.011 A 
ATOM     31  C   UNL A   1      42.540  33.714  29.957  1.00  0.00     0.011 A 
ATOM     32  C   UNL A   1      43.535  35.926  28.596  1.00  0.00     0.014 A 
ATOM     33  C   UNL A   1      42.831  33.626  28.592  1.00  0.00     0.014 A 
ATOM     34  C   UNL A   1      43.324  34.732  27.892  1.00  0.00     0.056 A 
BRANCH  34  35
ATOM     35  C   UNL A   1      43.598  34.648  26.409  1.00  0.00     0.416 C 
ATOM     36  F   UNL A   1      43.940  33.390  26.011  1.00  0.00    -0.166 F 
ATOM     37  F   UNL A   1      42.530  35.008  25.649  1.00  0.00    -0.166 F 
ATOM     38  F   UNL A   1      44.627  35.449  26.007  1.00  0.00    -0.166 F 
ENDBRANCH  34  35
ENDBRANCH  20  29
ENDBRANCH   9  11
ENDBRANCH   8   9
ENDBRANCH   7   8
ENDBRANCH   6   7
ENDBRANCH   5   6
ENDBRANCH   4   5
ENDBRANCH   3   4
ENDBRANCH   2   3
ENDBRANCH   1   2
BRANCH   1  39
ATOM     39  C   UNL A   1      33.047  35.690  29.495  1.00  0.00     0.188 C 
BRANCH  39  40
ATOM     40  O   UNL A   1      32.742  34.409  28.970  1.00  0.00    -0.376 OA
BRANCH  40  41
ATOM     41  C   UNL A   1      33.589  33.657  28.119  1.00  0.00     0.202 C 
BRANCH  41  42
ATOM     42  C   UNL A   1      35.093  33.455  28.323  1.00  0.00     0.261 C 
BRANCH  42  43
ATOM     43  O   UNL A   1      35.518  33.373  29.658  1.00  0.00    -0.460 OA
BRANCH  43  44
ATOM     44  C   UNL A   1      35.982  32.163  30.011  1.00  0.00     0.338 C 
ATOM     45  O   UNL A   1      35.498  31.405  30.835  1.00  0.00    -0.246 OA
BRANCH  44  46
ATOM     46  C   UNL A   1      37.245  31.933  29.309  1.00  0.00     0.060 A 
ATOM     47  C   UNL A   1      37.348  30.704  28.661  1.00  0.00     0.016 A 
ATOM     48  C   UNL A   1      38.363  32.693  29.681  1.00  0.00     0.016 A 
ATOM     49  C   UNL A   1      38.566  30.078  28.704  1.00  0.00     0.010 A 
ATOM     50  C   UNL A   1      39.574  32.058  29.741  1.00  0.00     0.010 A 
ATOM     51  C   UNL A   1      39.623  30.722  29.362  1.00  0.00    -0.014 A 
BRANCH  51  52
ATOM     52  C   UNL A   1      40.851  29.989  29.533  1.00  0.00     0.031 A 
ATOM     53  C   UNL A   1      41.099  29.722  30.960  1.00  0.00     0.074 A 
ATOM     54  C   UNL A   1      41.605  29.563  28.503  1.00  0.00     0.049 A 
ATOM     55  N   UNL A   1      41.909  30.363  31.734  1.00  0.00    -0.248 NA
ATOM     56  C   UNL A   1      40.147  28.848  31.669  1.00  0.00     0.031 C 
ATOM     57  C   UNL A   1      41.295  29.574  27.071  1.00  0.00     0.029 A 
ATOM     58  N   UNL A   1      42.803  28.928  28.541  1.00  0.00    -0.354 N 
ATOM     59  C   UNL A   1      41.762  29.761  32.974  1.00  0.00     0.074 A 
ATOM     60  C   UNL A   1      40.504  29.061  32.935  1.00  0.00     0.031 C 
ATOM     61  C   UNL A   1      42.155  28.747  26.424  1.00  0.00     0.029 A 
ATOM     62  C   UNL A   1      43.149  28.264  27.370  1.00  0.00     0.049 A 
ATOM     63  H   UNL A   1      43.381  28.935  29.337  1.00  0.00     0.167 HD
ATOM     64  C   UNL A   1      42.839  29.585  33.785  1.00  0.00     0.031 A 
ATOM     65  C   UNL A   1      44.136  27.337  27.235  1.00  0.00     0.031 A 
ATOM     66  C   UNL A   1      43.943  30.424  33.383  1.00  0.00     0.049 A 
ATOM     67  C   UNL A   1      45.055  27.514  28.391  1.00  0.00     0.074 A 
ATOM     68  C   UNL A   1      44.119  31.784  33.220  1.00  0.00     0.029 A 
ATOM     69  N   UNL A   1      44.951  29.818  32.668  1.00  0.00    -0.354 N 
ATOM     70  N   UNL A   1      45.795  28.575  28.556  1.00  0.00    -0.248 NA
ATOM     71  C   UNL A   1      44.774  26.758  29.604  1.00  0.00     0.031 C 
ATOM     72  C   UNL A   1      44.932  31.917  32.057  1.00  0.00     0.029 A 
ATOM     73  C   UNL A   1      45.284  30.638  31.620  1.00  0.00     0.049 A 
ATOM     74  H   UNL A   1      45.362  28.948  32.873  1.00  0.00     0.167 HD
ATOM     75  C   UNL A   1      45.693  28.872  29.908  1.00  0.00     0.074 A 
ATOM     76  C   UNL A   1      45.118  27.672  30.517  1.00  0.00     0.031 C 
ATOM     77  C   UNL A   1      45.805  30.159  30.357  1.00  0.00     0.031 A 
BRANCH  64  78
ATOM     78  C   UNL A   1      43.035  28.328  34.595  1.00  0.00    -0.014 A 
ATOM     79  C   UNL A   1      43.281  28.453  35.975  1.00  0.00     0.010 A 
ATOM     80  C   UNL A   1      43.266  27.060  34.016  1.00  0.00     0.010 A 
ATOM     81  C   UNL A   1      43.797  27.383  36.716  1.00  0.00     0.020 A 
ATOM     82  C   UNL A   1      43.735  25.976  34.754  1.00  0.00     0.020 A 
ATOM     83  C   UNL A   1      44.028  26.155  36.096  1.00  0.00     0.054 A 
BRANCH  83  84
ATOM     84  S   UNL A   1      44.762  24.804  37.043  1.00  0.00     0.124 S 
ATOM     85  O   UNL A   1      44.235  25.057  38.380  1.00  0.00    -0.237 OA
ATOM     86  O   UNL A   1      44.229  23.629  36.360  1.00  0.00    -0.237 OA
ATOM     87  O   UNL A   1      46.199  25.015  36.882  1.00  0.00    -0.744 OA
ENDBRANCH  83  84
ENDBRANCH  64  78
BRANCH  65  88
ATOM     88  C   UNL A   1      44.140  26.096  26.410  1.00  0.00    -0.014 A 
ATOM     89  C   UNL A   1      45.261  25.747  25.628  1.00  0.00     0.010 A 
ATOM     90  C   UNL A   1      43.167  25.099  26.629  1.00  0.00     0.010 A 
ATOM     91  C   UNL A   1      45.437  24.435  25.149  1.00  0.00     0.020 A 
ATOM     92  C   UNL A   1      43.333  23.792  26.151  1.00  0.00     0.020 A 
ATOM     93  C   UNL A   1      44.481  23.457  25.437  1.00  0.00     0.054 A 
BRANCH  93  94
ATOM     94  S   UNL A   1      44.805  21.722  24.995  1.00  0.00     0.124 S 
ATOM     95  O   UNL A   1      43.712  21.020  25.661  1.00  0.00    -0.237 OA
ATOM     96  O   UNL A   1      44.744  21.746  23.536  1.00  0.00    -0.237 OA
ATOM     97  O   UNL A   1      46.133  21.467  25.551  1.00  0.00    -0.744 OA
ENDBRANCH  93  94
ENDBRANCH  65  88
BRANCH  77  98
ATOM     98  C   UNL A   1      46.343  31.208  29.408  1.00  0.00    -0.014 A 
ATOM     99  C   UNL A   1      47.408  32.084  29.702  1.00  0.00     0.010 A 
ATOM    100  C   UNL A   1      45.813  31.216  28.107  1.00  0.00     0.010 A 
ATOM    101  C   UNL A   1      47.897  32.970  28.727  1.00  0.00     0.020 A 
ATOM    102  C   UNL A   1      46.306  32.079  27.128  1.00  0.00     0.020 A 
ATOM    103  C   UNL A   1      47.334  32.965  27.445  1.00  0.00     0.054 A 
BRANCH 103 104
ATOM    104  S   UNL A   1      47.959  34.109  26.182  1.00  0.00     0.124 S 
ATOM    105  O   UNL A   1      46.856  34.161  25.227  1.00  0.00    -0.237 OA
ATOM    106  O   UNL A   1      48.194  35.335  26.941  1.00  0.00    -0.237 OA
ATOM    107  O   UNL A   1      49.172  33.456  25.690  1.00  0.00    -0.744 OA
ENDBRANCH 103 104
ENDBRANCH  77  98
ENDBRANCH  51  52
ENDBRANCH  44  46
ENDBRANCH  43  44
ENDBRANCH  42  43
ENDBRANCH  41  42
ENDBRANCH  40  41
ENDBRANCH  39  40
ENDBRANCH   1  39
TORSDOF 27
ENDMDL
MODEL 2
REMARK VINA RESULT:      -7.5      4.383      9.730
REMARK SMILES COc1ccc(-c2[nH]nc3nc(-c4ccc(C(F)(F)F)cc4)cc(C(=O)OCCOCCOCCOCCOC(=O)c4ccc(-c5c6nc(c(-c7ccc(S(=O)(=O)[O-])cc7)c7ccc([nH]7)c(-c7ccc(S(=O)(=O)[O-])cc7)c7nc(c(-c8ccc(S(=O)(=O)[O-])cc8)c8ccc5[nH]8)C=C7)C=C6)cc4)c23)cc1
REMARK SMILES IDX 34 1 33 2 32 3 31 4 30 5 29 6 28 7 27 8 25 9 26 10 24 11
REMARK SMILES IDX 7 12 8 13 102 14 9 15 10 17 11 18 23 19 12 20 6 21 3 22 4 23
REMARK SMILES IDX 104 24 5 25 103 26 2 27 1 28 13 29 14 30 22 31 15 32 21 33
REMARK SMILES IDX 16 34 17 35 18 36 19 37 20 38 35 39 36 40 37 41 38 42 39 43
REMARK SMILES IDX 40 44 41 45 42 46 43 47 101 48 44 49 100 50 45 51 46 52
REMARK SMILES IDX 47 53 94 54 48 55 99 56 93 57 95 58 49 59 98 60 92 61 91 62
REMARK SMILES IDX 50 64 80 65 61 66 79 67 62 68 65 69 78 70 96 71 63 72 64 73
REMARK SMILES IDX 77 75 97 76 66 77 51 78 52 79 60 80 53 81 59 82 54 83 55 84
REMARK SMILES IDX 56 85 57 86 58 87 81 88 82 89 90 90 83 91 89 92 84 93 85 94
REMARK SMILES IDX 86 95 87 96 88 97 67 98 68 99 76 100 69 101 75 102 70 103
REMARK SMILES IDX 71 104 72 105 73 106 74 107
REMARK H PARENT 8 16 95 63 65 74
REMARK Flexibility Score: inf
ROOT
ATOM      1  C   UNL A   1      33.606  24.783  25.608  1.00  0.00     0.188 C 
ENDROOT
BRANCH   1   2
ATOM      2  O   UNL A   1      33.007  25.622  26.591  1.00  0.00    -0.377 OA
BRANCH   2   3
ATOM      3  C   UNL A   1      32.616  26.922  26.165  1.00  0.00     0.188 C 
BRANCH   3   4
ATOM      4  C   UNL A   1      33.747  27.927  25.999  1.00  0.00     0.188 C 
BRANCH   4   5
ATOM      5  O   UNL A   1      34.119  28.629  27.166  1.00  0.00    -0.376 OA
BRANCH   5   6
ATOM      6  C   UNL A   1      35.404  29.222  27.289  1.00  0.00     0.202 C 
BRANCH   6   7
ATOM      7  C   UNL A   1      35.718  30.165  28.463  1.00  0.00     0.261 C 
BRANCH   7   8
ATOM      8  O   UNL A   1      37.024  30.010  29.048  1.00  0.00    -0.460 OA
BRANCH   8   9
ATOM      9  C   UNL A   1      37.107  29.858  30.387  1.00  0.00     0.339 C 
ATOM     10  O   UNL A   1      36.231  29.386  31.094  1.00  0.00    -0.246 OA
BRANCH   9  11
ATOM     11  C   UNL A   1      38.472  30.260  30.807  1.00  0.00     0.075 A 
ATOM     12  C   UNL A   1      38.387  32.778  30.580  1.00  0.00     0.075 A 
ATOM     13  N   UNL A   1      39.398  33.703  30.708  1.00  0.00    -0.275 N 
ATOM     14  C   UNL A   1      39.005  31.557  30.806  1.00  0.00     0.061 A 
ATOM     15  N   UNL A   1      40.566  33.206  31.140  1.00  0.00    -0.154 NA
ATOM     16  H   UNL A   1      39.274  34.657  30.498  1.00  0.00     0.190 HD
ATOM     17  C   UNL A   1      40.324  31.902  31.264  1.00  0.00     0.182 A 
ATOM     18  N   UNL A   1      41.179  30.995  31.793  1.00  0.00    -0.226 NA
ATOM     19  C   UNL A   1      39.379  29.355  31.412  1.00  0.00     0.045 A 
ATOM     20  C   UNL A   1      40.671  29.734  31.873  1.00  0.00     0.074 A 
BRANCH  12  21
ATOM     21  C   UNL A   1      37.011  33.224  30.410  1.00  0.00     0.001 A 
ATOM     22  C   UNL A   1      34.379  34.163  30.052  1.00  0.00     0.118 A 
ATOM     23  C   UNL A   1      34.797  33.650  31.285  1.00  0.00     0.047 A 
ATOM     24  C   UNL A   1      35.275  34.177  28.987  1.00  0.00     0.047 A 
ATOM     25  C   UNL A   1      36.099  33.172  31.463  1.00  0.00     0.014 A 
ATOM     26  C   UNL A   1      36.582  33.703  29.164  1.00  0.00     0.014 A 
BRANCH  22  27
ATOM     27  O   UNL A   1      33.093  34.631  30.034  1.00  0.00    -0.497 OA
ATOM     28  C   UNL A   1      32.887  35.960  30.498  1.00  0.00     0.278 C 
ENDBRANCH  22  27
ENDBRANCH  12  21
BRANCH  20  29
ATOM     29  C   UNL A   1      41.600  28.729  32.455  1.00  0.00     0.000 A 
ATOM     30  C   UNL A   1      42.728  28.258  31.755  1.00  0.00     0.011 A 
ATOM     31  C   UNL A   1      41.359  28.171  33.723  1.00  0.00     0.011 A 
ATOM     32  C   UNL A   1      43.565  27.266  32.293  1.00  0.00     0.014 A 
ATOM     33  C   UNL A   1      42.188  27.181  34.263  1.00  0.00     0.014 A 
ATOM     34  C   UNL A   1      43.296  26.710  33.552  1.00  0.00     0.056 A 
BRANCH  34  35
ATOM     35  C   UNL A   1      44.166  25.612  34.117  1.00  0.00     0.416 C 
ATOM     36  F   UNL A   1      45.496  25.856  33.941  1.00  0.00    -0.166 F 
ATOM     37  F   UNL A   1      43.989  25.428  35.452  1.00  0.00    -0.166 F 
ATOM     38  F   UNL A   1      43.939  24.397  33.541  1.00  0.00    -0.166 F 
ENDBRANCH  34  35
ENDBRANCH  20  29
ENDBRANCH   9  11
ENDBRANCH   8   9
ENDBRANCH   7   8
ENDBRANCH   6   7
ENDBRANCH   5   6
ENDBRANCH   4   5
ENDBRANCH   3   4
ENDBRANCH   2   3
ENDBRANCH   1   2
BRANCH   1  39
ATOM     39  C   UNL A   1      34.169  23.400  26.035  1.00  0.00     0.188 C 
BRANCH  39  40
ATOM     40  O   UNL A   1      35.530  23.357  26.429  1.00  0.00    -0.376 OA
BRANCH  40  41
ATOM     41  C   UNL A   1      36.600  23.965  25.724  1.00  0.00     0.202 C 
BRANCH  41  42
ATOM     42  C   UNL A   1      38.085  23.653  25.932  1.00  0.00     0.261 C 
BRANCH  42  43
ATOM     43  O   UNL A   1      38.694  24.300  27.019  1.00  0.00    -0.460 OA
BRANCH  43  44
ATOM     44  C   UNL A   1      40.036  24.291  26.979  1.00  0.00     0.338 C 
ATOM     45  O   UNL A   1      40.751  23.377  26.604  1.00  0.00    -0.246 OA
BRANCH  44  46
ATOM     46  C   UNL A   1      40.522  25.542  27.563  1.00  0.00     0.060 A 
ATOM     47  C   UNL A   1      40.411  26.662  26.742  1.00  0.00     0.016 A 
ATOM     48  C   UNL A   1      41.421  25.471  28.637  1.00  0.00     0.016 A 
ATOM     49  C   UNL A   1      41.440  27.565  26.780  1.00  0.00     0.010 A 
ATOM     50  C   UNL A   1      42.458  26.363  28.659  1.00  0.00     0.010 A 
ATOM     51  C   UNL A   1      42.509  27.321  27.654  1.00  0.00    -0.014 A 
BRANCH  51  52
ATOM     52  C   UNL A   1      43.653  28.193  27.573  1.00  0.00     0.031 A 
ATOM     53  C   UNL A   1      44.722  27.571  26.774  1.00  0.00     0.074 A 
ATOM     54  C   UNL A   1      43.676  29.428  28.108  1.00  0.00     0.049 A 
ATOM     55  N   UNL A   1      45.778  26.982  27.227  1.00  0.00    -0.248 NA
ATOM     56  C   UNL A   1      44.454  27.323  25.346  1.00  0.00     0.031 C 
ATOM     57  C   UNL A   1      42.576  30.199  28.691  1.00  0.00     0.029 A 
ATOM     58  N   UNL A   1      44.709  30.307  28.152  1.00  0.00    -0.354 N 
ATOM     59  C   UNL A   1      46.447  26.542  26.096  1.00  0.00     0.074 A 
ATOM     60  C   UNL A   1      45.476  26.527  25.033  1.00  0.00     0.031 C 
ATOM     61  C   UNL A   1      42.946  31.502  28.783  1.00  0.00     0.029 A 
ATOM     62  C   UNL A   1      44.343  31.625  28.397  1.00  0.00     0.049 A 
ATOM     63  H   UNL A   1      45.645  30.033  28.019  1.00  0.00     0.167 HD
ATOM     64  C   UNL A   1      47.805  26.580  26.043  1.00  0.00     0.031 A 
ATOM     65  C   UNL A   1      45.127  32.722  28.218  1.00  0.00     0.031 A 
ATOM     66  C   UNL A   1      48.380  26.719  27.359  1.00  0.00     0.049 A 
ATOM     67  C   UNL A   1      46.535  32.245  28.183  1.00  0.00     0.074 A 
ATOM     68  C   UNL A   1      48.312  25.988  28.530  1.00  0.00     0.029 A 
ATOM     69  N   UNL A   1      48.810  27.977  27.717  1.00  0.00    -0.354 N 
ATOM     70  N   UNL A   1      47.138  31.733  29.220  1.00  0.00    -0.248 NA
ATOM     71  C   UNL A   1      47.095  31.870  26.892  1.00  0.00     0.031 C 
ATOM     72  C   UNL A   1      48.259  26.960  29.571  1.00  0.00     0.029 A 
ATOM     73  C   UNL A   1      48.385  28.226  28.996  1.00  0.00     0.049 A 
ATOM     74  H   UNL A   1      49.332  28.591  27.153  1.00  0.00     0.167 HD
ATOM     75  C   UNL A   1      47.838  30.643  28.722  1.00  0.00     0.074 A 
ATOM     76  C   UNL A   1      47.839  30.825  27.270  1.00  0.00     0.031 C 
ATOM     77  C   UNL A   1      48.089  29.550  29.504  1.00  0.00     0.031 A 
BRANCH  64  78
ATOM     78  C   UNL A   1      48.547  26.983  24.792  1.00  0.00    -0.014 A 
ATOM     79  C   UNL A   1      47.800  27.414  23.681  1.00  0.00     0.010 A 
ATOM     80  C   UNL A   1      49.911  26.691  24.572  1.00  0.00     0.010 A 
ATOM     81  C   UNL A   1      48.374  27.481  22.407  1.00  0.00     0.020 A 
ATOM     82  C   UNL A   1      50.505  26.798  23.316  1.00  0.00     0.020 A 
ATOM     83  C   UNL A   1      49.722  27.162  22.234  1.00  0.00     0.054 A 
BRANCH  83  84
ATOM     84  S   UNL A   1      50.434  27.180  20.574  1.00  0.00     0.124 S 
ATOM     85  O   UNL A   1      49.322  26.690  19.767  1.00  0.00    -0.237 OA
ATOM     86  O   UNL A   1      50.771  28.591  20.404  1.00  0.00    -0.237 OA
ATOM     87  O   UNL A   1      51.579  26.279  20.684  1.00  0.00    -0.744 OA
ENDBRANCH  83  84
ENDBRANCH  64  78
BRANCH  65  88
ATOM     88  C   UNL A   1      44.741  34.068  27.709  1.00  0.00    -0.014 A 
ATOM     89  C   UNL A   1      43.455  34.303  27.178  1.00  0.00     0.010 A 
ATOM     90  C   UNL A   1      45.525  35.196  28.025  1.00  0.00     0.010 A 
ATOM     91  C   UNL A   1      42.948  35.610  27.041  1.00  0.00     0.020 A 
ATOM     92  C   UNL A   1      45.030  36.500  27.887  1.00  0.00     0.020 A 
ATOM     93  C   UNL A   1      43.732  36.701  27.422  1.00  0.00     0.054 A 
BRANCH  93  94
ATOM     94  S   UNL A   1      43.008  38.370  27.437  1.00  0.00     0.124 S 
ATOM     95  O   UNL A   1      41.896  38.238  26.500  1.00  0.00    -0.237 OA
ATOM     96  O   UNL A   1      42.636  38.545  28.838  1.00  0.00    -0.237 OA
ATOM     97  O   UNL A   1      44.102  39.225  26.980  1.00  0.00    -0.744 OA
ENDBRANCH  93  94
ENDBRANCH  65  88
BRANCH  77  98
ATOM     98  C   UNL A   1      47.869  29.666  30.996  1.00  0.00    -0.014 A 
ATOM     99  C   UNL A   1      46.637  29.445  31.645  1.00  0.00     0.010 A 
ATOM    100  C   UNL A   1      49.008  29.896  31.787  1.00  0.00     0.010 A 
ATOM    101  C   UNL A   1      46.547  29.494  33.047  1.00  0.00     0.020 A 
ATOM    102  C   UNL A   1      48.929  29.925  33.180  1.00  0.00     0.020 A 
ATOM    103  C   UNL A   1      47.697  29.741  33.804  1.00  0.00     0.054 A 
BRANCH 103 104
ATOM    104  S   UNL A   1      47.586  29.808  35.615  1.00  0.00     0.124 S 
ATOM    105  O   UNL A   1      47.719  28.405  35.995  1.00  0.00    -0.237 OA
ATOM    106  O   UNL A   1      48.710  30.669  35.978  1.00  0.00    -0.237 OA
ATOM    107  O   UNL A   1      46.267  30.392  35.862  1.00  0.00    -0.744 OA
ENDBRANCH 103 104
ENDBRANCH  77  98
ENDBRANCH  51  52
ENDBRANCH  44  46
ENDBRANCH  43  44
ENDBRANCH  42  43
ENDBRANCH  41  42
ENDBRANCH  40  41
ENDBRANCH  39  40
ENDBRANCH   1  39
TORSDOF 27
ENDMDL
MODEL 3
REMARK VINA RESULT:      -7.2      4.131      8.302
REMARK SMILES COc1ccc(-c2[nH]nc3nc(-c4ccc(C(F)(F)F)cc4)cc(C(=O)OCCOCCOCCOCCOC(=O)c4ccc(-c5c6nc(c(-c7ccc(S(=O)(=O)[O-])cc7)c7ccc([nH]7)c(-c7ccc(S(=O)(=O)[O-])cc7)c7nc(c(-c8ccc(S(=O)(=O)[O-])cc8)c8ccc5[nH]8)C=C7)C=C6)cc4)c23)cc1
REMARK SMILES IDX 34 1 33 2 32 3 31 4 30 5 29 6 28 7 27 8 25 9 26 10 24 11
REMARK SMILES IDX 7 12 8 13 102 14 9 15 10 17 11 18 23 19 12 20 6 21 3 22 4 23
REMARK SMILES IDX 104 24 5 25 103 26 2 27 1 28 13 29 14 30 22 31 15 32 21 33
REMARK SMILES IDX 16 34 17 35 18 36 19 37 20 38 35 39 36 40 37 41 38 42 39 43
REMARK SMILES IDX 40 44 41 45 42 46 43 47 101 48 44 49 100 50 45 51 46 52
REMARK SMILES IDX 47 53 94 54 48 55 99 56 93 57 95 58 49 59 98 60 92 61 91 62
REMARK SMILES IDX 50 64 80 65 61 66 79 67 62 68 65 69 78 70 96 71 63 72 64 73
REMARK SMILES IDX 77 75 97 76 66 77 51 78 52 79 60 80 53 81 59 82 54 83 55 84
REMARK SMILES IDX 56 85 57 86 58 87 81 88 82 89 90 90 83 91 89 92 84 93 85 94
REMARK SMILES IDX 86 95 87 96 88 97 67 98 68 99 76 100 69 101 75 102 70 103
REMARK SMILES IDX 71 104 72 105 73 106 74 107
REMARK H PARENT 8 16 95 63 65 74
REMARK Flexibility Score: inf
ROOT
ATOM      1  C   UNL A   1      34.007  25.714  25.130  1.00  0.00     0.188 C 
ENDROOT
BRANCH   1   2
ATOM      2  O   UNL A   1      33.035  26.740  24.957  1.00  0.00    -0.377 OA
BRANCH   2   3
ATOM      3  C   UNL A   1      33.489  28.080  25.108  1.00  0.00     0.188 C 
BRANCH   3   4
ATOM      4  C   UNL A   1      33.928  28.471  26.512  1.00  0.00     0.188 C 
BRANCH   4   5
ATOM      5  O   UNL A   1      35.136  29.197  26.596  1.00  0.00    -0.376 OA
BRANCH   5   6
ATOM      6  C   UNL A   1      35.495  29.894  27.781  1.00  0.00     0.202 C 
BRANCH   6   7
ATOM      7  C   UNL A   1      36.806  29.564  28.513  1.00  0.00     0.261 C 
BRANCH   7   8
ATOM      8  O   UNL A   1      37.336  30.617  29.338  1.00  0.00    -0.460 OA
BRANCH   8   9
ATOM      9  C   UNL A   1      37.000  30.631  30.647  1.00  0.00     0.339 C 
ATOM     10  O   UNL A   1      35.984  30.141  31.113  1.00  0.00    -0.246 OA
BRANCH   9  11
ATOM     11  C   UNL A   1      38.124  31.242  31.398  1.00  0.00     0.075 A 
ATOM     12  C   UNL A   1      37.726  33.716  31.049  1.00  0.00     0.075 A 
ATOM     13  N   UNL A   1      38.514  34.788  31.403  1.00  0.00    -0.275 N 
ATOM     14  C   UNL A   1      38.436  32.606  31.485  1.00  0.00     0.061 A 
ATOM     15  N   UNL A   1      39.581  34.479  32.153  1.00  0.00    -0.154 NA
ATOM     16  H   UNL A   1      38.310  35.710  31.128  1.00  0.00     0.190 HD
ATOM     17  C   UNL A   1      39.514  33.153  32.264  1.00  0.00     0.182 A 
ATOM     18  N   UNL A   1      40.320  32.391  33.040  1.00  0.00    -0.226 NA
ATOM     19  C   UNL A   1      38.958  30.490  32.262  1.00  0.00     0.045 A 
ATOM     20  C   UNL A   1      40.004  31.067  33.036  1.00  0.00     0.074 A 
BRANCH  12  21
ATOM     21  C   UNL A   1      36.397  33.941  30.498  1.00  0.00     0.001 A 
ATOM     22  C   UNL A   1      33.797  34.308  29.477  1.00  0.00     0.118 A 
ATOM     23  C   UNL A   1      34.892  34.171  28.618  1.00  0.00     0.047 A 
ATOM     24  C   UNL A   1      34.010  34.290  30.853  1.00  0.00     0.047 A 
ATOM     25  C   UNL A   1      36.186  34.002  29.121  1.00  0.00     0.014 A 
ATOM     26  C   UNL A   1      35.304  34.115  31.359  1.00  0.00     0.014 A 
BRANCH  22  27
ATOM     27  O   UNL A   1      32.587  34.427  28.848  1.00  0.00    -0.497 OA
ATOM     28  C   UNL A   1      32.379  33.616  27.698  1.00  0.00     0.278 C 
ENDBRANCH  22  27
ENDBRANCH  12  21
BRANCH  20  29
ATOM     29  C   UNL A   1      40.881  30.219  33.888  1.00  0.00     0.000 A 
ATOM     30  C   UNL A   1      40.859  28.812  33.818  1.00  0.00     0.011 A 
ATOM     31  C   UNL A   1      41.741  30.796  34.839  1.00  0.00     0.011 A 
ATOM     32  C   UNL A   1      41.650  28.022  34.669  1.00  0.00     0.014 A 
ATOM     33  C   UNL A   1      42.530  30.014  35.690  1.00  0.00     0.014 A 
ATOM     34  C   UNL A   1      42.488  28.618  35.623  1.00  0.00     0.056 A 
BRANCH  34  35
ATOM     35  C   UNL A   1      43.309  27.775  36.570  1.00  0.00     0.416 C 
ATOM     36  F   UNL A   1      44.275  27.058  35.929  1.00  0.00    -0.166 F 
ATOM     37  F   UNL A   1      43.948  28.509  37.518  1.00  0.00    -0.166 F 
ATOM     38  F   UNL A   1      42.565  26.855  37.251  1.00  0.00    -0.166 F 
ENDBRANCH  34  35
ENDBRANCH  20  29
ENDBRANCH   9  11
ENDBRANCH   8   9
ENDBRANCH   7   8
ENDBRANCH   6   7
ENDBRANCH   5   6
ENDBRANCH   4   5
ENDBRANCH   3   4
ENDBRANCH   2   3
ENDBRANCH   1   2
BRANCH   1  39
ATOM     39  C   UNL A   1      33.769  24.327  24.474  1.00  0.00     0.188 C 
BRANCH  39  40
ATOM     40  O   UNL A   1      34.857  23.418  24.488  1.00  0.00    -0.376 OA
BRANCH  40  41
ATOM     41  C   UNL A   1      35.647  23.112  25.625  1.00  0.00     0.202 C 
BRANCH  41  42
ATOM     42  C   UNL A   1      37.175  23.013  25.638  1.00  0.00     0.261 C 
BRANCH  42  43
ATOM     43  O   UNL A   1      37.828  23.857  26.550  1.00  0.00    -0.460 OA
BRANCH  43  44
ATOM     44  C   UNL A   1      39.168  23.811  26.475  1.00  0.00     0.338 C 
ATOM     45  O   UNL A   1      39.854  22.835  26.216  1.00  0.00    -0.246 OA
BRANCH  44  46
ATOM     46  C   UNL A   1      39.696  25.121  26.857  1.00  0.00     0.060 A 
ATOM     47  C   UNL A   1      40.855  25.512  26.190  1.00  0.00     0.016 A 
ATOM     48  C   UNL A   1      39.311  25.660  28.093  1.00  0.00     0.016 A 
ATOM     49  C   UNL A   1      41.801  26.178  26.923  1.00  0.00     0.010 A 
ATOM     50  C   UNL A   1      40.266  26.306  28.831  1.00  0.00     0.010 A 
ATOM     51  C   UNL A   1      41.530  26.445  28.272  1.00  0.00    -0.014 A 
BRANCH  51  52
ATOM     52  C   UNL A   1      42.591  27.007  29.069  1.00  0.00     0.031 A 
ATOM     53  C   UNL A   1      42.394  28.455  29.247  1.00  0.00     0.074 A 
ATOM     54  C   UNL A   1      43.572  26.266  29.617  1.00  0.00     0.049 A 
ATOM     55  N   UNL A   1      42.997  29.399  28.605  1.00  0.00    -0.248 NA
ATOM     56  C   UNL A   1      41.208  28.897  30.003  1.00  0.00     0.031 C 
ATOM     57  C   UNL A   1      43.691  24.807  29.691  1.00  0.00     0.029 A 
ATOM     58  N   UNL A   1      44.650  26.686  30.325  1.00  0.00    -0.354 N 
ATOM     59  C   UNL A   1      42.448  30.570  29.104  1.00  0.00     0.074 A 
ATOM     60  C   UNL A   1      41.202  30.199  29.721  1.00  0.00     0.031 C 
ATOM     61  C   UNL A   1      44.628  24.484  30.618  1.00  0.00     0.029 A 
ATOM     62  C   UNL A   1      45.263  25.703  31.094  1.00  0.00     0.049 A 
ATOM     63  H   UNL A   1      44.973  27.615  30.298  1.00  0.00     0.167 HD
ATOM     64  C   UNL A   1      43.227  31.669  29.290  1.00  0.00     0.031 A 
ATOM     65  C   UNL A   1      46.165  25.911  32.091  1.00  0.00     0.031 A 
ATOM     66  C   UNL A   1      44.466  31.567  28.557  1.00  0.00     0.049 A 
ATOM     67  C   UNL A   1      46.723  27.275  31.890  1.00  0.00     0.074 A 
ATOM     68  C   UNL A   1      44.795  31.393  27.226  1.00  0.00     0.029 A 
ATOM     69  N   UNL A   1      45.584  31.210  29.277  1.00  0.00    -0.354 N 
ATOM     70  N   UNL A   1      47.470  27.595  30.870  1.00  0.00    -0.248 NA
ATOM     71  C   UNL A   1      46.042  28.389  32.535  1.00  0.00     0.031 C 
ATOM     72  C   UNL A   1      45.917  30.514  27.233  1.00  0.00     0.029 A 
ATOM     73  C   UNL A   1      46.271  30.266  28.560  1.00  0.00     0.049 A 
ATOM     74  H   UNL A   1      45.844  31.571  30.155  1.00  0.00     0.167 HD
ATOM     75  C   UNL A   1      47.008  28.841  30.469  1.00  0.00     0.074 A 
ATOM     76  C   UNL A   1      46.183  29.315  31.582  1.00  0.00     0.031 C 
ATOM     77  C   UNL A   1      47.093  29.237  29.164  1.00  0.00     0.031 A 
BRANCH  64  78
ATOM     78  C   UNL A   1      43.075  32.564  30.495  1.00  0.00    -0.014 A 
ATOM     79  C   UNL A   1      42.754  33.918  30.286  1.00  0.00     0.010 A 
ATOM     80  C   UNL A   1      43.506  32.201  31.790  1.00  0.00     0.010 A 
ATOM     81  C   UNL A   1      42.924  34.865  31.302  1.00  0.00     0.020 A 
ATOM     82  C   UNL A   1      43.636  33.128  32.822  1.00  0.00     0.020 A 
ATOM     83  C   UNL A   1      43.373  34.462  32.561  1.00  0.00     0.054 A 
BRANCH  83  84
ATOM     84  S   UNL A   1      43.659  35.703  33.841  1.00  0.00     0.124 S 
ATOM     85  O   UNL A   1      44.104  34.880  34.961  1.00  0.00    -0.237 OA
ATOM     86  O   UNL A   1      44.680  36.545  33.225  1.00  0.00    -0.237 OA
ATOM     87  O   UNL A   1      42.351  36.334  34.004  1.00  0.00    -0.744 OA
ENDBRANCH  83  84
ENDBRANCH  64  78
BRANCH  65  88
ATOM     88  C   UNL A   1      46.303  25.188  33.386  1.00  0.00    -0.014 A 
ATOM     89  C   UNL A   1      47.270  25.576  34.336  1.00  0.00     0.010 A 
ATOM     90  C   UNL A   1      45.284  24.315  33.820  1.00  0.00     0.010 A 
ATOM     91  C   UNL A   1      47.179  25.168  35.681  1.00  0.00     0.020 A 
ATOM     92  C   UNL A   1      45.190  23.900  35.156  1.00  0.00     0.020 A 
ATOM     93  C   UNL A   1      46.121  24.352  36.087  1.00  0.00     0.054 A 
BRANCH  93  94
ATOM     94  S   UNL A   1      45.888  23.992  37.856  1.00  0.00     0.124 S 
ATOM     95  O   UNL A   1      44.591  24.604  38.132  1.00  0.00    -0.237 OA
ATOM     96  O   UNL A   1      45.920  22.533  37.893  1.00  0.00    -0.237 OA
ATOM     97  O   UNL A   1      47.028  24.649  38.494  1.00  0.00    -0.744 OA
ENDBRANCH  93  94
ENDBRANCH  65  88
BRANCH  77  98
ATOM     98  C   UNL A   1      47.968  28.436  28.224  1.00  0.00    -0.014 A 
ATOM     99  C   UNL A   1      47.528  27.336  27.460  1.00  0.00     0.010 A 
ATOM    100  C   UNL A   1      49.276  28.908  28.021  1.00  0.00     0.010 A 
ATOM    101  C   UNL A   1      48.392  26.704  26.549  1.00  0.00     0.020 A 
ATOM    102  C   UNL A   1      50.133  28.298  27.104  1.00  0.00     0.020 A 
ATOM    103  C   UNL A   1      49.694  27.189  26.384  1.00  0.00     0.054 A 
BRANCH 103 104
ATOM    104  S   UNL A   1      50.816  26.376  25.211  1.00  0.00     0.124 S 
ATOM    105  O   UNL A   1      51.480  25.378  26.045  1.00  0.00    -0.237 OA
ATOM    106  O   UNL A   1      49.904  25.846  24.201  1.00  0.00    -0.237 OA
ATOM    107  O   UNL A   1      51.678  27.462  24.744  1.00  0.00    -0.744 OA
ENDBRANCH 103 104
ENDBRANCH  77  98
ENDBRANCH  51  52
ENDBRANCH  44  46
ENDBRANCH  43  44
ENDBRANCH  42  43
ENDBRANCH  41  42
ENDBRANCH  40  41
ENDBRANCH  39  40
ENDBRANCH   1  39
TORSDOF 27
ENDMDL
