MODEL 1
REMARK VINA RESULT:      -9.9      0.000      0.000
REMARK SMILES O=C(COc1ccccc1/C=C1/SC(=O)N(c2ccc(F)cc2)C1=O)OCCOCCOCCOCCOC(=O)c1ccc(-c2c3nc(c(-c4ccc(S(=O)(=O)[O-])cc4)c4ccc([nH]4)c(-c4ccc(S(=O)(=O)[O-])cc4)c4nc(c(-c5ccc(S(=O)(=O)[O-])cc5)c5ccc2[nH]5)C=C4)C=C3)cc1
REMARK SMILES IDX 31 1 30 2 29 3 28 4 27 5 26 6 2 7 1 8 3 9 4 10 5 11 6 12
REMARK SMILES IDX 10 13 7 14 9 15 8 16 11 17 12 18 13 19 24 20 14 21 16 22
REMARK SMILES IDX 25 23 15 24 17 25 18 26 23 27 19 28 22 29 20 30 21 31 32 32
REMARK SMILES IDX 33 33 34 34 35 35 36 36 37 37 38 38 39 39 40 40 41 41 42 42
REMARK SMILES IDX 100 43 43 44 99 45 44 46 45 47 46 48 93 49 47 50 98 51 92 52
REMARK SMILES IDX 94 53 48 54 97 55 91 56 90 57 49 59 79 60 60 61 78 62 61 63
REMARK SMILES IDX 64 64 77 65 95 66 62 67 63 68 76 70 96 71 65 72 50 73 51 74
REMARK SMILES IDX 59 75 52 76 58 77 53 78 54 79 55 80 56 81 57 82 80 83 81 84
REMARK SMILES IDX 89 85 82 86 88 87 83 88 84 89 85 90 86 91 87 92 66 93 67 94
REMARK SMILES IDX 75 95 68 96 74 97 69 98 70 99 71 100 72 101 73 102
REMARK H PARENT 94 58 64 69
REMARK Flexibility Score: inf
ROOT
ATOM      1  C   UNL A   1      34.009  30.781  27.132  1.00  0.00     0.188 C 
ENDROOT
BRANCH   1   2
ATOM      2  C   UNL A   1      34.490  29.307  27.182  1.00  0.00     0.188 C 
BRANCH   2   3
ATOM      3  O   UNL A   1      33.785  28.417  26.333  1.00  0.00    -0.376 OA
BRANCH   3   4
ATOM      4  C   UNL A   1      33.221  28.783  25.093  1.00  0.00     0.202 C 
BRANCH   4   5
ATOM      5  C   UNL A   1      33.871  28.346  23.789  1.00  0.00     0.261 C 
BRANCH   5   6
ATOM      6  O   UNL A   1      34.015  26.929  23.608  1.00  0.00    -0.461 OA
BRANCH   6   7
ATOM      7  C   UNL A   1      33.675  26.204  22.517  1.00  0.00     0.344 C 
ATOM      8  O   UNL A   1      33.693  26.711  21.396  1.00  0.00    -0.248 OA
BRANCH   7   9
ATOM      9  C   UNL A   1      33.257  24.786  22.732  1.00  0.00     0.351 C 
BRANCH   9  10
ATOM     10  O   UNL A   1      31.854  24.666  22.627  1.00  0.00    -0.481 OA
BRANCH  10  11
ATOM     11  C   UNL A   1      31.184  24.840  23.802  1.00  0.00     0.127 A 
ATOM     12  C   UNL A   1      30.761  26.165  23.966  1.00  0.00     0.047 A 
ATOM     13  C   UNL A   1      30.967  23.876  24.811  1.00  0.00     0.018 A 
ATOM     14  C   UNL A   1      30.056  26.542  25.098  1.00  0.00     0.004 A 
ATOM     15  C   UNL A   1      30.233  24.280  25.935  1.00  0.00     0.012 A 
ATOM     16  C   UNL A   1      29.779  25.594  26.075  1.00  0.00     0.001 A 
BRANCH  13  17
ATOM     17  C   UNL A   1      31.371  22.453  24.826  1.00  0.00     0.033 C 
ATOM     18  C   UNL A   1      32.531  21.885  25.206  1.00  0.00     0.084 C 
ATOM     19  S   UNL A   1      32.828  20.191  25.035  1.00  0.00    -0.022 SA
ATOM     20  C   UNL A   1      33.788  22.560  25.639  1.00  0.00     0.272 C 
ATOM     21  C   UNL A   1      34.575  20.415  25.069  1.00  0.00     0.298 C 
ATOM     22  N   UNL A   1      34.875  21.693  25.498  1.00  0.00    -0.236 N 
ATOM     23  O   UNL A   1      33.811  23.749  25.930  1.00  0.00    -0.268 OA
ATOM     24  O   UNL A   1      35.327  19.521  24.720  1.00  0.00    -0.260 OA
BRANCH  22  25
ATOM     25  C   UNL A   1      36.221  22.179  25.601  1.00  0.00     0.053 A 
ATOM     26  C   UNL A   1      37.305  21.287  25.548  1.00  0.00     0.030 A 
ATOM     27  C   UNL A   1      36.499  23.532  25.875  1.00  0.00     0.030 A 
ATOM     28  C   UNL A   1      38.605  21.709  25.841  1.00  0.00     0.041 A 
ATOM     29  C   UNL A   1      37.795  23.948  26.202  1.00  0.00     0.041 A 
ATOM     30  C   UNL A   1      38.834  23.028  26.198  1.00  0.00     0.123 A 
ATOM     31  F   UNL A   1      40.062  23.413  26.563  1.00  0.00    -0.207 F 
ENDBRANCH  22  25
ENDBRANCH  13  17
ENDBRANCH  10  11
ENDBRANCH   9  10
ENDBRANCH   7   9
ENDBRANCH   6   7
ENDBRANCH   5   6
ENDBRANCH   4   5
ENDBRANCH   3   4
ENDBRANCH   2   3
ENDBRANCH   1   2
BRANCH   1  32
ATOM     32  O   UNL A   1      33.977  31.459  28.385  1.00  0.00    -0.377 OA
BRANCH  32  33
ATOM     33  C   UNL A   1      33.906  32.873  28.277  1.00  0.00     0.188 C 
BRANCH  33  34
ATOM     34  C   UNL A   1      35.091  33.632  28.908  1.00  0.00     0.188 C 
BRANCH  34  35
ATOM     35  O   UNL A   1      35.386  33.580  30.298  1.00  0.00    -0.376 OA
BRANCH  35  36
ATOM     36  C   UNL A   1      36.360  32.684  30.801  1.00  0.00     0.202 C 
BRANCH  36  37
ATOM     37  C   UNL A   1      37.317  31.942  29.857  1.00  0.00     0.261 C 
BRANCH  37  38
ATOM     38  O   UNL A   1      36.881  30.665  29.388  1.00  0.00    -0.460 OA
BRANCH  38  39
ATOM     39  C   UNL A   1      37.361  29.621  30.097  1.00  0.00     0.338 C 
ATOM     40  O   UNL A   1      36.832  29.075  31.057  1.00  0.00    -0.246 OA
BRANCH  39  41
ATOM     41  C   UNL A   1      38.559  29.085  29.428  1.00  0.00     0.060 A 
ATOM     42  C   UNL A   1      39.537  28.484  30.232  1.00  0.00     0.016 A 
ATOM     43  C   UNL A   1      38.749  29.218  28.051  1.00  0.00     0.016 A 
ATOM     44  C   UNL A   1      40.731  28.058  29.673  1.00  0.00     0.010 A 
ATOM     45  C   UNL A   1      39.971  28.830  27.495  1.00  0.00     0.010 A 
ATOM     46  C   UNL A   1      40.978  28.297  28.318  1.00  0.00    -0.014 A 
BRANCH  46  47
ATOM     47  C   UNL A   1      42.382  28.222  27.865  1.00  0.00     0.031 A 
ATOM     48  C   UNL A   1      43.263  29.422  28.091  1.00  0.00     0.074 A 
ATOM     49  C   UNL A   1      42.888  27.072  27.390  1.00  0.00     0.049 A 
ATOM     50  N   UNL A   1      44.540  29.568  27.856  1.00  0.00    -0.248 NA
ATOM     51  C   UNL A   1      42.619  30.612  28.674  1.00  0.00     0.031 C 
ATOM     52  C   UNL A   1      42.134  25.833  27.193  1.00  0.00     0.029 A 
ATOM     53  N   UNL A   1      44.164  26.758  27.006  1.00  0.00    -0.354 N 
ATOM     54  C   UNL A   1      44.853  30.859  28.269  1.00  0.00     0.074 A 
ATOM     55  C   UNL A   1      43.627  31.469  28.730  1.00  0.00     0.031 C 
ATOM     56  C   UNL A   1      42.967  24.891  26.719  1.00  0.00     0.029 A 
ATOM     57  C   UNL A   1      44.299  25.469  26.552  1.00  0.00     0.049 A 
ATOM     58  H   UNL A   1      44.913  27.395  27.049  1.00  0.00     0.167 HD
ATOM     59  C   UNL A   1      46.058  31.475  28.275  1.00  0.00     0.031 A 
ATOM     60  C   UNL A   1      45.375  24.840  26.041  1.00  0.00     0.031 A 
ATOM     61  C   UNL A   1      47.267  30.865  27.790  1.00  0.00     0.049 A 
ATOM     62  C   UNL A   1      46.687  25.578  25.976  1.00  0.00     0.074 A 
ATOM     63  C   UNL A   1      48.540  31.406  27.731  1.00  0.00     0.029 A 
ATOM     64  N   UNL A   1      47.354  29.578  27.280  1.00  0.00    -0.354 N 
ATOM     65  N   UNL A   1      46.971  26.798  26.370  1.00  0.00    -0.248 NA
ATOM     66  C   UNL A   1      47.828  24.846  25.412  1.00  0.00     0.031 C 
ATOM     67  C   UNL A   1      49.383  30.467  27.128  1.00  0.00     0.029 A 
ATOM     68  C   UNL A   1      48.653  29.315  26.879  1.00  0.00     0.049 A 
ATOM     69  H   UNL A   1      46.603  28.946  27.213  1.00  0.00     0.167 HD
ATOM     70  C   UNL A   1      48.328  26.972  26.120  1.00  0.00     0.074 A 
ATOM     71  C   UNL A   1      48.811  25.721  25.573  1.00  0.00     0.031 C 
ATOM     72  C   UNL A   1      49.108  28.066  26.321  1.00  0.00     0.031 A 
BRANCH  59  73
ATOM     73  C   UNL A   1      46.116  32.888  28.792  1.00  0.00    -0.014 A 
ATOM     74  C   UNL A   1      46.304  33.157  30.160  1.00  0.00     0.010 A 
ATOM     75  C   UNL A   1      46.022  33.965  27.892  1.00  0.00     0.010 A 
ATOM     76  C   UNL A   1      46.374  34.476  30.621  1.00  0.00     0.020 A 
ATOM     77  C   UNL A   1      46.120  35.284  28.345  1.00  0.00     0.020 A 
ATOM     78  C   UNL A   1      46.285  35.531  29.709  1.00  0.00     0.054 A 
BRANCH  78  79
ATOM     79  S   UNL A   1      46.427  37.230  30.329  1.00  0.00     0.124 S 
ATOM     80  O   UNL A   1      45.239  37.344  31.173  1.00  0.00    -0.237 OA
ATOM     81  O   UNL A   1      47.702  37.205  31.039  1.00  0.00    -0.237 OA
ATOM     82  O   UNL A   1      46.408  38.046  29.116  1.00  0.00    -0.744 OA
ENDBRANCH  78  79
ENDBRANCH  59  73
BRANCH  60  83
ATOM     83  C   UNL A   1      45.244  23.454  25.513  1.00  0.00    -0.014 A 
ATOM     84  C   UNL A   1      44.852  23.209  24.186  1.00  0.00     0.010 A 
ATOM     85  C   UNL A   1      45.502  22.359  26.361  1.00  0.00     0.010 A 
ATOM     86  C   UNL A   1      44.697  21.897  23.724  1.00  0.00     0.020 A 
ATOM     87  C   UNL A   1      45.380  21.048  25.894  1.00  0.00     0.020 A 
ATOM     88  C   UNL A   1      44.965  20.826  24.581  1.00  0.00     0.054 A 
BRANCH  88  89
ATOM     89  S   UNL A   1      44.800  19.135  23.948  1.00  0.00     0.124 S 
ATOM     90  O   UNL A   1      44.535  19.363  22.531  1.00  0.00    -0.237 OA
ATOM     91  O   UNL A   1      46.101  18.551  24.265  1.00  0.00    -0.237 OA
ATOM     92  O   UNL A   1      43.681  18.590  24.715  1.00  0.00    -0.744 OA
ENDBRANCH  88  89
ENDBRANCH  60  83
BRANCH  72  93
ATOM     93  C   UNL A   1      50.568  27.940  25.966  1.00  0.00    -0.014 A 
ATOM     94  C   UNL A   1      51.519  27.528  26.917  1.00  0.00     0.010 A 
ATOM     95  C   UNL A   1      50.992  28.228  24.655  1.00  0.00     0.010 A 
ATOM     96  C   UNL A   1      52.874  27.472  26.582  1.00  0.00     0.020 A 
ATOM     97  C   UNL A   1      52.341  28.136  24.307  1.00  0.00     0.020 A 
ATOM     98  C   UNL A   1      53.278  27.784  25.280  1.00  0.00     0.054 A 
BRANCH  98  99
ATOM     99  S   UNL A   1      55.042  27.711  24.872  1.00  0.00     0.124 S 
ATOM    100  O   UNL A   1      55.102  26.548  23.992  1.00  0.00    -0.237 OA
ATOM    101  O   UNL A   1      55.276  29.001  24.226  1.00  0.00    -0.237 OA
ATOM    102  O   UNL A   1      55.692  27.544  26.170  1.00  0.00    -0.744 OA
ENDBRANCH  98  99
ENDBRANCH  72  93
ENDBRANCH  46  47
ENDBRANCH  39  41
ENDBRANCH  38  39
ENDBRANCH  37  38
ENDBRANCH  36  37
ENDBRANCH  35  36
ENDBRANCH  34  35
ENDBRANCH  33  34
ENDBRANCH  32  33
ENDBRANCH   1  32
TORSDOF 27
ENDMDL
MODEL 2
REMARK VINA RESULT:      -8.7      2.500      3.748
REMARK SMILES O=C(COc1ccccc1/C=C1/SC(=O)N(c2ccc(F)cc2)C1=O)OCCOCCOCCOCCOC(=O)c1ccc(-c2c3nc(c(-c4ccc(S(=O)(=O)[O-])cc4)c4ccc([nH]4)c(-c4ccc(S(=O)(=O)[O-])cc4)c4nc(c(-c5ccc(S(=O)(=O)[O-])cc5)c5ccc2[nH]5)C=C4)C=C3)cc1
REMARK SMILES IDX 31 1 30 2 29 3 28 4 27 5 26 6 2 7 1 8 3 9 4 10 5 11 6 12
REMARK SMILES IDX 10 13 7 14 9 15 8 16 11 17 12 18 13 19 24 20 14 21 16 22
REMARK SMILES IDX 25 23 15 24 17 25 18 26 23 27 19 28 22 29 20 30 21 31 32 32
REMARK SMILES IDX 33 33 34 34 35 35 36 36 37 37 38 38 39 39 40 40 41 41 42 42
REMARK SMILES IDX 100 43 43 44 99 45 44 46 45 47 46 48 93 49 47 50 98 51 92 52
REMARK SMILES IDX 94 53 48 54 97 55 91 56 90 57 49 59 79 60 60 61 78 62 61 63
REMARK SMILES IDX 64 64 77 65 95 66 62 67 63 68 76 70 96 71 65 72 50 73 51 74
REMARK SMILES IDX 59 75 52 76 58 77 53 78 54 79 55 80 56 81 57 82 80 83 81 84
REMARK SMILES IDX 89 85 82 86 88 87 83 88 84 89 85 90 86 91 87 92 66 93 67 94
REMARK SMILES IDX 75 95 68 96 74 97 69 98 70 99 71 100 72 101 73 102
REMARK H PARENT 94 58 64 69
REMARK Flexibility Score: inf
ROOT
ATOM      1  C   UNL A   1      34.358  34.831  29.526  1.00  0.00     0.188 C 
ENDROOT
BRANCH   1   2
ATOM      2  C   UNL A   1      34.713  34.641  28.028  1.00  0.00     0.188 C 
BRANCH   2   3
ATOM      3  O   UNL A   1      34.986  33.304  27.642  1.00  0.00    -0.376 OA
BRANCH   3   4
ATOM      4  C   UNL A   1      34.364  32.171  28.210  1.00  0.00     0.202 C 
BRANCH   4   5
ATOM      5  C   UNL A   1      34.543  30.797  27.585  1.00  0.00     0.261 C 
BRANCH   5   6
ATOM      6  O   UNL A   1      33.548  30.414  26.623  1.00  0.00    -0.461 OA
BRANCH   6   7
ATOM      7  C   UNL A   1      32.814  29.278  26.613  1.00  0.00     0.344 C 
ATOM      8  O   UNL A   1      31.813  29.170  27.320  1.00  0.00    -0.248 OA
BRANCH   7   9
ATOM      9  C   UNL A   1      33.279  28.161  25.735  1.00  0.00     0.351 C 
BRANCH   9  10
ATOM     10  O   UNL A   1      32.593  28.190  24.500  1.00  0.00    -0.481 OA
BRANCH  10  11
ATOM     11  C   UNL A   1      31.428  27.481  24.485  1.00  0.00     0.127 A 
ATOM     12  C   UNL A   1      30.440  28.124  23.730  1.00  0.00     0.047 A 
ATOM     13  C   UNL A   1      31.151  26.282  25.178  1.00  0.00     0.018 A 
ATOM     14  C   UNL A   1      29.184  27.557  23.589  1.00  0.00     0.004 A 
ATOM     15  C   UNL A   1      29.879  25.720  25.001  1.00  0.00     0.012 A 
ATOM     16  C   UNL A   1      28.909  26.347  24.213  1.00  0.00     0.001 A 
BRANCH  13  17
ATOM     17  C   UNL A   1      32.051  25.490  26.044  1.00  0.00     0.033 C 
ATOM     18  C   UNL A   1      32.626  24.291  25.833  1.00  0.00     0.084 C 
ATOM     19  S   UNL A   1      33.565  23.492  27.044  1.00  0.00    -0.022 SA
ATOM     20  C   UNL A   1      32.433  23.370  24.677  1.00  0.00     0.272 C 
ATOM     21  C   UNL A   1      33.326  21.915  26.299  1.00  0.00     0.298 C 
ATOM     22  N   UNL A   1      32.809  22.070  25.027  1.00  0.00    -0.236 N 
ATOM     23  O   UNL A   1      31.888  23.740  23.645  1.00  0.00    -0.268 OA
ATOM     24  O   UNL A   1      33.584  20.890  26.908  1.00  0.00    -0.260 OA
BRANCH  22  25
ATOM     25  C   UNL A   1      32.481  20.958  24.184  1.00  0.00     0.053 A 
ATOM     26  C   UNL A   1      32.552  19.645  24.678  1.00  0.00     0.030 A 
ATOM     27  C   UNL A   1      32.195  21.127  22.815  1.00  0.00     0.030 A 
ATOM     28  C   UNL A   1      32.430  18.542  23.827  1.00  0.00     0.041 A 
ATOM     29  C   UNL A   1      32.107  20.025  21.956  1.00  0.00     0.041 A 
ATOM     30  C   UNL A   1      32.242  18.742  22.469  1.00  0.00     0.123 A 
ATOM     31  F   UNL A   1      32.211  17.691  21.642  1.00  0.00    -0.207 F 
ENDBRANCH  22  25
ENDBRANCH  13  17
ENDBRANCH  10  11
ENDBRANCH   9  10
ENDBRANCH   7   9
ENDBRANCH   6   7
ENDBRANCH   5   6
ENDBRANCH   4   5
ENDBRANCH   3   4
ENDBRANCH   2   3
ENDBRANCH   1   2
BRANCH   1  32
ATOM     32  O   UNL A   1      32.989  35.115  29.801  1.00  0.00    -0.377 OA
BRANCH  32  33
ATOM     33  C   UNL A   1      32.789  36.242  30.642  1.00  0.00     0.188 C 
BRANCH  33  34
ATOM     34  C   UNL A   1      32.902  35.952  32.153  1.00  0.00     0.188 C 
BRANCH  34  35
ATOM     35  O   UNL A   1      32.864  34.636  32.689  1.00  0.00    -0.376 OA
BRANCH  35  36
ATOM     36  C   UNL A   1      34.042  34.010  33.164  1.00  0.00     0.202 C 
BRANCH  36  37
ATOM     37  C   UNL A   1      34.535  32.687  32.562  1.00  0.00     0.261 C 
BRANCH  37  38
ATOM     38  O   UNL A   1      35.688  32.763  31.722  1.00  0.00    -0.460 OA
BRANCH  38  39
ATOM     39  C   UNL A   1      36.862  32.718  32.387  1.00  0.00     0.338 C 
ATOM     40  O   UNL A   1      37.092  33.148  33.509  1.00  0.00    -0.246 OA
BRANCH  39  41
ATOM     41  C   UNL A   1      37.819  31.889  31.632  1.00  0.00     0.060 A 
ATOM     42  C   UNL A   1      38.717  31.105  32.367  1.00  0.00     0.016 A 
ATOM     43  C   UNL A   1      37.873  31.922  30.237  1.00  0.00     0.016 A 
ATOM     44  C   UNL A   1      39.708  30.388  31.715  1.00  0.00     0.010 A 
ATOM     45  C   UNL A   1      38.900  31.235  29.583  1.00  0.00     0.010 A 
ATOM     46  C   UNL A   1      39.845  30.511  30.329  1.00  0.00    -0.014 A 
BRANCH  46  47
ATOM     47  C   UNL A   1      41.132  30.089  29.738  1.00  0.00     0.031 A 
ATOM     48  C   UNL A   1      42.251  31.095  29.690  1.00  0.00     0.074 A 
ATOM     49  C   UNL A   1      41.334  28.810  29.382  1.00  0.00     0.049 A 
ATOM     50  N   UNL A   1      43.487  30.941  29.295  1.00  0.00    -0.248 NA
ATOM     51  C   UNL A   1      41.936  32.455  30.163  1.00  0.00     0.031 C 
ATOM     52  C   UNL A   1      40.336  27.743  29.450  1.00  0.00     0.029 A 
ATOM     53  N   UNL A   1      42.460  28.192  28.907  1.00  0.00    -0.354 N 
ATOM     54  C   UNL A   1      44.098  32.176  29.480  1.00  0.00     0.074 A 
ATOM     55  C   UNL A   1      43.088  33.081  29.982  1.00  0.00     0.031 C 
ATOM     56  C   UNL A   1      40.897  26.597  29.028  1.00  0.00     0.029 A 
ATOM     57  C   UNL A   1      42.279  26.858  28.632  1.00  0.00     0.049 A 
ATOM     58  H   UNL A   1      43.317  28.658  28.774  1.00  0.00     0.167 HD
ATOM     59  C   UNL A   1      45.388  32.522  29.263  1.00  0.00     0.031 A 
ATOM     60  C   UNL A   1      43.132  25.961  28.101  1.00  0.00     0.031 A 
ATOM     61  C   UNL A   1      46.377  31.618  28.740  1.00  0.00     0.049 A 
ATOM     62  C   UNL A   1      44.540  26.393  27.784  1.00  0.00     0.074 A 
ATOM     63  C   UNL A   1      47.710  31.868  28.462  1.00  0.00     0.029 A 
ATOM     64  N   UNL A   1      46.142  30.291  28.414  1.00  0.00    -0.354 N 
ATOM     65  N   UNL A   1      45.106  27.565  27.964  1.00  0.00    -0.248 NA
ATOM     66  C   UNL A   1      45.429  25.377  27.208  1.00  0.00     0.031 C 
ATOM     67  C   UNL A   1      48.264  30.708  27.910  1.00  0.00     0.029 A 
ATOM     68  C   UNL A   1      47.297  29.714  27.914  1.00  0.00     0.049 A 
ATOM     69  H   UNL A   1      45.281  29.827  28.523  1.00  0.00     0.167 HD
ATOM     70  C   UNL A   1      46.424  27.419  27.542  1.00  0.00     0.074 A 
ATOM     71  C   UNL A   1      46.575  26.038  27.131  1.00  0.00     0.031 C 
ATOM     72  C   UNL A   1      47.420  28.340  27.494  1.00  0.00     0.031 A 
BRANCH  59  73
ATOM     73  C   UNL A   1      45.789  33.943  29.561  1.00  0.00    -0.014 A 
ATOM     74  C   UNL A   1      45.974  34.387  30.883  1.00  0.00     0.010 A 
ATOM     75  C   UNL A   1      46.025  34.838  28.501  1.00  0.00     0.010 A 
ATOM     76  C   UNL A   1      46.364  35.704  31.141  1.00  0.00     0.020 A 
ATOM     77  C   UNL A   1      46.444  36.147  28.754  1.00  0.00     0.020 A 
ATOM     78  C   UNL A   1      46.600  36.575  30.073  1.00  0.00     0.054 A 
BRANCH  78  79
ATOM     79  S   UNL A   1      47.152  38.265  30.436  1.00  0.00     0.124 S 
ATOM     80  O   UNL A   1      47.483  38.177  31.857  1.00  0.00    -0.237 OA
ATOM     81  O   UNL A   1      48.289  38.429  29.535  1.00  0.00    -0.237 OA
ATOM     82  O   UNL A   1      45.986  39.088  30.120  1.00  0.00    -0.744 OA
ENDBRANCH  78  79
ENDBRANCH  59  73
BRANCH  60  83
ATOM     83  C   UNL A   1      42.663  24.581  27.797  1.00  0.00    -0.014 A 
ATOM     84  C   UNL A   1      42.933  23.508  28.663  1.00  0.00     0.010 A 
ATOM     85  C   UNL A   1      41.945  24.335  26.610  1.00  0.00     0.010 A 
ATOM     86  C   UNL A   1      42.517  22.212  28.337  1.00  0.00     0.020 A 
ATOM     87  C   UNL A   1      41.499  23.049  26.297  1.00  0.00     0.020 A 
ATOM     88  C   UNL A   1      41.801  21.992  27.157  1.00  0.00     0.054 A 
BRANCH  88  89
ATOM     89  S   UNL A   1      41.233  20.313  26.775  1.00  0.00     0.124 S 
ATOM     90  O   UNL A   1      39.783  20.475  26.773  1.00  0.00    -0.237 OA
ATOM     91  O   UNL A   1      41.847  20.062  25.474  1.00  0.00    -0.237 OA
ATOM     92  O   UNL A   1      41.773  19.511  27.872  1.00  0.00    -0.744 OA
ENDBRANCH  88  89
ENDBRANCH  60  83
BRANCH  72  93
ATOM     93  C   UNL A   1      48.765  27.869  27.001  1.00  0.00    -0.014 A 
ATOM     94  C   UNL A   1      49.537  26.954  27.741  1.00  0.00     0.010 A 
ATOM     95  C   UNL A   1      49.258  28.342  25.771  1.00  0.00     0.010 A 
ATOM     96  C   UNL A   1      50.804  26.574  27.293  1.00  0.00     0.020 A 
ATOM     97  C   UNL A   1      50.509  27.933  25.301  1.00  0.00     0.020 A 
ATOM     98  C   UNL A   1      51.286  27.073  26.079  1.00  0.00     0.054 A 
BRANCH  98  99
ATOM     99  S   UNL A   1      52.936  26.571  25.522  1.00  0.00     0.124 S 
ATOM    100  O   UNL A   1      52.741  26.429  24.082  1.00  0.00    -0.237 OA
ATOM    101  O   UNL A   1      53.770  27.696  25.936  1.00  0.00    -0.237 OA
ATOM    102  O   UNL A   1      53.181  25.324  26.242  1.00  0.00    -0.744 OA
ENDBRANCH  98  99
ENDBRANCH  72  93
ENDBRANCH  46  47
ENDBRANCH  39  41
ENDBRANCH  38  39
ENDBRANCH  37  38
ENDBRANCH  36  37
ENDBRANCH  35  36
ENDBRANCH  34  35
ENDBRANCH  33  34
ENDBRANCH  32  33
ENDBRANCH   1  32
TORSDOF 27
ENDMDL
MODEL 3
REMARK VINA RESULT:      -8.5      3.000      9.052
REMARK SMILES O=C(COc1ccccc1/C=C1/SC(=O)N(c2ccc(F)cc2)C1=O)OCCOCCOCCOCCOC(=O)c1ccc(-c2c3nc(c(-c4ccc(S(=O)(=O)[O-])cc4)c4ccc([nH]4)c(-c4ccc(S(=O)(=O)[O-])cc4)c4nc(c(-c5ccc(S(=O)(=O)[O-])cc5)c5ccc2[nH]5)C=C4)C=C3)cc1
REMARK SMILES IDX 31 1 30 2 29 3 28 4 27 5 26 6 2 7 1 8 3 9 4 10 5 11 6 12
REMARK SMILES IDX 10 13 7 14 9 15 8 16 11 17 12 18 13 19 24 20 14 21 16 22
REMARK SMILES IDX 25 23 15 24 17 25 18 26 23 27 19 28 22 29 20 30 21 31 32 32
REMARK SMILES IDX 33 33 34 34 35 35 36 36 37 37 38 38 39 39 40 40 41 41 42 42
REMARK SMILES IDX 100 43 43 44 99 45 44 46 45 47 46 48 93 49 47 50 98 51 92 52
REMARK SMILES IDX 94 53 48 54 97 55 91 56 90 57 49 59 79 60 60 61 78 62 61 63
REMARK SMILES IDX 64 64 77 65 95 66 62 67 63 68 76 70 96 71 65 72 50 73 51 74
REMARK SMILES IDX 59 75 52 76 58 77 53 78 54 79 55 80 56 81 57 82 80 83 81 84
REMARK SMILES IDX 89 85 82 86 88 87 83 88 84 89 85 90 86 91 87 92 66 93 67 94
REMARK SMILES IDX 75 95 68 96 74 97 69 98 70 99 71 100 72 101 73 102
REMARK H PARENT 94 58 64 69
REMARK Flexibility Score: inf
ROOT
ATOM      1  C   UNL A   1      34.476  33.773  29.783  1.00  0.00     0.188 C 
ENDROOT
BRANCH   1   2
ATOM      2  C   UNL A   1      35.936  33.402  29.414  1.00  0.00     0.188 C 
BRANCH   2   3
ATOM      3  O   UNL A   1      36.200  32.011  29.338  1.00  0.00    -0.376 OA
BRANCH   3   4
ATOM      4  C   UNL A   1      35.251  31.043  28.941  1.00  0.00     0.202 C 
BRANCH   4   5
ATOM      5  C   UNL A   1      35.658  29.886  28.043  1.00  0.00     0.261 C 
BRANCH   5   6
ATOM      6  O   UNL A   1      34.580  29.097  27.516  1.00  0.00    -0.461 OA
BRANCH   6   7
ATOM      7  C   UNL A   1      33.330  29.516  27.212  1.00  0.00     0.344 C 
ATOM      8  O   UNL A   1      33.113  30.695  26.938  1.00  0.00    -0.248 OA
BRANCH   7   9
ATOM      9  C   UNL A   1      32.232  28.503  27.249  1.00  0.00     0.351 C 
BRANCH   9  10
ATOM     10  O   UNL A   1      31.807  28.192  25.938  1.00  0.00    -0.481 OA
BRANCH  10  11
ATOM     11  C   UNL A   1      32.298  27.017  25.449  1.00  0.00     0.127 A 
ATOM     12  C   UNL A   1      33.696  26.976  25.508  1.00  0.00     0.047 A 
ATOM     13  C   UNL A   1      31.561  25.960  24.873  1.00  0.00     0.018 A 
ATOM     14  C   UNL A   1      34.385  25.859  25.061  1.00  0.00     0.004 A 
ATOM     15  C   UNL A   1      32.281  24.834  24.449  1.00  0.00     0.012 A 
ATOM     16  C   UNL A   1      33.674  24.782  24.546  1.00  0.00     0.001 A 
BRANCH  13  17
ATOM     17  C   UNL A   1      30.097  25.849  24.694  1.00  0.00     0.033 C 
ATOM     18  C   UNL A   1      29.247  26.619  23.989  1.00  0.00     0.084 C 
ATOM     19  S   UNL A   1      27.538  26.366  24.010  1.00  0.00    -0.022 SA
ATOM     20  C   UNL A   1      29.546  27.880  23.252  1.00  0.00     0.272 C 
ATOM     21  C   UNL A   1      27.208  28.020  23.503  1.00  0.00     0.298 C 
ATOM     22  N   UNL A   1      28.372  28.614  23.054  1.00  0.00    -0.236 N 
ATOM     23  O   UNL A   1      30.695  28.225  23.009  1.00  0.00    -0.268 OA
ATOM     24  O   UNL A   1      26.088  28.492  23.598  1.00  0.00    -0.260 OA
BRANCH  22  25
ATOM     25  C   UNL A   1      28.423  29.974  22.602  1.00  0.00     0.053 A 
ATOM     26  C   UNL A   1      28.311  31.033  23.518  1.00  0.00     0.030 A 
ATOM     27  C   UNL A   1      28.466  30.295  21.231  1.00  0.00     0.030 A 
ATOM     28  C   UNL A   1      28.160  32.353  23.085  1.00  0.00     0.041 A 
ATOM     29  C   UNL A   1      28.281  31.613  20.796  1.00  0.00     0.041 A 
ATOM     30  C   UNL A   1      28.113  32.627  21.727  1.00  0.00     0.123 A 
ATOM     31  F   UNL A   1      27.883  33.878  21.311  1.00  0.00    -0.207 F 
ENDBRANCH  22  25
ENDBRANCH  13  17
ENDBRANCH  10  11
ENDBRANCH   9  10
ENDBRANCH   7   9
ENDBRANCH   6   7
ENDBRANCH   5   6
ENDBRANCH   4   5
ENDBRANCH   3   4
ENDBRANCH   2   3
ENDBRANCH   1   2
BRANCH   1  32
ATOM     32  O   UNL A   1      34.316  34.496  31.001  1.00  0.00    -0.377 OA
BRANCH  32  33
ATOM     33  C   UNL A   1      35.392  34.339  31.913  1.00  0.00     0.188 C 
BRANCH  33  34
ATOM     34  C   UNL A   1      35.075  33.471  33.148  1.00  0.00     0.188 C 
BRANCH  34  35
ATOM     35  O   UNL A   1      36.065  33.092  34.097  1.00  0.00    -0.376 OA
BRANCH  35  36
ATOM     36  C   UNL A   1      37.220  32.380  33.695  1.00  0.00     0.202 C 
BRANCH  36  37
ATOM     37  C   UNL A   1      37.114  30.971  33.094  1.00  0.00     0.261 C 
BRANCH  37  38
ATOM     38  O   UNL A   1      37.966  30.690  31.982  1.00  0.00    -0.460 OA
BRANCH  38  39
ATOM     39  C   UNL A   1      37.685  29.532  31.347  1.00  0.00     0.338 C 
ATOM     40  O   UNL A   1      36.595  28.979  31.267  1.00  0.00    -0.246 OA
BRANCH  39  41
ATOM     41  C   UNL A   1      38.865  29.098  30.580  1.00  0.00     0.060 A 
ATOM     42  C   UNL A   1      39.824  28.325  31.248  1.00  0.00     0.016 A 
ATOM     43  C   UNL A   1      39.057  29.484  29.251  1.00  0.00     0.016 A 
ATOM     44  C   UNL A   1      41.004  27.977  30.610  1.00  0.00     0.010 A 
ATOM     45  C   UNL A   1      40.266  29.172  28.623  1.00  0.00     0.010 A 
ATOM     46  C   UNL A   1      41.257  28.462  29.323  1.00  0.00    -0.014 A 
BRANCH  46  47
ATOM     47  C   UNL A   1      42.658  28.432  28.854  1.00  0.00     0.031 A 
ATOM     48  C   UNL A   1      43.160  27.167  28.210  1.00  0.00     0.074 A 
ATOM     49  C   UNL A   1      43.412  29.543  28.879  1.00  0.00     0.049 A 
ATOM     50  N   UNL A   1      44.316  26.925  27.651  1.00  0.00    -0.248 NA
ATOM     51  C   UNL A   1      42.227  26.027  28.181  1.00  0.00     0.031 C 
ATOM     52  C   UNL A   1      42.997  30.836  29.422  1.00  0.00     0.029 A 
ATOM     53  N   UNL A   1      44.683  29.760  28.418  1.00  0.00    -0.354 N 
ATOM     54  C   UNL A   1      44.247  25.612  27.199  1.00  0.00     0.074 A 
ATOM     55  C   UNL A   1      42.953  25.094  27.583  1.00  0.00     0.031 C 
ATOM     56  C   UNL A   1      44.001  31.715  29.264  1.00  0.00     0.029 A 
ATOM     57  C   UNL A   1      45.136  31.037  28.639  1.00  0.00     0.049 A 
ATOM     58  H   UNL A   1      45.221  29.067  27.972  1.00  0.00     0.167 HD
ATOM     59  C   UNL A   1      45.174  24.905  26.512  1.00  0.00     0.031 A 
ATOM     60  C   UNL A   1      46.340  31.585  28.383  1.00  0.00     0.031 A 
ATOM     61  C   UNL A   1      46.468  25.423  26.156  1.00  0.00     0.049 A 
ATOM     62  C   UNL A   1      47.388  30.749  27.697  1.00  0.00     0.074 A 
ATOM     63  C   UNL A   1      47.493  24.787  25.479  1.00  0.00     0.029 A 
ATOM     64  N   UNL A   1      46.916  26.702  26.452  1.00  0.00    -0.354 N 
ATOM     65  N   UNL A   1      47.311  29.509  27.272  1.00  0.00    -0.248 NA
ATOM     66  C   UNL A   1      48.682  31.394  27.439  1.00  0.00     0.031 C 
ATOM     67  C   UNL A   1      48.583  25.662  25.418  1.00  0.00     0.029 A 
ATOM     68  C   UNL A   1      48.212  26.868  25.993  1.00  0.00     0.049 A 
ATOM     69  H   UNL A   1      46.390  27.390  26.919  1.00  0.00     0.167 HD
ATOM     70  C   UNL A   1      48.539  29.232  26.679  1.00  0.00     0.074 A 
ATOM     71  C   UNL A   1      49.325  30.446  26.772  1.00  0.00     0.031 C 
ATOM     72  C   UNL A   1      48.982  28.081  26.111  1.00  0.00     0.031 A 
BRANCH  59  73
ATOM     73  C   UNL A   1      44.831  23.489  26.131  1.00  0.00    -0.014 A 
ATOM     74  C   UNL A   1      43.518  23.125  25.779  1.00  0.00     0.010 A 
ATOM     75  C   UNL A   1      45.844  22.513  26.086  1.00  0.00     0.010 A 
ATOM     76  C   UNL A   1      43.221  21.809  25.411  1.00  0.00     0.020 A 
ATOM     77  C   UNL A   1      45.557  21.204  25.691  1.00  0.00     0.020 A 
ATOM     78  C   UNL A   1      44.244  20.858  25.366  1.00  0.00     0.054 A 
BRANCH  78  79
ATOM     79  S   UNL A   1      43.838  19.170  24.839  1.00  0.00     0.124 S 
ATOM     80  O   UNL A   1      44.152  19.215  23.412  1.00  0.00    -0.237 OA
ATOM     81  O   UNL A   1      44.735  18.357  25.654  1.00  0.00    -0.237 OA
ATOM     82  O   UNL A   1      42.418  19.038  25.158  1.00  0.00    -0.744 OA
ENDBRANCH  78  79
ENDBRANCH  59  73
BRANCH  60  83
ATOM     83  C   UNL A   1      46.629  32.980  28.816  1.00  0.00    -0.014 A 
ATOM     84  C   UNL A   1      46.258  34.083  28.029  1.00  0.00     0.010 A 
ATOM     85  C   UNL A   1      47.300  33.206  30.034  1.00  0.00     0.010 A 
ATOM     86  C   UNL A   1      46.575  35.383  28.438  1.00  0.00     0.020 A 
ATOM     87  C   UNL A   1      47.589  34.504  30.462  1.00  0.00     0.020 A 
ATOM     88  C   UNL A   1      47.237  35.585  29.653  1.00  0.00     0.054 A 
BRANCH  88  89
ATOM     89  S   UNL A   1      47.600  37.280  30.184  1.00  0.00     0.124 S 
ATOM     90  O   UNL A   1      49.051  37.340  30.042  1.00  0.00    -0.237 OA
ATOM     91  O   UNL A   1      46.834  38.079  29.231  1.00  0.00    -0.237 OA
ATOM     92  O   UNL A   1      47.103  37.322  31.558  1.00  0.00    -0.744 OA
ENDBRANCH  88  89
ENDBRANCH  60  83
BRANCH  72  93
ATOM     93  C   UNL A   1      50.372  28.096  25.527  1.00  0.00    -0.014 A 
ATOM     94  C   UNL A   1      50.580  28.127  24.136  1.00  0.00     0.010 A 
ATOM     95  C   UNL A   1      51.486  28.092  26.386  1.00  0.00     0.010 A 
ATOM     96  C   UNL A   1      51.876  28.085  23.615  1.00  0.00     0.020 A 
ATOM     97  C   UNL A   1      52.784  28.088  25.868  1.00  0.00     0.020 A 
ATOM     98  C   UNL A   1      52.970  28.057  24.486  1.00  0.00     0.054 A 
BRANCH  98  99
ATOM     99  S   UNL A   1      54.641  27.995  23.786  1.00  0.00     0.124 S 
ATOM    100  O   UNL A   1      54.483  28.764  22.555  1.00  0.00    -0.237 OA
ATOM    101  O   UNL A   1      55.448  28.631  24.824  1.00  0.00    -0.237 OA
ATOM    102  O   UNL A   1      54.887  26.567  23.600  1.00  0.00    -0.744 OA
ENDBRANCH  98  99
ENDBRANCH  72  93
ENDBRANCH  46  47
ENDBRANCH  39  41
ENDBRANCH  38  39
ENDBRANCH  37  38
ENDBRANCH  36  37
ENDBRANCH  35  36
ENDBRANCH  34  35
ENDBRANCH  33  34
ENDBRANCH  32  33
ENDBRANCH   1  32
TORSDOF 27
ENDMDL
