MODEL 1
REMARK VINA RESULT:      -8.5      0.000      0.000
REMARK SMILES COCc1cc(SCC(=O)OCCOCCOCCOCCOC(=O)c2ccc(-c3c4nc(c(-c5ccc(S(=O)(=O)[O-])cc5)c5ccc([nH]5)c(-c5ccc(S(=O)(=O)[O-])cc5)c5nc(c(-c6ccc(S(=O)(=O)[O-])cc6)c6ccc3[nH]6)C=C5)C=C4)cc2)nc(-c2cccnc2)n1
REMARK SMILES IDX 16 1 15 2 14 3 13 4 12 5 11 6 9 7 10 8 8 9 7 10 6 11 4 12
REMARK SMILES IDX 5 13 94 14 87 15 86 16 3 17 2 18 1 19 88 20 89 21 93 22
REMARK SMILES IDX 90 23 92 24 91 25 17 26 18 27 19 28 20 29 21 30 22 31 23 32
REMARK SMILES IDX 24 33 25 34 26 35 27 36 85 37 28 38 84 39 29 40 30 41 31 42
REMARK SMILES IDX 78 43 32 44 83 45 77 46 79 47 33 48 82 49 76 50 75 51 34 53
REMARK SMILES IDX 64 54 45 55 63 56 46 57 49 58 62 59 80 60 47 61 48 62 61 64
REMARK SMILES IDX 81 65 50 66 35 67 36 68 44 69 37 70 43 71 38 72 39 73 40 74
REMARK SMILES IDX 41 75 42 76 65 77 66 78 74 79 67 80 73 81 68 82 69 83 70 84
REMARK SMILES IDX 71 85 72 86 51 87 52 88 60 89 53 90 59 91 54 92 55 93 56 94
REMARK SMILES IDX 57 95 58 96
REMARK H PARENT 79 52 49 63
REMARK Flexibility Score: inf
ROOT
ATOM      1  C   UNL A   1      32.342  28.700  22.490  1.00  0.00     0.188 C 
ENDROOT
BRANCH   1   2
ATOM      2  C   UNL A   1      33.722  28.034  22.352  1.00  0.00     0.188 C 
BRANCH   2   3
ATOM      3  O   UNL A   1      33.879  26.826  21.638  1.00  0.00    -0.376 OA
BRANCH   3   4
ATOM      4  C   UNL A   1      32.806  25.938  21.416  1.00  0.00     0.202 C 
BRANCH   4   5
ATOM      5  C   UNL A   1      32.324  24.899  22.451  1.00  0.00     0.261 C 
BRANCH   5   6
ATOM      6  O   UNL A   1      32.117  25.331  23.816  1.00  0.00    -0.463 OA
BRANCH   6   7
ATOM      7  C   UNL A   1      30.840  25.381  24.260  1.00  0.00     0.316 C 
ATOM      8  O   UNL A   1      30.035  26.229  23.876  1.00  0.00    -0.251 OA
BRANCH   7   9
ATOM      9  C   UNL A   1      30.410  24.351  25.302  1.00  0.00     0.199 C 
BRANCH   9  10
ATOM     10  S   UNL A   1      31.533  23.809  26.644  1.00  0.00    -0.094 SA
BRANCH  10  11
ATOM     11  C   UNL A   1      32.501  22.393  26.045  1.00  0.00     0.101 A 
ATOM     12  C   UNL A   1      32.828  20.578  24.570  1.00  0.00     0.071 A 
ATOM     13  C   UNL A   1      31.953  21.372  25.295  1.00  0.00     0.062 A 
ATOM     14  N   UNL A   1      34.167  20.698  24.686  1.00  0.00    -0.230 NA
ATOM     15  C   UNL A   1      34.630  21.659  25.505  1.00  0.00     0.162 A 
ATOM     16  N   UNL A   1      33.847  22.513  26.196  1.00  0.00    -0.222 NA
BRANCH  12  17
ATOM     17  C   UNL A   1      32.317  19.597  23.532  1.00  0.00     0.215 C 
BRANCH  17  18
ATOM     18  O   UNL A   1      32.366  18.246  24.002  1.00  0.00    -0.378 OA
ATOM     19  C   UNL A   1      33.084  17.366  23.151  1.00  0.00     0.195 C 
ENDBRANCH  17  18
ENDBRANCH  12  17
BRANCH  15  20
ATOM     20  C   UNL A   1      36.092  21.762  25.610  1.00  0.00     0.038 A 
ATOM     21  C   UNL A   1      36.955  20.725  25.238  1.00  0.00     0.015 A 
ATOM     22  C   UNL A   1      36.721  22.941  26.011  1.00  0.00     0.123 A 
ATOM     23  C   UNL A   1      38.344  20.905  25.275  1.00  0.00     0.021 A 
ATOM     24  N   UNL A   1      38.064  23.153  26.060  1.00  0.00    -0.264 NA
ATOM     25  C   UNL A   1      38.847  22.126  25.691  1.00  0.00     0.111 A 
ENDBRANCH  15  20
ENDBRANCH  10  11
ENDBRANCH   9  10
ENDBRANCH   7   9
ENDBRANCH   6   7
ENDBRANCH   5   6
ENDBRANCH   4   5
ENDBRANCH   3   4
ENDBRANCH   2   3
ENDBRANCH   1   2
BRANCH   1  26
ATOM     26  O   UNL A   1      31.717  28.955  23.719  1.00  0.00    -0.377 OA
BRANCH  26  27
ATOM     27  C   UNL A   1      32.574  29.123  24.814  1.00  0.00     0.188 C 
BRANCH  27  28
ATOM     28  C   UNL A   1      31.820  28.847  26.111  1.00  0.00     0.188 C 
BRANCH  28  29
ATOM     29  O   UNL A   1      32.279  29.577  27.232  1.00  0.00    -0.376 OA
BRANCH  29  30
ATOM     30  C   UNL A   1      33.337  30.524  27.119  1.00  0.00     0.202 C 
BRANCH  30  31
ATOM     31  C   UNL A   1      33.281  32.050  27.350  1.00  0.00     0.261 C 
BRANCH  31  32
ATOM     32  O   UNL A   1      33.812  32.627  28.540  1.00  0.00    -0.460 OA
BRANCH  32  33
ATOM     33  C   UNL A   1      34.796  33.530  28.425  1.00  0.00     0.338 C 
ATOM     34  O   UNL A   1      34.682  34.723  28.191  1.00  0.00    -0.246 OA
BRANCH  33  35
ATOM     35  C   UNL A   1      36.024  32.862  28.898  1.00  0.00     0.060 A 
ATOM     36  C   UNL A   1      35.877  31.598  29.483  1.00  0.00     0.016 A 
ATOM     37  C   UNL A   1      37.295  33.415  28.705  1.00  0.00     0.016 A 
ATOM     38  C   UNL A   1      36.996  30.882  29.881  1.00  0.00     0.010 A 
ATOM     39  C   UNL A   1      38.420  32.716  29.157  1.00  0.00     0.010 A 
ATOM     40  C   UNL A   1      38.264  31.461  29.771  1.00  0.00    -0.014 A 
BRANCH  40  41
ATOM     41  C   UNL A   1      39.358  30.843  30.550  1.00  0.00     0.031 A 
ATOM     42  C   UNL A   1      39.594  31.372  31.938  1.00  0.00     0.074 A 
ATOM     43  C   UNL A   1      40.027  29.773  30.085  1.00  0.00     0.049 A 
ATOM     44  N   UNL A   1      40.430  30.956  32.851  1.00  0.00    -0.248 NA
ATOM     45  C   UNL A   1      38.765  32.516  32.360  1.00  0.00     0.031 C 
ATOM     46  C   UNL A   1      39.815  29.141  28.782  1.00  0.00     0.029 A 
ATOM     47  N   UNL A   1      41.013  29.020  30.667  1.00  0.00    -0.354 N 
ATOM     48  C   UNL A   1      40.238  31.794  33.943  1.00  0.00     0.074 A 
ATOM     49  C   UNL A   1      39.216  32.748  33.583  1.00  0.00     0.031 C 
ATOM     50  C   UNL A   1      40.651  28.093  28.664  1.00  0.00     0.029 A 
ATOM     51  C   UNL A   1      41.478  28.003  29.866  1.00  0.00     0.049 A 
ATOM     52  H   UNL A   1      41.357  29.190  31.574  1.00  0.00     0.167 HD
ATOM     53  C   UNL A   1      40.865  31.769  35.139  1.00  0.00     0.031 A 
ATOM     54  C   UNL A   1      42.473  27.119  30.080  1.00  0.00     0.031 A 
ATOM     55  C   UNL A   1      41.885  30.816  35.479  1.00  0.00     0.049 A 
ATOM     56  C   UNL A   1      43.210  27.169  31.396  1.00  0.00     0.074 A 
ATOM     57  C   UNL A   1      42.575  30.686  36.669  1.00  0.00     0.029 A 
ATOM     58  N   UNL A   1      42.370  29.841  34.621  1.00  0.00    -0.354 N 
ATOM     59  N   UNL A   1      42.991  27.941  32.436  1.00  0.00    -0.248 NA
ATOM     60  C   UNL A   1      44.321  26.225  31.573  1.00  0.00     0.031 C 
ATOM     61  C   UNL A   1      43.532  29.683  36.505  1.00  0.00     0.029 A 
ATOM     62  C   UNL A   1      43.382  29.132  35.242  1.00  0.00     0.049 A 
ATOM     63  H   UNL A   1      42.044  29.678  33.707  1.00  0.00     0.167 HD
ATOM     64  C   UNL A   1      43.915  27.551  33.400  1.00  0.00     0.074 A 
ATOM     65  C   UNL A   1      44.679  26.462  32.827  1.00  0.00     0.031 C 
ATOM     66  C   UNL A   1      44.118  28.045  34.648  1.00  0.00     0.031 A 
BRANCH  53  67
ATOM     67  C   UNL A   1      40.519  32.834  36.144  1.00  0.00    -0.014 A 
ATOM     68  C   UNL A   1      39.432  32.695  37.025  1.00  0.00     0.010 A 
ATOM     69  C   UNL A   1      41.350  33.964  36.253  1.00  0.00     0.010 A 
ATOM     70  C   UNL A   1      39.181  33.673  37.994  1.00  0.00     0.020 A 
ATOM     71  C   UNL A   1      41.119  34.928  37.237  1.00  0.00     0.020 A 
ATOM     72  C   UNL A   1      40.033  34.777  38.099  1.00  0.00     0.054 A 
BRANCH  72  73
ATOM     73  S   UNL A   1      39.734  35.986  39.419  1.00  0.00     0.124 S 
ATOM     74  O   UNL A   1      39.230  37.134  38.671  1.00  0.00    -0.237 OA
ATOM     75  O   UNL A   1      38.753  35.303  40.258  1.00  0.00    -0.237 OA
ATOM     76  O   UNL A   1      41.049  36.170  40.027  1.00  0.00    -0.744 OA
ENDBRANCH  72  73
ENDBRANCH  53  67
BRANCH  54  77
ATOM     77  C   UNL A   1      42.872  26.148  29.020  1.00  0.00    -0.014 A 
ATOM     78  C   UNL A   1      43.908  26.440  28.114  1.00  0.00     0.010 A 
ATOM     79  C   UNL A   1      42.170  24.936  28.878  1.00  0.00     0.010 A 
ATOM     80  C   UNL A   1      44.202  25.563  27.064  1.00  0.00     0.020 A 
ATOM     81  C   UNL A   1      42.485  24.040  27.852  1.00  0.00     0.020 A 
ATOM     82  C   UNL A   1      43.485  24.371  26.937  1.00  0.00     0.054 A 
BRANCH  82  83
ATOM     83  S   UNL A   1      43.882  23.248  25.569  1.00  0.00     0.124 S 
ATOM     84  O   UNL A   1      44.114  24.178  24.469  1.00  0.00    -0.237 OA
ATOM     85  O   UNL A   1      45.064  22.549  26.069  1.00  0.00    -0.237 OA
ATOM     86  O   UNL A   1      42.685  22.419  25.447  1.00  0.00    -0.744 OA
ENDBRANCH  82  83
ENDBRANCH  54  77
BRANCH  66  87
ATOM     87  C   UNL A   1      45.171  27.382  35.495  1.00  0.00    -0.014 A 
ATOM     88  C   UNL A   1      44.874  26.263  36.293  1.00  0.00     0.010 A 
ATOM     89  C   UNL A   1      46.495  27.854  35.440  1.00  0.00     0.010 A 
ATOM     90  C   UNL A   1      45.877  25.653  37.051  1.00  0.00     0.020 A 
ATOM     91  C   UNL A   1      47.507  27.225  36.166  1.00  0.00     0.020 A 
ATOM     92  C   UNL A   1      47.188  26.138  36.981  1.00  0.00     0.054 A 
BRANCH  92  93
ATOM     93  S   UNL A   1      48.477  25.302  37.943  1.00  0.00     0.124 S 
ATOM     94  O   UNL A   1      48.443  23.952  37.388  1.00  0.00    -0.237 OA
ATOM     95  O   UNL A   1      49.670  26.083  37.624  1.00  0.00    -0.237 OA
ATOM     96  O   UNL A   1      48.012  25.420  39.323  1.00  0.00    -0.744 OA
ENDBRANCH  92  93
ENDBRANCH  66  87
ENDBRANCH  40  41
ENDBRANCH  33  35
ENDBRANCH  32  33
ENDBRANCH  31  32
ENDBRANCH  30  31
ENDBRANCH  29  30
ENDBRANCH  28  29
ENDBRANCH  27  28
ENDBRANCH  26  27
ENDBRANCH   1  26
TORSDOF 28
ENDMDL
MODEL 2
REMARK VINA RESULT:      -8.4      5.634     10.187
REMARK SMILES COCc1cc(SCC(=O)OCCOCCOCCOCCOC(=O)c2ccc(-c3c4nc(c(-c5ccc(S(=O)(=O)[O-])cc5)c5ccc([nH]5)c(-c5ccc(S(=O)(=O)[O-])cc5)c5nc(c(-c6ccc(S(=O)(=O)[O-])cc6)c6ccc3[nH]6)C=C5)C=C4)cc2)nc(-c2cccnc2)n1
REMARK SMILES IDX 16 1 15 2 14 3 13 4 12 5 11 6 9 7 10 8 8 9 7 10 6 11 4 12
REMARK SMILES IDX 5 13 94 14 87 15 86 16 3 17 2 18 1 19 88 20 89 21 93 22
REMARK SMILES IDX 90 23 92 24 91 25 17 26 18 27 19 28 20 29 21 30 22 31 23 32
REMARK SMILES IDX 24 33 25 34 26 35 27 36 85 37 28 38 84 39 29 40 30 41 31 42
REMARK SMILES IDX 78 43 32 44 83 45 77 46 79 47 33 48 82 49 76 50 75 51 34 53
REMARK SMILES IDX 64 54 45 55 63 56 46 57 49 58 62 59 80 60 47 61 48 62 61 64
REMARK SMILES IDX 81 65 50 66 35 67 36 68 44 69 37 70 43 71 38 72 39 73 40 74
REMARK SMILES IDX 41 75 42 76 65 77 66 78 74 79 67 80 73 81 68 82 69 83 70 84
REMARK SMILES IDX 71 85 72 86 51 87 52 88 60 89 53 90 59 91 54 92 55 93 56 94
REMARK SMILES IDX 57 95 58 96
REMARK H PARENT 79 52 49 63
REMARK Flexibility Score: inf
ROOT
ATOM      1  C   UNL A   1      33.361  28.154  22.391  1.00  0.00     0.188 C 
ENDROOT
BRANCH   1   2
ATOM      2  C   UNL A   1      33.801  26.692  22.586  1.00  0.00     0.188 C 
BRANCH   2   3
ATOM      3  O   UNL A   1      32.857  25.641  22.571  1.00  0.00    -0.376 OA
BRANCH   3   4
ATOM      4  C   UNL A   1      31.472  25.874  22.445  1.00  0.00     0.202 C 
BRANCH   4   5
ATOM      5  C   UNL A   1      30.485  25.846  23.631  1.00  0.00     0.261 C 
BRANCH   5   6
ATOM      6  O   UNL A   1      30.698  26.766  24.727  1.00  0.00    -0.463 OA
BRANCH   6   7
ATOM      7  C   UNL A   1      30.919  26.230  25.950  1.00  0.00     0.316 C 
ATOM      8  O   UNL A   1      30.441  26.703  26.980  1.00  0.00    -0.251 OA
BRANCH   7   9
ATOM      9  C   UNL A   1      31.826  25.004  26.033  1.00  0.00     0.199 C 
BRANCH   9  10
ATOM     10  S   UNL A   1      31.170  23.346  26.455  1.00  0.00    -0.094 SA
BRANCH  10  11
ATOM     11  C   UNL A   1      32.417  22.105  26.005  1.00  0.00     0.101 A 
ATOM     12  C   UNL A   1      33.127  20.240  24.741  1.00  0.00     0.071 A 
ATOM     13  C   UNL A   1      32.100  20.912  25.387  1.00  0.00     0.062 A 
ATOM     14  N   UNL A   1      34.411  20.650  24.818  1.00  0.00    -0.230 NA
ATOM     15  C   UNL A   1      34.657  21.775  25.513  1.00  0.00     0.162 A 
ATOM     16  N   UNL A   1      33.707  22.520  26.116  1.00  0.00    -0.222 NA
BRANCH  12  17
ATOM     17  C   UNL A   1      32.841  19.060  23.832  1.00  0.00     0.215 C 
BRANCH  17  18
ATOM     18  O   UNL A   1      32.158  19.456  22.639  1.00  0.00    -0.378 OA
ATOM     19  C   UNL A   1      32.174  18.475  21.614  1.00  0.00     0.195 C 
ENDBRANCH  17  18
ENDBRANCH  12  17
BRANCH  15  20
ATOM     20  C   UNL A   1      36.064  22.193  25.579  1.00  0.00     0.038 A 
ATOM     21  C   UNL A   1      36.458  23.536  25.551  1.00  0.00     0.015 A 
ATOM     22  C   UNL A   1      37.098  21.276  25.761  1.00  0.00     0.123 A 
ATOM     23  C   UNL A   1      37.806  23.886  25.705  1.00  0.00     0.021 A 
ATOM     24  N   UNL A   1      38.416  21.577  25.913  1.00  0.00    -0.264 NA
ATOM     25  C   UNL A   1      38.740  22.880  25.881  1.00  0.00     0.111 A 
ENDBRANCH  15  20
ENDBRANCH  10  11
ENDBRANCH   9  10
ENDBRANCH   7   9
ENDBRANCH   6   7
ENDBRANCH   5   6
ENDBRANCH   4   5
ENDBRANCH   3   4
ENDBRANCH   2   3
ENDBRANCH   1   2
BRANCH   1  26
ATOM     26  O   UNL A   1      32.879  28.968  23.425  1.00  0.00    -0.377 OA
BRANCH  26  27
ATOM     27  C   UNL A   1      33.448  28.752  24.687  1.00  0.00     0.188 C 
BRANCH  27  28
ATOM     28  C   UNL A   1      32.578  29.389  25.766  1.00  0.00     0.188 C 
BRANCH  28  29
ATOM     29  O   UNL A   1      33.274  29.792  26.929  1.00  0.00    -0.376 OA
BRANCH  29  30
ATOM     30  C   UNL A   1      34.697  29.836  26.964  1.00  0.00     0.202 C 
BRANCH  30  31
ATOM     31  C   UNL A   1      35.619  29.952  28.198  1.00  0.00     0.261 C 
BRANCH  31  32
ATOM     32  O   UNL A   1      36.580  28.939  28.487  1.00  0.00    -0.460 OA
BRANCH  32  33
ATOM     33  C   UNL A   1      37.373  29.102  29.556  1.00  0.00     0.338 C 
ATOM     34  O   UNL A   1      37.031  29.177  30.726  1.00  0.00    -0.246 OA
BRANCH  33  35
ATOM     35  C   UNL A   1      38.754  28.905  29.076  1.00  0.00     0.060 A 
ATOM     36  C   UNL A   1      39.669  28.349  29.978  1.00  0.00     0.016 A 
ATOM     37  C   UNL A   1      39.131  29.180  27.756  1.00  0.00     0.016 A 
ATOM     38  C   UNL A   1      40.965  28.066  29.569  1.00  0.00     0.010 A 
ATOM     39  C   UNL A   1      40.453  28.947  27.360  1.00  0.00     0.010 A 
ATOM     40  C   UNL A   1      41.375  28.415  28.279  1.00  0.00    -0.014 A 
BRANCH  40  41
ATOM     41  C   UNL A   1      42.830  28.459  28.024  1.00  0.00     0.031 A 
ATOM     42  C   UNL A   1      43.453  27.243  27.393  1.00  0.00     0.074 A 
ATOM     43  C   UNL A   1      43.541  29.582  28.231  1.00  0.00     0.049 A 
ATOM     44  N   UNL A   1      44.682  27.054  26.996  1.00  0.00    -0.248 NA
ATOM     45  C   UNL A   1      42.564  26.088  27.166  1.00  0.00     0.031 C 
ATOM     46  C   UNL A   1      43.009  30.836  28.766  1.00  0.00     0.029 A 
ATOM     47  N   UNL A   1      44.865  29.851  27.998  1.00  0.00    -0.354 N 
ATOM     48  C   UNL A   1      44.716  25.760  26.489  1.00  0.00     0.074 A 
ATOM     49  C   UNL A   1      43.392  25.203  26.634  1.00  0.00     0.031 C 
ATOM     50  C   UNL A   1      44.002  31.742  28.823  1.00  0.00     0.029 A 
ATOM     51  C   UNL A   1      45.242  31.123  28.361  1.00  0.00     0.049 A 
ATOM     52  H   UNL A   1      45.487  29.195  27.608  1.00  0.00     0.167 HD
ATOM     53  C   UNL A   1      45.764  25.097  25.954  1.00  0.00     0.031 A 
ATOM     54  C   UNL A   1      46.459  31.704  28.338  1.00  0.00     0.031 A 
ATOM     55  C   UNL A   1      47.077  25.666  25.823  1.00  0.00     0.049 A 
ATOM     56  C   UNL A   1      47.627  30.908  27.809  1.00  0.00     0.074 A 
ATOM     57  C   UNL A   1      48.210  25.091  25.279  1.00  0.00     0.029 A 
ATOM     58  N   UNL A   1      47.435  26.933  26.256  1.00  0.00    -0.354 N 
ATOM     59  N   UNL A   1      47.638  29.699  27.295  1.00  0.00    -0.248 NA
ATOM     60  C   UNL A   1      48.945  31.555  27.847  1.00  0.00     0.031 C 
ATOM     61  C   UNL A   1      49.272  25.981  25.453  1.00  0.00     0.029 A 
ATOM     62  C   UNL A   1      48.783  27.143  26.030  1.00  0.00     0.049 A 
ATOM     63  H   UNL A   1      46.822  27.586  26.664  1.00  0.00     0.167 HD
ATOM     64  C   UNL A   1      48.955  29.457  26.920  1.00  0.00     0.074 A 
ATOM     65  C   UNL A   1      49.706  30.652  27.245  1.00  0.00     0.031 C 
ATOM     66  C   UNL A   1      49.500  28.349  26.356  1.00  0.00     0.031 A 
BRANCH  53  67
ATOM     67  C   UNL A   1      45.559  23.668  25.530  1.00  0.00    -0.014 A 
ATOM     68  C   UNL A   1      45.460  22.625  26.467  1.00  0.00     0.010 A 
ATOM     69  C   UNL A   1      45.388  23.381  24.163  1.00  0.00     0.010 A 
ATOM     70  C   UNL A   1      45.198  21.318  26.041  1.00  0.00     0.020 A 
ATOM     71  C   UNL A   1      45.099  22.084  23.737  1.00  0.00     0.020 A 
ATOM     72  C   UNL A   1      45.010  21.059  24.679  1.00  0.00     0.054 A 
BRANCH  72  73
ATOM     73  S   UNL A   1      44.588  19.371  24.163  1.00  0.00     0.124 S 
ATOM     74  O   UNL A   1      45.710  18.603  24.693  1.00  0.00    -0.237 OA
ATOM     75  O   UNL A   1      43.306  19.148  24.827  1.00  0.00    -0.237 OA
ATOM     76  O   UNL A   1      44.525  19.458  22.707  1.00  0.00    -0.744 OA
ENDBRANCH  72  73
ENDBRANCH  53  67
BRANCH  54  77
ATOM     77  C   UNL A   1      46.656  33.083  28.871  1.00  0.00    -0.014 A 
ATOM     78  C   UNL A   1      46.569  34.209  28.033  1.00  0.00     0.010 A 
ATOM     79  C   UNL A   1      46.990  33.271  30.226  1.00  0.00     0.010 A 
ATOM     80  C   UNL A   1      46.856  35.486  28.527  1.00  0.00     0.020 A 
ATOM     81  C   UNL A   1      47.241  34.549  30.732  1.00  0.00     0.020 A 
ATOM     82  C   UNL A   1      47.195  35.648  29.873  1.00  0.00     0.054 A 
BRANCH  82  83
ATOM     83  S   UNL A   1      47.562  37.313  30.494  1.00  0.00     0.124 S 
ATOM     84  O   UNL A   1      48.970  37.463  30.145  1.00  0.00    -0.237 OA
ATOM     85  O   UNL A   1      46.628  38.143  29.737  1.00  0.00    -0.237 OA
ATOM     86  O   UNL A   1      47.277  37.215  31.924  1.00  0.00    -0.744 OA
ENDBRANCH  82  83
ENDBRANCH  54  77
BRANCH  66  87
ATOM     87  C   UNL A   1      50.965  28.394  26.010  1.00  0.00    -0.014 A 
ATOM     88  C   UNL A   1      51.423  29.021  24.839  1.00  0.00     0.010 A 
ATOM     89  C   UNL A   1      51.901  27.851  26.910  1.00  0.00     0.010 A 
ATOM     90  C   UNL A   1      52.790  29.069  24.554  1.00  0.00     0.020 A 
ATOM     91  C   UNL A   1      53.269  27.930  26.648  1.00  0.00     0.020 A 
ATOM     92  C   UNL A   1      53.704  28.524  25.463  1.00  0.00     0.054 A 
BRANCH  92  93
ATOM     93  S   UNL A   1      55.475  28.636  25.089  1.00  0.00     0.124 S 
ATOM     94  O   UNL A   1      55.774  27.281  24.631  1.00  0.00    -0.237 OA
ATOM     95  O   UNL A   1      55.519  29.672  24.060  1.00  0.00    -0.237 OA
ATOM     96  O   UNL A   1      56.077  29.007  26.367  1.00  0.00    -0.744 OA
ENDBRANCH  92  93
ENDBRANCH  66  87
ENDBRANCH  40  41
ENDBRANCH  33  35
ENDBRANCH  32  33
ENDBRANCH  31  32
ENDBRANCH  30  31
ENDBRANCH  29  30
ENDBRANCH  28  29
ENDBRANCH  27  28
ENDBRANCH  26  27
ENDBRANCH   1  26
TORSDOF 28
ENDMDL
MODEL 3
REMARK VINA RESULT:      -8.2      1.717      8.334
REMARK SMILES COCc1cc(SCC(=O)OCCOCCOCCOCCOC(=O)c2ccc(-c3c4nc(c(-c5ccc(S(=O)(=O)[O-])cc5)c5ccc([nH]5)c(-c5ccc(S(=O)(=O)[O-])cc5)c5nc(c(-c6ccc(S(=O)(=O)[O-])cc6)c6ccc3[nH]6)C=C5)C=C4)cc2)nc(-c2cccnc2)n1
REMARK SMILES IDX 16 1 15 2 14 3 13 4 12 5 11 6 9 7 10 8 8 9 7 10 6 11 4 12
REMARK SMILES IDX 5 13 94 14 87 15 86 16 3 17 2 18 1 19 88 20 89 21 93 22
REMARK SMILES IDX 90 23 92 24 91 25 17 26 18 27 19 28 20 29 21 30 22 31 23 32
REMARK SMILES IDX 24 33 25 34 26 35 27 36 85 37 28 38 84 39 29 40 30 41 31 42
REMARK SMILES IDX 78 43 32 44 83 45 77 46 79 47 33 48 82 49 76 50 75 51 34 53
REMARK SMILES IDX 64 54 45 55 63 56 46 57 49 58 62 59 80 60 47 61 48 62 61 64
REMARK SMILES IDX 81 65 50 66 35 67 36 68 44 69 37 70 43 71 38 72 39 73 40 74
REMARK SMILES IDX 41 75 42 76 65 77 66 78 74 79 67 80 73 81 68 82 69 83 70 84
REMARK SMILES IDX 71 85 72 86 51 87 52 88 60 89 53 90 59 91 54 92 55 93 56 94
REMARK SMILES IDX 57 95 58 96
REMARK H PARENT 79 52 49 63
REMARK Flexibility Score: inf
ROOT
ATOM      1  C   UNL A   1      33.370  28.747  22.787  1.00  0.00     0.188 C 
ENDROOT
BRANCH   1   2
ATOM      2  C   UNL A   1      33.828  27.278  22.774  1.00  0.00     0.188 C 
BRANCH   2   3
ATOM      3  O   UNL A   1      32.936  26.241  22.421  1.00  0.00    -0.376 OA
BRANCH   3   4
ATOM      4  C   UNL A   1      31.570  26.479  22.159  1.00  0.00     0.202 C 
BRANCH   4   5
ATOM      5  C   UNL A   1      30.438  26.167  23.159  1.00  0.00     0.261 C 
BRANCH   5   6
ATOM      6  O   UNL A   1      30.548  26.679  24.508  1.00  0.00    -0.463 OA
BRANCH   6   7
ATOM      7  C   UNL A   1      30.851  25.791  25.482  1.00  0.00     0.316 C 
ATOM      8  O   UNL A   1      30.137  25.617  26.469  1.00  0.00    -0.251 OA
BRANCH   7   9
ATOM      9  C   UNL A   1      32.153  25.005  25.345  1.00  0.00     0.199 C 
BRANCH   9  10
ATOM     10  S   UNL A   1      32.596  23.661  26.509  1.00  0.00    -0.094 SA
BRANCH  10  11
ATOM     11  C   UNL A   1      33.913  22.662  25.757  1.00  0.00     0.101 A 
ATOM     12  C   UNL A   1      36.175  22.005  25.579  1.00  0.00     0.071 A 
ATOM     13  C   UNL A   1      35.248  23.007  25.823  1.00  0.00     0.062 A 
ATOM     14  N   UNL A   1      35.807  20.775  25.162  1.00  0.00    -0.230 NA
ATOM     15  C   UNL A   1      34.489  20.537  25.035  1.00  0.00     0.162 A 
ATOM     16  N   UNL A   1      33.523  21.438  25.313  1.00  0.00    -0.222 NA
BRANCH  12  17
ATOM     17  C   UNL A   1      37.649  22.216  25.865  1.00  0.00     0.215 C 
BRANCH  17  18
ATOM     18  O   UNL A   1      38.418  21.036  25.611  1.00  0.00    -0.378 OA
ATOM     19  C   UNL A   1      39.738  21.087  26.133  1.00  0.00     0.195 C 
ENDBRANCH  17  18
ENDBRANCH  12  17
BRANCH  15  20
ATOM     20  C   UNL A   1      34.121  19.190  24.578  1.00  0.00     0.038 A 
ATOM     21  C   UNL A   1      32.859  18.884  24.057  1.00  0.00     0.015 A 
ATOM     22  C   UNL A   1      35.041  18.142  24.557  1.00  0.00     0.123 A 
ATOM     23  C   UNL A   1      32.587  17.605  23.554  1.00  0.00     0.021 A 
ATOM     24  N   UNL A   1      34.814  16.889  24.079  1.00  0.00    -0.264 NA
ATOM     25  C   UNL A   1      33.587  16.648  23.587  1.00  0.00     0.111 A 
ENDBRANCH  15  20
ENDBRANCH  10  11
ENDBRANCH   9  10
ENDBRANCH   7   9
ENDBRANCH   6   7
ENDBRANCH   5   6
ENDBRANCH   4   5
ENDBRANCH   3   4
ENDBRANCH   2   3
ENDBRANCH   1   2
BRANCH   1  26
ATOM     26  O   UNL A   1      32.654  29.332  23.840  1.00  0.00    -0.377 OA
BRANCH  26  27
ATOM     27  C   UNL A   1      33.229  29.208  25.112  1.00  0.00     0.188 C 
BRANCH  27  28
ATOM     28  C   UNL A   1      32.136  29.086  26.168  1.00  0.00     0.188 C 
BRANCH  28  29
ATOM     29  O   UNL A   1      32.320  29.900  27.310  1.00  0.00    -0.376 OA
BRANCH  29  30
ATOM     30  C   UNL A   1      33.343  30.891  27.358  1.00  0.00     0.202 C 
BRANCH  30  31
ATOM     31  C   UNL A   1      33.199  32.421  27.209  1.00  0.00     0.261 C 
BRANCH  31  32
ATOM     32  O   UNL A   1      33.337  33.280  28.338  1.00  0.00    -0.460 OA
BRANCH  32  33
ATOM     33  C   UNL A   1      34.333  34.177  28.337  1.00  0.00     0.338 C 
ATOM     34  O   UNL A   1      34.369  35.241  27.738  1.00  0.00    -0.246 OA
BRANCH  33  35
ATOM     35  C   UNL A   1      35.262  33.761  29.405  1.00  0.00     0.060 A 
ATOM     36  C   UNL A   1      36.602  34.141  29.268  1.00  0.00     0.016 A 
ATOM     37  C   UNL A   1      34.825  33.087  30.552  1.00  0.00     0.016 A 
ATOM     38  C   UNL A   1      37.514  33.849  30.272  1.00  0.00     0.010 A 
ATOM     39  C   UNL A   1      35.756  32.743  31.538  1.00  0.00     0.010 A 
ATOM     40  C   UNL A   1      37.107  33.102  31.382  1.00  0.00    -0.014 A 
BRANCH  40  41
ATOM     41  C   UNL A   1      38.167  32.490  32.209  1.00  0.00     0.031 A 
ATOM     42  C   UNL A   1      38.936  31.348  31.602  1.00  0.00     0.074 A 
ATOM     43  C   UNL A   1      38.512  33.012  33.399  1.00  0.00     0.049 A 
ATOM     44  N   UNL A   1      39.959  30.693  32.081  1.00  0.00    -0.248 NA
ATOM     45  C   UNL A   1      38.501  30.892  30.268  1.00  0.00     0.031 C 
ATOM     46  C   UNL A   1      37.876  34.167  34.034  1.00  0.00     0.029 A 
ATOM     47  N   UNL A   1      39.497  32.645  34.279  1.00  0.00    -0.354 N 
ATOM     48  C   UNL A   1      40.278  29.743  31.117  1.00  0.00     0.074 A 
ATOM     49  C   UNL A   1      39.339  29.895  30.031  1.00  0.00     0.031 C 
ATOM     50  C   UNL A   1      38.488  34.411  35.208  1.00  0.00     0.029 A 
ATOM     51  C   UNL A   1      39.533  33.413  35.420  1.00  0.00     0.049 A 
ATOM     52  H   UNL A   1      40.119  31.901  34.111  1.00  0.00     0.167 HD
ATOM     53  C   UNL A   1      41.267  28.822  31.143  1.00  0.00     0.031 A 
ATOM     54  C   UNL A   1      40.312  33.300  36.514  1.00  0.00     0.031 A 
ATOM     55  C   UNL A   1      42.188  28.681  32.235  1.00  0.00     0.049 A 
ATOM     56  C   UNL A   1      41.355  32.209  36.546  1.00  0.00     0.074 A 
ATOM     57  C   UNL A   1      43.242  27.794  32.359  1.00  0.00     0.029 A 
ATOM     58  N   UNL A   1      42.156  29.436  33.398  1.00  0.00    -0.354 N 
ATOM     59  N   UNL A   1      41.672  31.342  35.612  1.00  0.00    -0.248 NA
ATOM     60  C   UNL A   1      42.150  32.083  37.775  1.00  0.00     0.031 C 
ATOM     61  C   UNL A   1      43.797  27.960  33.630  1.00  0.00     0.029 A 
ATOM     62  C   UNL A   1      43.145  29.006  34.264  1.00  0.00     0.049 A 
ATOM     63  H   UNL A   1      41.524  30.167  33.580  1.00  0.00     0.167 HD
ATOM     64  C   UNL A   1      42.725  30.594  36.129  1.00  0.00     0.074 A 
ATOM     65  C   UNL A   1      43.003  31.124  37.447  1.00  0.00     0.031 C 
ATOM     66  C   UNL A   1      43.404  29.562  35.568  1.00  0.00     0.031 A 
BRANCH  53  67
ATOM     67  C   UNL A   1      41.367  27.857  29.993  1.00  0.00    -0.014 A 
ATOM     68  C   UNL A   1      40.256  27.122  29.544  1.00  0.00     0.010 A 
ATOM     69  C   UNL A   1      42.589  27.742  29.305  1.00  0.00     0.010 A 
ATOM     70  C   UNL A   1      40.368  26.286  28.429  1.00  0.00     0.020 A 
ATOM     71  C   UNL A   1      42.697  26.930  28.174  1.00  0.00     0.020 A 
ATOM     72  C   UNL A   1      41.586  26.204  27.745  1.00  0.00     0.054 A 
BRANCH  72  73
ATOM     73  S   UNL A   1      41.680  25.178  26.252  1.00  0.00     0.124 S 
ATOM     74  O   UNL A   1      40.518  24.308  26.407  1.00  0.00    -0.237 OA
ATOM     75  O   UNL A   1      41.584  26.167  25.181  1.00  0.00    -0.237 OA
ATOM     76  O   UNL A   1      42.975  24.513  26.367  1.00  0.00    -0.744 OA
ENDBRANCH  72  73
ENDBRANCH  53  67
BRANCH  54  77
ATOM     77  C   UNL A   1      40.115  34.199  37.688  1.00  0.00    -0.014 A 
ATOM     78  C   UNL A   1      41.016  35.242  37.968  1.00  0.00     0.010 A 
ATOM     79  C   UNL A   1      39.040  33.977  38.570  1.00  0.00     0.010 A 
ATOM     80  C   UNL A   1      40.873  36.012  39.128  1.00  0.00     0.020 A 
ATOM     81  C   UNL A   1      38.873  34.767  39.710  1.00  0.00     0.020 A 
ATOM     82  C   UNL A   1      39.804  35.766  39.994  1.00  0.00     0.054 A 
BRANCH  82  83
ATOM     83  S   UNL A   1      39.637  36.777  41.492  1.00  0.00     0.124 S 
ATOM     84  O   UNL A   1      40.985  36.724  42.047  1.00  0.00    -0.237 OA
ATOM     85  O   UNL A   1      39.221  38.069  40.954  1.00  0.00    -0.237 OA
ATOM     86  O   UNL A   1      38.614  36.076  42.265  1.00  0.00    -0.744 OA
ENDBRANCH  82  83
ENDBRANCH  54  77
BRANCH  66  87
ATOM     87  C   UNL A   1      44.544  28.971  36.354  1.00  0.00    -0.014 A 
ATOM     88  C   UNL A   1      45.825  29.548  36.336  1.00  0.00     0.010 A 
ATOM     89  C   UNL A   1      44.306  27.852  37.174  1.00  0.00     0.010 A 
ATOM     90  C   UNL A   1      46.859  28.991  37.094  1.00  0.00     0.020 A 
ATOM     91  C   UNL A   1      45.325  27.316  37.962  1.00  0.00     0.020 A 
ATOM     92  C   UNL A   1      46.600  27.880  37.904  1.00  0.00     0.054 A 
BRANCH  92  93
ATOM     93  S   UNL A   1      47.949  27.203  38.909  1.00  0.00     0.124 S 
ATOM     94  O   UNL A   1      49.125  27.791  38.273  1.00  0.00    -0.237 OA
ATOM     95  O   UNL A   1      47.637  27.709  40.244  1.00  0.00    -0.237 OA
ATOM     96  O   UNL A   1      47.811  25.758  38.748  1.00  0.00    -0.744 OA
ENDBRANCH  92  93
ENDBRANCH  66  87
ENDBRANCH  40  41
ENDBRANCH  33  35
ENDBRANCH  32  33
ENDBRANCH  31  32
ENDBRANCH  30  31
ENDBRANCH  29  30
ENDBRANCH  28  29
ENDBRANCH  27  28
ENDBRANCH  26  27
ENDBRANCH   1  26
TORSDOF 28
ENDMDL
