MODEL 1
REMARK VINA RESULT:      -8.1      0.000      0.000
REMARK SMILES Cc1cc(F)ccc1S(=O)(=O)Nc1ccc2oc(C)c(C(=O)OCCOCCOCCOCCOC(=O)c3ccc(-c4c5nc(c(-c6ccc(S(=O)(=O)[O-])cc6)c6ccc([nH]6)c(-c6ccc(S(=O)(=O)[O-])cc6)c6nc(c(-c7ccc(S(=O)(=O)[O-])cc7)c7ccc4[nH]7)C=C6)C=C5)cc3)c2c1
REMARK SMILES IDX 29 1 28 2 27 3 26 4 25 5 24 6 23 7 21 8 22 9 20 10 13 11
REMARK SMILES IDX 14 12 99 13 15 14 98 15 16 16 17 17 18 18 19 19 12 20 9 22
REMARK SMILES IDX 10 23 11 24 8 25 1 26 2 27 3 28 4 29 7 30 5 31 6 32 30 33
REMARK SMILES IDX 31 34 32 35 33 36 34 37 35 38 36 39 37 40 38 41 39 42 97 43
REMARK SMILES IDX 40 44 96 45 41 46 42 47 43 48 90 49 44 50 95 51 89 52 91 53
REMARK SMILES IDX 45 54 94 55 88 56 87 57 46 59 76 60 57 61 75 62 58 63 61 64
REMARK SMILES IDX 74 65 92 66 59 67 60 68 73 70 93 71 62 72 47 73 48 74 56 75
REMARK SMILES IDX 49 76 55 77 50 78 51 79 52 80 53 81 54 82 77 83 78 84 86 85
REMARK SMILES IDX 79 86 85 87 80 88 81 89 82 90 83 91 84 92 63 93 64 94 72 95
REMARK SMILES IDX 65 96 71 97 66 98 67 99 68 100 69 101 70 102
REMARK H PARENT 12 21 91 58 61 69
REMARK Flexibility Score: inf
ROOT
ATOM      1  O   UNL A   1      38.678  24.618  26.751  1.00  0.00    -0.377 OA
ENDROOT
BRANCH   1   2
ATOM      2  C   UNL A   1      37.688  23.666  26.423  1.00  0.00     0.188 C 
BRANCH   2   3
ATOM      3  C   UNL A   1      37.286  23.649  24.935  1.00  0.00     0.188 C 
BRANCH   3   4
ATOM      4  O   UNL A   1      36.680  22.524  24.305  1.00  0.00    -0.376 OA
BRANCH   4   5
ATOM      5  C   UNL A   1      35.323  22.177  24.540  1.00  0.00     0.202 C 
BRANCH   5   6
ATOM      6  C   UNL A   1      34.260  22.749  23.593  1.00  0.00     0.261 C 
BRANCH   6   7
ATOM      7  O   UNL A   1      34.163  24.181  23.628  1.00  0.00    -0.460 OA
BRANCH   7   8
ATOM      8  C   UNL A   1      33.417  24.698  24.640  1.00  0.00     0.342 C 
ATOM      9  O   UNL A   1      33.792  24.814  25.802  1.00  0.00    -0.246 OA
BRANCH   8  10
ATOM     10  C   UNL A   1      32.188  25.307  24.174  1.00  0.00     0.109 A 
ATOM     11  C   UNL A   1      32.043  29.084  24.559  1.00  0.00     0.050 A 
ATOM     12  C   UNL A   1      30.770  29.242  24.011  1.00  0.00     0.030 A 
ATOM     13  C   UNL A   1      32.679  27.840  24.527  1.00  0.00     0.039 A 
ATOM     14  C   UNL A   1      30.057  28.135  23.510  1.00  0.00     0.050 A 
ATOM     15  C   UNL A   1      31.940  26.710  24.147  1.00  0.00     0.037 A 
ATOM     16  C   UNL A   1      30.668  26.887  23.636  1.00  0.00     0.135 A 
ATOM     17  O   UNL A   1      30.136  25.678  23.304  1.00  0.00    -0.460 OA
ATOM     18  C   UNL A   1      31.061  24.720  23.628  1.00  0.00     0.116 A 
ATOM     19  C   UNL A   1      30.670  23.321  23.356  1.00  0.00     0.088 C 
BRANCH  11  20
ATOM     20  N   UNL A   1      32.761  30.088  25.250  1.00  0.00    -0.280 N 
ATOM     21  H   UNL A   1      33.489  30.531  24.757  1.00  0.00     0.180 HD
BRANCH  20  22
ATOM     22  S   UNL A   1      32.498  30.596  26.806  1.00  0.00     0.262 S 
ATOM     23  O   UNL A   1      32.366  29.424  27.648  1.00  0.00    -0.201 OA
ATOM     24  O   UNL A   1      31.402  31.541  26.698  1.00  0.00    -0.201 OA
BRANCH  22  25
ATOM     25  C   UNL A   1      33.868  31.545  27.479  1.00  0.00     0.090 A 
ATOM     26  C   UNL A   1      35.787  29.792  27.548  1.00  0.00     0.046 C 
ATOM     27  C   UNL A   1      35.171  31.127  27.808  1.00  0.00    -0.028 A 
ATOM     28  C   UNL A   1      36.022  32.042  28.469  1.00  0.00     0.044 A 
ATOM     29  C   UNL A   1      35.636  33.355  28.696  1.00  0.00     0.123 A 
ATOM     30  C   UNL A   1      33.515  32.899  27.694  1.00  0.00     0.025 A 
ATOM     31  F   UNL A   1      36.482  34.195  29.304  1.00  0.00    -0.207 F 
ATOM     32  C   UNL A   1      34.397  33.802  28.284  1.00  0.00     0.040 A 
ENDBRANCH  22  25
ENDBRANCH  20  22
ENDBRANCH  11  20
ENDBRANCH   8  10
ENDBRANCH   7   8
ENDBRANCH   6   7
ENDBRANCH   5   6
ENDBRANCH   4   5
ENDBRANCH   3   4
ENDBRANCH   2   3
ENDBRANCH   1   2
BRANCH   1  33
ATOM     33  C   UNL A   1      39.869  24.086  27.311  1.00  0.00     0.188 C 
BRANCH  33  34
ATOM     34  C   UNL A   1      40.315  22.733  26.742  1.00  0.00     0.188 C 
BRANCH  34  35
ATOM     35  O   UNL A   1      41.649  22.766  26.223  1.00  0.00    -0.376 OA
BRANCH  35  36
ATOM     36  C   UNL A   1      42.672  22.299  27.101  1.00  0.00     0.202 C 
BRANCH  36  37
ATOM     37  C   UNL A   1      43.583  23.409  27.646  1.00  0.00     0.261 C 
BRANCH  37  38
ATOM     38  O   UNL A   1      43.913  24.448  26.710  1.00  0.00    -0.460 OA
BRANCH  38  39
ATOM     39  C   UNL A   1      45.223  24.663  26.458  1.00  0.00     0.338 C 
ATOM     40  O   UNL A   1      46.001  23.900  25.916  1.00  0.00    -0.246 OA
BRANCH  39  41
ATOM     41  C   UNL A   1      45.524  26.075  26.771  1.00  0.00     0.060 A 
ATOM     42  C   UNL A   1      45.896  26.402  28.081  1.00  0.00     0.016 A 
ATOM     43  C   UNL A   1      45.429  27.064  25.789  1.00  0.00     0.016 A 
ATOM     44  C   UNL A   1      46.124  27.735  28.426  1.00  0.00     0.010 A 
ATOM     45  C   UNL A   1      45.635  28.399  26.141  1.00  0.00     0.010 A 
ATOM     46  C   UNL A   1      45.943  28.742  27.469  1.00  0.00    -0.014 A 
BRANCH  46  47
ATOM     47  C   UNL A   1      45.840  30.157  27.892  1.00  0.00     0.031 A 
ATOM     48  C   UNL A   1      44.614  30.572  28.661  1.00  0.00     0.074 A 
ATOM     49  C   UNL A   1      46.791  31.055  27.587  1.00  0.00     0.049 A 
ATOM     50  N   UNL A   1      44.258  31.760  29.073  1.00  0.00    -0.248 NA
ATOM     51  C   UNL A   1      43.663  29.501  29.005  1.00  0.00     0.031 C 
ATOM     52  C   UNL A   1      48.038  30.767  26.880  1.00  0.00     0.029 A 
ATOM     53  N   UNL A   1      46.842  32.406  27.826  1.00  0.00    -0.354 N 
ATOM     54  C   UNL A   1      43.041  31.581  29.719  1.00  0.00     0.074 A 
ATOM     55  C   UNL A   1      42.711  30.176  29.630  1.00  0.00     0.031 C 
ATOM     56  C   UNL A   1      48.725  31.913  26.726  1.00  0.00     0.029 A 
ATOM     57  C   UNL A   1      47.953  33.017  27.297  1.00  0.00     0.049 A 
ATOM     58  H   UNL A   1      46.148  32.891  28.329  1.00  0.00     0.167 HD
ATOM     59  C   UNL A   1      42.264  32.504  30.332  1.00  0.00     0.031 A 
ATOM     60  C   UNL A   1      48.293  34.320  27.259  1.00  0.00     0.031 A 
ATOM     61  C   UNL A   1      42.574  33.905  30.394  1.00  0.00     0.049 A 
ATOM     62  C   UNL A   1      47.379  35.341  27.886  1.00  0.00     0.074 A 
ATOM     63  C   UNL A   1      41.848  34.923  30.984  1.00  0.00     0.029 A 
ATOM     64  N   UNL A   1      43.701  34.484  29.831  1.00  0.00    -0.354 N 
ATOM     65  N   UNL A   1      46.240  35.155  28.510  1.00  0.00    -0.248 NA
ATOM     66  C   UNL A   1      47.799  36.748  27.806  1.00  0.00     0.031 C 
ATOM     67  C   UNL A   1      42.519  36.128  30.745  1.00  0.00     0.029 A 
ATOM     68  C   UNL A   1      43.684  35.851  30.046  1.00  0.00     0.049 A 
ATOM     69  H   UNL A   1      44.408  33.996  29.351  1.00  0.00     0.167 HD
ATOM     70  C   UNL A   1      45.820  36.417  28.920  1.00  0.00     0.074 A 
ATOM     71  C   UNL A   1      46.830  37.358  28.478  1.00  0.00     0.031 C 
ATOM     72  C   UNL A   1      44.703  36.767  29.603  1.00  0.00     0.031 A 
BRANCH  59  73
ATOM     73  C   UNL A   1      40.983  32.017  30.949  1.00  0.00    -0.014 A 
ATOM     74  C   UNL A   1      40.922  31.670  32.311  1.00  0.00     0.010 A 
ATOM     75  C   UNL A   1      39.826  31.905  30.157  1.00  0.00     0.010 A 
ATOM     76  C   UNL A   1      39.736  31.179  32.861  1.00  0.00     0.020 A 
ATOM     77  C   UNL A   1      38.632  31.435  30.710  1.00  0.00     0.020 A 
ATOM     78  C   UNL A   1      38.600  31.057  32.054  1.00  0.00     0.054 A 
BRANCH  78  79
ATOM     79  S   UNL A   1      37.070  30.421  32.791  1.00  0.00     0.124 S 
ATOM     80  O   UNL A   1      36.878  31.332  33.917  1.00  0.00    -0.237 OA
ATOM     81  O   UNL A   1      36.106  30.557  31.703  1.00  0.00    -0.237 OA
ATOM     82  O   UNL A   1      37.406  29.045  33.153  1.00  0.00    -0.744 OA
ENDBRANCH  78  79
ENDBRANCH  59  73
BRANCH  60  83
ATOM     83  C   UNL A   1      49.550  34.743  26.584  1.00  0.00    -0.014 A 
ATOM     84  C   UNL A   1      50.775  34.719  27.274  1.00  0.00     0.010 A 
ATOM     85  C   UNL A   1      49.525  35.172  25.245  1.00  0.00     0.010 A 
ATOM     86  C   UNL A   1      51.951  35.129  26.638  1.00  0.00     0.020 A 
ATOM     87  C   UNL A   1      50.702  35.562  24.600  1.00  0.00     0.020 A 
ATOM     88  C   UNL A   1      51.907  35.548  25.306  1.00  0.00     0.054 A 
BRANCH  88  89
ATOM     89  S   UNL A   1      53.453  36.021  24.481  1.00  0.00     0.124 S 
ATOM     90  O   UNL A   1      54.456  35.624  25.463  1.00  0.00    -0.237 OA
ATOM     91  O   UNL A   1      53.415  35.225  23.256  1.00  0.00    -0.237 OA
ATOM     92  O   UNL A   1      53.304  37.461  24.281  1.00  0.00    -0.744 OA
ENDBRANCH  88  89
ENDBRANCH  60  83
BRANCH  72  93
ATOM     93  C   UNL A   1      44.527  38.219  29.953  1.00  0.00    -0.014 A 
ATOM     94  C   UNL A   1      45.082  38.757  31.127  1.00  0.00     0.010 A 
ATOM     95  C   UNL A   1      43.861  39.070  29.052  1.00  0.00     0.010 A 
ATOM     96  C   UNL A   1      44.953  40.120  31.404  1.00  0.00     0.020 A 
ATOM     97  C   UNL A   1      43.749  40.436  29.317  1.00  0.00     0.020 A 
ATOM     98  C   UNL A   1      44.288  40.952  30.498  1.00  0.00     0.054 A 
BRANCH  98  99
ATOM     99  S   UNL A   1      44.181  42.728  30.851  1.00  0.00     0.124 S 
ATOM    100  O   UNL A   1      45.197  42.893  31.886  1.00  0.00    -0.237 OA
ATOM    101  O   UNL A   1      44.494  43.334  29.559  1.00  0.00    -0.237 OA
ATOM    102  O   UNL A   1      42.801  42.909  31.296  1.00  0.00    -0.744 OA
ENDBRANCH  98  99
ENDBRANCH  72  93
ENDBRANCH  46  47
ENDBRANCH  39  41
ENDBRANCH  38  39
ENDBRANCH  37  38
ENDBRANCH  36  37
ENDBRANCH  35  36
ENDBRANCH  34  35
ENDBRANCH  33  34
ENDBRANCH   1  33
TORSDOF 26
ENDMDL
MODEL 2
REMARK VINA RESULT:      -8.1      8.115     15.201
REMARK SMILES Cc1cc(F)ccc1S(=O)(=O)Nc1ccc2oc(C)c(C(=O)OCCOCCOCCOCCOC(=O)c3ccc(-c4c5nc(c(-c6ccc(S(=O)(=O)[O-])cc6)c6ccc([nH]6)c(-c6ccc(S(=O)(=O)[O-])cc6)c6nc(c(-c7ccc(S(=O)(=O)[O-])cc7)c7ccc4[nH]7)C=C6)C=C5)cc3)c2c1
REMARK SMILES IDX 29 1 28 2 27 3 26 4 25 5 24 6 23 7 21 8 22 9 20 10 13 11
REMARK SMILES IDX 14 12 99 13 15 14 98 15 16 16 17 17 18 18 19 19 12 20 9 22
REMARK SMILES IDX 10 23 11 24 8 25 1 26 2 27 3 28 4 29 7 30 5 31 6 32 30 33
REMARK SMILES IDX 31 34 32 35 33 36 34 37 35 38 36 39 37 40 38 41 39 42 97 43
REMARK SMILES IDX 40 44 96 45 41 46 42 47 43 48 90 49 44 50 95 51 89 52 91 53
REMARK SMILES IDX 45 54 94 55 88 56 87 57 46 59 76 60 57 61 75 62 58 63 61 64
REMARK SMILES IDX 74 65 92 66 59 67 60 68 73 70 93 71 62 72 47 73 48 74 56 75
REMARK SMILES IDX 49 76 55 77 50 78 51 79 52 80 53 81 54 82 77 83 78 84 86 85
REMARK SMILES IDX 79 86 85 87 80 88 81 89 82 90 83 91 84 92 63 93 64 94 72 95
REMARK SMILES IDX 65 96 71 97 66 98 67 99 68 100 69 101 70 102
REMARK H PARENT 12 21 91 58 61 69
REMARK Flexibility Score: inf
ROOT
ATOM      1  O   UNL A   1      47.525  43.023  28.149  1.00  0.00    -0.377 OA
ENDROOT
BRANCH   1   2
ATOM      2  C   UNL A   1      48.635  43.741  27.653  1.00  0.00     0.188 C 
BRANCH   2   3
ATOM      3  C   UNL A   1      48.421  44.365  26.259  1.00  0.00     0.188 C 
BRANCH   3   4
ATOM      4  O   UNL A   1      47.468  45.394  26.005  1.00  0.00    -0.376 OA
BRANCH   4   5
ATOM      5  C   UNL A   1      46.225  45.120  25.375  1.00  0.00     0.202 C 
BRANCH   5   6
ATOM      6  C   UNL A   1      45.527  43.795  25.706  1.00  0.00     0.261 C 
BRANCH   6   7
ATOM      7  O   UNL A   1      44.315  43.578  24.967  1.00  0.00    -0.460 OA
BRANCH   7   8
ATOM      8  C   UNL A   1      44.405  42.708  23.927  1.00  0.00     0.342 C 
ATOM      9  O   UNL A   1      45.276  41.853  23.799  1.00  0.00    -0.246 OA
BRANCH   8  10
ATOM     10  C   UNL A   1      43.238  42.738  23.070  1.00  0.00     0.109 A 
ATOM     11  C   UNL A   1      43.874  44.067  19.568  1.00  0.00     0.050 A 
ATOM     12  C   UNL A   1      42.563  43.921  19.112  1.00  0.00     0.030 A 
ATOM     13  C   UNL A   1      44.248  43.566  20.818  1.00  0.00     0.039 A 
ATOM     14  C   UNL A   1      41.569  43.362  19.939  1.00  0.00     0.050 A 
ATOM     15  C   UNL A   1      43.251  43.123  21.698  1.00  0.00     0.037 A 
ATOM     16  C   UNL A   1      41.953  43.016  21.234  1.00  0.00     0.135 A 
ATOM     17  O   UNL A   1      41.150  42.543  22.228  1.00  0.00    -0.460 OA
ATOM     18  C   UNL A   1      41.932  42.372  23.340  1.00  0.00     0.116 A 
ATOM     19  C   UNL A   1      41.241  41.873  24.549  1.00  0.00     0.088 C 
BRANCH  11  20
ATOM     20  N   UNL A   1      44.894  44.776  18.893  1.00  0.00    -0.280 N 
ATOM     21  H   UNL A   1      45.534  44.241  18.370  1.00  0.00     0.180 HD
BRANCH  20  22
ATOM     22  S   UNL A   1      45.121  46.418  18.893  1.00  0.00     0.262 S 
ATOM     23  O   UNL A   1      46.392  46.699  18.256  1.00  0.00    -0.201 OA
ATOM     24  O   UNL A   1      44.895  46.814  20.270  1.00  0.00    -0.201 OA
BRANCH  22  25
ATOM     25  C   UNL A   1      43.878  47.302  17.943  1.00  0.00     0.090 A 
ATOM     26  C   UNL A   1      44.077  49.723  18.870  1.00  0.00     0.046 C 
ATOM     27  C   UNL A   1      43.470  48.646  18.034  1.00  0.00    -0.028 A 
ATOM     28  C   UNL A   1      42.356  49.062  17.268  1.00  0.00     0.044 A 
ATOM     29  C   UNL A   1      41.740  48.209  16.365  1.00  0.00     0.123 A 
ATOM     30  C   UNL A   1      43.251  46.465  16.990  1.00  0.00     0.025 A 
ATOM     31  F   UNL A   1      40.703  48.649  15.643  1.00  0.00    -0.207 F 
ATOM     32  C   UNL A   1      42.199  46.918  16.196  1.00  0.00     0.040 A 
ENDBRANCH  22  25
ENDBRANCH  20  22
ENDBRANCH  11  20
ENDBRANCH   8  10
ENDBRANCH   7   8
ENDBRANCH   6   7
ENDBRANCH   5   6
ENDBRANCH   4   5
ENDBRANCH   3   4
ENDBRANCH   2   3
ENDBRANCH   1   2
BRANCH   1  33
ATOM     33  C   UNL A   1      47.836  41.984  29.064  1.00  0.00     0.188 C 
BRANCH  33  34
ATOM     34  C   UNL A   1      47.344  40.587  28.663  1.00  0.00     0.188 C 
BRANCH  34  35
ATOM     35  O   UNL A   1      45.988  40.589  28.205  1.00  0.00    -0.376 OA
BRANCH  35  36
ATOM     36  C   UNL A   1      45.785  40.183  26.853  1.00  0.00     0.202 C 
BRANCH  36  37
ATOM     37  C   UNL A   1      44.355  39.708  26.550  1.00  0.00     0.261 C 
BRANCH  37  38
ATOM     38  O   UNL A   1      44.105  38.315  26.797  1.00  0.00    -0.460 OA
BRANCH  38  39
ATOM     39  C   UNL A   1      42.836  37.953  27.083  1.00  0.00     0.338 C 
ATOM     40  O   UNL A   1      41.817  38.407  26.596  1.00  0.00    -0.246 OA
BRANCH  39  41
ATOM     41  C   UNL A   1      42.883  36.760  27.952  1.00  0.00     0.060 A 
ATOM     42  C   UNL A   1      44.008  36.572  28.765  1.00  0.00     0.016 A 
ATOM     43  C   UNL A   1      41.839  35.832  27.955  1.00  0.00     0.016 A 
ATOM     44  C   UNL A   1      44.114  35.422  29.548  1.00  0.00     0.010 A 
ATOM     45  C   UNL A   1      41.957  34.672  28.721  1.00  0.00     0.010 A 
ATOM     46  C   UNL A   1      43.112  34.444  29.488  1.00  0.00    -0.014 A 
BRANCH  46  47
ATOM     47  C   UNL A   1      43.366  33.090  30.030  1.00  0.00     0.031 A 
ATOM     48  C   UNL A   1      42.938  32.808  31.445  1.00  0.00     0.074 A 
ATOM     49  C   UNL A   1      43.979  32.142  29.300  1.00  0.00     0.049 A 
ATOM     50  N   UNL A   1      43.118  31.733  32.165  1.00  0.00    -0.248 NA
ATOM     51  C   UNL A   1      42.214  33.888  32.138  1.00  0.00     0.031 C 
ATOM     52  C   UNL A   1      44.407  32.284  27.909  1.00  0.00     0.029 A 
ATOM     53  N   UNL A   1      44.360  30.870  29.644  1.00  0.00    -0.354 N 
ATOM     54  C   UNL A   1      42.535  32.008  33.397  1.00  0.00     0.074 A 
ATOM     55  C   UNL A   1      42.013  33.355  33.333  1.00  0.00     0.031 C 
ATOM     56  C   UNL A   1      45.010  31.145  27.522  1.00  0.00     0.029 A 
ATOM     57  C   UNL A   1      45.035  30.209  28.646  1.00  0.00     0.049 A 
ATOM     58  H   UNL A   1      44.167  30.468  30.522  1.00  0.00     0.167 HD
ATOM     59  C   UNL A   1      42.443  31.211  34.487  1.00  0.00     0.031 A 
ATOM     60  C   UNL A   1      45.625  28.997  28.650  1.00  0.00     0.031 A 
ATOM     61  C   UNL A   1      42.989  29.886  34.564  1.00  0.00     0.049 A 
ATOM     62  C   UNL A   1      45.573  28.154  29.898  1.00  0.00     0.074 A 
ATOM     63  C   UNL A   1      42.956  29.000  35.626  1.00  0.00     0.029 A 
ATOM     64  N   UNL A   1      43.679  29.261  33.537  1.00  0.00    -0.354 N 
ATOM     65  N   UNL A   1      45.002  28.421  31.050  1.00  0.00    -0.248 NA
ATOM     66  C   UNL A   1      46.242  26.846  29.846  1.00  0.00     0.031 C 
ATOM     67  C   UNL A   1      43.663  27.851  35.252  1.00  0.00     0.029 A 
ATOM     68  C   UNL A   1      44.093  28.005  33.944  1.00  0.00     0.049 A 
ATOM     69  H   UNL A   1      43.849  29.652  32.649  1.00  0.00     0.167 HD
ATOM     70  C   UNL A   1      45.220  27.302  31.849  1.00  0.00     0.074 A 
ATOM     71  C   UNL A   1      45.969  26.355  31.049  1.00  0.00     0.031 C 
ATOM     72  C   UNL A   1      44.832  27.077  33.128  1.00  0.00     0.031 A 
BRANCH  59  73
ATOM     73  C   UNL A   1      41.754  31.783  35.694  1.00  0.00    -0.014 A 
ATOM     74  C   UNL A   1      40.355  31.722  35.826  1.00  0.00     0.010 A 
ATOM     75  C   UNL A   1      42.515  32.390  36.709  1.00  0.00     0.010 A 
ATOM     76  C   UNL A   1      39.726  32.294  36.933  1.00  0.00     0.020 A 
ATOM     77  C   UNL A   1      41.890  32.944  37.829  1.00  0.00     0.020 A 
ATOM     78  C   UNL A   1      40.496  32.910  37.924  1.00  0.00     0.054 A 
BRANCH  78  79
ATOM     79  S   UNL A   1      39.657  33.643  39.355  1.00  0.00     0.124 S 
ATOM     80  O   UNL A   1      40.785  34.137  40.142  1.00  0.00    -0.237 OA
ATOM     81  O   UNL A   1      38.819  34.672  38.745  1.00  0.00    -0.237 OA
ATOM     82  O   UNL A   1      38.931  32.520  39.943  1.00  0.00    -0.744 OA
ENDBRANCH  78  79
ENDBRANCH  59  73
BRANCH  60  83
ATOM     83  C   UNL A   1      46.339  28.512  27.438  1.00  0.00    -0.014 A 
ATOM     84  C   UNL A   1      47.670  28.891  27.192  1.00  0.00     0.010 A 
ATOM     85  C   UNL A   1      45.686  27.667  26.523  1.00  0.00     0.010 A 
ATOM     86  C   UNL A   1      48.332  28.442  26.045  1.00  0.00     0.020 A 
ATOM     87  C   UNL A   1      46.351  27.199  25.387  1.00  0.00     0.020 A 
ATOM     88  C   UNL A   1      47.668  27.599  25.150  1.00  0.00     0.054 A 
BRANCH  88  89
ATOM     89  S   UNL A   1      48.562  26.980  23.697  1.00  0.00     0.124 S 
ATOM     90  O   UNL A   1      47.853  25.738  23.410  1.00  0.00    -0.237 OA
ATOM     91  O   UNL A   1      48.375  28.056  22.726  1.00  0.00    -0.237 OA
ATOM     92  O   UNL A   1      49.932  26.825  24.183  1.00  0.00    -0.744 OA
ENDBRANCH  88  89
ENDBRANCH  60  83
BRANCH  72  93
ATOM     93  C   UNL A   1      45.173  25.743  33.734  1.00  0.00    -0.014 A 
ATOM     94  C   UNL A   1      44.377  24.610  33.493  1.00  0.00     0.010 A 
ATOM     95  C   UNL A   1      46.351  25.610  34.492  1.00  0.00     0.010 A 
ATOM     96  C   UNL A   1      44.743  23.369  34.021  1.00  0.00     0.020 A 
ATOM     97  C   UNL A   1      46.730  24.367  35.003  1.00  0.00     0.020 A 
ATOM     98  C   UNL A   1      45.917  23.255  34.773  1.00  0.00     0.054 A 
BRANCH  98  99
ATOM     99  S   UNL A   1      46.403  21.624  35.401  1.00  0.00     0.124 S 
ATOM    100  O   UNL A   1      47.813  21.828  35.716  1.00  0.00    -0.237 OA
ATOM    101  O   UNL A   1      45.520  21.443  36.550  1.00  0.00    -0.237 OA
ATOM    102  O   UNL A   1      46.139  20.729  34.276  1.00  0.00    -0.744 OA
ENDBRANCH  98  99
ENDBRANCH  72  93
ENDBRANCH  46  47
ENDBRANCH  39  41
ENDBRANCH  38  39
ENDBRANCH  37  38
ENDBRANCH  36  37
ENDBRANCH  35  36
ENDBRANCH  34  35
ENDBRANCH  33  34
ENDBRANCH   1  33
TORSDOF 26
ENDMDL
MODEL 3
REMARK VINA RESULT:      -7.7      4.668      7.972
REMARK SMILES Cc1cc(F)ccc1S(=O)(=O)Nc1ccc2oc(C)c(C(=O)OCCOCCOCCOCCOC(=O)c3ccc(-c4c5nc(c(-c6ccc(S(=O)(=O)[O-])cc6)c6ccc([nH]6)c(-c6ccc(S(=O)(=O)[O-])cc6)c6nc(c(-c7ccc(S(=O)(=O)[O-])cc7)c7ccc4[nH]7)C=C6)C=C5)cc3)c2c1
REMARK SMILES IDX 29 1 28 2 27 3 26 4 25 5 24 6 23 7 21 8 22 9 20 10 13 11
REMARK SMILES IDX 14 12 99 13 15 14 98 15 16 16 17 17 18 18 19 19 12 20 9 22
REMARK SMILES IDX 10 23 11 24 8 25 1 26 2 27 3 28 4 29 7 30 5 31 6 32 30 33
REMARK SMILES IDX 31 34 32 35 33 36 34 37 35 38 36 39 37 40 38 41 39 42 97 43
REMARK SMILES IDX 40 44 96 45 41 46 42 47 43 48 90 49 44 50 95 51 89 52 91 53
REMARK SMILES IDX 45 54 94 55 88 56 87 57 46 59 76 60 57 61 75 62 58 63 61 64
REMARK SMILES IDX 74 65 92 66 59 67 60 68 73 70 93 71 62 72 47 73 48 74 56 75
REMARK SMILES IDX 49 76 55 77 50 78 51 79 52 80 53 81 54 82 77 83 78 84 86 85
REMARK SMILES IDX 79 86 85 87 80 88 81 89 82 90 83 91 84 92 63 93 64 94 72 95
REMARK SMILES IDX 65 96 71 97 66 98 67 99 68 100 69 101 70 102
REMARK H PARENT 12 21 91 58 61 69
REMARK Flexibility Score: inf
ROOT
ATOM      1  O   UNL A   1      40.205  26.362  27.189  1.00  0.00    -0.377 OA
ENDROOT
BRANCH   1   2
ATOM      2  C   UNL A   1      39.670  25.069  27.381  1.00  0.00     0.188 C 
BRANCH   2   3
ATOM      3  C   UNL A   1      39.005  24.462  26.130  1.00  0.00     0.188 C 
BRANCH   3   4
ATOM      4  O   UNL A   1      38.315  23.215  26.143  1.00  0.00    -0.376 OA
BRANCH   4   5
ATOM      5  C   UNL A   1      37.023  23.071  25.571  1.00  0.00     0.202 C 
BRANCH   5   6
ATOM      6  C   UNL A   1      36.802  21.929  24.570  1.00  0.00     0.261 C 
BRANCH   6   7
ATOM      7  O   UNL A   1      36.075  20.817  25.111  1.00  0.00    -0.460 OA
BRANCH   7   8
ATOM      8  C   UNL A   1      34.928  21.126  25.773  1.00  0.00     0.342 C 
ATOM      9  O   UNL A   1      34.867  21.475  26.948  1.00  0.00    -0.246 OA
BRANCH   8  10
ATOM     10  C   UNL A   1      33.781  21.214  24.894  1.00  0.00     0.109 A 
ATOM     11  C   UNL A   1      32.496  24.740  24.305  1.00  0.00     0.050 A 
ATOM     12  C   UNL A   1      31.456  24.380  23.448  1.00  0.00     0.030 A 
ATOM     13  C   UNL A   1      33.427  23.788  24.728  1.00  0.00     0.039 A 
ATOM     14  C   UNL A   1      31.260  23.035  23.075  1.00  0.00     0.050 A 
ATOM     15  C   UNL A   1      33.178  22.433  24.469  1.00  0.00     0.037 A 
ATOM     16  C   UNL A   1      32.122  22.096  23.643  1.00  0.00     0.135 A 
ATOM     17  O   UNL A   1      32.068  20.743  23.496  1.00  0.00    -0.460 OA
ATOM     18  C   UNL A   1      33.078  20.209  24.254  1.00  0.00     0.116 A 
ATOM     19  C   UNL A   1      33.187  18.735  24.244  1.00  0.00     0.088 C 
BRANCH  11  20
ATOM     20  N   UNL A   1      32.666  26.020  24.883  1.00  0.00    -0.280 N 
ATOM     21  H   UNL A   1      32.482  26.099  25.847  1.00  0.00     0.180 HD
BRANCH  20  22
ATOM     22  S   UNL A   1      33.147  27.400  24.101  1.00  0.00     0.262 S 
ATOM     23  O   UNL A   1      33.600  27.034  22.774  1.00  0.00    -0.201 OA
ATOM     24  O   UNL A   1      34.057  28.043  25.029  1.00  0.00    -0.201 OA
BRANCH  22  25
ATOM     25  C   UNL A   1      31.811  28.579  23.866  1.00  0.00     0.090 A 
ATOM     26  C   UNL A   1      32.051  30.124  25.944  1.00  0.00     0.046 C 
ATOM     27  C   UNL A   1      31.391  29.634  24.698  1.00  0.00    -0.028 A 
ATOM     28  C   UNL A   1      30.207  30.328  24.356  1.00  0.00     0.044 A 
ATOM     29  C   UNL A   1      29.527  30.061  23.177  1.00  0.00     0.123 A 
ATOM     30  C   UNL A   1      31.115  28.352  22.654  1.00  0.00     0.025 A 
ATOM     31  F   UNL A   1      28.424  30.757  22.879  1.00  0.00    -0.207 F 
ATOM     32  C   UNL A   1      29.990  29.097  22.304  1.00  0.00     0.040 A 
ENDBRANCH  22  25
ENDBRANCH  20  22
ENDBRANCH  11  20
ENDBRANCH   8  10
ENDBRANCH   7   8
ENDBRANCH   6   7
ENDBRANCH   5   6
ENDBRANCH   4   5
ENDBRANCH   3   4
ENDBRANCH   2   3
ENDBRANCH   1   2
BRANCH   1  33
ATOM     33  C   UNL A   1      41.375  26.651  27.939  1.00  0.00     0.188 C 
BRANCH  33  34
ATOM     34  C   UNL A   1      42.649  25.937  27.470  1.00  0.00     0.188 C 
BRANCH  34  35
ATOM     35  O   UNL A   1      43.472  26.764  26.640  1.00  0.00    -0.376 OA
BRANCH  35  36
ATOM     36  C   UNL A   1      44.750  27.106  27.173  1.00  0.00     0.202 C 
BRANCH  36  37
ATOM     37  C   UNL A   1      44.863  28.566  27.639  1.00  0.00     0.261 C 
BRANCH  37  38
ATOM     38  O   UNL A   1      44.651  29.555  26.619  1.00  0.00    -0.460 OA
BRANCH  38  39
ATOM     39  C   UNL A   1      45.730  30.242  26.186  1.00  0.00     0.338 C 
ATOM     40  O   UNL A   1      46.543  29.884  25.355  1.00  0.00    -0.246 OA
BRANCH  39  41
ATOM     41  C   UNL A   1      45.660  31.607  26.747  1.00  0.00     0.060 A 
ATOM     42  C   UNL A   1      46.800  32.417  26.675  1.00  0.00     0.016 A 
ATOM     43  C   UNL A   1      44.489  32.077  27.348  1.00  0.00     0.016 A 
ATOM     44  C   UNL A   1      46.788  33.687  27.253  1.00  0.00     0.010 A 
ATOM     45  C   UNL A   1      44.485  33.338  27.945  1.00  0.00     0.010 A 
ATOM     46  C   UNL A   1      45.647  34.130  27.935  1.00  0.00    -0.014 A 
BRANCH  46  47
ATOM     47  C   UNL A   1      45.730  35.302  28.835  1.00  0.00     0.031 A 
ATOM     48  C   UNL A   1      45.335  36.644  28.279  1.00  0.00     0.074 A 
ATOM     49  C   UNL A   1      46.167  35.190  30.101  1.00  0.00     0.049 A 
ATOM     50  N   UNL A   1      45.393  37.823  28.839  1.00  0.00    -0.248 NA
ATOM     51  C   UNL A   1      44.806  36.653  26.904  1.00  0.00     0.031 C 
ATOM     52  C   UNL A   1      46.544  33.942  30.762  1.00  0.00     0.029 A 
ATOM     53  N   UNL A   1      46.379  36.156  31.052  1.00  0.00    -0.354 N 
ATOM     54  C   UNL A   1      44.915  38.714  27.886  1.00  0.00     0.074 A 
ATOM     55  C   UNL A   1      44.587  37.944  26.706  1.00  0.00     0.031 C 
ATOM     56  C   UNL A   1      46.959  34.221  32.011  1.00  0.00     0.029 A 
ATOM     57  C   UNL A   1      46.904  35.668  32.224  1.00  0.00     0.049 A 
ATOM     58  H   UNL A   1      46.173  37.108  30.909  1.00  0.00     0.167 HD
ATOM     59  C   UNL A   1      44.762  40.055  27.980  1.00  0.00     0.031 A 
ATOM     60  C   UNL A   1      47.316  36.319  33.330  1.00  0.00     0.031 A 
ATOM     61  C   UNL A   1      45.117  40.825  29.139  1.00  0.00     0.049 A 
ATOM     62  C   UNL A   1      47.203  37.820  33.389  1.00  0.00     0.074 A 
ATOM     63  C   UNL A   1      45.009  42.190  29.332  1.00  0.00     0.029 A 
ATOM     64  N   UNL A   1      45.662  40.294  30.298  1.00  0.00    -0.354 N 
ATOM     65  N   UNL A   1      46.732  38.647  32.486  1.00  0.00    -0.248 NA
ATOM     66  C   UNL A   1      47.675  38.475  34.617  1.00  0.00     0.031 C 
ATOM     67  C   UNL A   1      45.526  42.490  30.598  1.00  0.00     0.029 A 
ATOM     68  C   UNL A   1      45.912  41.306  31.207  1.00  0.00     0.049 A 
ATOM     69  H   UNL A   1      45.843  39.338  30.452  1.00  0.00     0.167 HD
ATOM     70  C   UNL A   1      46.826  39.918  33.048  1.00  0.00     0.074 A 
ATOM     71  C   UNL A   1      47.393  39.749  34.370  1.00  0.00     0.031 C 
ATOM     72  C   UNL A   1      46.471  41.115  32.520  1.00  0.00     0.031 A 
BRANCH  59  73
ATOM     73  C   UNL A   1      44.221  40.768  26.774  1.00  0.00    -0.014 A 
ATOM     74  C   UNL A   1      45.080  41.431  25.879  1.00  0.00     0.010 A 
ATOM     75  C   UNL A   1      42.835  40.775  26.531  1.00  0.00     0.010 A 
ATOM     76  C   UNL A   1      44.559  42.125  24.785  1.00  0.00     0.020 A 
ATOM     77  C   UNL A   1      42.313  41.449  25.424  1.00  0.00     0.020 A 
ATOM     78  C   UNL A   1      43.177  42.137  24.569  1.00  0.00     0.054 A 
BRANCH  78  79
ATOM     79  S   UNL A   1      42.524  43.041  23.139  1.00  0.00     0.124 S 
ATOM     80  O   UNL A   1      43.264  42.431  22.036  1.00  0.00    -0.237 OA
ATOM     81  O   UNL A   1      41.098  42.730  23.185  1.00  0.00    -0.237 OA
ATOM     82  O   UNL A   1      42.865  44.433  23.425  1.00  0.00    -0.744 OA
ENDBRANCH  78  79
ENDBRANCH  59  73
BRANCH  60  83
ATOM     83  C   UNL A   1      47.894  35.558  34.470  1.00  0.00    -0.014 A 
ATOM     84  C   UNL A   1      47.070  35.089  35.508  1.00  0.00     0.010 A 
ATOM     85  C   UNL A   1      49.276  35.300  34.521  1.00  0.00     0.010 A 
ATOM     86  C   UNL A   1      47.621  34.385  36.584  1.00  0.00     0.020 A 
ATOM     87  C   UNL A   1      49.826  34.579  35.584  1.00  0.00     0.020 A 
ATOM     88  C   UNL A   1      48.995  34.134  36.615  1.00  0.00     0.054 A 
BRANCH  88  89
ATOM     89  S   UNL A   1      49.683  33.169  37.989  1.00  0.00     0.124 S 
ATOM     90  O   UNL A   1      48.591  32.250  38.291  1.00  0.00    -0.237 OA
ATOM     91  O   UNL A   1      50.872  32.566  37.390  1.00  0.00    -0.237 OA
ATOM     92  O   UNL A   1      49.956  34.179  39.010  1.00  0.00    -0.744 OA
ENDBRANCH  88  89
ENDBRANCH  60  83
BRANCH  72  93
ATOM     93  C   UNL A   1      46.647  42.334  33.382  1.00  0.00    -0.014 A 
ATOM     94  C   UNL A   1      45.555  42.920  34.046  1.00  0.00     0.010 A 
ATOM     95  C   UNL A   1      47.939  42.852  33.589  1.00  0.00     0.010 A 
ATOM     96  C   UNL A   1      45.751  44.020  34.885  1.00  0.00     0.020 A 
ATOM     97  C   UNL A   1      48.139  43.938  34.444  1.00  0.00     0.020 A 
ATOM     98  C   UNL A   1      47.042  44.522  35.079  1.00  0.00     0.054 A 
BRANCH  98  99
ATOM     99  S   UNL A   1      47.280  45.915  36.217  1.00  0.00     0.124 S 
ATOM    100  O   UNL A   1      46.069  46.699  35.993  1.00  0.00    -0.237 OA
ATOM    101  O   UNL A   1      47.372  45.258  37.518  1.00  0.00    -0.237 OA
ATOM    102  O   UNL A   1      48.519  46.533  35.751  1.00  0.00    -0.744 OA
ENDBRANCH  98  99
ENDBRANCH  72  93
ENDBRANCH  46  47
ENDBRANCH  39  41
ENDBRANCH  38  39
ENDBRANCH  37  38
ENDBRANCH  36  37
ENDBRANCH  35  36
ENDBRANCH  34  35
ENDBRANCH  33  34
ENDBRANCH   1  33
TORSDOF 26
ENDMDL
