MODEL 1
REMARK VINA RESULT:      -8.8      0.000      0.000
REMARK SMILES CC(C)Cc1ccc([C@@H](C)C(=O)OCCOCCOCCOCCOC(=O)c2ccc(-c3c4nc(c(-c5ccc(S(=O)(=O)[O-])cc5)c5ccc([nH]5)c(-c5ccc(S(=O)(=O)[O-])cc5)c5nc(c(-c6ccc(S(=O)(=O)[O-])cc6)c6ccc3[nH]6)C=C5)C=C4)cc2)cc1
REMARK SMILES IDX 19 1 18 2 17 3 16 4 15 5 14 6 13 7 11 8 12 9 9 10 10 11 8 12
REMARK SMILES IDX 5 13 6 14 89 15 7 16 88 17 4 18 2 19 1 20 3 21 20 22 21 23
REMARK SMILES IDX 22 24 23 25 24 26 25 27 26 28 27 29 28 30 29 31 87 32 30 33
REMARK SMILES IDX 86 34 31 35 32 36 33 37 80 38 34 39 85 40 79 41 81 42 35 43
REMARK SMILES IDX 84 44 78 45 77 46 36 48 66 49 47 50 65 51 48 52 51 53 64 54
REMARK SMILES IDX 82 55 49 56 50 57 63 59 83 60 52 61 37 62 38 63 46 64 39 65
REMARK SMILES IDX 45 66 40 67 41 68 42 69 43 70 44 71 67 72 68 73 76 74 69 75
REMARK SMILES IDX 75 76 70 77 71 78 72 79 73 80 74 81 53 82 54 83 62 84 55 85
REMARK SMILES IDX 61 86 56 87 57 88 58 89 59 90 60 91
REMARK H PARENT 81 47 51 58
REMARK Flexibility Score: inf
ROOT
ATOM      1  O   UNL A   1      39.378  22.192  26.877  1.00  0.00    -0.377 OA
ENDROOT
BRANCH   1   2
ATOM      2  C   UNL A   1      39.231  23.415  26.187  1.00  0.00     0.188 C 
BRANCH   2   3
ATOM      3  C   UNL A   1      37.795  23.758  25.766  1.00  0.00     0.188 C 
BRANCH   3   4
ATOM      4  O   UNL A   1      36.735  22.823  25.920  1.00  0.00    -0.376 OA
BRANCH   4   5
ATOM      5  C   UNL A   1      35.390  23.265  26.042  1.00  0.00     0.202 C 
BRANCH   5   6
ATOM      6  C   UNL A   1      34.215  22.273  25.943  1.00  0.00     0.261 C 
BRANCH   6   7
ATOM      7  O   UNL A   1      32.894  22.838  25.837  1.00  0.00    -0.463 OA
BRANCH   7   8
ATOM      8  C   UNL A   1      32.240  23.080  26.996  1.00  0.00     0.313 C 
ATOM      9  O   UNL A   1      32.599  22.631  28.084  1.00  0.00    -0.252 OA
BRANCH   8  10
ATOM     10  C   UNL A   1      30.986  23.946  26.885  1.00  0.00     0.126 C 
ATOM     11  C   UNL A   1      29.790  23.042  26.608  1.00  0.00     0.025 C 
BRANCH  10  12
ATOM     12  C   UNL A   1      30.953  25.173  25.977  1.00  0.00    -0.034 A 
ATOM     13  C   UNL A   1      30.954  27.517  24.358  1.00  0.00    -0.048 A 
ATOM     14  C   UNL A   1      30.496  26.290  23.859  1.00  0.00     0.004 A 
ATOM     15  C   UNL A   1      31.451  27.555  25.665  1.00  0.00     0.004 A 
ATOM     16  C   UNL A   1      30.469  25.141  24.664  1.00  0.00     0.005 A 
ATOM     17  C   UNL A   1      31.441  26.405  26.464  1.00  0.00     0.005 A 
BRANCH  13  18
ATOM     18  C   UNL A   1      30.918  28.781  23.520  1.00  0.00     0.038 C 
BRANCH  18  19
ATOM     19  C   UNL A   1      29.555  29.512  23.512  1.00  0.00    -0.013 C 
ATOM     20  C   UNL A   1      29.679  30.973  23.956  1.00  0.00     0.008 C 
ATOM     21  C   UNL A   1      28.921  29.457  22.119  1.00  0.00     0.008 C 
ENDBRANCH  18  19
ENDBRANCH  13  18
ENDBRANCH  10  12
ENDBRANCH   8  10
ENDBRANCH   7   8
ENDBRANCH   6   7
ENDBRANCH   5   6
ENDBRANCH   4   5
ENDBRANCH   3   4
ENDBRANCH   2   3
ENDBRANCH   1   2
BRANCH   1  22
ATOM     22  C   UNL A   1      39.945  21.116  26.149  1.00  0.00     0.188 C 
BRANCH  22  23
ATOM     23  C   UNL A   1      40.824  20.130  26.940  1.00  0.00     0.188 C 
BRANCH  23  24
ATOM     24  O   UNL A   1      42.134  20.615  27.213  1.00  0.00    -0.376 OA
BRANCH  24  25
ATOM     25  C   UNL A   1      43.040  20.783  26.132  1.00  0.00     0.202 C 
BRANCH  25  26
ATOM     26  C   UNL A   1      43.556  22.198  25.807  1.00  0.00     0.261 C 
BRANCH  26  27
ATOM     27  O   UNL A   1      42.844  23.307  26.379  1.00  0.00    -0.460 OA
BRANCH  27  28
ATOM     28  C   UNL A   1      43.090  24.543  25.901  1.00  0.00     0.338 C 
ATOM     29  O   UNL A   1      43.531  24.827  24.799  1.00  0.00    -0.246 OA
BRANCH  28  30
ATOM     30  C   UNL A   1      42.538  25.522  26.864  1.00  0.00     0.060 A 
ATOM     31  C   UNL A   1      42.930  26.864  26.765  1.00  0.00     0.016 A 
ATOM     32  C   UNL A   1      41.640  25.123  27.857  1.00  0.00     0.016 A 
ATOM     33  C   UNL A   1      42.458  27.803  27.683  1.00  0.00     0.010 A 
ATOM     34  C   UNL A   1      41.189  26.061  28.794  1.00  0.00     0.010 A 
ATOM     35  C   UNL A   1      41.625  27.397  28.733  1.00  0.00    -0.014 A 
BRANCH  35  36
ATOM     36  C   UNL A   1      41.382  28.315  29.875  1.00  0.00     0.031 A 
ATOM     37  C   UNL A   1      42.249  28.171  31.099  1.00  0.00     0.074 A 
ATOM     38  C   UNL A   1      40.429  29.265  29.828  1.00  0.00     0.049 A 
ATOM     39  N   UNL A   1      42.195  28.818  32.233  1.00  0.00    -0.248 NA
ATOM     40  C   UNL A   1      43.320  27.161  31.034  1.00  0.00     0.031 C 
ATOM     41  C   UNL A   1      39.556  29.537  28.686  1.00  0.00     0.029 A 
ATOM     42  N   UNL A   1      40.031  30.174  30.778  1.00  0.00    -0.354 N 
ATOM     43  C   UNL A   1      43.203  28.278  33.025  1.00  0.00     0.074 A 
ATOM     44  C   UNL A   1      43.847  27.243  32.247  1.00  0.00     0.031 C 
ATOM     45  C   UNL A   1      38.713  30.534  29.010  1.00  0.00     0.029 A 
ATOM     46  C   UNL A   1      38.958  30.945  30.391  1.00  0.00     0.049 A 
ATOM     47  H   UNL A   1      40.472  30.266  31.653  1.00  0.00     0.167 HD
ATOM     48  C   UNL A   1      43.556  28.611  34.287  1.00  0.00     0.031 A 
ATOM     49  C   UNL A   1      38.240  31.853  31.084  1.00  0.00     0.031 A 
ATOM     50  C   UNL A   1      42.918  29.645  35.056  1.00  0.00     0.049 A 
ATOM     51  C   UNL A   1      38.620  32.161  32.513  1.00  0.00     0.074 A 
ATOM     52  C   UNL A   1      43.238  30.087  36.328  1.00  0.00     0.029 A 
ATOM     53  N   UNL A   1      41.827  30.388  34.636  1.00  0.00    -0.354 N 
ATOM     54  N   UNL A   1      39.610  31.680  33.227  1.00  0.00    -0.248 NA
ATOM     55  C   UNL A   1      37.791  33.144  33.227  1.00  0.00     0.031 C 
ATOM     56  C   UNL A   1      42.292  31.043  36.707  1.00  0.00     0.029 A 
ATOM     57  C   UNL A   1      41.434  31.256  35.640  1.00  0.00     0.049 A 
ATOM     58  H   UNL A   1      41.395  30.311  33.755  1.00  0.00     0.167 HD
ATOM     59  C   UNL A   1      39.541  32.328  34.458  1.00  0.00     0.074 A 
ATOM     60  C   UNL A   1      38.427  33.247  34.385  1.00  0.00     0.031 C 
ATOM     61  C   UNL A   1      40.330  32.177  35.551  1.00  0.00     0.031 A 
BRANCH  48  62
ATOM     62  C   UNL A   1      44.654  27.823  34.950  1.00  0.00    -0.014 A 
ATOM     63  C   UNL A   1      44.385  26.656  35.685  1.00  0.00     0.010 A 
ATOM     64  C   UNL A   1      45.992  28.212  34.745  1.00  0.00     0.010 A 
ATOM     65  C   UNL A   1      45.435  25.897  36.211  1.00  0.00     0.020 A 
ATOM     66  C   UNL A   1      47.044  27.441  35.245  1.00  0.00     0.020 A 
ATOM     67  C   UNL A   1      46.758  26.290  35.979  1.00  0.00     0.054 A 
BRANCH  67  68
ATOM     68  S   UNL A   1      48.099  25.242  36.606  1.00  0.00     0.124 S 
ATOM     69  O   UNL A   1      49.200  25.592  35.711  1.00  0.00    -0.237 OA
ATOM     70  O   UNL A   1      48.242  25.699  37.985  1.00  0.00    -0.237 OA
ATOM     71  O   UNL A   1      47.581  23.885  36.452  1.00  0.00    -0.744 OA
ENDBRANCH  67  68
ENDBRANCH  48  62
BRANCH  49  72
ATOM     72  C   UNL A   1      37.051  32.509  30.466  1.00  0.00    -0.014 A 
ATOM     73  C   UNL A   1      37.196  33.583  29.569  1.00  0.00     0.010 A 
ATOM     74  C   UNL A   1      35.754  32.097  30.825  1.00  0.00     0.010 A 
ATOM     75  C   UNL A   1      36.073  34.258  29.080  1.00  0.00     0.020 A 
ATOM     76  C   UNL A   1      34.628  32.745  30.310  1.00  0.00     0.020 A 
ATOM     77  C   UNL A   1      34.794  33.836  29.457  1.00  0.00     0.054 A 
BRANCH  77  78
ATOM     78  S   UNL A   1      33.350  34.723  28.809  1.00  0.00     0.124 S 
ATOM     79  O   UNL A   1      33.961  35.915  28.229  1.00  0.00    -0.237 OA
ATOM     80  O   UNL A   1      32.797  33.767  27.855  1.00  0.00    -0.237 OA
ATOM     81  O   UNL A   1      32.531  34.955  29.996  1.00  0.00    -0.744 OA
ENDBRANCH  77  78
ENDBRANCH  49  72
BRANCH  61  82
ATOM     82  C   UNL A   1      40.060  33.060  36.743  1.00  0.00    -0.014 A 
ATOM     83  C   UNL A   1      39.092  32.723  37.705  1.00  0.00     0.010 A 
ATOM     84  C   UNL A   1      40.838  34.218  36.931  1.00  0.00     0.010 A 
ATOM     85  C   UNL A   1      38.883  33.547  38.816  1.00  0.00     0.020 A 
ATOM     86  C   UNL A   1      40.657  35.025  38.058  1.00  0.00     0.020 A 
ATOM     87  C   UNL A   1      39.670  34.692  38.986  1.00  0.00     0.054 A 
BRANCH  87  88
ATOM     88  S   UNL A   1      39.408  35.720  40.457  1.00  0.00     0.124 S 
ATOM     89  O   UNL A   1      38.733  36.887  39.896  1.00  0.00    -0.237 OA
ATOM     90  O   UNL A   1      38.583  34.862  41.303  1.00  0.00    -0.237 OA
ATOM     91  O   UNL A   1      40.760  35.964  40.956  1.00  0.00    -0.744 OA
ENDBRANCH  87  88
ENDBRANCH  61  82
ENDBRANCH  35  36
ENDBRANCH  28  30
ENDBRANCH  27  28
ENDBRANCH  26  27
ENDBRANCH  25  26
ENDBRANCH  24  25
ENDBRANCH  23  24
ENDBRANCH  22  23
ENDBRANCH   1  22
TORSDOF 26
ENDMDL
MODEL 2
REMARK VINA RESULT:      -8.3      2.222      8.491
REMARK SMILES CC(C)Cc1ccc([C@@H](C)C(=O)OCCOCCOCCOCCOC(=O)c2ccc(-c3c4nc(c(-c5ccc(S(=O)(=O)[O-])cc5)c5ccc([nH]5)c(-c5ccc(S(=O)(=O)[O-])cc5)c5nc(c(-c6ccc(S(=O)(=O)[O-])cc6)c6ccc3[nH]6)C=C5)C=C4)cc2)cc1
REMARK SMILES IDX 19 1 18 2 17 3 16 4 15 5 14 6 13 7 11 8 12 9 9 10 10 11 8 12
REMARK SMILES IDX 5 13 6 14 89 15 7 16 88 17 4 18 2 19 1 20 3 21 20 22 21 23
REMARK SMILES IDX 22 24 23 25 24 26 25 27 26 28 27 29 28 30 29 31 87 32 30 33
REMARK SMILES IDX 86 34 31 35 32 36 33 37 80 38 34 39 85 40 79 41 81 42 35 43
REMARK SMILES IDX 84 44 78 45 77 46 36 48 66 49 47 50 65 51 48 52 51 53 64 54
REMARK SMILES IDX 82 55 49 56 50 57 63 59 83 60 52 61 37 62 38 63 46 64 39 65
REMARK SMILES IDX 45 66 40 67 41 68 42 69 43 70 44 71 67 72 68 73 76 74 69 75
REMARK SMILES IDX 75 76 70 77 71 78 72 79 73 80 74 81 53 82 54 83 62 84 55 85
REMARK SMILES IDX 61 86 56 87 57 88 58 89 59 90 60 91
REMARK H PARENT 81 47 51 58
REMARK Flexibility Score: inf
ROOT
ATOM      1  O   UNL A   1      40.247  21.058  27.191  1.00  0.00    -0.377 OA
ENDROOT
BRANCH   1   2
ATOM      2  C   UNL A   1      39.672  22.305  26.868  1.00  0.00     0.188 C 
BRANCH   2   3
ATOM      3  C   UNL A   1      38.501  22.247  25.877  1.00  0.00     0.188 C 
BRANCH   3   4
ATOM      4  O   UNL A   1      37.596  23.336  25.735  1.00  0.00    -0.376 OA
BRANCH   4   5
ATOM      5  C   UNL A   1      36.214  23.171  26.021  1.00  0.00     0.202 C 
BRANCH   5   6
ATOM      6  C   UNL A   1      35.511  21.820  25.792  1.00  0.00     0.261 C 
BRANCH   6   7
ATOM      7  O   UNL A   1      35.207  21.467  24.430  1.00  0.00    -0.463 OA
BRANCH   7   8
ATOM      8  C   UNL A   1      34.579  22.403  23.683  1.00  0.00     0.313 C 
ATOM      9  O   UNL A   1      35.160  23.126  22.872  1.00  0.00    -0.252 OA
BRANCH   8  10
ATOM     10  C   UNL A   1      33.075  22.542  23.913  1.00  0.00     0.126 C 
ATOM     11  C   UNL A   1      32.340  21.744  22.842  1.00  0.00     0.025 C 
BRANCH  10  12
ATOM     12  C   UNL A   1      32.429  23.913  24.098  1.00  0.00    -0.034 A 
ATOM     13  C   UNL A   1      31.313  26.503  24.504  1.00  0.00    -0.048 A 
ATOM     14  C   UNL A   1      30.751  25.605  23.585  1.00  0.00     0.004 A 
ATOM     15  C   UNL A   1      32.465  26.108  25.192  1.00  0.00     0.004 A 
ATOM     16  C   UNL A   1      31.282  24.319  23.405  1.00  0.00     0.005 A 
ATOM     17  C   UNL A   1      33.008  24.832  25.000  1.00  0.00     0.005 A 
BRANCH  13  18
ATOM     18  C   UNL A   1      30.701  27.866  24.761  1.00  0.00     0.038 C 
BRANCH  18  19
ATOM     19  C   UNL A   1      31.201  28.986  23.819  1.00  0.00    -0.013 C 
ATOM     20  C   UNL A   1      32.169  28.459  22.755  1.00  0.00     0.008 C 
ATOM     21  C   UNL A   1      30.020  29.680  23.131  1.00  0.00     0.008 C 
ENDBRANCH  18  19
ENDBRANCH  13  18
ENDBRANCH  10  12
ENDBRANCH   8  10
ENDBRANCH   7   8
ENDBRANCH   6   7
ENDBRANCH   5   6
ENDBRANCH   4   5
ENDBRANCH   3   4
ENDBRANCH   2   3
ENDBRANCH   1   2
BRANCH   1  22
ATOM     22  C   UNL A   1      40.596  20.218  26.103  1.00  0.00     0.188 C 
BRANCH  22  23
ATOM     23  C   UNL A   1      41.609  19.095  26.391  1.00  0.00     0.188 C 
BRANCH  23  24
ATOM     24  O   UNL A   1      42.968  19.512  26.326  1.00  0.00    -0.376 OA
BRANCH  24  25
ATOM     25  C   UNL A   1      43.683  19.329  25.112  1.00  0.00     0.202 C 
BRANCH  25  26
ATOM     26  C   UNL A   1      44.822  20.306  24.766  1.00  0.00     0.261 C 
BRANCH  26  27
ATOM     27  O   UNL A   1      44.812  21.588  25.415  1.00  0.00    -0.460 OA
BRANCH  27  28
ATOM     28  C   UNL A   1      44.038  22.563  24.901  1.00  0.00     0.338 C 
ATOM     29  O   UNL A   1      43.562  22.603  23.777  1.00  0.00    -0.246 OA
BRANCH  28  30
ATOM     30  C   UNL A   1      43.684  23.491  25.998  1.00  0.00     0.060 A 
ATOM     31  C   UNL A   1      43.971  24.855  25.851  1.00  0.00     0.016 A 
ATOM     32  C   UNL A   1      43.071  23.023  27.164  1.00  0.00     0.016 A 
ATOM     33  C   UNL A   1      43.685  25.748  26.884  1.00  0.00     0.010 A 
ATOM     34  C   UNL A   1      42.811  23.916  28.209  1.00  0.00     0.010 A 
ATOM     35  C   UNL A   1      43.150  25.276  28.089  1.00  0.00    -0.014 A 
BRANCH  35  36
ATOM     36  C   UNL A   1      43.141  26.157  29.284  1.00  0.00     0.031 A 
ATOM     37  C   UNL A   1      41.979  27.099  29.463  1.00  0.00     0.074 A 
ATOM     38  C   UNL A   1      44.126  26.116  30.201  1.00  0.00     0.049 A 
ATOM     39  N   UNL A   1      41.774  27.995  30.393  1.00  0.00    -0.248 NA
ATOM     40  C   UNL A   1      40.904  27.022  28.457  1.00  0.00     0.031 C 
ATOM     41  C   UNL A   1      45.280  25.217  30.167  1.00  0.00     0.029 A 
ATOM     42  N   UNL A   1      44.317  26.863  31.338  1.00  0.00    -0.354 N 
ATOM     43  C   UNL A   1      40.565  28.604  30.072  1.00  0.00     0.074 A 
ATOM     44  C   UNL A   1      40.087  27.985  28.856  1.00  0.00     0.031 C 
ATOM     45  C   UNL A   1      46.067  25.478  31.227  1.00  0.00     0.029 A 
ATOM     46  C   UNL A   1      45.496  26.585  31.992  1.00  0.00     0.049 A 
ATOM     47  H   UNL A   1      43.670  27.533  31.656  1.00  0.00     0.167 HD
ATOM     48  C   UNL A   1      39.917  29.593  30.727  1.00  0.00     0.031 A 
ATOM     49  C   UNL A   1      46.060  27.178  33.064  1.00  0.00     0.031 A 
ATOM     50  C   UNL A   1      40.393  30.202  31.940  1.00  0.00     0.049 A 
ATOM     51  C   UNL A   1      45.342  28.322  33.740  1.00  0.00     0.074 A 
ATOM     52  C   UNL A   1      39.779  31.181  32.704  1.00  0.00     0.029 A 
ATOM     53  N   UNL A   1      41.597  29.906  32.558  1.00  0.00    -0.354 N 
ATOM     54  N   UNL A   1      44.174  28.848  33.454  1.00  0.00    -0.248 NA
ATOM     55  C   UNL A   1      46.013  28.945  34.891  1.00  0.00     0.031 C 
ATOM     56  C   UNL A   1      40.648  31.531  33.740  1.00  0.00     0.029 A 
ATOM     57  C   UNL A   1      41.764  30.713  33.670  1.00  0.00     0.049 A 
ATOM     58  H   UNL A   1      42.237  29.224  32.252  1.00  0.00     0.167 HD
ATOM     59  C   UNL A   1      43.958  29.837  34.411  1.00  0.00     0.074 A 
ATOM     60  C   UNL A   1      45.105  29.823  35.293  1.00  0.00     0.031 C 
ATOM     61  C   UNL A   1      42.905  30.681  34.549  1.00  0.00     0.031 A 
BRANCH  48  62
ATOM     62  C   UNL A   1      38.640  30.124  30.131  1.00  0.00    -0.014 A 
ATOM     63  C   UNL A   1      37.396  29.529  30.403  1.00  0.00     0.010 A 
ATOM     64  C   UNL A   1      38.684  31.302  29.363  1.00  0.00     0.010 A 
ATOM     65  C   UNL A   1      36.219  30.099  29.909  1.00  0.00     0.020 A 
ATOM     66  C   UNL A   1      37.509  31.891  28.890  1.00  0.00     0.020 A 
ATOM     67  C   UNL A   1      36.283  31.283  29.163  1.00  0.00     0.054 A 
BRANCH  67  68
ATOM     68  S   UNL A   1      34.735  32.042  28.603  1.00  0.00     0.124 S 
ATOM     69  O   UNL A   1      34.193  32.579  29.850  1.00  0.00    -0.237 OA
ATOM     70  O   UNL A   1      35.198  33.036  27.640  1.00  0.00    -0.237 OA
ATOM     71  O   UNL A   1      33.986  30.925  28.031  1.00  0.00    -0.744 OA
ENDBRANCH  67  68
ENDBRANCH  48  62
BRANCH  49  72
ATOM     72  C   UNL A   1      47.406  26.748  33.546  1.00  0.00    -0.014 A 
ATOM     73  C   UNL A   1      47.553  25.631  34.388  1.00  0.00     0.010 A 
ATOM     74  C   UNL A   1      48.547  27.501  33.211  1.00  0.00     0.010 A 
ATOM     75  C   UNL A   1      48.805  25.302  34.919  1.00  0.00     0.020 A 
ATOM     76  C   UNL A   1      49.806  27.154  33.710  1.00  0.00     0.020 A 
ATOM     77  C   UNL A   1      49.924  26.068  34.579  1.00  0.00     0.054 A 
BRANCH  77  78
ATOM     78  S   UNL A   1      51.538  25.623  35.276  1.00  0.00     0.124 S 
ATOM     79  O   UNL A   1      52.165  26.930  35.448  1.00  0.00    -0.237 OA
ATOM     80  O   UNL A   1      51.168  24.931  36.508  1.00  0.00    -0.237 OA
ATOM     81  O   UNL A   1      52.133  24.774  34.247  1.00  0.00    -0.744 OA
ENDBRANCH  77  78
ENDBRANCH  49  72
BRANCH  61  82
ATOM     82  C   UNL A   1      42.908  31.625  35.725  1.00  0.00    -0.014 A 
ATOM     83  C   UNL A   1      43.407  32.934  35.617  1.00  0.00     0.010 A 
ATOM     84  C   UNL A   1      42.339  31.208  36.943  1.00  0.00     0.010 A 
ATOM     85  C   UNL A   1      43.370  33.797  36.717  1.00  0.00     0.020 A 
ATOM     86  C   UNL A   1      42.267  32.078  38.033  1.00  0.00     0.020 A 
ATOM     87  C   UNL A   1      42.797  33.364  37.918  1.00  0.00     0.054 A 
BRANCH  87  88
ATOM     88  S   UNL A   1      42.723  34.517  39.316  1.00  0.00     0.124 S 
ATOM     89  O   UNL A   1      41.900  35.596  38.777  1.00  0.00    -0.237 OA
ATOM     90  O   UNL A   1      42.098  33.711  40.361  1.00  0.00    -0.237 OA
ATOM     91  O   UNL A   1      44.122  34.863  39.556  1.00  0.00    -0.744 OA
ENDBRANCH  87  88
ENDBRANCH  61  82
ENDBRANCH  35  36
ENDBRANCH  28  30
ENDBRANCH  27  28
ENDBRANCH  26  27
ENDBRANCH  25  26
ENDBRANCH  24  25
ENDBRANCH  23  24
ENDBRANCH  22  23
ENDBRANCH   1  22
TORSDOF 26
ENDMDL
MODEL 3
REMARK VINA RESULT:      -7.7      4.432     12.363
REMARK SMILES CC(C)Cc1ccc([C@@H](C)C(=O)OCCOCCOCCOCCOC(=O)c2ccc(-c3c4nc(c(-c5ccc(S(=O)(=O)[O-])cc5)c5ccc([nH]5)c(-c5ccc(S(=O)(=O)[O-])cc5)c5nc(c(-c6ccc(S(=O)(=O)[O-])cc6)c6ccc3[nH]6)C=C5)C=C4)cc2)cc1
REMARK SMILES IDX 19 1 18 2 17 3 16 4 15 5 14 6 13 7 11 8 12 9 9 10 10 11 8 12
REMARK SMILES IDX 5 13 6 14 89 15 7 16 88 17 4 18 2 19 1 20 3 21 20 22 21 23
REMARK SMILES IDX 22 24 23 25 24 26 25 27 26 28 27 29 28 30 29 31 87 32 30 33
REMARK SMILES IDX 86 34 31 35 32 36 33 37 80 38 34 39 85 40 79 41 81 42 35 43
REMARK SMILES IDX 84 44 78 45 77 46 36 48 66 49 47 50 65 51 48 52 51 53 64 54
REMARK SMILES IDX 82 55 49 56 50 57 63 59 83 60 52 61 37 62 38 63 46 64 39 65
REMARK SMILES IDX 45 66 40 67 41 68 42 69 43 70 44 71 67 72 68 73 76 74 69 75
REMARK SMILES IDX 75 76 70 77 71 78 72 79 73 80 74 81 53 82 54 83 62 84 55 85
REMARK SMILES IDX 61 86 56 87 57 88 58 89 59 90 60 91
REMARK H PARENT 81 47 51 58
REMARK Flexibility Score: inf
ROOT
ATOM      1  O   UNL A   1      39.711  34.933  32.433  1.00  0.00    -0.377 OA
ENDROOT
BRANCH   1   2
ATOM      2  C   UNL A   1      40.076  34.332  31.210  1.00  0.00     0.188 C 
BRANCH   2   3
ATOM      3  C   UNL A   1      41.577  34.051  31.043  1.00  0.00     0.188 C 
BRANCH   3   4
ATOM      4  O   UNL A   1      42.069  33.287  29.950  1.00  0.00    -0.376 OA
BRANCH   4   5
ATOM      5  C   UNL A   1      42.868  32.133  30.173  1.00  0.00     0.202 C 
BRANCH   5   6
ATOM      6  C   UNL A   1      42.933  30.998  29.133  1.00  0.00     0.261 C 
BRANCH   6   7
ATOM      7  O   UNL A   1      44.242  30.606  28.680  1.00  0.00    -0.463 OA
BRANCH   7   8
ATOM      8  C   UNL A   1      44.314  29.494  27.913  1.00  0.00     0.313 C 
ATOM      9  O   UNL A   1      43.331  28.821  27.600  1.00  0.00    -0.252 OA
BRANCH   8  10
ATOM     10  C   UNL A   1      45.714  29.088  27.455  1.00  0.00     0.126 C 
ATOM     11  C   UNL A   1      45.612  28.448  26.076  1.00  0.00     0.025 C 
BRANCH  10  12
ATOM     12  C   UNL A   1      46.632  28.270  28.361  1.00  0.00    -0.034 A 
ATOM     13  C   UNL A   1      48.371  26.680  29.963  1.00  0.00    -0.048 A 
ATOM     14  C   UNL A   1      47.851  27.892  30.438  1.00  0.00     0.004 A 
ATOM     15  C   UNL A   1      48.044  26.286  28.661  1.00  0.00     0.004 A 
ATOM     16  C   UNL A   1      46.973  28.662  29.660  1.00  0.00     0.005 A 
ATOM     17  C   UNL A   1      47.181  27.063  27.877  1.00  0.00     0.005 A 
BRANCH  13  18
ATOM     18  C   UNL A   1      49.260  25.803  30.823  1.00  0.00     0.038 C 
BRANCH  18  19
ATOM     19  C   UNL A   1      50.765  25.866  30.470  1.00  0.00    -0.013 C 
ATOM     20  C   UNL A   1      51.225  27.291  30.150  1.00  0.00     0.008 C 
ATOM     21  C   UNL A   1      51.611  25.305  31.616  1.00  0.00     0.008 C 
ENDBRANCH  18  19
ENDBRANCH  13  18
ENDBRANCH  10  12
ENDBRANCH   8  10
ENDBRANCH   7   8
ENDBRANCH   6   7
ENDBRANCH   5   6
ENDBRANCH   4   5
ENDBRANCH   3   4
ENDBRANCH   2   3
ENDBRANCH   1   2
BRANCH   1  22
ATOM     22  C   UNL A   1      38.437  34.591  32.954  1.00  0.00     0.188 C 
BRANCH  22  23
ATOM     23  C   UNL A   1      37.428  33.973  31.968  1.00  0.00     0.188 C 
BRANCH  23  24
ATOM     24  O   UNL A   1      36.079  34.357  32.205  1.00  0.00    -0.376 OA
BRANCH  24  25
ATOM     25  C   UNL A   1      35.087  33.995  31.255  1.00  0.00     0.202 C 
BRANCH  25  26
ATOM     26  C   UNL A   1      34.836  32.501  30.974  1.00  0.00     0.261 C 
BRANCH  26  27
ATOM     27  O   UNL A   1      34.312  32.151  29.683  1.00  0.00    -0.460 OA
BRANCH  27  28
ATOM     28  C   UNL A   1      35.130  32.227  28.615  1.00  0.00     0.338 C 
ATOM     29  O   UNL A   1      34.978  32.926  27.626  1.00  0.00    -0.246 OA
BRANCH  28  30
ATOM     30  C   UNL A   1      36.363  31.472  28.931  1.00  0.00     0.060 A 
ATOM     31  C   UNL A   1      36.249  30.157  29.403  1.00  0.00     0.016 A 
ATOM     32  C   UNL A   1      37.623  32.052  28.761  1.00  0.00     0.016 A 
ATOM     33  C   UNL A   1      37.392  29.433  29.747  1.00  0.00     0.010 A 
ATOM     34  C   UNL A   1      38.765  31.334  29.133  1.00  0.00     0.010 A 
ATOM     35  C   UNL A   1      38.653  30.036  29.662  1.00  0.00    -0.014 A 
BRANCH  35  36
ATOM     36  C   UNL A   1      39.821  29.391  30.315  1.00  0.00     0.031 A 
ATOM     37  C   UNL A   1      40.307  29.962  31.622  1.00  0.00     0.074 A 
ATOM     38  C   UNL A   1      40.428  28.317  29.779  1.00  0.00     0.049 A 
ATOM     39  N   UNL A   1      41.331  29.606  32.352  1.00  0.00    -0.248 NA
ATOM     40  C   UNL A   1      39.535  31.088  32.180  1.00  0.00     0.031 C 
ATOM     41  C   UNL A   1      40.024  27.642  28.544  1.00  0.00     0.029 A 
ATOM     42  N   UNL A   1      41.526  27.609  30.203  1.00  0.00    -0.354 N 
ATOM     43  C   UNL A   1      41.343  30.476  33.437  1.00  0.00     0.074 A 
ATOM     44  C   UNL A   1      40.232  31.384  33.267  1.00  0.00     0.031 C 
ATOM     45  C   UNL A   1      40.876  26.629  28.304  1.00  0.00     0.029 A 
ATOM     46  C   UNL A   1      41.906  26.606  29.342  1.00  0.00     0.049 A 
ATOM     47  H   UNL A   1      41.998  27.802  31.046  1.00  0.00     0.167 HD
ATOM     48  C   UNL A   1      42.207  30.516  34.478  1.00  0.00     0.031 A 
ATOM     49  C   UNL A   1      42.977  25.786  29.373  1.00  0.00     0.031 A 
ATOM     50  C   UNL A   1      43.308  29.607  34.647  1.00  0.00     0.049 A 
ATOM     51  C   UNL A   1      43.958  25.895  30.517  1.00  0.00     0.074 A 
ATOM     52  C   UNL A   1      44.209  29.541  35.696  1.00  0.00     0.029 A 
ATOM     53  N   UNL A   1      43.667  28.619  33.746  1.00  0.00    -0.354 N 
ATOM     54  N   UNL A   1      43.923  26.687  31.562  1.00  0.00    -0.248 NA
ATOM     55  C   UNL A   1      45.118  24.991  30.489  1.00  0.00     0.031 C 
ATOM     56  C   UNL A   1      45.159  28.564  35.391  1.00  0.00     0.029 A 
ATOM     57  C   UNL A   1      44.802  27.966  34.193  1.00  0.00     0.049 A 
ATOM     58  H   UNL A   1      43.187  28.412  32.912  1.00  0.00     0.167 HD
ATOM     59  C   UNL A   1      45.034  26.350  32.331  1.00  0.00     0.074 A 
ATOM     60  C   UNL A   1      45.710  25.273  31.642  1.00  0.00     0.031 C 
ATOM     61  C   UNL A   1      45.458  26.884  33.504  1.00  0.00     0.031 A 
BRANCH  48  62
ATOM     62  C   UNL A   1      42.035  31.607  35.502  1.00  0.00    -0.014 A 
ATOM     63  C   UNL A   1      41.234  31.428  36.643  1.00  0.00     0.010 A 
ATOM     64  C   UNL A   1      42.773  32.797  35.361  1.00  0.00     0.010 A 
ATOM     65  C   UNL A   1      41.168  32.426  37.620  1.00  0.00     0.020 A 
ATOM     66  C   UNL A   1      42.732  33.785  36.348  1.00  0.00     0.020 A 
ATOM     67  C   UNL A   1      41.925  33.594  37.471  1.00  0.00     0.054 A 
BRANCH  67  68
ATOM     68  S   UNL A   1      41.881  34.834  38.793  1.00  0.00     0.124 S 
ATOM     69  O   UNL A   1      43.194  35.461  38.664  1.00  0.00    -0.237 OA
ATOM     70  O   UNL A   1      40.746  35.669  38.407  1.00  0.00    -0.237 OA
ATOM     71  O   UNL A   1      41.686  34.043  40.005  1.00  0.00    -0.744 OA
ENDBRANCH  67  68
ENDBRANCH  48  62
BRANCH  49  72
ATOM     72  C   UNL A   1      43.222  24.817  28.264  1.00  0.00    -0.014 A 
ATOM     73  C   UNL A   1      42.750  23.495  28.336  1.00  0.00     0.010 A 
ATOM     74  C   UNL A   1      43.991  25.204  27.150  1.00  0.00     0.010 A 
ATOM     75  C   UNL A   1      43.077  22.568  27.340  1.00  0.00     0.020 A 
ATOM     76  C   UNL A   1      44.290  24.291  26.135  1.00  0.00     0.020 A 
ATOM     77  C   UNL A   1      43.849  22.972  26.247  1.00  0.00     0.054 A 
BRANCH  77  78
ATOM     78  S   UNL A   1      44.261  21.755  24.966  1.00  0.00     0.124 S 
ATOM     79  O   UNL A   1      43.309  20.685  25.246  1.00  0.00    -0.237 OA
ATOM     80  O   UNL A   1      44.027  22.505  23.735  1.00  0.00    -0.237 OA
ATOM     81  O   UNL A   1      45.660  21.434  25.236  1.00  0.00    -0.744 OA
ENDBRANCH  77  78
ENDBRANCH  49  72
BRANCH  61  82
ATOM     82  C   UNL A   1      46.679  26.281  34.153  1.00  0.00    -0.014 A 
ATOM     83  C   UNL A   1      47.956  26.843  33.985  1.00  0.00     0.010 A 
ATOM     84  C   UNL A   1      46.527  25.165  34.998  1.00  0.00     0.010 A 
ATOM     85  C   UNL A   1      49.065  26.277  34.623  1.00  0.00     0.020 A 
ATOM     86  C   UNL A   1      47.627  24.620  35.665  1.00  0.00     0.020 A 
ATOM     87  C   UNL A   1      48.892  25.171  35.462  1.00  0.00     0.054 A 
BRANCH  87  88
ATOM     88  S   UNL A   1      50.340  24.484  36.310  1.00  0.00     0.124 S 
ATOM     89  O   UNL A   1      50.455  23.164  35.697  1.00  0.00    -0.237 OA
ATOM     90  O   UNL A   1      51.394  25.433  35.963  1.00  0.00    -0.237 OA
ATOM     91  O   UNL A   1      49.950  24.483  37.719  1.00  0.00    -0.744 OA
ENDBRANCH  87  88
ENDBRANCH  61  82
ENDBRANCH  35  36
ENDBRANCH  28  30
ENDBRANCH  27  28
ENDBRANCH  26  27
ENDBRANCH  25  26
ENDBRANCH  24  25
ENDBRANCH  23  24
ENDBRANCH  22  23
ENDBRANCH   1  22
TORSDOF 26
ENDMDL
