MODEL 1
REMARK VINA RESULT:      -5.2      0.000      0.000
REMARK SMILES C[C@@H](C(=O)OCCOCCOCCOCCOC(=O)c1ccc(-c2c3nc(c(-c4ccc(S(=O)(=O)[O-])cc4)c4ccc([nH]4)c(-c4ccc(S(=O)(=O)[O-])cc4)c4nc(c(-c5ccc(S(=O)(=O)[O-])cc5)c5ccc2[nH]5)C=C4)C=C3)cc1)c1ccc(-c2ccn(C(F)F)c(=O)c2)cc1
REMARK SMILES IDX 11 1 10 2 9 3 8 4 7 5 6 6 5 7 3 8 4 9 2 10 1 11 80 12 81 13
REMARK SMILES IDX 95 14 82 15 94 16 83 17 84 18 85 19 93 20 86 21 91 22 87 23
REMARK SMILES IDX 92 24 88 25 89 26 90 27 12 28 13 29 14 30 15 31 16 32 17 33
REMARK SMILES IDX 18 34 19 35 20 36 21 37 79 38 22 39 78 40 23 41 24 42 25 43
REMARK SMILES IDX 72 44 26 45 77 46 71 47 73 48 27 49 76 50 70 51 69 52 28 54
REMARK SMILES IDX 58 55 39 56 57 57 40 58 43 59 56 60 74 61 41 62 42 63 55 65
REMARK SMILES IDX 75 66 44 67 29 68 30 69 38 70 31 71 37 72 32 73 33 74 34 75
REMARK SMILES IDX 35 76 36 77 59 78 60 79 68 80 61 81 67 82 62 83 63 84 64 85
REMARK SMILES IDX 65 86 66 87 45 88 46 89 54 90 47 91 53 92 48 93 49 94 50 95
REMARK SMILES IDX 51 96 52 97
REMARK H PARENT 73 53 43 64
REMARK Flexibility Score: inf
ROOT
ATOM      1  O   UNL A   1      51.249  32.248  25.699  1.00  0.00    -0.377 OA
ENDROOT
BRANCH   1   2
ATOM      2  C   UNL A   1      51.841  32.816  26.846  1.00  0.00     0.188 C 
BRANCH   2   3
ATOM      3  C   UNL A   1      53.272  33.348  26.641  1.00  0.00     0.188 C 
BRANCH   3   4
ATOM      4  O   UNL A   1      54.346  32.806  27.394  1.00  0.00    -0.376 OA
BRANCH   4   5
ATOM      5  C   UNL A   1      54.082  32.170  28.635  1.00  0.00     0.202 C 
BRANCH   5   6
ATOM      6  C   UNL A   1      54.722  30.820  29.026  1.00  0.00     0.261 C 
BRANCH   6   7
ATOM      7  O   UNL A   1      54.549  29.707  28.126  1.00  0.00    -0.463 OA
BRANCH   7   8
ATOM      8  C   UNL A   1      53.314  29.147  28.070  1.00  0.00     0.313 C 
ATOM      9  O   UNL A   1      52.607  29.161  27.065  1.00  0.00    -0.252 OA
BRANCH   8  10
ATOM     10  C   UNL A   1      52.860  28.474  29.384  1.00  0.00     0.126 C 
ATOM     11  C   UNL A   1      53.134  26.981  29.599  1.00  0.00     0.025 C 
BRANCH  10  12
ATOM     12  C   UNL A   1      51.413  28.853  29.708  1.00  0.00    -0.034 A 
ATOM     13  C   UNL A   1      51.042  30.127  30.170  1.00  0.00     0.005 A 
ATOM     14  C   UNL A   1      50.421  27.870  29.641  1.00  0.00     0.005 A 
ATOM     15  C   UNL A   1      49.753  30.388  30.642  1.00  0.00     0.009 A 
ATOM     16  C   UNL A   1      49.120  28.140  30.069  1.00  0.00     0.009 A 
ATOM     17  C   UNL A   1      48.778  29.392  30.599  1.00  0.00    -0.018 A 
BRANCH  17  18
ATOM     18  C   UNL A   1      47.404  29.626  31.082  1.00  0.00    -0.011 A 
ATOM     19  C   UNL A   1      47.023  30.835  31.789  1.00  0.00     0.027 A 
ATOM     20  C   UNL A   1      46.492  28.649  30.927  1.00  0.00     0.080 A 
ATOM     21  C   UNL A   1      45.824  30.933  32.371  1.00  0.00     0.095 A 
ATOM     22  C   UNL A   1      45.139  28.761  31.535  1.00  0.00     0.255 A 
ATOM     23  N   UNL A   1      44.903  29.907  32.278  1.00  0.00    -0.258 N 
ATOM     24  O   UNL A   1      44.345  27.839  31.375  1.00  0.00    -0.269 OA
BRANCH  23  25
ATOM     25  C   UNL A   1      43.659  29.975  32.994  1.00  0.00     0.451 C 
ATOM     26  F   UNL A   1      43.843  29.842  34.330  1.00  0.00    -0.185 F 
ATOM     27  F   UNL A   1      43.042  31.162  32.772  1.00  0.00    -0.185 F 
ENDBRANCH  23  25
ENDBRANCH  17  18
ENDBRANCH  10  12
ENDBRANCH   8  10
ENDBRANCH   7   8
ENDBRANCH   6   7
ENDBRANCH   5   6
ENDBRANCH   4   5
ENDBRANCH   3   4
ENDBRANCH   2   3
ENDBRANCH   1   2
BRANCH   1  28
ATOM     28  C   UNL A   1      51.977  32.374  24.488  1.00  0.00     0.188 C 
BRANCH  28  29
ATOM     29  C   UNL A   1      52.573  31.097  23.864  1.00  0.00     0.188 C 
BRANCH  29  30
ATOM     30  O   UNL A   1      53.928  30.848  24.227  1.00  0.00    -0.376 OA
BRANCH  30  31
ATOM     31  C   UNL A   1      54.575  29.694  23.707  1.00  0.00     0.202 C 
BRANCH  31  32
ATOM     32  C   UNL A   1      54.151  28.329  24.273  1.00  0.00     0.261 C 
BRANCH  32  33
ATOM     33  O   UNL A   1      53.291  27.530  23.447  1.00  0.00    -0.460 OA
BRANCH  33  34
ATOM     34  C   UNL A   1      52.877  26.338  23.928  1.00  0.00     0.338 C 
ATOM     35  O   UNL A   1      53.528  25.309  23.994  1.00  0.00    -0.246 OA
BRANCH  34  36
ATOM     36  C   UNL A   1      51.562  26.546  24.572  1.00  0.00     0.060 A 
ATOM     37  C   UNL A   1      50.485  26.979  23.786  1.00  0.00     0.016 A 
ATOM     38  C   UNL A   1      51.386  26.287  25.934  1.00  0.00     0.016 A 
ATOM     39  C   UNL A   1      49.235  27.188  24.368  1.00  0.00     0.010 A 
ATOM     40  C   UNL A   1      50.140  26.525  26.521  1.00  0.00     0.010 A 
ATOM     41  C   UNL A   1      49.070  27.011  25.747  1.00  0.00    -0.014 A 
BRANCH  41  42
ATOM     42  C   UNL A   1      47.858  27.544  26.413  1.00  0.00     0.031 A 
ATOM     43  C   UNL A   1      46.692  26.612  26.606  1.00  0.00     0.074 A 
ATOM     44  C   UNL A   1      47.795  28.812  26.860  1.00  0.00     0.049 A 
ATOM     45  N   UNL A   1      45.513  26.852  27.119  1.00  0.00    -0.248 NA
ATOM     46  C   UNL A   1      46.882  25.222  26.156  1.00  0.00     0.031 C 
ATOM     47  C   UNL A   1      48.877  29.793  26.785  1.00  0.00     0.029 A 
ATOM     48  N   UNL A   1      46.766  29.491  27.464  1.00  0.00    -0.354 N 
ATOM     49  C   UNL A   1      44.819  25.649  27.040  1.00  0.00     0.074 A 
ATOM     50  C   UNL A   1      45.696  24.691  26.407  1.00  0.00     0.031 C 
ATOM     51  C   UNL A   1      48.451  30.951  27.318  1.00  0.00     0.029 A 
ATOM     52  C   UNL A   1      47.057  30.806  27.736  1.00  0.00     0.049 A 
ATOM     53  H   UNL A   1      45.902  29.074  27.683  1.00  0.00     0.167 HD
ATOM     54  C   UNL A   1      43.562  25.369  27.459  1.00  0.00     0.031 A 
ATOM     55  C   UNL A   1      46.279  31.785  28.241  1.00  0.00     0.031 A 
ATOM     56  C   UNL A   1      42.689  26.330  28.074  1.00  0.00     0.049 A 
ATOM     57  C   UNL A   1      44.852  31.469  28.621  1.00  0.00     0.074 A 
ATOM     58  C   UNL A   1      41.403  26.142  28.549  1.00  0.00     0.029 A 
ATOM     59  N   UNL A   1      43.004  27.663  28.291  1.00  0.00    -0.354 N 
ATOM     60  N   UNL A   1      44.216  30.322  28.565  1.00  0.00    -0.248 NA
ATOM     61  C   UNL A   1      44.041  32.581  29.140  1.00  0.00     0.031 C 
ATOM     62  C   UNL A   1      40.915  27.376  28.988  1.00  0.00     0.029 A 
ATOM     63  C   UNL A   1      41.925  28.317  28.860  1.00  0.00     0.049 A 
ATOM     64  H   UNL A   1      43.868  28.082  28.072  1.00  0.00     0.167 HD
ATOM     65  C   UNL A   1      42.944  30.568  29.073  1.00  0.00     0.074 A 
ATOM     66  C   UNL A   1      42.905  31.968  29.444  1.00  0.00     0.031 C 
ATOM     67  C   UNL A   1      41.902  29.711  29.226  1.00  0.00     0.031 A 
BRANCH  54  68
ATOM     68  C   UNL A   1      43.042  23.976  27.219  1.00  0.00    -0.014 A 
ATOM     69  C   UNL A   1      43.063  22.998  28.230  1.00  0.00     0.010 A 
ATOM     70  C   UNL A   1      42.487  23.653  25.967  1.00  0.00     0.010 A 
ATOM     71  C   UNL A   1      42.571  21.713  27.982  1.00  0.00     0.020 A 
ATOM     72  C   UNL A   1      41.965  22.380  25.724  1.00  0.00     0.020 A 
ATOM     73  C   UNL A   1      42.024  21.413  26.730  1.00  0.00     0.054 A 
BRANCH  73  74
ATOM     74  S   UNL A   1      41.365  19.748  26.447  1.00  0.00     0.124 S 
ATOM     75  O   UNL A   1      40.092  20.035  25.790  1.00  0.00    -0.237 OA
ATOM     76  O   UNL A   1      42.386  19.141  25.598  1.00  0.00    -0.237 OA
ATOM     77  O   UNL A   1      41.258  19.183  27.790  1.00  0.00    -0.744 OA
ENDBRANCH  73  74
ENDBRANCH  54  68
BRANCH  55  78
ATOM     78  C   UNL A   1      46.819  33.165  28.403  1.00  0.00    -0.014 A 
ATOM     79  C   UNL A   1      47.607  33.504  29.518  1.00  0.00     0.010 A 
ATOM     80  C   UNL A   1      46.532  34.156  27.446  1.00  0.00     0.010 A 
ATOM     81  C   UNL A   1      48.082  34.808  29.682  1.00  0.00     0.020 A 
ATOM     82  C   UNL A   1      47.031  35.454  27.590  1.00  0.00     0.020 A 
ATOM     83  C   UNL A   1      47.795  35.775  28.713  1.00  0.00     0.054 A 
BRANCH  83  84
ATOM     84  S   UNL A   1      48.464  37.449  28.922  1.00  0.00     0.124 S 
ATOM     85  O   UNL A   1      49.791  37.320  28.330  1.00  0.00    -0.237 OA
ATOM     86  O   UNL A   1      47.511  38.263  28.171  1.00  0.00    -0.237 OA
ATOM     87  O   UNL A   1      48.440  37.650  30.369  1.00  0.00    -0.744 OA
ENDBRANCH  83  84
ENDBRANCH  55  78
BRANCH  67  88
ATOM     88  C   UNL A   1      40.643  30.245  29.860  1.00  0.00    -0.014 A 
ATOM     89  C   UNL A   1      40.674  30.956  31.073  1.00  0.00     0.010 A 
ATOM     90  C   UNL A   1      39.413  30.083  29.193  1.00  0.00     0.010 A 
ATOM     91  C   UNL A   1      39.493  31.466  31.623  1.00  0.00     0.020 A 
ATOM     92  C   UNL A   1      38.238  30.621  29.723  1.00  0.00     0.020 A 
ATOM     93  C   UNL A   1      38.283  31.297  30.943  1.00  0.00     0.054 A 
BRANCH  93  94
ATOM     94  S   UNL A   1      36.774  32.007  31.656  1.00  0.00     0.124 S 
ATOM     95  O   UNL A   1      36.813  33.376  31.149  1.00  0.00    -0.237 OA
ATOM     96  O   UNL A   1      35.726  31.159  31.095  1.00  0.00    -0.237 OA
ATOM     97  O   UNL A   1      36.974  31.872  33.097  1.00  0.00    -0.744 OA
ENDBRANCH  93  94
ENDBRANCH  67  88
ENDBRANCH  41  42
ENDBRANCH  34  36
ENDBRANCH  33  34
ENDBRANCH  32  33
ENDBRANCH  31  32
ENDBRANCH  30  31
ENDBRANCH  29  30
ENDBRANCH  28  29
ENDBRANCH   1  28
TORSDOF 26
ENDMDL
MODEL 2
REMARK VINA RESULT:      -4.9      9.167     16.572
REMARK SMILES C[C@@H](C(=O)OCCOCCOCCOCCOC(=O)c1ccc(-c2c3nc(c(-c4ccc(S(=O)(=O)[O-])cc4)c4ccc([nH]4)c(-c4ccc(S(=O)(=O)[O-])cc4)c4nc(c(-c5ccc(S(=O)(=O)[O-])cc5)c5ccc2[nH]5)C=C4)C=C3)cc1)c1ccc(-c2ccn(C(F)F)c(=O)c2)cc1
REMARK SMILES IDX 11 1 10 2 9 3 8 4 7 5 6 6 5 7 3 8 4 9 2 10 1 11 80 12 81 13
REMARK SMILES IDX 95 14 82 15 94 16 83 17 84 18 85 19 93 20 86 21 91 22 87 23
REMARK SMILES IDX 92 24 88 25 89 26 90 27 12 28 13 29 14 30 15 31 16 32 17 33
REMARK SMILES IDX 18 34 19 35 20 36 21 37 79 38 22 39 78 40 23 41 24 42 25 43
REMARK SMILES IDX 72 44 26 45 77 46 71 47 73 48 27 49 76 50 70 51 69 52 28 54
REMARK SMILES IDX 58 55 39 56 57 57 40 58 43 59 56 60 74 61 41 62 42 63 55 65
REMARK SMILES IDX 75 66 44 67 29 68 30 69 38 70 31 71 37 72 32 73 33 74 34 75
REMARK SMILES IDX 35 76 36 77 59 78 60 79 68 80 61 81 67 82 62 83 63 84 64 85
REMARK SMILES IDX 65 86 66 87 45 88 46 89 54 90 47 91 53 92 48 93 49 94 50 95
REMARK SMILES IDX 51 96 52 97
REMARK H PARENT 73 53 43 64
REMARK Flexibility Score: inf
ROOT
ATOM      1  O   UNL A   1      34.221  33.043  32.230  1.00  0.00    -0.377 OA
ENDROOT
BRANCH   1   2
ATOM      2  C   UNL A   1      34.444  34.259  32.907  1.00  0.00     0.188 C 
BRANCH   2   3
ATOM      3  C   UNL A   1      33.343  35.320  32.711  1.00  0.00     0.188 C 
BRANCH   3   4
ATOM      4  O   UNL A   1      33.590  36.457  31.899  1.00  0.00    -0.376 OA
BRANCH   4   5
ATOM      5  C   UNL A   1      32.893  36.607  30.671  1.00  0.00     0.202 C 
BRANCH   5   6
ATOM      6  C   UNL A   1      33.226  35.760  29.422  1.00  0.00     0.261 C 
BRANCH   6   7
ATOM      7  O   UNL A   1      32.894  34.357  29.454  1.00  0.00    -0.463 OA
BRANCH   7   8
ATOM      8  C   UNL A   1      32.975  33.679  28.280  1.00  0.00     0.313 C 
ATOM      9  O   UNL A   1      32.190  33.840  27.348  1.00  0.00    -0.252 OA
BRANCH   8  10
ATOM     10  C   UNL A   1      34.150  32.681  28.200  1.00  0.00     0.126 C 
ATOM     11  C   UNL A   1      35.506  33.155  27.664  1.00  0.00     0.025 C 
BRANCH  10  12
ATOM     12  C   UNL A   1      33.697  31.369  27.555  1.00  0.00    -0.034 A 
ATOM     13  C   UNL A   1      32.379  31.148  27.120  1.00  0.00     0.005 A 
ATOM     14  C   UNL A   1      34.595  30.302  27.480  1.00  0.00     0.005 A 
ATOM     15  C   UNL A   1      31.944  29.882  26.716  1.00  0.00     0.009 A 
ATOM     16  C   UNL A   1      34.176  29.046  27.033  1.00  0.00     0.009 A 
ATOM     17  C   UNL A   1      32.842  28.816  26.673  1.00  0.00    -0.018 A 
BRANCH  17  18
ATOM     18  C   UNL A   1      32.427  27.465  26.248  1.00  0.00    -0.011 A 
ATOM     19  C   UNL A   1      33.367  26.367  26.122  1.00  0.00     0.027 A 
ATOM     20  C   UNL A   1      31.143  27.268  25.896  1.00  0.00     0.080 A 
ATOM     21  C   UNL A   1      32.992  25.213  25.561  1.00  0.00     0.095 A 
ATOM     22  C   UNL A   1      30.702  25.974  25.308  1.00  0.00     0.255 A 
ATOM     23  N   UNL A   1      31.692  25.021  25.130  1.00  0.00    -0.258 N 
ATOM     24  O   UNL A   1      29.523  25.845  24.992  1.00  0.00    -0.269 OA
BRANCH  23  25
ATOM     25  C   UNL A   1      31.324  23.820  24.433  1.00  0.00     0.451 C 
ATOM     26  F   UNL A   1      32.395  23.231  23.849  1.00  0.00    -0.185 F 
ATOM     27  F   UNL A   1      30.765  22.923  25.284  1.00  0.00    -0.185 F 
ENDBRANCH  23  25
ENDBRANCH  17  18
ENDBRANCH  10  12
ENDBRANCH   8  10
ENDBRANCH   7   8
ENDBRANCH   6   7
ENDBRANCH   5   6
ENDBRANCH   4   5
ENDBRANCH   3   4
ENDBRANCH   2   3
ENDBRANCH   1   2
BRANCH   1  28
ATOM     28  C   UNL A   1      35.295  32.115  32.232  1.00  0.00     0.188 C 
BRANCH  28  29
ATOM     29  C   UNL A   1      35.909  31.715  30.877  1.00  0.00     0.188 C 
BRANCH  29  30
ATOM     30  O   UNL A   1      37.324  31.865  30.809  1.00  0.00    -0.376 OA
BRANCH  30  31
ATOM     31  C   UNL A   1      37.976  31.655  29.565  1.00  0.00     0.202 C 
BRANCH  31  32
ATOM     32  C   UNL A   1      38.922  30.447  29.455  1.00  0.00     0.261 C 
BRANCH  32  33
ATOM     33  O   UNL A   1      39.276  29.794  30.683  1.00  0.00    -0.460 OA
BRANCH  33  34
ATOM     34  C   UNL A   1      40.391  29.034  30.699  1.00  0.00     0.338 C 
ATOM     35  O   UNL A   1      40.917  28.485  29.745  1.00  0.00    -0.246 OA
BRANCH  34  36
ATOM     36  C   UNL A   1      41.000  29.158  32.040  1.00  0.00     0.060 A 
ATOM     37  C   UNL A   1      42.272  29.736  32.155  1.00  0.00     0.016 A 
ATOM     38  C   UNL A   1      40.309  28.735  33.179  1.00  0.00     0.016 A 
ATOM     39  C   UNL A   1      42.872  29.861  33.407  1.00  0.00     0.010 A 
ATOM     40  C   UNL A   1      40.925  28.835  34.430  1.00  0.00     0.010 A 
ATOM     41  C   UNL A   1      42.223  29.365  34.544  1.00  0.00    -0.014 A 
BRANCH  41  42
ATOM     42  C   UNL A   1      42.984  29.193  35.804  1.00  0.00     0.031 A 
ATOM     43  C   UNL A   1      42.949  30.316  36.807  1.00  0.00     0.074 A 
ATOM     44  C   UNL A   1      43.668  28.065  36.070  1.00  0.00     0.049 A 
ATOM     45  N   UNL A   1      43.563  30.421  37.957  1.00  0.00    -0.248 NA
ATOM     46  C   UNL A   1      42.110  31.476  36.463  1.00  0.00     0.031 C 
ATOM     47  C   UNL A   1      43.731  26.887  35.207  1.00  0.00     0.029 A 
ATOM     48  N   UNL A   1      44.448  27.734  37.150  1.00  0.00    -0.354 N 
ATOM     49  C   UNL A   1      43.196  31.662  38.464  1.00  0.00     0.074 A 
ATOM     50  C   UNL A   1      42.330  32.284  37.489  1.00  0.00     0.031 C 
ATOM     51  C   UNL A   1      44.515  25.963  35.790  1.00  0.00     0.029 A 
ATOM     52  C   UNL A   1      45.039  26.497  37.047  1.00  0.00     0.049 A 
ATOM     53  H   UNL A   1      44.572  28.326  37.927  1.00  0.00     0.167 HD
ATOM     54  C   UNL A   1      43.548  32.234  39.640  1.00  0.00     0.031 A 
ATOM     55  C   UNL A   1      45.919  25.880  37.860  1.00  0.00     0.031 A 
ATOM     56  C   UNL A   1      44.423  31.617  40.601  1.00  0.00     0.049 A 
ATOM     57  C   UNL A   1      46.365  26.574  39.124  1.00  0.00     0.074 A 
ATOM     58  C   UNL A   1      44.828  32.106  41.830  1.00  0.00     0.029 A 
ATOM     59  N   UNL A   1      45.036  30.384  40.438  1.00  0.00    -0.354 N 
ATOM     60  N   UNL A   1      45.991  27.737  39.605  1.00  0.00    -0.248 NA
ATOM     61  C   UNL A   1      47.348  25.868  39.959  1.00  0.00     0.031 C 
ATOM     62  C   UNL A   1      45.742  31.201  42.378  1.00  0.00     0.029 A 
ATOM     63  C   UNL A   1      45.844  30.112  41.527  1.00  0.00     0.049 A 
ATOM     64  H   UNL A   1      44.913  29.791  39.662  1.00  0.00     0.167 HD
ATOM     65  C   UNL A   1      46.666  27.883  40.814  1.00  0.00     0.074 A 
ATOM     66  C   UNL A   1      47.460  26.685  40.997  1.00  0.00     0.031 C 
ATOM     67  C   UNL A   1      46.627  28.913  41.697  1.00  0.00     0.031 A 
BRANCH  54  68
ATOM     68  C   UNL A   1      43.025  33.616  39.929  1.00  0.00    -0.014 A 
ATOM     69  C   UNL A   1      41.816  33.817  40.618  1.00  0.00     0.010 A 
ATOM     70  C   UNL A   1      43.780  34.736  39.533  1.00  0.00     0.010 A 
ATOM     71  C   UNL A   1      41.354  35.111  40.876  1.00  0.00     0.020 A 
ATOM     72  C   UNL A   1      43.338  36.031  39.816  1.00  0.00     0.020 A 
ATOM     73  C   UNL A   1      42.120  36.210  40.473  1.00  0.00     0.054 A 
BRANCH  73  74
ATOM     74  S   UNL A   1      41.511  37.876  40.848  1.00  0.00     0.124 S 
ATOM     75  O   UNL A   1      40.749  38.197  39.645  1.00  0.00    -0.237 OA
ATOM     76  O   UNL A   1      40.718  37.661  42.055  1.00  0.00    -0.237 OA
ATOM     77  O   UNL A   1      42.731  38.658  41.037  1.00  0.00    -0.744 OA
ENDBRANCH  73  74
ENDBRANCH  54  68
BRANCH  55  78
ATOM     78  C   UNL A   1      46.458  24.537  37.503  1.00  0.00    -0.014 A 
ATOM     79  C   UNL A   1      47.625  24.412  36.728  1.00  0.00     0.010 A 
ATOM     80  C   UNL A   1      45.792  23.371  37.923  1.00  0.00     0.010 A 
ATOM     81  C   UNL A   1      48.107  23.150  36.368  1.00  0.00     0.020 A 
ATOM     82  C   UNL A   1      46.288  22.106  37.591  1.00  0.00     0.020 A 
ATOM     83  C   UNL A   1      47.437  22.003  36.805  1.00  0.00     0.054 A 
BRANCH  83  84
ATOM     84  S   UNL A   1      48.108  20.376  36.367  1.00  0.00     0.124 S 
ATOM     85  O   UNL A   1      49.546  20.621  36.405  1.00  0.00    -0.237 OA
ATOM     86  O   UNL A   1      47.581  19.523  37.430  1.00  0.00    -0.237 OA
ATOM     87  O   UNL A   1      47.551  20.121  35.040  1.00  0.00    -0.744 OA
ENDBRANCH  83  84
ENDBRANCH  55  78
BRANCH  67  88
ATOM     88  C   UNL A   1      47.430  28.779  42.966  1.00  0.00    -0.014 A 
ATOM     89  C   UNL A   1      48.730  29.302  43.074  1.00  0.00     0.010 A 
ATOM     90  C   UNL A   1      46.842  28.171  44.092  1.00  0.00     0.010 A 
ATOM     91  C   UNL A   1      49.440  29.190  44.275  1.00  0.00     0.020 A 
ATOM     92  C   UNL A   1      47.535  28.088  45.302  1.00  0.00     0.020 A 
ATOM     93  C   UNL A   1      48.836  28.585  45.382  1.00  0.00     0.054 A 
BRANCH  93  94
ATOM     94  S   UNL A   1      49.762  28.493  46.939  1.00  0.00     0.124 S 
ATOM     95  O   UNL A   1      50.678  27.385  46.683  1.00  0.00    -0.237 OA
ATOM     96  O   UNL A   1      50.381  29.814  47.021  1.00  0.00    -0.237 OA
ATOM     97  O   UNL A   1      48.732  28.230  47.941  1.00  0.00    -0.744 OA
ENDBRANCH  93  94
ENDBRANCH  67  88
ENDBRANCH  41  42
ENDBRANCH  34  36
ENDBRANCH  33  34
ENDBRANCH  32  33
ENDBRANCH  31  32
ENDBRANCH  30  31
ENDBRANCH  29  30
ENDBRANCH  28  29
ENDBRANCH   1  28
TORSDOF 26
ENDMDL
MODEL 3
REMARK VINA RESULT:      -4.7      7.071     10.510
REMARK SMILES C[C@@H](C(=O)OCCOCCOCCOCCOC(=O)c1ccc(-c2c3nc(c(-c4ccc(S(=O)(=O)[O-])cc4)c4ccc([nH]4)c(-c4ccc(S(=O)(=O)[O-])cc4)c4nc(c(-c5ccc(S(=O)(=O)[O-])cc5)c5ccc2[nH]5)C=C4)C=C3)cc1)c1ccc(-c2ccn(C(F)F)c(=O)c2)cc1
REMARK SMILES IDX 11 1 10 2 9 3 8 4 7 5 6 6 5 7 3 8 4 9 2 10 1 11 80 12 81 13
REMARK SMILES IDX 95 14 82 15 94 16 83 17 84 18 85 19 93 20 86 21 91 22 87 23
REMARK SMILES IDX 92 24 88 25 89 26 90 27 12 28 13 29 14 30 15 31 16 32 17 33
REMARK SMILES IDX 18 34 19 35 20 36 21 37 79 38 22 39 78 40 23 41 24 42 25 43
REMARK SMILES IDX 72 44 26 45 77 46 71 47 73 48 27 49 76 50 70 51 69 52 28 54
REMARK SMILES IDX 58 55 39 56 57 57 40 58 43 59 56 60 74 61 41 62 42 63 55 65
REMARK SMILES IDX 75 66 44 67 29 68 30 69 38 70 31 71 37 72 32 73 33 74 34 75
REMARK SMILES IDX 35 76 36 77 59 78 60 79 68 80 61 81 67 82 62 83 63 84 64 85
REMARK SMILES IDX 65 86 66 87 45 88 46 89 54 90 47 91 53 92 48 93 49 94 50 95
REMARK SMILES IDX 51 96 52 97
REMARK H PARENT 73 53 43 64
REMARK Flexibility Score: inf
ROOT
ATOM      1  O   UNL A   1      44.429  25.875  30.239  1.00  0.00    -0.377 OA
ENDROOT
BRANCH   1   2
ATOM      2  C   UNL A   1      44.509  25.063  31.388  1.00  0.00     0.188 C 
BRANCH   2   3
ATOM      3  C   UNL A   1      45.792  25.245  32.223  1.00  0.00     0.188 C 
BRANCH   3   4
ATOM      4  O   UNL A   1      46.019  24.432  33.363  1.00  0.00    -0.376 OA
BRANCH   4   5
ATOM      5  C   UNL A   1      45.012  23.526  33.791  1.00  0.00     0.202 C 
BRANCH   5   6
ATOM      6  C   UNL A   1      44.934  23.000  35.241  1.00  0.00     0.261 C 
BRANCH   6   7
ATOM      7  O   UNL A   1      45.088  21.581  35.450  1.00  0.00    -0.463 OA
BRANCH   7   8
ATOM      8  C   UNL A   1      45.805  21.193  36.536  1.00  0.00     0.313 C 
ATOM      9  O   UNL A   1      45.895  21.861  37.563  1.00  0.00    -0.252 OA
BRANCH   8  10
ATOM     10  C   UNL A   1      46.505  19.826  36.382  1.00  0.00     0.126 C 
ATOM     11  C   UNL A   1      46.813  19.290  34.978  1.00  0.00     0.025 C 
BRANCH  10  12
ATOM     12  C   UNL A   1      45.832  18.776  37.270  1.00  0.00    -0.034 A 
ATOM     13  C   UNL A   1      44.740  18.002  36.843  1.00  0.00     0.005 A 
ATOM     14  C   UNL A   1      46.248  18.640  38.597  1.00  0.00     0.005 A 
ATOM     15  C   UNL A   1      44.024  17.194  37.731  1.00  0.00     0.009 A 
ATOM     16  C   UNL A   1      45.564  17.798  39.476  1.00  0.00     0.009 A 
ATOM     17  C   UNL A   1      44.429  17.088  39.061  1.00  0.00    -0.018 A 
BRANCH  17  18
ATOM     18  C   UNL A   1      43.705  16.244  40.031  1.00  0.00    -0.011 A 
ATOM     19  C   UNL A   1      43.939  16.328  41.461  1.00  0.00     0.027 A 
ATOM     20  C   UNL A   1      42.854  15.313  39.563  1.00  0.00     0.080 A 
ATOM     21  C   UNL A   1      43.404  15.426  42.290  1.00  0.00     0.095 A 
ATOM     22  C   UNL A   1      42.219  14.327  40.480  1.00  0.00     0.255 A 
ATOM     23  N   UNL A   1      42.583  14.421  41.814  1.00  0.00    -0.258 N 
ATOM     24  O   UNL A   1      41.458  13.490  40.005  1.00  0.00    -0.269 OA
BRANCH  23  25
ATOM     25  C   UNL A   1      42.099  13.394  42.695  1.00  0.00     0.451 C 
ATOM     26  F   UNL A   1      43.102  12.593  43.129  1.00  0.00    -0.185 F 
ATOM     27  F   UNL A   1      41.497  13.939  43.782  1.00  0.00    -0.185 F 
ENDBRANCH  23  25
ENDBRANCH  17  18
ENDBRANCH  10  12
ENDBRANCH   8  10
ENDBRANCH   7   8
ENDBRANCH   6   7
ENDBRANCH   5   6
ENDBRANCH   4   5
ENDBRANCH   3   4
ENDBRANCH   2   3
ENDBRANCH   1   2
BRANCH   1  28
ATOM     28  C   UNL A   1      43.698  25.347  29.144  1.00  0.00     0.188 C 
BRANCH  28  29
ATOM     29  C   UNL A   1      43.915  23.866  28.774  1.00  0.00     0.188 C 
BRANCH  29  30
ATOM     30  O   UNL A   1      43.834  23.595  27.378  1.00  0.00    -0.376 OA
BRANCH  30  31
ATOM     31  C   UNL A   1      45.024  23.631  26.603  1.00  0.00     0.202 C 
BRANCH  31  32
ATOM     32  C   UNL A   1      46.351  23.841  27.351  1.00  0.00     0.261 C 
BRANCH  32  33
ATOM     33  O   UNL A   1      47.483  24.223  26.557  1.00  0.00    -0.460 OA
BRANCH  33  34
ATOM     34  C   UNL A   1      47.266  25.000  25.475  1.00  0.00     0.338 C 
ATOM     35  O   UNL A   1      46.986  24.626  24.349  1.00  0.00    -0.246 OA
BRANCH  34  36
ATOM     36  C   UNL A   1      47.206  26.404  25.935  1.00  0.00     0.060 A 
ATOM     37  C   UNL A   1      47.692  26.719  27.211  1.00  0.00     0.016 A 
ATOM     38  C   UNL A   1      46.703  27.407  25.102  1.00  0.00     0.016 A 
ATOM     39  C   UNL A   1      47.644  28.035  27.673  1.00  0.00     0.010 A 
ATOM     40  C   UNL A   1      46.628  28.719  25.577  1.00  0.00     0.010 A 
ATOM     41  C   UNL A   1      47.065  29.031  26.877  1.00  0.00    -0.014 A 
BRANCH  41  42
ATOM     42  C   UNL A   1      46.712  30.337  27.483  1.00  0.00     0.031 A 
ATOM     43  C   UNL A   1      45.421  30.431  28.252  1.00  0.00     0.074 A 
ATOM     44  C   UNL A   1      47.521  31.407  27.379  1.00  0.00     0.049 A 
ATOM     45  N   UNL A   1      44.875  31.467  28.835  1.00  0.00    -0.248 NA
ATOM     46  C   UNL A   1      44.641  29.188  28.379  1.00  0.00     0.031 C 
ATOM     47  C   UNL A   1      48.822  31.427  26.711  1.00  0.00     0.029 A 
ATOM     48  N   UNL A   1      47.357  32.691  27.836  1.00  0.00    -0.354 N 
ATOM     49  C   UNL A   1      43.684  31.004  29.382  1.00  0.00     0.074 A 
ATOM     50  C   UNL A   1      43.573  29.604  29.041  1.00  0.00     0.031 C 
ATOM     51  C   UNL A   1      49.335  32.667  26.798  1.00  0.00     0.029 A 
ATOM     52  C   UNL A   1      48.386  33.536  27.492  1.00  0.00     0.049 A 
ATOM     53  H   UNL A   1      46.578  32.980  28.363  1.00  0.00     0.167 HD
ATOM     54  C   UNL A   1      42.764  31.685  30.106  1.00  0.00     0.031 A 
ATOM     55  C   UNL A   1      48.530  34.862  27.692  1.00  0.00     0.031 A 
ATOM     56  C   UNL A   1      42.873  33.082  30.429  1.00  0.00     0.049 A 
ATOM     57  C   UNL A   1      47.449  35.617  28.427  1.00  0.00     0.074 A 
ATOM     58  C   UNL A   1      42.003  33.861  31.171  1.00  0.00     0.029 A 
ATOM     59  N   UNL A   1      43.906  33.912  30.023  1.00  0.00    -0.354 N 
ATOM     60  N   UNL A   1      46.340  35.163  28.961  1.00  0.00    -0.248 NA
ATOM     61  C   UNL A   1      47.646  37.065  28.591  1.00  0.00     0.031 C 
ATOM     62  C   UNL A   1      42.474  35.177  31.154  1.00  0.00     0.029 A 
ATOM     63  C   UNL A   1      43.678  35.202  30.468  1.00  0.00     0.049 A 
ATOM     64  H   UNL A   1      44.687  33.625  29.495  1.00  0.00     0.167 HD
ATOM     65  C   UNL A   1      45.726  36.263  29.554  1.00  0.00     0.074 A 
ATOM     66  C   UNL A   1      46.593  37.400  29.324  1.00  0.00     0.031 C 
ATOM     67  C   UNL A   1      44.552  36.325  30.233  1.00  0.00     0.031 A 
BRANCH  54  68
ATOM     68  C   UNL A   1      41.536  30.937  30.554  1.00  0.00    -0.014 A 
ATOM     69  C   UNL A   1      40.479  30.660  29.669  1.00  0.00     0.010 A 
ATOM     70  C   UNL A   1      41.458  30.473  31.880  1.00  0.00     0.010 A 
ATOM     71  C   UNL A   1      39.352  29.961  30.111  1.00  0.00     0.020 A 
ATOM     72  C   UNL A   1      40.347  29.747  32.317  1.00  0.00     0.020 A 
ATOM     73  C   UNL A   1      39.294  29.508  31.433  1.00  0.00     0.054 A 
BRANCH  73  74
ATOM     74  S   UNL A   1      37.833  28.578  31.969  1.00  0.00     0.124 S 
ATOM     75  O   UNL A   1      36.747  29.354  31.376  1.00  0.00    -0.237 OA
ATOM     76  O   UNL A   1      38.059  27.262  31.378  1.00  0.00    -0.237 OA
ATOM     77  O   UNL A   1      37.906  28.625  33.427  1.00  0.00    -0.744 OA
ENDBRANCH  73  74
ENDBRANCH  54  68
BRANCH  55  78
ATOM     78  C   UNL A   1      49.735  35.572  27.175  1.00  0.00    -0.014 A 
ATOM     79  C   UNL A   1      50.900  35.673  27.955  1.00  0.00     0.010 A 
ATOM     80  C   UNL A   1      49.715  36.167  25.900  1.00  0.00     0.010 A 
ATOM     81  C   UNL A   1      52.015  36.370  27.479  1.00  0.00     0.020 A 
ATOM     82  C   UNL A   1      50.838  36.838  25.407  1.00  0.00     0.020 A 
ATOM     83  C   UNL A   1      51.979  36.944  26.205  1.00  0.00     0.054 A 
BRANCH  83  84
ATOM     84  S   UNL A   1      53.455  37.800  25.588  1.00  0.00     0.124 S 
ATOM     85  O   UNL A   1      53.030  39.196  25.614  1.00  0.00    -0.237 OA
ATOM     86  O   UNL A   1      54.468  37.427  26.573  1.00  0.00    -0.237 OA
ATOM     87  O   UNL A   1      53.651  37.229  24.257  1.00  0.00    -0.744 OA
ENDBRANCH  83  84
ENDBRANCH  55  78
BRANCH  67  88
ATOM     88  C   UNL A   1      44.152  37.654  30.820  1.00  0.00    -0.014 A 
ATOM     89  C   UNL A   1      44.311  37.933  32.189  1.00  0.00     0.010 A 
ATOM     90  C   UNL A   1      43.665  38.665  29.969  1.00  0.00     0.010 A 
ATOM     91  C   UNL A   1      43.960  39.187  32.700  1.00  0.00     0.020 A 
ATOM     92  C   UNL A   1      43.346  39.929  30.470  1.00  0.00     0.020 A 
ATOM     93  C   UNL A   1      43.481  40.178  31.837  1.00  0.00     0.054 A 
BRANCH  93  94
ATOM     94  S   UNL A   1      43.075  41.808  32.519  1.00  0.00     0.124 S 
ATOM     95  O   UNL A   1      44.225  42.607  32.103  1.00  0.00    -0.237 OA
ATOM     96  O   UNL A   1      41.814  42.127  31.855  1.00  0.00    -0.237 OA
ATOM     97  O   UNL A   1      42.973  41.568  33.957  1.00  0.00    -0.744 OA
ENDBRANCH  93  94
ENDBRANCH  67  88
ENDBRANCH  41  42
ENDBRANCH  34  36
ENDBRANCH  33  34
ENDBRANCH  32  33
ENDBRANCH  31  32
ENDBRANCH  30  31
ENDBRANCH  29  30
ENDBRANCH  28  29
ENDBRANCH   1  28
TORSDOF 26
ENDMDL
