MODEL 1
REMARK VINA RESULT:      -8.8      0.000      0.000
REMARK SMILES C[C@H]1CCC[C@@H]1n1c(SCC(=O)OCCOCCOCCOCCOC(=O)c2ccc(-c3c4nc(c(-c5ccc(S(=O)(=O)[O-])cc5)c5ccc([nH]5)c(-c5ccc(S(=O)(=O)[O-])cc5)c5nc(c(-c6ccc(S(=O)(=O)[O-])cc6)c6ccc3[nH]6)C=C5)C=C4)cc2)nc2cnccc21
REMARK SMILES IDX 19 1 18 2 17 3 16 4 15 5 14 6 13 7 11 8 12 9 10 10 9 11 8 12
REMARK SMILES IDX 7 13 94 14 88 15 89 16 93 17 90 18 92 19 91 20 6 21 1 22
REMARK SMILES IDX 2 23 3 24 4 25 5 26 20 27 21 28 22 29 23 30 24 31 25 32
REMARK SMILES IDX 26 33 27 34 28 35 29 36 87 37 30 38 86 39 31 40 32 41 33 42
REMARK SMILES IDX 80 43 34 44 85 45 79 46 81 47 35 48 84 49 78 50 77 51 36 53
REMARK SMILES IDX 66 54 47 55 65 56 48 57 51 58 64 59 82 60 49 61 50 62 63 64
REMARK SMILES IDX 83 65 52 66 37 67 38 68 46 69 39 70 45 71 40 72 41 73 42 74
REMARK SMILES IDX 43 75 44 76 67 77 68 78 76 79 69 80 75 81 70 82 71 83 72 84
REMARK SMILES IDX 73 85 74 86 53 87 54 88 62 89 55 90 61 91 56 92 57 93 58 94
REMARK SMILES IDX 59 95 60 96
REMARK H PARENT 81 52 51 63
REMARK Flexibility Score: inf
ROOT
ATOM      1  O   UNL A   1      33.168  29.866  26.996  1.00  0.00    -0.377 OA
ENDROOT
BRANCH   1   2
ATOM      2  C   UNL A   1      32.556  28.902  26.186  1.00  0.00     0.188 C 
BRANCH   2   3
ATOM      3  C   UNL A   1      32.203  27.619  26.931  1.00  0.00     0.188 C 
BRANCH   3   4
ATOM      4  O   UNL A   1      31.676  26.587  26.128  1.00  0.00    -0.376 OA
BRANCH   4   5
ATOM      5  C   UNL A   1      30.288  26.542  25.829  1.00  0.00     0.202 C 
BRANCH   5   6
ATOM      6  C   UNL A   1      29.655  26.172  24.463  1.00  0.00     0.261 C 
BRANCH   6   7
ATOM      7  O   UNL A   1      30.233  26.637  23.227  1.00  0.00    -0.463 OA
BRANCH   7   8
ATOM      8  C   UNL A   1      31.367  26.009  22.814  1.00  0.00     0.316 C 
ATOM      9  O   UNL A   1      32.295  26.592  22.263  1.00  0.00    -0.251 OA
BRANCH   8  10
ATOM     10  C   UNL A   1      31.324  24.510  23.044  1.00  0.00     0.200 C 
BRANCH  10  11
ATOM     11  S   UNL A   1      32.474  23.243  22.415  1.00  0.00    -0.076 SA
BRANCH  11  12
ATOM     12  C   UNL A   1      32.491  21.629  23.089  1.00  0.00     0.169 A 
ATOM     13  N   UNL A   1      33.183  21.169  24.229  1.00  0.00    -0.315 N 
ATOM     14  C   UNL A   1      33.065  19.769  24.223  1.00  0.00     0.072 A 
ATOM     15  N   UNL A   1      32.116  20.608  22.336  1.00  0.00    -0.221 NA
ATOM     16  C   UNL A   1      32.469  19.458  23.001  1.00  0.00     0.108 A 
ATOM     17  C   UNL A   1      33.405  18.730  25.104  1.00  0.00     0.049 A 
ATOM     18  C   UNL A   1      32.312  18.109  22.631  1.00  0.00     0.141 A 
ATOM     19  C   UNL A   1      33.213  17.428  24.659  1.00  0.00     0.113 A 
ATOM     20  N   UNL A   1      32.702  17.101  23.460  1.00  0.00    -0.262 NA
BRANCH  13  21
ATOM     21  C   UNL A   1      34.097  21.930  25.111  1.00  0.00     0.093 C 
ATOM     22  C   UNL A   1      32.962  23.443  26.880  1.00  0.00     0.010 C 
ATOM     23  C   UNL A   1      33.668  23.366  25.524  1.00  0.00     0.009 C 
ATOM     24  C   UNL A   1      34.950  24.201  25.621  1.00  0.00     0.005 C 
ATOM     25  C   UNL A   1      35.895  23.606  24.624  1.00  0.00     0.002 C 
ATOM     26  C   UNL A   1      35.490  22.152  24.525  1.00  0.00     0.026 C 
ENDBRANCH  13  21
ENDBRANCH  11  12
ENDBRANCH  10  11
ENDBRANCH   8  10
ENDBRANCH   7   8
ENDBRANCH   6   7
ENDBRANCH   5   6
ENDBRANCH   4   5
ENDBRANCH   3   4
ENDBRANCH   2   3
ENDBRANCH   1   2
BRANCH   1  27
ATOM     27  C   UNL A   1      34.566  29.878  26.839  1.00  0.00     0.188 C 
BRANCH  27  28
ATOM     28  C   UNL A   1      35.281  30.727  27.894  1.00  0.00     0.188 C 
BRANCH  28  29
ATOM     29  O   UNL A   1      34.590  31.657  28.729  1.00  0.00    -0.376 OA
BRANCH  29  30
ATOM     30  C   UNL A   1      35.292  32.753  29.290  1.00  0.00     0.202 C 
BRANCH  30  31
ATOM     31  C   UNL A   1      34.450  33.797  30.047  1.00  0.00     0.261 C 
BRANCH  31  32
ATOM     32  O   UNL A   1      34.284  33.505  31.442  1.00  0.00    -0.460 OA
BRANCH  32  33
ATOM     33  C   UNL A   1      34.968  34.247  32.349  1.00  0.00     0.338 C 
ATOM     34  O   UNL A   1      34.544  35.175  33.019  1.00  0.00    -0.246 OA
BRANCH  33  35
ATOM     35  C   UNL A   1      36.227  33.507  32.623  1.00  0.00     0.060 A 
ATOM     36  C   UNL A   1      37.471  34.102  32.400  1.00  0.00     0.016 A 
ATOM     37  C   UNL A   1      36.113  32.111  32.716  1.00  0.00     0.016 A 
ATOM     38  C   UNL A   1      38.541  33.284  32.032  1.00  0.00     0.010 A 
ATOM     39  C   UNL A   1      37.193  31.299  32.361  1.00  0.00     0.010 A 
ATOM     40  C   UNL A   1      38.381  31.885  31.926  1.00  0.00    -0.014 A 
BRANCH  40  41
ATOM     41  C   UNL A   1      39.577  31.100  31.573  1.00  0.00     0.031 A 
ATOM     42  C   UNL A   1      40.548  31.072  32.699  1.00  0.00     0.074 A 
ATOM     43  C   UNL A   1      39.824  30.320  30.498  1.00  0.00     0.049 A 
ATOM     44  N   UNL A   1      41.775  31.478  32.728  1.00  0.00    -0.248 NA
ATOM     45  C   UNL A   1      39.991  30.678  34.002  1.00  0.00     0.031 C 
ATOM     46  C   UNL A   1      38.913  29.902  29.434  1.00  0.00     0.029 A 
ATOM     47  N   UNL A   1      40.972  29.624  30.210  1.00  0.00    -0.354 N 
ATOM     48  C   UNL A   1      42.186  31.288  34.042  1.00  0.00     0.074 A 
ATOM     49  C   UNL A   1      41.010  30.953  34.806  1.00  0.00     0.031 C 
ATOM     50  C   UNL A   1      39.456  28.849  28.776  1.00  0.00     0.029 A 
ATOM     51  C   UNL A   1      40.796  28.598  29.290  1.00  0.00     0.049 A 
ATOM     52  H   UNL A   1      41.843  29.832  30.620  1.00  0.00     0.167 HD
ATOM     53  C   UNL A   1      43.485  31.258  34.437  1.00  0.00     0.031 A 
ATOM     54  C   UNL A   1      41.642  27.559  29.055  1.00  0.00     0.031 A 
ATOM     55  C   UNL A   1      44.381  31.813  33.469  1.00  0.00     0.049 A 
ATOM     56  C   UNL A   1      42.980  27.912  29.594  1.00  0.00     0.074 A 
ATOM     57  C   UNL A   1      44.538  33.069  32.920  1.00  0.00     0.029 A 
ATOM     58  N   UNL A   1      45.074  30.951  32.653  1.00  0.00    -0.354 N 
ATOM     59  N   UNL A   1      43.768  28.819  29.090  1.00  0.00    -0.248 NA
ATOM     60  C   UNL A   1      43.311  27.483  30.943  1.00  0.00     0.031 C 
ATOM     61  C   UNL A   1      44.914  32.839  31.568  1.00  0.00     0.029 A 
ATOM     62  C   UNL A   1      45.009  31.458  31.377  1.00  0.00     0.049 A 
ATOM     63  H   UNL A   1      45.532  30.126  32.931  1.00  0.00     0.167 HD
ATOM     64  C   UNL A   1      44.431  29.367  30.180  1.00  0.00     0.074 A 
ATOM     65  C   UNL A   1      44.186  28.434  31.274  1.00  0.00     0.031 C 
ATOM     66  C   UNL A   1      44.894  30.653  30.169  1.00  0.00     0.031 A 
BRANCH  53  67
ATOM     67  C   UNL A   1      43.917  30.487  35.647  1.00  0.00    -0.014 A 
ATOM     68  C   UNL A   1      44.094  29.086  35.603  1.00  0.00     0.010 A 
ATOM     69  C   UNL A   1      44.326  31.153  36.812  1.00  0.00     0.010 A 
ATOM     70  C   UNL A   1      44.558  28.362  36.696  1.00  0.00     0.020 A 
ATOM     71  C   UNL A   1      44.853  30.439  37.899  1.00  0.00     0.020 A 
ATOM     72  C   UNL A   1      44.944  29.046  37.840  1.00  0.00     0.054 A 
BRANCH  72  73
ATOM     73  S   UNL A   1      45.647  28.079  39.196  1.00  0.00     0.124 S 
ATOM     74  O   UNL A   1      46.202  29.124  40.051  1.00  0.00    -0.237 OA
ATOM     75  O   UNL A   1      44.476  27.388  39.727  1.00  0.00    -0.237 OA
ATOM     76  O   UNL A   1      46.627  27.224  38.533  1.00  0.00    -0.744 OA
ENDBRANCH  72  73
ENDBRANCH  53  67
BRANCH  54  77
ATOM     77  C   UNL A   1      41.280  26.143  28.766  1.00  0.00    -0.014 A 
ATOM     78  C   UNL A   1      42.284  25.226  28.395  1.00  0.00     0.010 A 
ATOM     79  C   UNL A   1      39.939  25.764  28.549  1.00  0.00     0.010 A 
ATOM     80  C   UNL A   1      41.974  24.016  27.765  1.00  0.00     0.020 A 
ATOM     81  C   UNL A   1      39.619  24.551  27.911  1.00  0.00     0.020 A 
ATOM     82  C   UNL A   1      40.645  23.704  27.489  1.00  0.00     0.054 A 
BRANCH  82  83
ATOM     83  S   UNL A   1      40.308  22.228  26.486  1.00  0.00     0.124 S 
ATOM     84  O   UNL A   1      39.990  21.235  27.509  1.00  0.00    -0.237 OA
ATOM     85  O   UNL A   1      39.182  22.659  25.660  1.00  0.00    -0.237 OA
ATOM     86  O   UNL A   1      41.558  22.005  25.764  1.00  0.00    -0.744 OA
ENDBRANCH  82  83
ENDBRANCH  54  77
BRANCH  66  87
ATOM     87  C   UNL A   1      44.988  31.411  28.854  1.00  0.00    -0.014 A 
ATOM     88  C   UNL A   1      46.274  31.730  28.371  1.00  0.00     0.010 A 
ATOM     89  C   UNL A   1      43.881  31.982  28.200  1.00  0.00     0.010 A 
ATOM     90  C   UNL A   1      46.455  32.659  27.342  1.00  0.00     0.020 A 
ATOM     91  C   UNL A   1      44.055  32.860  27.122  1.00  0.00     0.020 A 
ATOM     92  C   UNL A   1      45.341  33.241  26.740  1.00  0.00     0.054 A 
BRANCH  92  93
ATOM     93  S   UNL A   1      45.606  34.580  25.547  1.00  0.00     0.124 S 
ATOM     94  O   UNL A   1      44.751  34.178  24.432  1.00  0.00    -0.237 OA
ATOM     95  O   UNL A   1      45.164  35.760  26.285  1.00  0.00    -0.237 OA
ATOM     96  O   UNL A   1      47.037  34.521  25.261  1.00  0.00    -0.744 OA
ENDBRANCH  92  93
ENDBRANCH  66  87
ENDBRANCH  40  41
ENDBRANCH  33  35
ENDBRANCH  32  33
ENDBRANCH  31  32
ENDBRANCH  30  31
ENDBRANCH  29  30
ENDBRANCH  28  29
ENDBRANCH  27  28
ENDBRANCH   1  27
TORSDOF 26
ENDMDL
MODEL 2
REMARK VINA RESULT:      -8.7      3.558      9.259
REMARK SMILES C[C@H]1CCC[C@@H]1n1c(SCC(=O)OCCOCCOCCOCCOC(=O)c2ccc(-c3c4nc(c(-c5ccc(S(=O)(=O)[O-])cc5)c5ccc([nH]5)c(-c5ccc(S(=O)(=O)[O-])cc5)c5nc(c(-c6ccc(S(=O)(=O)[O-])cc6)c6ccc3[nH]6)C=C5)C=C4)cc2)nc2cnccc21
REMARK SMILES IDX 19 1 18 2 17 3 16 4 15 5 14 6 13 7 11 8 12 9 10 10 9 11 8 12
REMARK SMILES IDX 7 13 94 14 88 15 89 16 93 17 90 18 92 19 91 20 6 21 1 22
REMARK SMILES IDX 2 23 3 24 4 25 5 26 20 27 21 28 22 29 23 30 24 31 25 32
REMARK SMILES IDX 26 33 27 34 28 35 29 36 87 37 30 38 86 39 31 40 32 41 33 42
REMARK SMILES IDX 80 43 34 44 85 45 79 46 81 47 35 48 84 49 78 50 77 51 36 53
REMARK SMILES IDX 66 54 47 55 65 56 48 57 51 58 64 59 82 60 49 61 50 62 63 64
REMARK SMILES IDX 83 65 52 66 37 67 38 68 46 69 39 70 45 71 40 72 41 73 42 74
REMARK SMILES IDX 43 75 44 76 67 77 68 78 76 79 69 80 75 81 70 82 71 83 72 84
REMARK SMILES IDX 73 85 74 86 53 87 54 88 62 89 55 90 61 91 56 92 57 93 58 94
REMARK SMILES IDX 59 95 60 96
REMARK H PARENT 81 52 51 63
REMARK Flexibility Score: inf
ROOT
ATOM      1  O   UNL A   1      33.405  27.056  22.905  1.00  0.00    -0.377 OA
ENDROOT
BRANCH   1   2
ATOM      2  C   UNL A   1      33.124  25.918  22.139  1.00  0.00     0.188 C 
BRANCH   2   3
ATOM      3  C   UNL A   1      32.804  24.686  22.980  1.00  0.00     0.188 C 
BRANCH   3   4
ATOM      4  O   UNL A   1      33.927  24.008  23.497  1.00  0.00    -0.376 OA
BRANCH   4   5
ATOM      5  C   UNL A   1      35.155  23.993  22.782  1.00  0.00     0.202 C 
BRANCH   5   6
ATOM      6  C   UNL A   1      36.335  23.014  23.003  1.00  0.00     0.261 C 
BRANCH   6   7
ATOM      7  O   UNL A   1      37.373  23.306  23.960  1.00  0.00    -0.463 OA
BRANCH   7   8
ATOM      8  C   UNL A   1      37.533  22.412  24.972  1.00  0.00     0.316 C 
ATOM      9  O   UNL A   1      38.079  22.690  26.034  1.00  0.00    -0.251 OA
BRANCH   8  10
ATOM     10  C   UNL A   1      37.032  21.026  24.615  1.00  0.00     0.200 C 
BRANCH  10  11
ATOM     11  S   UNL A   1      35.561  20.161  25.259  1.00  0.00    -0.076 SA
BRANCH  11  12
ATOM     12  C   UNL A   1      34.157  21.053  25.799  1.00  0.00     0.169 A 
ATOM     13  N   UNL A   1      32.799  20.784  25.529  1.00  0.00    -0.315 N 
ATOM     14  C   UNL A   1      32.078  21.901  25.985  1.00  0.00     0.072 A 
ATOM     15  N   UNL A   1      34.303  22.296  26.228  1.00  0.00    -0.221 NA
ATOM     16  C   UNL A   1      33.047  22.841  26.336  1.00  0.00     0.108 A 
ATOM     17  C   UNL A   1      30.720  22.229  26.128  1.00  0.00     0.049 A 
ATOM     18  C   UNL A   1      32.647  24.132  26.731  1.00  0.00     0.141 A 
ATOM     19  C   UNL A   1      30.416  23.524  26.526  1.00  0.00     0.113 A 
ATOM     20  N   UNL A   1      31.330  24.469  26.807  1.00  0.00    -0.262 NA
BRANCH  13  21
ATOM     21  C   UNL A   1      32.231  19.707  24.688  1.00  0.00     0.093 C 
ATOM     22  C   UNL A   1      32.426  17.307  25.642  1.00  0.00     0.010 C 
ATOM     23  C   UNL A   1      32.980  18.344  24.662  1.00  0.00     0.009 C 
ATOM     24  C   UNL A   1      32.820  17.777  23.247  1.00  0.00     0.005 C 
ATOM     25  C   UNL A   1      32.721  18.968  22.344  1.00  0.00     0.002 C 
ATOM     26  C   UNL A   1      32.126  20.060  23.206  1.00  0.00     0.026 C 
ENDBRANCH  13  21
ENDBRANCH  11  12
ENDBRANCH  10  11
ENDBRANCH   8  10
ENDBRANCH   7   8
ENDBRANCH   6   7
ENDBRANCH   5   6
ENDBRANCH   4   5
ENDBRANCH   3   4
ENDBRANCH   2   3
ENDBRANCH   1   2
BRANCH   1  27
ATOM     27  C   UNL A   1      32.279  27.502  23.621  1.00  0.00     0.188 C 
BRANCH  27  28
ATOM     28  C   UNL A   1      32.586  27.809  25.090  1.00  0.00     0.188 C 
BRANCH  28  29
ATOM     29  O   UNL A   1      31.802  28.718  25.865  1.00  0.00    -0.376 OA
BRANCH  29  30
ATOM     30  C   UNL A   1      32.104  30.102  25.842  1.00  0.00     0.202 C 
BRANCH  30  31
ATOM     31  C   UNL A   1      33.416  30.534  26.522  1.00  0.00     0.261 C 
BRANCH  31  32
ATOM     32  O   UNL A   1      33.228  31.148  27.805  1.00  0.00    -0.460 OA
BRANCH  32  33
ATOM     33  C   UNL A   1      33.814  32.347  28.046  1.00  0.00     0.338 C 
ATOM     34  O   UNL A   1      33.533  33.424  27.544  1.00  0.00    -0.246 OA
BRANCH  33  35
ATOM     35  C   UNL A   1      34.627  32.170  29.276  1.00  0.00     0.060 A 
ATOM     36  C   UNL A   1      34.652  33.155  30.267  1.00  0.00     0.016 A 
ATOM     37  C   UNL A   1      35.642  31.203  29.210  1.00  0.00     0.016 A 
ATOM     38  C   UNL A   1      35.815  33.305  31.024  1.00  0.00     0.010 A 
ATOM     39  C   UNL A   1      36.798  31.352  29.982  1.00  0.00     0.010 A 
ATOM     40  C   UNL A   1      36.927  32.458  30.822  1.00  0.00    -0.014 A 
BRANCH  40  41
ATOM     41  C   UNL A   1      38.094  32.665  31.697  1.00  0.00     0.031 A 
ATOM     42  C   UNL A   1      39.231  33.251  30.939  1.00  0.00     0.074 A 
ATOM     43  C   UNL A   1      38.211  32.553  33.038  1.00  0.00     0.049 A 
ATOM     44  N   UNL A   1      40.422  32.781  30.762  1.00  0.00    -0.248 NA
ATOM     45  C   UNL A   1      38.911  34.451  30.150  1.00  0.00     0.031 C 
ATOM     46  C   UNL A   1      37.167  32.338  34.039  1.00  0.00     0.029 A 
ATOM     47  N   UNL A   1      39.336  32.739  33.802  1.00  0.00    -0.354 N 
ATOM     48  C   UNL A   1      41.046  33.690  29.917  1.00  0.00     0.074 A 
ATOM     49  C   UNL A   1      40.028  34.596  29.447  1.00  0.00     0.031 C 
ATOM     50  C   UNL A   1      37.658  32.653  35.262  1.00  0.00     0.029 A 
ATOM     51  C   UNL A   1      39.074  32.974  35.147  1.00  0.00     0.049 A 
ATOM     52  H   UNL A   1      40.248  32.711  33.431  1.00  0.00     0.167 HD
ATOM     53  C   UNL A   1      42.391  33.773  29.747  1.00  0.00     0.031 A 
ATOM     54  C   UNL A   1      39.930  33.499  36.064  1.00  0.00     0.031 A 
ATOM     55  C   UNL A   1      43.090  32.612  30.207  1.00  0.00     0.049 A 
ATOM     56  C   UNL A   1      41.314  33.373  35.542  1.00  0.00     0.074 A 
ATOM     57  C   UNL A   1      43.086  31.283  29.835  1.00  0.00     0.029 A 
ATOM     58  N   UNL A   1      43.692  32.660  31.441  1.00  0.00    -0.354 N 
ATOM     59  N   UNL A   1      41.959  32.249  35.413  1.00  0.00    -0.248 NA
ATOM     60  C   UNL A   1      41.879  34.499  34.817  1.00  0.00     0.031 C 
ATOM     61  C   UNL A   1      43.256  30.558  31.046  1.00  0.00     0.029 A 
ATOM     62  C   UNL A   1      43.397  31.482  32.085  1.00  0.00     0.049 A 
ATOM     63  H   UNL A   1      44.234  33.400  31.797  1.00  0.00     0.167 HD
ATOM     64  C   UNL A   1      42.755  32.417  34.288  1.00  0.00     0.074 A 
ATOM     65  C   UNL A   1      42.740  33.852  34.030  1.00  0.00     0.031 C 
ATOM     66  C   UNL A   1      43.137  31.358  33.512  1.00  0.00     0.031 A 
BRANCH  53  67
ATOM     67  C   UNL A   1      43.053  35.059  29.355  1.00  0.00    -0.014 A 
ATOM     68  C   UNL A   1      43.213  35.421  27.998  1.00  0.00     0.010 A 
ATOM     69  C   UNL A   1      43.379  36.021  30.322  1.00  0.00     0.010 A 
ATOM     70  C   UNL A   1      43.764  36.638  27.615  1.00  0.00     0.020 A 
ATOM     71  C   UNL A   1      43.879  37.277  29.945  1.00  0.00     0.020 A 
ATOM     72  C   UNL A   1      44.088  37.567  28.595  1.00  0.00     0.054 A 
BRANCH  72  73
ATOM     73  S   UNL A   1      44.696  39.180  28.050  1.00  0.00     0.124 S 
ATOM     74  O   UNL A   1      45.703  39.477  29.065  1.00  0.00    -0.237 OA
ATOM     75  O   UNL A   1      45.213  38.886  26.717  1.00  0.00    -0.237 OA
ATOM     76  O   UNL A   1      43.504  40.023  28.084  1.00  0.00    -0.744 OA
ENDBRANCH  72  73
ENDBRANCH  53  67
BRANCH  54  77
ATOM     77  C   UNL A   1      39.607  34.455  37.161  1.00  0.00    -0.014 A 
ATOM     78  C   UNL A   1      39.873  35.829  36.993  1.00  0.00     0.010 A 
ATOM     79  C   UNL A   1      39.335  34.000  38.468  1.00  0.00     0.010 A 
ATOM     80  C   UNL A   1      39.943  36.700  38.084  1.00  0.00     0.020 A 
ATOM     81  C   UNL A   1      39.409  34.869  39.572  1.00  0.00     0.020 A 
ATOM     82  C   UNL A   1      39.751  36.207  39.373  1.00  0.00     0.054 A 
BRANCH  82  83
ATOM     83  S   UNL A   1      40.057  37.328  40.768  1.00  0.00     0.124 S 
ATOM     84  O   UNL A   1      40.201  38.616  40.095  1.00  0.00    -0.237 OA
ATOM     85  O   UNL A   1      38.846  37.172  41.570  1.00  0.00    -0.237 OA
ATOM     86  O   UNL A   1      41.276  36.800  41.377  1.00  0.00    -0.744 OA
ENDBRANCH  82  83
ENDBRANCH  54  77
BRANCH  66  87
ATOM     87  C   UNL A   1      42.979  29.940  34.038  1.00  0.00    -0.014 A 
ATOM     88  C   UNL A   1      41.687  29.373  34.021  1.00  0.00     0.010 A 
ATOM     89  C   UNL A   1      43.992  29.242  34.719  1.00  0.00     0.010 A 
ATOM     90  C   UNL A   1      41.394  28.209  34.737  1.00  0.00     0.020 A 
ATOM     91  C   UNL A   1      43.719  28.037  35.381  1.00  0.00     0.020 A 
ATOM     92  C   UNL A   1      42.410  27.561  35.438  1.00  0.00     0.054 A 
BRANCH  92  93
ATOM     93  S   UNL A   1      41.965  26.169  36.511  1.00  0.00     0.124 S 
ATOM     94  O   UNL A   1      40.986  26.772  37.414  1.00  0.00    -0.237 OA
ATOM     95  O   UNL A   1      41.431  25.192  35.566  1.00  0.00    -0.237 OA
ATOM     96  O   UNL A   1      43.225  25.797  37.149  1.00  0.00    -0.744 OA
ENDBRANCH  92  93
ENDBRANCH  66  87
ENDBRANCH  40  41
ENDBRANCH  33  35
ENDBRANCH  32  33
ENDBRANCH  31  32
ENDBRANCH  30  31
ENDBRANCH  29  30
ENDBRANCH  28  29
ENDBRANCH  27  28
ENDBRANCH   1  27
TORSDOF 26
ENDMDL
MODEL 3
REMARK VINA RESULT:      -8.1      2.049      2.721
REMARK SMILES C[C@H]1CCC[C@@H]1n1c(SCC(=O)OCCOCCOCCOCCOC(=O)c2ccc(-c3c4nc(c(-c5ccc(S(=O)(=O)[O-])cc5)c5ccc([nH]5)c(-c5ccc(S(=O)(=O)[O-])cc5)c5nc(c(-c6ccc(S(=O)(=O)[O-])cc6)c6ccc3[nH]6)C=C5)C=C4)cc2)nc2cnccc21
REMARK SMILES IDX 19 1 18 2 17 3 16 4 15 5 14 6 13 7 11 8 12 9 10 10 9 11 8 12
REMARK SMILES IDX 7 13 94 14 88 15 89 16 93 17 90 18 92 19 91 20 6 21 1 22
REMARK SMILES IDX 2 23 3 24 4 25 5 26 20 27 21 28 22 29 23 30 24 31 25 32
REMARK SMILES IDX 26 33 27 34 28 35 29 36 87 37 30 38 86 39 31 40 32 41 33 42
REMARK SMILES IDX 80 43 34 44 85 45 79 46 81 47 35 48 84 49 78 50 77 51 36 53
REMARK SMILES IDX 66 54 47 55 65 56 48 57 51 58 64 59 82 60 49 61 50 62 63 64
REMARK SMILES IDX 83 65 52 66 37 67 38 68 46 69 39 70 45 71 40 72 41 73 42 74
REMARK SMILES IDX 43 75 44 76 67 77 68 78 76 79 69 80 75 81 70 82 71 83 72 84
REMARK SMILES IDX 73 85 74 86 53 87 54 88 62 89 55 90 61 91 56 92 57 93 58 94
REMARK SMILES IDX 59 95 60 96
REMARK H PARENT 81 52 51 63
REMARK Flexibility Score: inf
ROOT
ATOM      1  O   UNL A   1      33.631  29.713  26.990  1.00  0.00    -0.377 OA
ENDROOT
BRANCH   1   2
ATOM      2  C   UNL A   1      32.722  29.163  26.077  1.00  0.00     0.188 C 
BRANCH   2   3
ATOM      3  C   UNL A   1      32.149  27.823  26.525  1.00  0.00     0.188 C 
BRANCH   3   4
ATOM      4  O   UNL A   1      31.809  26.939  25.480  1.00  0.00    -0.376 OA
BRANCH   4   5
ATOM      5  C   UNL A   1      30.616  27.129  24.733  1.00  0.00     0.202 C 
BRANCH   5   6
ATOM      6  C   UNL A   1      30.449  26.937  23.204  1.00  0.00     0.261 C 
BRANCH   6   7
ATOM      7  O   UNL A   1      31.512  27.279  22.293  1.00  0.00    -0.463 OA
BRANCH   7   8
ATOM      8  C   UNL A   1      32.487  26.347  22.122  1.00  0.00     0.316 C 
ATOM      9  O   UNL A   1      33.633  26.627  21.789  1.00  0.00    -0.251 OA
BRANCH   8  10
ATOM     10  C   UNL A   1      31.983  24.929  22.317  1.00  0.00     0.200 C 
BRANCH  10  11
ATOM     11  S   UNL A   1      32.839  23.368  21.926  1.00  0.00    -0.076 SA
BRANCH  11  12
ATOM     12  C   UNL A   1      32.617  21.946  22.919  1.00  0.00     0.169 A 
ATOM     13  N   UNL A   1      33.169  21.677  24.189  1.00  0.00    -0.315 N 
ATOM     14  C   UNL A   1      32.885  20.328  24.465  1.00  0.00     0.072 A 
ATOM     15  N   UNL A   1      32.176  20.829  22.364  1.00  0.00    -0.221 NA
ATOM     16  C   UNL A   1      32.342  19.822  23.284  1.00  0.00     0.108 A 
ATOM     17  C   UNL A   1      33.037  19.476  25.570  1.00  0.00     0.049 A 
ATOM     18  C   UNL A   1      32.051  18.448  23.190  1.00  0.00     0.141 A 
ATOM     19  C   UNL A   1      32.722  18.136  25.389  1.00  0.00     0.113 A 
ATOM     20  N   UNL A   1      32.260  17.610  24.243  1.00  0.00    -0.262 NA
BRANCH  13  21
ATOM     21  C   UNL A   1      34.104  22.514  24.974  1.00  0.00     0.093 C 
ATOM     22  C   UNL A   1      33.511  22.829  27.476  1.00  0.00     0.010 C 
ATOM     23  C   UNL A   1      33.498  23.434  26.070  1.00  0.00     0.009 C 
ATOM     24  C   UNL A   1      34.355  24.706  26.105  1.00  0.00     0.005 C 
ATOM     25  C   UNL A   1      34.865  24.886  24.709  1.00  0.00     0.002 C 
ATOM     26  C   UNL A   1      34.926  23.488  24.134  1.00  0.00     0.026 C 
ENDBRANCH  13  21
ENDBRANCH  11  12
ENDBRANCH  10  11
ENDBRANCH   8  10
ENDBRANCH   7   8
ENDBRANCH   6   7
ENDBRANCH   5   6
ENDBRANCH   4   5
ENDBRANCH   3   4
ENDBRANCH   2   3
ENDBRANCH   1   2
BRANCH   1  27
ATOM     27  C   UNL A   1      34.964  29.536  26.578  1.00  0.00     0.188 C 
BRANCH  27  28
ATOM     28  C   UNL A   1      35.957  29.539  27.744  1.00  0.00     0.188 C 
BRANCH  28  29
ATOM     29  O   UNL A   1      35.639  30.088  29.024  1.00  0.00    -0.376 OA
BRANCH  29  30
ATOM     30  C   UNL A   1      36.677  30.561  29.864  1.00  0.00     0.202 C 
BRANCH  30  31
ATOM     31  C   UNL A   1      36.268  31.530  30.989  1.00  0.00     0.261 C 
BRANCH  31  32
ATOM     32  O   UNL A   1      36.232  30.925  32.289  1.00  0.00    -0.460 OA
BRANCH  32  33
ATOM     33  C   UNL A   1      36.908  31.518  33.303  1.00  0.00     0.338 C 
ATOM     34  O   UNL A   1      36.486  32.354  34.087  1.00  0.00    -0.246 OA
BRANCH  33  35
ATOM     35  C   UNL A   1      38.146  30.721  33.498  1.00  0.00     0.060 A 
ATOM     36  C   UNL A   1      39.393  31.344  33.595  1.00  0.00     0.016 A 
ATOM     37  C   UNL A   1      38.056  29.357  33.179  1.00  0.00     0.016 A 
ATOM     38  C   UNL A   1      40.516  30.655  33.135  1.00  0.00     0.010 A 
ATOM     39  C   UNL A   1      39.188  28.669  32.734  1.00  0.00     0.010 A 
ATOM     40  C   UNL A   1      40.403  29.345  32.620  1.00  0.00    -0.014 A 
BRANCH  40  41
ATOM     41  C   UNL A   1      41.649  28.682  32.197  1.00  0.00     0.031 A 
ATOM     42  C   UNL A   1      42.597  28.554  33.336  1.00  0.00     0.074 A 
ATOM     43  C   UNL A   1      41.962  28.070  31.035  1.00  0.00     0.049 A 
ATOM     44  N   UNL A   1      43.797  29.018  33.454  1.00  0.00    -0.248 NA
ATOM     45  C   UNL A   1      42.038  27.955  34.558  1.00  0.00     0.031 C 
ATOM     46  C   UNL A   1      41.098  27.752  29.899  1.00  0.00     0.029 A 
ATOM     47  N   UNL A   1      43.154  27.484  30.687  1.00  0.00    -0.354 N 
ATOM     48  C   UNL A   1      44.193  28.674  34.740  1.00  0.00     0.074 A 
ATOM     49  C   UNL A   1      43.023  28.174  35.420  1.00  0.00     0.031 C 
ATOM     50  C   UNL A   1      41.715  26.830  29.120  1.00  0.00     0.029 A 
ATOM     51  C   UNL A   1      43.056  26.584  29.632  1.00  0.00     0.049 A 
ATOM     52  H   UNL A   1      44.003  27.681  31.145  1.00  0.00     0.167 HD
ATOM     53  C   UNL A   1      45.483  28.661  35.163  1.00  0.00     0.031 A 
ATOM     54  C   UNL A   1      43.966  25.636  29.283  1.00  0.00     0.031 A 
ATOM     55  C   UNL A   1      46.365  29.391  34.305  1.00  0.00     0.049 A 
ATOM     56  C   UNL A   1      45.270  25.985  29.901  1.00  0.00     0.074 A 
ATOM     57  C   UNL A   1      46.459  30.717  33.935  1.00  0.00     0.029 A 
ATOM     58  N   UNL A   1      47.123  28.688  33.400  1.00  0.00    -0.354 N 
ATOM     59  N   UNL A   1      46.014  26.994  29.546  1.00  0.00    -0.248 NA
ATOM     60  C   UNL A   1      45.598  25.394  31.188  1.00  0.00     0.031 C 
ATOM     61  C   UNL A   1      46.875  30.694  32.575  1.00  0.00     0.029 A 
ATOM     62  C   UNL A   1      47.054  29.359  32.203  1.00  0.00     0.049 A 
ATOM     63  H   UNL A   1      47.622  27.859  33.576  1.00  0.00     0.167 HD
ATOM     64  C   UNL A   1      46.622  27.423  30.718  1.00  0.00     0.074 A 
ATOM     65  C   UNL A   1      46.410  26.337  31.669  1.00  0.00     0.031 C 
ATOM     66  C   UNL A   1      47.010  28.722  30.894  1.00  0.00     0.031 A 
BRANCH  53  67
ATOM     67  C   UNL A   1      45.935  27.758  36.270  1.00  0.00    -0.014 A 
ATOM     68  C   UNL A   1      46.208  26.390  36.039  1.00  0.00     0.010 A 
ATOM     69  C   UNL A   1      46.267  28.278  37.530  1.00  0.00     0.010 A 
ATOM     70  C   UNL A   1      46.690  25.551  37.037  1.00  0.00     0.020 A 
ATOM     71  C   UNL A   1      46.813  27.454  38.526  1.00  0.00     0.020 A 
ATOM     72  C   UNL A   1      47.000  26.091  38.277  1.00  0.00     0.054 A 
BRANCH  72  73
ATOM     73  S   UNL A   1      47.731  24.990  39.511  1.00  0.00     0.124 S 
ATOM     74  O   UNL A   1      48.158  25.935  40.539  1.00  0.00    -0.237 OA
ATOM     75  O   UNL A   1      46.606  24.134  39.872  1.00  0.00    -0.237 OA
ATOM     76  O   UNL A   1      48.808  24.328  38.781  1.00  0.00    -0.744 OA
ENDBRANCH  72  73
ENDBRANCH  53  67
BRANCH  54  77
ATOM     77  C   UNL A   1      43.692  24.255  28.795  1.00  0.00    -0.014 A 
ATOM     78  C   UNL A   1      44.429  23.737  27.711  1.00  0.00     0.010 A 
ATOM     79  C   UNL A   1      42.520  23.567  29.174  1.00  0.00     0.010 A 
ATOM     80  C   UNL A   1      43.982  22.629  26.984  1.00  0.00     0.020 A 
ATOM     81  C   UNL A   1      42.061  22.454  28.444  1.00  0.00     0.020 A 
ATOM     82  C   UNL A   1      42.779  22.018  27.330  1.00  0.00     0.054 A 
BRANCH  82  83
ATOM     83  S   UNL A   1      42.136  20.721  26.234  1.00  0.00     0.124 S 
ATOM     84  O   UNL A   1      40.748  21.138  26.054  1.00  0.00    -0.237 OA
ATOM     85  O   UNL A   1      42.988  20.855  25.054  1.00  0.00    -0.237 OA
ATOM     86  O   UNL A   1      42.327  19.492  27.000  1.00  0.00    -0.744 OA
ENDBRANCH  82  83
ENDBRANCH  54  77
BRANCH  66  87
ATOM     87  C   UNL A   1      47.086  29.656  29.697  1.00  0.00    -0.014 A 
ATOM     88  C   UNL A   1      48.364  29.961  29.182  1.00  0.00     0.010 A 
ATOM     89  C   UNL A   1      45.989  30.385  29.203  1.00  0.00     0.010 A 
ATOM     90  C   UNL A   1      48.554  31.017  28.286  1.00  0.00     0.020 A 
ATOM     91  C   UNL A   1      46.166  31.399  28.251  1.00  0.00     0.020 A 
ATOM     92  C   UNL A   1      47.453  31.750  27.845  1.00  0.00     0.054 A 
BRANCH  92  93
ATOM     93  S   UNL A   1      47.748  33.229  26.840  1.00  0.00     0.124 S 
ATOM     94  O   UNL A   1      46.588  33.238  25.950  1.00  0.00    -0.237 OA
ATOM     95  O   UNL A   1      47.785  34.294  27.838  1.00  0.00    -0.237 OA
ATOM     96  O   UNL A   1      49.018  32.955  26.171  1.00  0.00    -0.744 OA
ENDBRANCH  92  93
ENDBRANCH  66  87
ENDBRANCH  40  41
ENDBRANCH  33  35
ENDBRANCH  32  33
ENDBRANCH  31  32
ENDBRANCH  30  31
ENDBRANCH  29  30
ENDBRANCH  28  29
ENDBRANCH  27  28
ENDBRANCH   1  27
TORSDOF 26
ENDMDL
