MODEL 1
REMARK VINA RESULT:      -9.8      0.000      0.000
REMARK SMILES Cc1cc(C(=O)OCCOCCOCCOCCOC(=O)c2ccc(-c3c4nc(c(-c5ccc(S(=O)(=O)[O-])cc5)c5ccc([nH]5)c(-c5ccc(S(=O)(=O)[O-])cc5)c5nc(c(-c6ccc(S(=O)(=O)[O-])cc6)c6ccc3[nH]6)C=C5)C=C4)cc2)c(C#Cc2ccccc2)s1
REMARK SMILES IDX 14 1 13 2 12 3 11 4 10 5 9 6 8 7 7 8 5 9 6 10 4 11 1 12 2 13
REMARK SMILES IDX 3 14 91 15 82 16 83 17 84 18 85 19 86 20 90 21 87 22 89 23
REMARK SMILES IDX 88 24 15 25 16 26 17 27 18 28 19 29 20 30 21 31 22 32 23 33
REMARK SMILES IDX 81 34 24 35 80 36 25 37 26 38 27 39 74 40 28 41 79 42 73 43
REMARK SMILES IDX 75 44 29 45 78 46 72 47 71 48 30 50 60 51 41 52 59 53 42 54
REMARK SMILES IDX 45 55 58 56 76 57 43 58 44 59 57 61 77 62 46 63 31 64 32 65
REMARK SMILES IDX 40 66 33 67 39 68 34 69 35 70 36 71 37 72 38 73 61 74 62 75
REMARK SMILES IDX 70 76 63 77 69 78 64 79 65 80 66 81 67 82 68 83 47 84 48 85
REMARK SMILES IDX 56 86 49 87 55 88 50 89 51 90 52 91 53 92 54 93
REMARK H PARENT 75 49 45 60
REMARK Flexibility Score: inf
ROOT
ATOM      1  C   UNL A   1      36.680  32.073  28.832  1.00  0.00     0.188 C 
ENDROOT
BRANCH   1   2
ATOM      2  O   UNL A   1      35.954  31.602  27.710  1.00  0.00    -0.377 OA
BRANCH   2   3
ATOM      3  C   UNL A   1      35.401  30.305  27.869  1.00  0.00     0.188 C 
BRANCH   3   4
ATOM      4  C   UNL A   1      34.186  29.961  26.989  1.00  0.00     0.188 C 
BRANCH   4   5
ATOM      5  O   UNL A   1      34.299  28.712  26.317  1.00  0.00    -0.376 OA
BRANCH   5   6
ATOM      6  C   UNL A   1      33.481  28.448  25.188  1.00  0.00     0.202 C 
BRANCH   6   7
ATOM      7  C   UNL A   1      34.038  27.449  24.169  1.00  0.00     0.261 C 
BRANCH   7   8
ATOM      8  O   UNL A   1      33.643  27.625  22.804  1.00  0.00    -0.460 OA
BRANCH   8   9
ATOM      9  C   UNL A   1      33.028  26.584  22.173  1.00  0.00     0.340 C 
ATOM     10  O   UNL A   1      33.362  26.142  21.081  1.00  0.00    -0.246 OA
BRANCH   9  11
ATOM     11  C   UNL A   1      32.145  25.880  23.108  1.00  0.00     0.086 A 
ATOM     12  C   UNL A   1      31.065  22.711  24.908  1.00  0.00     0.056 C 
ATOM     13  C   UNL A   1      31.259  24.061  24.312  1.00  0.00     0.004 A 
ATOM     14  C   UNL A   1      32.317  24.520  23.556  1.00  0.00     0.032 A 
ATOM     15  S   UNL A   1      30.082  25.276  24.536  1.00  0.00    -0.131 S 
ATOM     16  C   UNL A   1      30.936  26.389  23.559  1.00  0.00     0.092 A 
BRANCH  16  17
ATOM     17  C   UNL A   1      30.355  27.642  23.188  1.00  0.00    -0.050 C 
ATOM     18  C   UNL A   1      29.896  28.719  22.929  1.00  0.00    -0.061 C 
BRANCH  18  19
ATOM     19  C   UNL A   1      29.327  29.996  22.629  1.00  0.00     0.025 A 
ATOM     20  C   UNL A   1      29.198  30.957  23.634  1.00  0.00     0.017 A 
ATOM     21  C   UNL A   1      28.862  30.268  21.341  1.00  0.00     0.017 A 
ATOM     22  C   UNL A   1      28.563  32.171  23.360  1.00  0.00     0.001 A 
ATOM     23  C   UNL A   1      28.228  31.480  21.068  1.00  0.00     0.001 A 
ATOM     24  C   UNL A   1      28.067  32.427  22.081  1.00  0.00     0.000 A 
ENDBRANCH  18  19
ENDBRANCH  16  17
ENDBRANCH   9  11
ENDBRANCH   8   9
ENDBRANCH   7   8
ENDBRANCH   6   7
ENDBRANCH   5   6
ENDBRANCH   4   5
ENDBRANCH   3   4
ENDBRANCH   2   3
ENDBRANCH   1   2
BRANCH   1  25
ATOM     25  C   UNL A   1      36.744  33.615  28.881  1.00  0.00     0.188 C 
BRANCH  25  26
ATOM     26  O   UNL A   1      35.554  34.388  28.998  1.00  0.00    -0.376 OA
BRANCH  26  27
ATOM     27  C   UNL A   1      34.515  33.935  29.848  1.00  0.00     0.202 C 
BRANCH  27  28
ATOM     28  C   UNL A   1      34.551  34.255  31.360  1.00  0.00     0.261 C 
BRANCH  28  29
ATOM     29  O   UNL A   1      35.788  33.968  32.026  1.00  0.00    -0.460 OA
BRANCH  29  30
ATOM     30  C   UNL A   1      35.775  33.164  33.120  1.00  0.00     0.338 C 
ATOM     31  O   UNL A   1      34.890  33.068  33.949  1.00  0.00    -0.246 OA
BRANCH  30  32
ATOM     32  C   UNL A   1      36.896  32.195  32.946  1.00  0.00     0.060 A 
ATOM     33  C   UNL A   1      38.213  32.634  32.783  1.00  0.00     0.016 A 
ATOM     34  C   UNL A   1      36.544  30.880  32.591  1.00  0.00     0.016 A 
ATOM     35  C   UNL A   1      39.129  31.802  32.138  1.00  0.00     0.010 A 
ATOM     36  C   UNL A   1      37.468  30.053  31.938  1.00  0.00     0.010 A 
ATOM     37  C   UNL A   1      38.753  30.524  31.669  1.00  0.00    -0.014 A 
BRANCH  37  38
ATOM     38  C   UNL A   1      39.824  29.673  31.119  1.00  0.00     0.031 A 
ATOM     39  C   UNL A   1      40.813  29.264  32.158  1.00  0.00     0.074 A 
ATOM     40  C   UNL A   1      39.954  29.103  29.901  1.00  0.00     0.049 A 
ATOM     41  N   UNL A   1      42.074  29.542  32.227  1.00  0.00    -0.248 NA
ATOM     42  C   UNL A   1      40.278  28.548  33.327  1.00  0.00     0.031 C 
ATOM     43  C   UNL A   1      38.981  29.009  28.813  1.00  0.00     0.029 A 
ATOM     44  N   UNL A   1      41.018  28.379  29.423  1.00  0.00    -0.354 N 
ATOM     45  C   UNL A   1      42.533  28.928  33.388  1.00  0.00     0.074 A 
ATOM     46  C   UNL A   1      41.367  28.439  34.083  1.00  0.00     0.031 C 
ATOM     47  C   UNL A   1      39.411  28.092  27.910  1.00  0.00     0.029 A 
ATOM     48  C   UNL A   1      40.746  27.643  28.276  1.00  0.00     0.049 A 
ATOM     49  H   UNL A   1      41.901  28.381  29.857  1.00  0.00     0.167 HD
ATOM     50  C   UNL A   1      43.852  28.733  33.659  1.00  0.00     0.031 A 
ATOM     51  C   UNL A   1      41.537  26.689  27.719  1.00  0.00     0.031 A 
ATOM     52  C   UNL A   1      44.709  29.533  32.831  1.00  0.00     0.049 A 
ATOM     53  C   UNL A   1      42.921  26.876  28.220  1.00  0.00     0.074 A 
ATOM     54  C   UNL A   1      44.882  30.890  32.646  1.00  0.00     0.029 A 
ATOM     55  N   UNL A   1      45.335  28.925  31.771  1.00  0.00    -0.354 N 
ATOM     56  N   UNL A   1      43.693  27.874  27.905  1.00  0.00    -0.248 NA
ATOM     57  C   UNL A   1      43.355  26.083  29.357  1.00  0.00     0.031 C 
ATOM     58  C   UNL A   1      45.174  31.040  31.261  1.00  0.00     0.029 A 
ATOM     59  C   UNL A   1      45.208  29.765  30.691  1.00  0.00     0.049 A 
ATOM     60  H   UNL A   1      45.789  28.051  31.782  1.00  0.00     0.167 HD
ATOM     61  C   UNL A   1      44.475  28.089  29.029  1.00  0.00     0.074 A 
ATOM     62  C   UNL A   1      44.300  26.889  29.842  1.00  0.00     0.031 C 
ATOM     63  C   UNL A   1      44.980  29.323  29.326  1.00  0.00     0.031 A 
BRANCH  50  64
ATOM     64  C   UNL A   1      44.362  27.616  34.529  1.00  0.00    -0.014 A 
ATOM     65  C   UNL A   1      44.171  26.257  34.202  1.00  0.00     0.010 A 
ATOM     66  C   UNL A   1      45.237  27.902  35.594  1.00  0.00     0.010 A 
ATOM     67  C   UNL A   1      44.773  25.229  34.926  1.00  0.00     0.020 A 
ATOM     68  C   UNL A   1      45.889  26.876  36.296  1.00  0.00     0.020 A 
ATOM     69  C   UNL A   1      45.640  25.545  35.964  1.00  0.00     0.054 A 
BRANCH  69  70
ATOM     70  S   UNL A   1      46.492  24.187  36.802  1.00  0.00     0.124 S 
ATOM     71  O   UNL A   1      47.557  24.892  37.510  1.00  0.00    -0.237 OA
ATOM     72  O   UNL A   1      45.437  23.628  37.644  1.00  0.00    -0.237 OA
ATOM     73  O   UNL A   1      46.931  23.329  35.705  1.00  0.00    -0.744 OA
ENDBRANCH  69  70
ENDBRANCH  50  64
BRANCH  51  74
ATOM     74  C   UNL A   1      41.138  25.401  27.087  1.00  0.00    -0.014 A 
ATOM     75  C   UNL A   1      40.064  24.667  27.623  1.00  0.00     0.010 A 
ATOM     76  C   UNL A   1      42.019  24.731  26.208  1.00  0.00     0.010 A 
ATOM     77  C   UNL A   1      39.929  23.295  27.378  1.00  0.00     0.020 A 
ATOM     78  C   UNL A   1      41.892  23.354  25.962  1.00  0.00     0.020 A 
ATOM     79  C   UNL A   1      40.871  22.637  26.587  1.00  0.00     0.054 A 
BRANCH  79  80
ATOM     80  S   UNL A   1      40.793  20.825  26.489  1.00  0.00     0.124 S 
ATOM     81  O   UNL A   1      39.529  20.614  25.790  1.00  0.00    -0.237 OA
ATOM     82  O   UNL A   1      41.994  20.499  25.725  1.00  0.00    -0.237 OA
ATOM     83  O   UNL A   1      40.814  20.400  27.887  1.00  0.00    -0.744 OA
ENDBRANCH  79  80
ENDBRANCH  51  74
BRANCH  63  84
ATOM     84  C   UNL A   1      45.018  30.399  28.257  1.00  0.00    -0.014 A 
ATOM     85  C   UNL A   1      46.266  30.687  27.669  1.00  0.00     0.010 A 
ATOM     86  C   UNL A   1      43.933  31.235  27.938  1.00  0.00     0.010 A 
ATOM     87  C   UNL A   1      46.449  31.815  26.864  1.00  0.00     0.020 A 
ATOM     88  C   UNL A   1      44.097  32.328  27.073  1.00  0.00     0.020 A 
ATOM     89  C   UNL A   1      45.365  32.646  26.593  1.00  0.00     0.054 A 
BRANCH  89  90
ATOM     90  S   UNL A   1      45.657  34.185  25.682  1.00  0.00     0.124 S 
ATOM     91  O   UNL A   1      45.123  35.193  26.597  1.00  0.00    -0.237 OA
ATOM     92  O   UNL A   1      47.109  34.190  25.519  1.00  0.00    -0.237 OA
ATOM     93  O   UNL A   1      44.891  34.016  24.450  1.00  0.00    -0.744 OA
ENDBRANCH  89  90
ENDBRANCH  63  84
ENDBRANCH  37  38
ENDBRANCH  30  32
ENDBRANCH  29  30
ENDBRANCH  28  29
ENDBRANCH  27  28
ENDBRANCH  26  27
ENDBRANCH  25  26
ENDBRANCH   1  25
TORSDOF 25
ENDMDL
MODEL 2
REMARK VINA RESULT:      -8.1      9.337     15.033
REMARK SMILES Cc1cc(C(=O)OCCOCCOCCOCCOC(=O)c2ccc(-c3c4nc(c(-c5ccc(S(=O)(=O)[O-])cc5)c5ccc([nH]5)c(-c5ccc(S(=O)(=O)[O-])cc5)c5nc(c(-c6ccc(S(=O)(=O)[O-])cc6)c6ccc3[nH]6)C=C5)C=C4)cc2)c(C#Cc2ccccc2)s1
REMARK SMILES IDX 14 1 13 2 12 3 11 4 10 5 9 6 8 7 7 8 5 9 6 10 4 11 1 12 2 13
REMARK SMILES IDX 3 14 91 15 82 16 83 17 84 18 85 19 86 20 90 21 87 22 89 23
REMARK SMILES IDX 88 24 15 25 16 26 17 27 18 28 19 29 20 30 21 31 22 32 23 33
REMARK SMILES IDX 81 34 24 35 80 36 25 37 26 38 27 39 74 40 28 41 79 42 73 43
REMARK SMILES IDX 75 44 29 45 78 46 72 47 71 48 30 50 60 51 41 52 59 53 42 54
REMARK SMILES IDX 45 55 58 56 76 57 43 58 44 59 57 61 77 62 46 63 31 64 32 65
REMARK SMILES IDX 40 66 33 67 39 68 34 69 35 70 36 71 37 72 38 73 61 74 62 75
REMARK SMILES IDX 70 76 63 77 69 78 64 79 65 80 66 81 67 82 68 83 47 84 48 85
REMARK SMILES IDX 56 86 49 87 55 88 50 89 51 90 52 91 53 92 54 93
REMARK H PARENT 75 49 45 60
REMARK Flexibility Score: inf
ROOT
ATOM      1  C   UNL A   1      43.998  41.297  26.454  1.00  0.00     0.188 C 
ENDROOT
BRANCH   1   2
ATOM      2  O   UNL A   1      44.418  41.335  25.102  1.00  0.00    -0.377 OA
BRANCH   2   3
ATOM      3  C   UNL A   1      45.147  42.496  24.743  1.00  0.00     0.188 C 
BRANCH   3   4
ATOM      4  C   UNL A   1      45.802  42.498  23.350  1.00  0.00     0.188 C 
BRANCH   4   5
ATOM      5  O   UNL A   1      45.591  43.702  22.618  1.00  0.00    -0.376 OA
BRANCH   5   6
ATOM      6  C   UNL A   1      44.294  44.004  22.129  1.00  0.00     0.202 C 
BRANCH   6   7
ATOM      7  C   UNL A   1      44.138  44.035  20.605  1.00  0.00     0.261 C 
BRANCH   7   8
ATOM      8  O   UNL A   1      45.328  44.231  19.834  1.00  0.00    -0.460 OA
BRANCH   8   9
ATOM      9  C   UNL A   1      45.331  45.220  18.896  1.00  0.00     0.340 C 
ATOM     10  O   UNL A   1      46.328  45.604  18.297  1.00  0.00    -0.246 OA
BRANCH   9  11
ATOM     11  C   UNL A   1      43.958  45.525  18.482  1.00  0.00     0.086 A 
ATOM     12  C   UNL A   1      40.529  44.411  17.278  1.00  0.00     0.056 C 
ATOM     13  C   UNL A   1      41.777  45.102  17.703  1.00  0.00     0.004 A 
ATOM     14  C   UNL A   1      42.928  44.548  18.223  1.00  0.00     0.032 A 
ATOM     15  S   UNL A   1      41.905  46.799  17.576  1.00  0.00    -0.131 S 
ATOM     16  C   UNL A   1      43.521  46.794  18.134  1.00  0.00     0.092 A 
BRANCH  16  17
ATOM     17  C   UNL A   1      44.314  47.984  18.105  1.00  0.00    -0.050 C 
ATOM     18  C   UNL A   1      44.967  48.986  18.017  1.00  0.00    -0.061 C 
BRANCH  18  19
ATOM     19  C   UNL A   1      45.766  50.167  17.912  1.00  0.00     0.025 A 
ATOM     20  C   UNL A   1      46.902  50.315  18.711  1.00  0.00     0.017 A 
ATOM     21  C   UNL A   1      45.387  51.191  17.044  1.00  0.00     0.017 A 
ATOM     22  C   UNL A   1      47.632  51.504  18.671  1.00  0.00     0.001 A 
ATOM     23  C   UNL A   1      46.115  52.381  17.005  1.00  0.00     0.001 A 
ATOM     24  C   UNL A   1      47.231  52.542  17.828  1.00  0.00     0.000 A 
ENDBRANCH  18  19
ENDBRANCH  16  17
ENDBRANCH   9  11
ENDBRANCH   8   9
ENDBRANCH   7   8
ENDBRANCH   6   7
ENDBRANCH   5   6
ENDBRANCH   4   5
ENDBRANCH   3   4
ENDBRANCH   2   3
ENDBRANCH   1   2
BRANCH   1  25
ATOM     25  C   UNL A   1      42.689  40.499  26.638  1.00  0.00     0.188 C 
BRANCH  25  26
ATOM     26  O   UNL A   1      42.272  40.075  27.932  1.00  0.00    -0.376 OA
BRANCH  26  27
ATOM     27  C   UNL A   1      43.130  39.251  28.701  1.00  0.00     0.202 C 
BRANCH  27  28
ATOM     28  C   UNL A   1      43.831  39.817  29.958  1.00  0.00     0.261 C 
BRANCH  28  29
ATOM     29  O   UNL A   1      44.884  39.008  30.498  1.00  0.00    -0.460 OA
BRANCH  29  30
ATOM     30  C   UNL A   1      45.125  39.049  31.834  1.00  0.00     0.338 C 
ATOM     31  O   UNL A   1      45.530  39.999  32.477  1.00  0.00    -0.246 OA
BRANCH  30  32
ATOM     32  C   UNL A   1      44.504  37.823  32.414  1.00  0.00     0.060 A 
ATOM     33  C   UNL A   1      43.940  36.842  31.595  1.00  0.00     0.016 A 
ATOM     34  C   UNL A   1      44.184  37.865  33.783  1.00  0.00     0.016 A 
ATOM     35  C   UNL A   1      42.956  36.002  32.122  1.00  0.00     0.010 A 
ATOM     36  C   UNL A   1      43.191  37.024  34.303  1.00  0.00     0.010 A 
ATOM     37  C   UNL A   1      42.541  36.116  33.466  1.00  0.00    -0.014 A 
BRANCH  37  38
ATOM     38  C   UNL A   1      41.593  35.102  33.961  1.00  0.00     0.031 A 
ATOM     39  C   UNL A   1      41.906  33.736  33.448  1.00  0.00     0.074 A 
ATOM     40  C   UNL A   1      40.618  35.191  34.893  1.00  0.00     0.049 A 
ATOM     41  N   UNL A   1      41.190  32.975  32.688  1.00  0.00    -0.248 NA
ATOM     42  C   UNL A   1      43.252  33.219  33.741  1.00  0.00     0.031 C 
ATOM     43  C   UNL A   1      40.325  36.278  35.826  1.00  0.00     0.029 A 
ATOM     44  N   UNL A   1      39.715  34.223  35.256  1.00  0.00    -0.354 N 
ATOM     45  C   UNL A   1      41.938  31.816  32.502  1.00  0.00     0.074 A 
ATOM     46  C   UNL A   1      43.240  32.072  33.067  1.00  0.00     0.031 C 
ATOM     47  C   UNL A   1      39.476  35.825  36.783  1.00  0.00     0.029 A 
ATOM     48  C   UNL A   1      39.053  34.471  36.453  1.00  0.00     0.049 A 
ATOM     49  H   UNL A   1      39.549  33.419  34.713  1.00  0.00     0.167 HD
ATOM     50  C   UNL A   1      41.414  30.659  32.013  1.00  0.00     0.031 A 
ATOM     51  C   UNL A   1      38.277  33.598  37.146  1.00  0.00     0.031 A 
ATOM     52  C   UNL A   1      40.142  30.855  31.377  1.00  0.00     0.049 A 
ATOM     53  C   UNL A   1      37.848  32.519  36.224  1.00  0.00     0.074 A 
ATOM     54  C   UNL A   1      39.708  31.585  30.289  1.00  0.00     0.029 A 
ATOM     55  N   UNL A   1      39.011  30.506  32.073  1.00  0.00    -0.354 N 
ATOM     56  N   UNL A   1      37.010  32.675  35.241  1.00  0.00    -0.248 NA
ATOM     57  C   UNL A   1      38.615  31.285  36.203  1.00  0.00     0.031 C 
ATOM     58  C   UNL A   1      38.407  32.041  30.645  1.00  0.00     0.029 A 
ATOM     59  C   UNL A   1      38.105  31.525  31.908  1.00  0.00     0.049 A 
ATOM     60  H   UNL A   1      38.875  29.680  32.592  1.00  0.00     0.167 HD
ATOM     61  C   UNL A   1      37.427  31.776  34.271  1.00  0.00     0.074 A 
ATOM     62  C   UNL A   1      38.344  30.876  34.963  1.00  0.00     0.031 C 
ATOM     63  C   UNL A   1      37.203  32.001  32.942  1.00  0.00     0.031 A 
BRANCH  50  64
ATOM     64  C   UNL A   1      41.967  29.298  32.339  1.00  0.00    -0.014 A 
ATOM     65  C   UNL A   1      43.140  28.796  31.739  1.00  0.00     0.010 A 
ATOM     66  C   UNL A   1      41.440  28.570  33.423  1.00  0.00     0.010 A 
ATOM     67  C   UNL A   1      43.733  27.603  32.152  1.00  0.00     0.020 A 
ATOM     68  C   UNL A   1      42.057  27.395  33.881  1.00  0.00     0.020 A 
ATOM     69  C   UNL A   1      43.193  26.914  33.231  1.00  0.00     0.054 A 
BRANCH  69  70
ATOM     70  S   UNL A   1      44.058  25.435  33.811  1.00  0.00     0.124 S 
ATOM     71  O   UNL A   1      45.207  26.011  34.505  1.00  0.00    -0.237 OA
ATOM     72  O   UNL A   1      43.057  24.802  34.666  1.00  0.00    -0.237 OA
ATOM     73  O   UNL A   1      44.368  24.714  32.579  1.00  0.00    -0.744 OA
ENDBRANCH  69  70
ENDBRANCH  50  64
BRANCH  51  74
ATOM     74  C   UNL A   1      38.178  33.407  38.619  1.00  0.00    -0.014 A 
ATOM     75  C   UNL A   1      39.348  33.409  39.401  1.00  0.00     0.010 A 
ATOM     76  C   UNL A   1      37.004  32.872  39.195  1.00  0.00     0.010 A 
ATOM     77  C   UNL A   1      39.377  32.809  40.666  1.00  0.00     0.020 A 
ATOM     78  C   UNL A   1      37.027  32.265  40.462  1.00  0.00     0.020 A 
ATOM     79  C   UNL A   1      38.228  32.199  41.168  1.00  0.00     0.054 A 
BRANCH  79  80
ATOM     80  S   UNL A   1      38.370  31.232  42.699  1.00  0.00     0.124 S 
ATOM     81  O   UNL A   1      36.997  31.249  43.196  1.00  0.00    -0.237 OA
ATOM     82  O   UNL A   1      38.845  29.939  42.212  1.00  0.00    -0.237 OA
ATOM     83  O   UNL A   1      39.334  31.985  43.498  1.00  0.00    -0.744 OA
ENDBRANCH  79  80
ENDBRANCH  51  74
BRANCH  63  84
ATOM     84  C   UNL A   1      36.177  33.035  32.515  1.00  0.00    -0.014 A 
ATOM     85  C   UNL A   1      36.259  34.313  33.105  1.00  0.00     0.010 A 
ATOM     86  C   UNL A   1      35.061  32.755  31.707  1.00  0.00     0.010 A 
ATOM     87  C   UNL A   1      35.227  35.245  32.968  1.00  0.00     0.020 A 
ATOM     88  C   UNL A   1      34.057  33.715  31.508  1.00  0.00     0.020 A 
ATOM     89  C   UNL A   1      34.116  34.928  32.189  1.00  0.00     0.054 A 
BRANCH  89  90
ATOM     90  S   UNL A   1      32.722  36.085  32.154  1.00  0.00     0.124 S 
ATOM     91  O   UNL A   1      31.593  35.220  32.495  1.00  0.00    -0.237 OA
ATOM     92  O   UNL A   1      33.093  37.065  33.171  1.00  0.00    -0.237 OA
ATOM     93  O   UNL A   1      32.712  36.583  30.781  1.00  0.00    -0.744 OA
ENDBRANCH  89  90
ENDBRANCH  63  84
ENDBRANCH  37  38
ENDBRANCH  30  32
ENDBRANCH  29  30
ENDBRANCH  28  29
ENDBRANCH  27  28
ENDBRANCH  26  27
ENDBRANCH  25  26
ENDBRANCH   1  25
TORSDOF 25
ENDMDL
MODEL 3
REMARK VINA RESULT:      -8.1      7.547     14.164
REMARK SMILES Cc1cc(C(=O)OCCOCCOCCOCCOC(=O)c2ccc(-c3c4nc(c(-c5ccc(S(=O)(=O)[O-])cc5)c5ccc([nH]5)c(-c5ccc(S(=O)(=O)[O-])cc5)c5nc(c(-c6ccc(S(=O)(=O)[O-])cc6)c6ccc3[nH]6)C=C5)C=C4)cc2)c(C#Cc2ccccc2)s1
REMARK SMILES IDX 14 1 13 2 12 3 11 4 10 5 9 6 8 7 7 8 5 9 6 10 4 11 1 12 2 13
REMARK SMILES IDX 3 14 91 15 82 16 83 17 84 18 85 19 86 20 90 21 87 22 89 23
REMARK SMILES IDX 88 24 15 25 16 26 17 27 18 28 19 29 20 30 21 31 22 32 23 33
REMARK SMILES IDX 81 34 24 35 80 36 25 37 26 38 27 39 74 40 28 41 79 42 73 43
REMARK SMILES IDX 75 44 29 45 78 46 72 47 71 48 30 50 60 51 41 52 59 53 42 54
REMARK SMILES IDX 45 55 58 56 76 57 43 58 44 59 57 61 77 62 46 63 31 64 32 65
REMARK SMILES IDX 40 66 33 67 39 68 34 69 35 70 36 71 37 72 38 73 61 74 62 75
REMARK SMILES IDX 70 76 63 77 69 78 64 79 65 80 66 81 67 82 68 83 47 84 48 85
REMARK SMILES IDX 56 86 49 87 55 88 50 89 51 90 52 91 53 92 54 93
REMARK H PARENT 75 49 45 60
REMARK Flexibility Score: inf
ROOT
ATOM      1  C   UNL A   1      45.062  42.088  30.491  1.00  0.00     0.188 C 
ENDROOT
BRANCH   1   2
ATOM      2  O   UNL A   1      46.431  41.908  30.808  1.00  0.00    -0.377 OA
BRANCH   2   3
ATOM      3  C   UNL A   1      47.263  43.008  30.476  1.00  0.00     0.188 C 
BRANCH   3   4
ATOM      4  C   UNL A   1      47.994  42.937  29.123  1.00  0.00     0.188 C 
BRANCH   4   5
ATOM      5  O   UNL A   1      47.327  42.139  28.151  1.00  0.00    -0.376 OA
BRANCH   5   6
ATOM      6  C   UNL A   1      46.598  42.770  27.110  1.00  0.00     0.202 C 
BRANCH   6   7
ATOM      7  C   UNL A   1      47.402  43.166  25.868  1.00  0.00     0.261 C 
BRANCH   7   8
ATOM      8  O   UNL A   1      47.300  44.527  25.436  1.00  0.00    -0.460 OA
BRANCH   8   9
ATOM      9  C   UNL A   1      46.055  45.047  25.235  1.00  0.00     0.340 C 
ATOM     10  O   UNL A   1      45.486  45.801  26.015  1.00  0.00    -0.246 OA
BRANCH   9  11
ATOM     11  C   UNL A   1      45.643  44.841  23.844  1.00  0.00     0.086 A 
ATOM     12  C   UNL A   1      45.301  46.077  20.265  1.00  0.00     0.056 C 
ATOM     13  C   UNL A   1      45.285  45.379  21.580  1.00  0.00     0.004 A 
ATOM     14  C   UNL A   1      45.919  45.740  22.750  1.00  0.00     0.032 A 
ATOM     15  S   UNL A   1      44.402  43.931  21.772  1.00  0.00    -0.131 S 
ATOM     16  C   UNL A   1      44.792  43.826  23.433  1.00  0.00     0.092 A 
BRANCH  16  17
ATOM     17  C   UNL A   1      44.178  42.845  24.274  1.00  0.00    -0.050 C 
ATOM     18  C   UNL A   1      43.680  41.977  24.935  1.00  0.00    -0.061 C 
BRANCH  18  19
ATOM     19  C   UNL A   1      43.064  40.950  25.716  1.00  0.00     0.025 A 
ATOM     20  C   UNL A   1      43.853  40.067  26.457  1.00  0.00     0.017 A 
ATOM     21  C   UNL A   1      41.676  40.804  25.705  1.00  0.00     0.017 A 
ATOM     22  C   UNL A   1      43.256  39.012  27.149  1.00  0.00     0.001 A 
ATOM     23  C   UNL A   1      41.079  39.748  26.397  1.00  0.00     0.001 A 
ATOM     24  C   UNL A   1      41.871  38.845  27.109  1.00  0.00     0.000 A 
ENDBRANCH  18  19
ENDBRANCH  16  17
ENDBRANCH   9  11
ENDBRANCH   8   9
ENDBRANCH   7   8
ENDBRANCH   6   7
ENDBRANCH   5   6
ENDBRANCH   4   5
ENDBRANCH   3   4
ENDBRANCH   2   3
ENDBRANCH   1   2
BRANCH   1  25
ATOM     25  C   UNL A   1      44.297  42.831  31.608  1.00  0.00     0.188 C 
BRANCH  25  26
ATOM     26  O   UNL A   1      44.962  43.232  32.801  1.00  0.00    -0.376 OA
BRANCH  26  27
ATOM     27  C   UNL A   1      44.326  43.029  34.051  1.00  0.00     0.202 C 
BRANCH  27  28
ATOM     28  C   UNL A   1      43.485  41.755  34.298  1.00  0.00     0.261 C 
BRANCH  28  29
ATOM     29  O   UNL A   1      44.074  40.526  33.851  1.00  0.00    -0.460 OA
BRANCH  29  30
ATOM     30  C   UNL A   1      44.853  39.821  34.710  1.00  0.00     0.338 C 
ATOM     31  O   UNL A   1      45.686  40.264  35.479  1.00  0.00    -0.246 OA
BRANCH  30  32
ATOM     32  C   UNL A   1      44.279  38.444  34.769  1.00  0.00     0.060 A 
ATOM     33  C   UNL A   1      43.621  37.889  33.668  1.00  0.00     0.016 A 
ATOM     34  C   UNL A   1      44.104  37.887  36.048  1.00  0.00     0.016 A 
ATOM     35  C   UNL A   1      42.687  36.873  33.879  1.00  0.00     0.010 A 
ATOM     36  C   UNL A   1      43.160  36.872  36.253  1.00  0.00     0.010 A 
ATOM     37  C   UNL A   1      42.415  36.388  35.177  1.00  0.00    -0.014 A 
BRANCH  37  38
ATOM     38  C   UNL A   1      41.511  35.228  35.281  1.00  0.00     0.031 A 
ATOM     39  C   UNL A   1      42.034  34.035  34.554  1.00  0.00     0.074 A 
ATOM     40  C   UNL A   1      40.403  35.043  36.032  1.00  0.00     0.049 A 
ATOM     41  N   UNL A   1      41.522  33.417  33.542  1.00  0.00    -0.248 NA
ATOM     42  C   UNL A   1      43.366  33.555  34.956  1.00  0.00     0.031 C 
ATOM     43  C   UNL A   1      39.864  35.873  37.108  1.00  0.00     0.029 A 
ATOM     44  N   UNL A   1      39.557  33.961  36.027  1.00  0.00    -0.354 N 
ATOM     45  C   UNL A   1      42.402  32.380  33.246  1.00  0.00     0.074 A 
ATOM     46  C   UNL A   1      43.571  32.589  34.065  1.00  0.00     0.031 C 
ATOM     47  C   UNL A   1      38.930  35.163  37.791  1.00  0.00     0.029 A 
ATOM     48  C   UNL A   1      38.701  33.893  37.119  1.00  0.00     0.049 A 
ATOM     49  H   UNL A   1      39.557  33.290  35.307  1.00  0.00     0.167 HD
ATOM     50  C   UNL A   1      42.078  31.330  32.445  1.00  0.00     0.031 A 
ATOM     51  C   UNL A   1      37.922  32.838  37.473  1.00  0.00     0.031 A 
ATOM     52  C   UNL A   1      40.903  31.578  31.658  1.00  0.00     0.049 A 
ATOM     53  C   UNL A   1      37.748  31.965  36.286  1.00  0.00     0.074 A 
ATOM     54  C   UNL A   1      40.567  32.502  30.690  1.00  0.00     0.029 A 
ATOM     55  N   UNL A   1      39.721  31.009  32.064  1.00  0.00    -0.354 N 
ATOM     56  N   UNL A   1      37.057  32.280  35.230  1.00  0.00    -0.248 NA
ATOM     57  C   UNL A   1      38.630  30.820  36.138  1.00  0.00     0.031 C 
ATOM     58  C   UNL A   1      39.188  32.780  30.907  1.00  0.00     0.029 A 
ATOM     59  C   UNL A   1      38.752  31.977  31.964  1.00  0.00     0.049 A 
ATOM     60  H   UNL A   1      39.593  30.081  32.368  1.00  0.00     0.167 HD
ATOM     61  C   UNL A   1      37.704  31.650  34.179  1.00  0.00     0.074 A 
ATOM     62  C   UNL A   1      38.592  30.681  34.812  1.00  0.00     0.031 C 
ATOM     63  C   UNL A   1      37.661  32.150  32.908  1.00  0.00     0.031 A 
BRANCH  50  64
ATOM     64  C   UNL A   1      42.710  29.970  32.568  1.00  0.00    -0.014 A 
ATOM     65  C   UNL A   1      43.949  29.656  31.972  1.00  0.00     0.010 A 
ATOM     66  C   UNL A   1      42.177  29.029  33.470  1.00  0.00     0.010 A 
ATOM     67  C   UNL A   1      44.603  28.448  32.212  1.00  0.00     0.020 A 
ATOM     68  C   UNL A   1      42.852  27.833  33.759  1.00  0.00     0.020 A 
ATOM     69  C   UNL A   1      44.056  27.547  33.116  1.00  0.00     0.054 A 
BRANCH  69  70
ATOM     70  S   UNL A   1      44.993  26.045  33.489  1.00  0.00     0.124 S 
ATOM     71  O   UNL A   1      43.931  25.047  33.592  1.00  0.00    -0.237 OA
ATOM     72  O   UNL A   1      45.863  25.921  32.322  1.00  0.00    -0.237 OA
ATOM     73  O   UNL A   1      45.673  26.367  34.740  1.00  0.00    -0.744 OA
ENDBRANCH  69  70
ENDBRANCH  50  64
BRANCH  51  74
ATOM     74  C   UNL A   1      37.622  32.317  38.835  1.00  0.00    -0.014 A 
ATOM     75  C   UNL A   1      36.459  31.553  39.047  1.00  0.00     0.010 A 
ATOM     76  C   UNL A   1      38.266  32.862  39.968  1.00  0.00     0.010 A 
ATOM     77  C   UNL A   1      35.899  31.422  40.323  1.00  0.00     0.020 A 
ATOM     78  C   UNL A   1      37.707  32.738  41.251  1.00  0.00     0.020 A 
ATOM     79  C   UNL A   1      36.501  32.054  41.410  1.00  0.00     0.054 A 
BRANCH  79  80
ATOM     80  S   UNL A   1      35.618  32.056  42.997  1.00  0.00     0.124 S 
ATOM     81  O   UNL A   1      34.314  31.519  42.618  1.00  0.00    -0.237 OA
ATOM     82  O   UNL A   1      36.444  31.175  43.819  1.00  0.00    -0.237 OA
ATOM     83  O   UNL A   1      35.623  33.461  43.398  1.00  0.00    -0.744 OA
ENDBRANCH  79  80
ENDBRANCH  51  74
BRANCH  63  84
ATOM     84  C   UNL A   1      36.612  33.183  32.539  1.00  0.00    -0.014 A 
ATOM     85  C   UNL A   1      36.696  34.445  33.163  1.00  0.00     0.010 A 
ATOM     86  C   UNL A   1      35.477  32.913  31.755  1.00  0.00     0.010 A 
ATOM     87  C   UNL A   1      35.650  35.369  33.081  1.00  0.00     0.020 A 
ATOM     88  C   UNL A   1      34.457  33.866  31.611  1.00  0.00     0.020 A 
ATOM     89  C   UNL A   1      34.522  35.061  32.325  1.00  0.00     0.054 A 
BRANCH  89  90
ATOM     90  S   UNL A   1      33.114  36.202  32.361  1.00  0.00     0.124 S 
ATOM     91  O   UNL A   1      31.975  35.286  32.409  1.00  0.00    -0.237 OA
ATOM     92  O   UNL A   1      33.355  36.968  33.581  1.00  0.00    -0.237 OA
ATOM     93  O   UNL A   1      33.238  36.953  31.116  1.00  0.00    -0.744 OA
ENDBRANCH  89  90
ENDBRANCH  63  84
ENDBRANCH  37  38
ENDBRANCH  30  32
ENDBRANCH  29  30
ENDBRANCH  28  29
ENDBRANCH  27  28
ENDBRANCH  26  27
ENDBRANCH  25  26
ENDBRANCH   1  25
TORSDOF 25
ENDMDL
