MODEL 1
REMARK VINA RESULT:      -8.3      0.000      0.000
REMARK SMILES COc1cc(OC)cc(-c2ccc([C@@H](C)C(=O)OCCOCCOCCOCCOC(=O)c3ccc(-c4c5nc(c(-c6ccc(S(=O)(=O)[O-])cc6)c6ccc([nH]6)c(-c6ccc(S(=O)(=O)[O-])cc6)c6nc(c(-c7ccc(S(=O)(=O)[O-])cc7)c7ccc4[nH]7)C=C6)C=C5)cc3)cc2F)c1
REMARK SMILES IDX 24 1 23 2 22 3 21 4 20 5 19 6 18 7 16 8 17 9 14 10 15 11
REMARK SMILES IDX 13 12 10 13 11 14 94 15 12 16 93 17 95 18 9 19 3 20 4 21
REMARK SMILES IDX 96 22 5 23 8 24 2 25 1 26 6 27 7 28 25 29 26 30 27 31 28 32
REMARK SMILES IDX 29 33 30 34 31 35 32 36 33 37 34 38 92 39 35 40 91 41 36 42
REMARK SMILES IDX 37 43 38 44 85 45 39 46 90 47 84 48 86 49 40 50 89 51 83 52
REMARK SMILES IDX 82 53 41 55 71 56 52 57 70 58 53 59 56 60 69 61 87 62 54 63
REMARK SMILES IDX 55 64 68 66 88 67 57 68 42 69 43 70 51 71 44 72 50 73 45 74
REMARK SMILES IDX 46 75 47 76 48 77 49 78 72 79 73 80 81 81 74 82 80 83 75 84
REMARK SMILES IDX 76 85 77 86 78 87 79 88 58 89 59 90 67 91 60 92 66 93 61 94
REMARK SMILES IDX 62 95 63 96 64 97 65 98
REMARK H PARENT 86 54 56 65
REMARK Flexibility Score: inf
ROOT
ATOM      1  O   UNL A   1      36.484  23.049  25.279  1.00  0.00    -0.377 OA
ENDROOT
BRANCH   1   2
ATOM      2  C   UNL A   1      35.378  23.533  24.548  1.00  0.00     0.188 C 
BRANCH   2   3
ATOM      3  C   UNL A   1      35.399  23.235  23.042  1.00  0.00     0.188 C 
BRANCH   3   4
ATOM      4  O   UNL A   1      34.207  23.252  22.271  1.00  0.00    -0.376 OA
BRANCH   4   5
ATOM      5  C   UNL A   1      33.061  23.962  22.720  1.00  0.00     0.202 C 
BRANCH   5   6
ATOM      6  C   UNL A   1      32.820  25.427  22.306  1.00  0.00     0.261 C 
BRANCH   6   7
ATOM      7  O   UNL A   1      31.451  25.830  22.089  1.00  0.00    -0.463 OA
BRANCH   7   8
ATOM      8  C   UNL A   1      30.628  25.769  23.160  1.00  0.00     0.313 C 
ATOM      9  O   UNL A   1      30.120  24.725  23.568  1.00  0.00    -0.252 OA
BRANCH   8  10
ATOM     10  C   UNL A   1      30.331  27.100  23.851  1.00  0.00     0.126 C 
ATOM     11  C   UNL A   1      29.649  28.023  22.848  1.00  0.00     0.025 C 
BRANCH  10  12
ATOM     12  C   UNL A   1      31.409  27.838  24.647  1.00  0.00    -0.031 A 
ATOM     13  C   UNL A   1      33.402  29.145  26.256  1.00  0.00     0.018 A 
ATOM     14  C   UNL A   1      33.396  29.249  24.851  1.00  0.00     0.012 A 
ATOM     15  C   UNL A   1      32.398  28.361  26.831  1.00  0.00     0.131 A 
ATOM     16  C   UNL A   1      32.417  28.613  24.061  1.00  0.00     0.005 A 
ATOM     17  C   UNL A   1      31.414  27.735  26.055  1.00  0.00     0.044 A 
ATOM     18  F   UNL A   1      32.335  28.212  28.164  1.00  0.00    -0.206 F 
BRANCH  13  19
ATOM     19  C   UNL A   1      34.338  29.937  27.085  1.00  0.00    -0.008 A 
ATOM     20  C   UNL A   1      36.468  30.282  28.227  1.00  0.00     0.123 A 
ATOM     21  C   UNL A   1      35.955  31.430  28.834  1.00  0.00     0.092 A 
ATOM     22  C   UNL A   1      35.661  29.533  27.361  1.00  0.00     0.055 A 
ATOM     23  C   UNL A   1      34.651  31.847  28.581  1.00  0.00     0.123 A 
ATOM     24  C   UNL A   1      33.861  31.113  27.697  1.00  0.00     0.055 A 
BRANCH  20  25
ATOM     25  O   UNL A   1      37.735  29.955  28.633  1.00  0.00    -0.497 OA
ATOM     26  C   UNL A   1      38.055  30.194  29.995  1.00  0.00     0.278 C 
ENDBRANCH  20  25
BRANCH  23  27
ATOM     27  O   UNL A   1      34.255  32.966  29.262  1.00  0.00    -0.497 OA
ATOM     28  C   UNL A   1      35.011  34.148  29.025  1.00  0.00     0.278 C 
ENDBRANCH  23  27
ENDBRANCH  13  19
ENDBRANCH  10  12
ENDBRANCH   8  10
ENDBRANCH   7   8
ENDBRANCH   6   7
ENDBRANCH   5   6
ENDBRANCH   4   5
ENDBRANCH   3   4
ENDBRANCH   2   3
ENDBRANCH   1   2
BRANCH   1  29
ATOM     29  C   UNL A   1      36.335  21.783  25.900  1.00  0.00     0.188 C 
BRANCH  29  30
ATOM     30  C   UNL A   1      36.700  20.545  25.062  1.00  0.00     0.188 C 
BRANCH  30  31
ATOM     31  O   UNL A   1      38.082  20.452  24.738  1.00  0.00    -0.376 OA
BRANCH  31  32
ATOM     32  C   UNL A   1      38.885  19.498  25.420  1.00  0.00     0.202 C 
BRANCH  32  33
ATOM     33  C   UNL A   1      40.161  19.984  26.134  1.00  0.00     0.261 C 
BRANCH  33  34
ATOM     34  O   UNL A   1      40.819  21.139  25.595  1.00  0.00    -0.460 OA
BRANCH  34  35
ATOM     35  C   UNL A   1      40.586  22.330  26.181  1.00  0.00     0.338 C 
ATOM     36  O   UNL A   1      39.520  22.730  26.622  1.00  0.00    -0.246 OA
BRANCH  35  37
ATOM     37  C   UNL A   1      41.885  23.007  26.394  1.00  0.00     0.060 A 
ATOM     38  C   UNL A   1      42.955  22.264  26.911  1.00  0.00     0.016 A 
ATOM     39  C   UNL A   1      42.043  24.364  26.105  1.00  0.00     0.016 A 
ATOM     40  C   UNL A   1      44.167  22.889  27.202  1.00  0.00     0.010 A 
ATOM     41  C   UNL A   1      43.251  24.996  26.422  1.00  0.00     0.010 A 
ATOM     42  C   UNL A   1      44.299  24.271  27.017  1.00  0.00    -0.014 A 
BRANCH  42  43
ATOM     43  C   UNL A   1      45.417  24.988  27.681  1.00  0.00     0.031 A 
ATOM     44  C   UNL A   1      45.263  25.330  29.142  1.00  0.00     0.074 A 
ATOM     45  C   UNL A   1      46.551  25.297  27.030  1.00  0.00     0.049 A 
ATOM     46  N   UNL A   1      46.075  25.982  29.932  1.00  0.00    -0.248 NA
ATOM     47  C   UNL A   1      44.025  24.871  29.796  1.00  0.00     0.031 C 
ATOM     48  C   UNL A   1      46.848  24.968  25.636  1.00  0.00     0.029 A 
ATOM     49  N   UNL A   1      47.671  25.965  27.464  1.00  0.00    -0.354 N 
ATOM     50  C   UNL A   1      45.440  26.025  31.170  1.00  0.00     0.074 A 
ATOM     51  C   UNL A   1      44.166  25.361  31.018  1.00  0.00     0.031 C 
ATOM     52  C   UNL A   1      48.068  25.445  25.328  1.00  0.00     0.029 A 
ATOM     53  C   UNL A   1      48.621  26.143  26.488  1.00  0.00     0.049 A 
ATOM     54  H   UNL A   1      47.781  26.286  28.388  1.00  0.00     0.167 HD
ATOM     55  C   UNL A   1      45.879  26.564  32.331  1.00  0.00     0.031 A 
ATOM     56  C   UNL A   1      49.792  26.813  26.521  1.00  0.00     0.031 A 
ATOM     57  C   UNL A   1      47.143  27.236  32.476  1.00  0.00     0.049 A 
ATOM     58  C   UNL A   1      50.225  27.479  27.804  1.00  0.00     0.074 A 
ATOM     59  C   UNL A   1      47.686  27.811  33.612  1.00  0.00     0.029 A 
ATOM     60  N   UNL A   1      48.058  27.430  31.452  1.00  0.00    -0.354 N 
ATOM     61  N   UNL A   1      49.621  27.501  28.969  1.00  0.00    -0.248 NA
ATOM     62  C   UNL A   1      51.503  28.204  27.778  1.00  0.00     0.031 C 
ATOM     63  C   UNL A   1      48.898  28.410  33.258  1.00  0.00     0.029 A 
ATOM     64  C   UNL A   1      49.149  28.140  31.923  1.00  0.00     0.049 A 
ATOM     65  H   UNL A   1      47.947  27.111  30.528  1.00  0.00     0.167 HD
ATOM     66  C   UNL A   1      50.466  28.205  29.823  1.00  0.00     0.074 A 
ATOM     67  C   UNL A   1      51.626  28.584  29.043  1.00  0.00     0.031 C 
ATOM     68  C   UNL A   1      50.301  28.503  31.136  1.00  0.00     0.031 A 
BRANCH  55  69
ATOM     69  C   UNL A   1      44.966  26.485  33.527  1.00  0.00    -0.014 A 
ATOM     70  C   UNL A   1      44.767  25.277  34.219  1.00  0.00     0.010 A 
ATOM     71  C   UNL A   1      44.323  27.649  33.985  1.00  0.00     0.010 A 
ATOM     72  C   UNL A   1      43.912  25.228  35.325  1.00  0.00     0.020 A 
ATOM     73  C   UNL A   1      43.494  27.612  35.109  1.00  0.00     0.020 A 
ATOM     74  C   UNL A   1      43.283  26.397  35.762  1.00  0.00     0.054 A 
BRANCH  74  75
ATOM     75  S   UNL A   1      42.203  26.308  37.217  1.00  0.00     0.124 S 
ATOM     76  O   UNL A   1      43.146  26.544  38.307  1.00  0.00    -0.237 OA
ATOM     77  O   UNL A   1      41.247  27.383  36.970  1.00  0.00    -0.237 OA
ATOM     78  O   UNL A   1      41.649  24.958  37.157  1.00  0.00    -0.744 OA
ENDBRANCH  74  75
ENDBRANCH  55  69
BRANCH  56  79
ATOM     79  C   UNL A   1      50.635  26.909  25.295  1.00  0.00    -0.014 A 
ATOM     80  C   UNL A   1      51.793  26.125  25.152  1.00  0.00     0.010 A 
ATOM     81  C   UNL A   1      50.287  27.804  24.265  1.00  0.00     0.010 A 
ATOM     82  C   UNL A   1      52.597  26.248  24.014  1.00  0.00     0.020 A 
ATOM     83  C   UNL A   1      51.070  27.906  23.112  1.00  0.00     0.020 A 
ATOM     84  C   UNL A   1      52.227  27.136  22.999  1.00  0.00     0.054 A 
BRANCH  84  85
ATOM     85  S   UNL A   1      53.260  27.242  21.510  1.00  0.00     0.124 S 
ATOM     86  O   UNL A   1      54.378  26.368  21.852  1.00  0.00    -0.237 OA
ATOM     87  O   UNL A   1      52.361  26.746  20.470  1.00  0.00    -0.237 OA
ATOM     88  O   UNL A   1      53.581  28.664  21.419  1.00  0.00    -0.744 OA
ENDBRANCH  84  85
ENDBRANCH  56  79
BRANCH  68  89
ATOM     89  C   UNL A   1      51.422  29.228  31.839  1.00  0.00    -0.014 A 
ATOM     90  C   UNL A   1      51.462  30.631  31.917  1.00  0.00     0.010 A 
ATOM     91  C   UNL A   1      52.424  28.479  32.485  1.00  0.00     0.010 A 
ATOM     92  C   UNL A   1      52.501  31.271  32.599  1.00  0.00     0.020 A 
ATOM     93  C   UNL A   1      53.446  29.113  33.196  1.00  0.00     0.020 A 
ATOM     94  C   UNL A   1      53.486  30.508  33.235  1.00  0.00     0.054 A 
BRANCH  94  95
ATOM     95  S   UNL A   1      54.801  31.362  34.146  1.00  0.00     0.124 S 
ATOM     96  O   UNL A   1      54.345  32.749  34.112  1.00  0.00    -0.237 OA
ATOM     97  O   UNL A   1      54.753  30.717  35.456  1.00  0.00    -0.237 OA
ATOM     98  O   UNL A   1      56.004  31.083  33.364  1.00  0.00    -0.744 OA
ENDBRANCH  94  95
ENDBRANCH  68  89
ENDBRANCH  42  43
ENDBRANCH  35  37
ENDBRANCH  34  35
ENDBRANCH  33  34
ENDBRANCH  32  33
ENDBRANCH  31  32
ENDBRANCH  30  31
ENDBRANCH  29  30
ENDBRANCH   1  29
TORSDOF 27
ENDMDL
MODEL 2
REMARK VINA RESULT:      -8.2      3.262      4.005
REMARK SMILES COc1cc(OC)cc(-c2ccc([C@@H](C)C(=O)OCCOCCOCCOCCOC(=O)c3ccc(-c4c5nc(c(-c6ccc(S(=O)(=O)[O-])cc6)c6ccc([nH]6)c(-c6ccc(S(=O)(=O)[O-])cc6)c6nc(c(-c7ccc(S(=O)(=O)[O-])cc7)c7ccc4[nH]7)C=C6)C=C5)cc3)cc2F)c1
REMARK SMILES IDX 24 1 23 2 22 3 21 4 20 5 19 6 18 7 16 8 17 9 14 10 15 11
REMARK SMILES IDX 13 12 10 13 11 14 94 15 12 16 93 17 95 18 9 19 3 20 4 21
REMARK SMILES IDX 96 22 5 23 8 24 2 25 1 26 6 27 7 28 25 29 26 30 27 31 28 32
REMARK SMILES IDX 29 33 30 34 31 35 32 36 33 37 34 38 92 39 35 40 91 41 36 42
REMARK SMILES IDX 37 43 38 44 85 45 39 46 90 47 84 48 86 49 40 50 89 51 83 52
REMARK SMILES IDX 82 53 41 55 71 56 52 57 70 58 53 59 56 60 69 61 87 62 54 63
REMARK SMILES IDX 55 64 68 66 88 67 57 68 42 69 43 70 51 71 44 72 50 73 45 74
REMARK SMILES IDX 46 75 47 76 48 77 49 78 72 79 73 80 81 81 74 82 80 83 75 84
REMARK SMILES IDX 76 85 77 86 78 87 79 88 58 89 59 90 67 91 60 92 66 93 61 94
REMARK SMILES IDX 62 95 63 96 64 97 65 98
REMARK H PARENT 86 54 56 65
REMARK Flexibility Score: inf
ROOT
ATOM      1  O   UNL A   1      36.423  23.169  25.604  1.00  0.00    -0.377 OA
ENDROOT
BRANCH   1   2
ATOM      2  C   UNL A   1      35.392  23.529  24.709  1.00  0.00     0.188 C 
BRANCH   2   3
ATOM      3  C   UNL A   1      35.612  23.120  23.246  1.00  0.00     0.188 C 
BRANCH   3   4
ATOM      4  O   UNL A   1      34.664  23.443  22.239  1.00  0.00    -0.376 OA
BRANCH   4   5
ATOM      5  C   UNL A   1      33.275  23.496  22.539  1.00  0.00     0.202 C 
BRANCH   5   6
ATOM      6  C   UNL A   1      32.531  24.843  22.621  1.00  0.00     0.261 C 
BRANCH   6   7
ATOM      7  O   UNL A   1      31.098  24.790  22.785  1.00  0.00    -0.463 OA
BRANCH   7   8
ATOM      8  C   UNL A   1      30.634  24.856  24.054  1.00  0.00     0.313 C 
ATOM      9  O   UNL A   1      30.574  23.885  24.807  1.00  0.00    -0.252 OA
BRANCH   8  10
ATOM     10  C   UNL A   1      30.152  26.231  24.517  1.00  0.00     0.126 C 
ATOM     11  C   UNL A   1      29.543  26.958  23.324  1.00  0.00     0.025 C 
BRANCH  10  12
ATOM     12  C   UNL A   1      31.058  27.156  25.332  1.00  0.00    -0.031 A 
ATOM     13  C   UNL A   1      32.782  28.973  26.745  1.00  0.00     0.018 A 
ATOM     14  C   UNL A   1      31.920  28.090  27.422  1.00  0.00     0.012 A 
ATOM     15  C   UNL A   1      32.749  28.935  25.349  1.00  0.00     0.131 A 
ATOM     16  C   UNL A   1      31.077  27.195  26.731  1.00  0.00     0.005 A 
ATOM     17  C   UNL A   1      31.924  28.041  24.654  1.00  0.00     0.044 A 
ATOM     18  F   UNL A   1      33.542  29.746  24.630  1.00  0.00    -0.206 F 
BRANCH  13  19
ATOM     19  C   UNL A   1      33.771  29.798  27.475  1.00  0.00    -0.008 A 
ATOM     20  C   UNL A   1      34.567  31.903  28.420  1.00  0.00     0.123 A 
ATOM     21  C   UNL A   1      35.804  31.313  28.688  1.00  0.00     0.092 A 
ATOM     22  C   UNL A   1      33.555  31.151  27.809  1.00  0.00     0.055 A 
ATOM     23  C   UNL A   1      36.043  29.981  28.364  1.00  0.00     0.123 A 
ATOM     24  C   UNL A   1      35.024  29.229  27.780  1.00  0.00     0.055 A 
BRANCH  20  25
ATOM     25  O   UNL A   1      34.508  33.237  28.723  1.00  0.00    -0.497 OA
ATOM     26  C   UNL A   1      35.194  34.125  27.853  1.00  0.00     0.278 C 
ENDBRANCH  20  25
BRANCH  23  27
ATOM     27  O   UNL A   1      37.304  29.530  28.644  1.00  0.00    -0.497 OA
ATOM     28  C   UNL A   1      38.298  29.786  27.659  1.00  0.00     0.278 C 
ENDBRANCH  23  27
ENDBRANCH  13  19
ENDBRANCH  10  12
ENDBRANCH   8  10
ENDBRANCH   7   8
ENDBRANCH   6   7
ENDBRANCH   5   6
ENDBRANCH   4   5
ENDBRANCH   3   4
ENDBRANCH   2   3
ENDBRANCH   1   2
BRANCH   1  29
ATOM     29  C   UNL A   1      36.661  21.782  25.778  1.00  0.00     0.188 C 
BRANCH  29  30
ATOM     30  C   UNL A   1      37.866  21.180  25.034  1.00  0.00     0.188 C 
BRANCH  30  31
ATOM     31  O   UNL A   1      38.966  20.859  25.878  1.00  0.00    -0.376 OA
BRANCH  31  32
ATOM     32  C   UNL A   1      39.579  21.897  26.631  1.00  0.00     0.202 C 
BRANCH  32  33
ATOM     33  C   UNL A   1      40.980  22.382  26.214  1.00  0.00     0.261 C 
BRANCH  33  34
ATOM     34  O   UNL A   1      42.108  21.647  26.712  1.00  0.00    -0.460 OA
BRANCH  34  35
ATOM     35  C   UNL A   1      43.112  21.373  25.856  1.00  0.00     0.338 C 
ATOM     36  O   UNL A   1      43.153  20.456  25.050  1.00  0.00    -0.246 OA
BRANCH  35  37
ATOM     37  C   UNL A   1      44.082  22.489  25.901  1.00  0.00     0.060 A 
ATOM     38  C   UNL A   1      45.036  22.512  26.927  1.00  0.00     0.016 A 
ATOM     39  C   UNL A   1      44.040  23.515  24.953  1.00  0.00     0.016 A 
ATOM     40  C   UNL A   1      45.910  23.592  27.048  1.00  0.00     0.010 A 
ATOM     41  C   UNL A   1      44.901  24.610  25.091  1.00  0.00     0.010 A 
ATOM     42  C   UNL A   1      45.805  24.675  26.167  1.00  0.00    -0.014 A 
BRANCH  42  43
ATOM     43  C   UNL A   1      46.443  25.966  26.526  1.00  0.00     0.031 A 
ATOM     44  C   UNL A   1      45.692  26.890  27.451  1.00  0.00     0.074 A 
ATOM     45  C   UNL A   1      47.667  26.303  26.082  1.00  0.00     0.049 A 
ATOM     46  N   UNL A   1      46.017  28.081  27.880  1.00  0.00    -0.248 NA
ATOM     47  C   UNL A   1      44.400  26.398  27.961  1.00  0.00     0.031 C 
ATOM     48  C   UNL A   1      48.521  25.473  25.233  1.00  0.00     0.029 A 
ATOM     49  N   UNL A   1      48.403  27.445  26.286  1.00  0.00    -0.354 N 
ATOM     50  C   UNL A   1      44.965  28.487  28.696  1.00  0.00     0.074 A 
ATOM     51  C   UNL A   1      43.980  27.429  28.677  1.00  0.00     0.031 C 
ATOM     52  C   UNL A   1      49.662  26.139  24.982  1.00  0.00     0.029 A 
ATOM     53  C   UNL A   1      49.605  27.454  25.620  1.00  0.00     0.049 A 
ATOM     54  H   UNL A   1      48.098  28.186  26.857  1.00  0.00     0.167 HD
ATOM     55  C   UNL A   1      44.830  29.634  29.401  1.00  0.00     0.031 A 
ATOM     56  C   UNL A   1      50.539  28.422  25.518  1.00  0.00     0.031 A 
ATOM     57  C   UNL A   1      45.807  30.690  29.406  1.00  0.00     0.049 A 
ATOM     58  C   UNL A   1      50.331  29.728  26.245  1.00  0.00     0.074 A 
ATOM     59  C   UNL A   1      45.770  31.891  30.093  1.00  0.00     0.029 A 
ATOM     60  N   UNL A   1      46.991  30.677  28.685  1.00  0.00    -0.354 N 
ATOM     61  N   UNL A   1      49.338  30.092  27.023  1.00  0.00    -0.248 NA
ATOM     62  C   UNL A   1      51.376  30.750  26.089  1.00  0.00     0.031 C 
ATOM     63  C   UNL A   1      46.900  32.631  29.736  1.00  0.00     0.029 A 
ATOM     64  C   UNL A   1      47.681  31.860  28.889  1.00  0.00     0.049 A 
ATOM     65  H   UNL A   1      47.296  29.937  28.113  1.00  0.00     0.167 HD
ATOM     66  C   UNL A   1      49.660  31.368  27.479  1.00  0.00     0.074 A 
ATOM     67  C   UNL A   1      50.942  31.707  26.898  1.00  0.00     0.031 C 
ATOM     68  C   UNL A   1      48.961  32.181  28.310  1.00  0.00     0.031 A 
BRANCH  55  69
ATOM     69  C   UNL A   1      43.563  29.823  30.192  1.00  0.00    -0.014 A 
ATOM     70  C   UNL A   1      43.472  29.425  31.538  1.00  0.00     0.010 A 
ATOM     71  C   UNL A   1      42.454  30.440  29.586  1.00  0.00     0.010 A 
ATOM     72  C   UNL A   1      42.283  29.608  32.251  1.00  0.00     0.020 A 
ATOM     73  C   UNL A   1      41.274  30.655  30.304  1.00  0.00     0.020 A 
ATOM     74  C   UNL A   1      41.193  30.224  31.629  1.00  0.00     0.054 A 
BRANCH  74  75
ATOM     75  S   UNL A   1      39.674  30.475  32.588  1.00  0.00     0.124 S 
ATOM     76  O   UNL A   1      39.884  31.810  33.140  1.00  0.00    -0.237 OA
ATOM     77  O   UNL A   1      38.634  30.373  31.569  1.00  0.00    -0.237 OA
ATOM     78  O   UNL A   1      39.696  29.388  33.564  1.00  0.00    -0.744 OA
ENDBRANCH  74  75
ENDBRANCH  55  69
BRANCH  56  79
ATOM     79  C   UNL A   1      51.752  28.207  24.678  1.00  0.00    -0.014 A 
ATOM     80  C   UNL A   1      51.759  28.559  23.317  1.00  0.00     0.010 A 
ATOM     81  C   UNL A   1      52.908  27.632  25.238  1.00  0.00     0.010 A 
ATOM     82  C   UNL A   1      52.889  28.321  22.528  1.00  0.00     0.020 A 
ATOM     83  C   UNL A   1      54.051  27.423  24.461  1.00  0.00     0.020 A 
ATOM     84  C   UNL A   1      54.030  27.758  23.108  1.00  0.00     0.054 A 
BRANCH  84  85
ATOM     85  S   UNL A   1      55.501  27.505  22.075  1.00  0.00     0.124 S 
ATOM     86  O   UNL A   1      56.435  26.899  23.019  1.00  0.00    -0.237 OA
ATOM     87  O   UNL A   1      54.998  26.623  21.025  1.00  0.00    -0.237 OA
ATOM     88  O   UNL A   1      55.844  28.855  21.634  1.00  0.00    -0.744 OA
ENDBRANCH  84  85
ENDBRANCH  56  79
BRANCH  68  89
ATOM     89  C   UNL A   1      49.588  33.498  28.695  1.00  0.00    -0.014 A 
ATOM     90  C   UNL A   1      49.550  34.614  27.841  1.00  0.00     0.010 A 
ATOM     91  C   UNL A   1      50.172  33.633  29.969  1.00  0.00     0.010 A 
ATOM     92  C   UNL A   1      50.117  35.828  28.239  1.00  0.00     0.020 A 
ATOM     93  C   UNL A   1      50.710  34.854  30.385  1.00  0.00     0.020 A 
ATOM     94  C   UNL A   1      50.692  35.941  29.509  1.00  0.00     0.054 A 
BRANCH  94  95
ATOM     95  S   UNL A   1      51.386  37.538  30.017  1.00  0.00     0.124 S 
ATOM     96  O   UNL A   1      50.670  37.799  31.263  1.00  0.00    -0.237 OA
ATOM     97  O   UNL A   1      52.808  37.237  30.160  1.00  0.00    -0.237 OA
ATOM     98  O   UNL A   1      51.051  38.430  28.909  1.00  0.00    -0.744 OA
ENDBRANCH  94  95
ENDBRANCH  68  89
ENDBRANCH  42  43
ENDBRANCH  35  37
ENDBRANCH  34  35
ENDBRANCH  33  34
ENDBRANCH  32  33
ENDBRANCH  31  32
ENDBRANCH  30  31
ENDBRANCH  29  30
ENDBRANCH   1  29
TORSDOF 27
ENDMDL
MODEL 3
REMARK VINA RESULT:      -8.0      5.283      6.668
REMARK SMILES COc1cc(OC)cc(-c2ccc([C@@H](C)C(=O)OCCOCCOCCOCCOC(=O)c3ccc(-c4c5nc(c(-c6ccc(S(=O)(=O)[O-])cc6)c6ccc([nH]6)c(-c6ccc(S(=O)(=O)[O-])cc6)c6nc(c(-c7ccc(S(=O)(=O)[O-])cc7)c7ccc4[nH]7)C=C6)C=C5)cc3)cc2F)c1
REMARK SMILES IDX 24 1 23 2 22 3 21 4 20 5 19 6 18 7 16 8 17 9 14 10 15 11
REMARK SMILES IDX 13 12 10 13 11 14 94 15 12 16 93 17 95 18 9 19 3 20 4 21
REMARK SMILES IDX 96 22 5 23 8 24 2 25 1 26 6 27 7 28 25 29 26 30 27 31 28 32
REMARK SMILES IDX 29 33 30 34 31 35 32 36 33 37 34 38 92 39 35 40 91 41 36 42
REMARK SMILES IDX 37 43 38 44 85 45 39 46 90 47 84 48 86 49 40 50 89 51 83 52
REMARK SMILES IDX 82 53 41 55 71 56 52 57 70 58 53 59 56 60 69 61 87 62 54 63
REMARK SMILES IDX 55 64 68 66 88 67 57 68 42 69 43 70 51 71 44 72 50 73 45 74
REMARK SMILES IDX 46 75 47 76 48 77 49 78 72 79 73 80 81 81 74 82 80 83 75 84
REMARK SMILES IDX 76 85 77 86 78 87 79 88 58 89 59 90 67 91 60 92 66 93 61 94
REMARK SMILES IDX 62 95 63 96 64 97 65 98
REMARK H PARENT 86 54 56 65
REMARK Flexibility Score: inf
ROOT
ATOM      1  O   UNL A   1      36.296  23.372  25.695  1.00  0.00    -0.377 OA
ENDROOT
BRANCH   1   2
ATOM      2  C   UNL A   1      35.220  23.433  24.783  1.00  0.00     0.188 C 
BRANCH   2   3
ATOM      3  C   UNL A   1      35.574  23.126  23.322  1.00  0.00     0.188 C 
BRANCH   3   4
ATOM      4  O   UNL A   1      34.632  23.327  22.277  1.00  0.00    -0.376 OA
BRANCH   4   5
ATOM      5  C   UNL A   1      33.242  23.413  22.559  1.00  0.00     0.202 C 
BRANCH   5   6
ATOM      6  C   UNL A   1      32.539  24.779  22.683  1.00  0.00     0.261 C 
BRANCH   6   7
ATOM      7  O   UNL A   1      31.104  24.764  22.844  1.00  0.00    -0.463 OA
BRANCH   7   8
ATOM      8  C   UNL A   1      30.641  24.645  24.109  1.00  0.00     0.313 C 
ATOM      9  O   UNL A   1      30.631  23.584  24.732  1.00  0.00    -0.252 OA
BRANCH   8  10
ATOM     10  C   UNL A   1      30.094  25.924  24.743  1.00  0.00     0.126 C 
ATOM     11  C   UNL A   1      29.184  26.614  23.734  1.00  0.00     0.025 C 
BRANCH  10  12
ATOM     12  C   UNL A   1      31.021  26.926  25.435  1.00  0.00    -0.031 A 
ATOM     13  C   UNL A   1      32.694  28.913  26.669  1.00  0.00     0.018 A 
ATOM     14  C   UNL A   1      32.623  27.595  27.158  1.00  0.00     0.012 A 
ATOM     15  C   UNL A   1      31.898  29.215  25.561  1.00  0.00     0.131 A 
ATOM     16  C   UNL A   1      31.808  26.617  26.552  1.00  0.00     0.005 A 
ATOM     17  C   UNL A   1      31.093  28.247  24.944  1.00  0.00     0.044 A 
ATOM     18  F   UNL A   1      31.909  30.450  25.035  1.00  0.00    -0.206 F 
BRANCH  13  19
ATOM     19  C   UNL A   1      33.665  29.888  27.214  1.00  0.00    -0.008 A 
ATOM     20  C   UNL A   1      34.289  32.097  28.048  1.00  0.00     0.123 A 
ATOM     21  C   UNL A   1      35.632  31.715  28.049  1.00  0.00     0.092 A 
ATOM     22  C   UNL A   1      33.308  31.189  27.626  1.00  0.00     0.055 A 
ATOM     23  C   UNL A   1      36.010  30.438  27.643  1.00  0.00     0.123 A 
ATOM     24  C   UNL A   1      35.027  29.530  27.248  1.00  0.00     0.055 A 
BRANCH  20  25
ATOM     25  O   UNL A   1      34.080  33.404  28.397  1.00  0.00    -0.497 OA
ATOM     26  C   UNL A   1      34.750  34.390  27.626  1.00  0.00     0.278 C 
ENDBRANCH  20  25
BRANCH  23  27
ATOM     27  O   UNL A   1      37.357  30.198  27.655  1.00  0.00    -0.497 OA
ATOM     28  C   UNL A   1      37.837  29.360  28.700  1.00  0.00     0.278 C 
ENDBRANCH  23  27
ENDBRANCH  13  19
ENDBRANCH  10  12
ENDBRANCH   8  10
ENDBRANCH   7   8
ENDBRANCH   6   7
ENDBRANCH   5   6
ENDBRANCH   4   5
ENDBRANCH   3   4
ENDBRANCH   2   3
ENDBRANCH   1   2
BRANCH   1  29
ATOM     29  C   UNL A   1      36.814  22.085  25.987  1.00  0.00     0.188 C 
BRANCH  29  30
ATOM     30  C   UNL A   1      38.183  21.728  25.381  1.00  0.00     0.188 C 
BRANCH  30  31
ATOM     31  O   UNL A   1      39.279  21.942  26.263  1.00  0.00    -0.376 OA
BRANCH  31  32
ATOM     32  C   UNL A   1      39.407  23.203  26.906  1.00  0.00     0.202 C 
BRANCH  32  33
ATOM     33  C   UNL A   1      40.526  24.156  26.446  1.00  0.00     0.261 C 
BRANCH  33  34
ATOM     34  O   UNL A   1      41.787  24.069  27.125  1.00  0.00    -0.460 OA
BRANCH  34  35
ATOM     35  C   UNL A   1      42.910  24.141  26.383  1.00  0.00     0.338 C 
ATOM     36  O   UNL A   1      43.284  23.334  25.546  1.00  0.00    -0.246 OA
BRANCH  35  37
ATOM     37  C   UNL A   1      43.526  25.469  26.598  1.00  0.00     0.060 A 
ATOM     38  C   UNL A   1      44.385  25.644  27.693  1.00  0.00     0.016 A 
ATOM     39  C   UNL A   1      43.247  26.537  25.742  1.00  0.00     0.016 A 
ATOM     40  C   UNL A   1      44.916  26.903  27.972  1.00  0.00     0.010 A 
ATOM     41  C   UNL A   1      43.760  27.804  26.038  1.00  0.00     0.010 A 
ATOM     42  C   UNL A   1      44.556  28.001  27.182  1.00  0.00    -0.014 A 
BRANCH  42  43
ATOM     43  C   UNL A   1      44.790  29.374  27.697  1.00  0.00     0.031 A 
ATOM     44  C   UNL A   1      43.682  30.030  28.482  1.00  0.00     0.074 A 
ATOM     45  C   UNL A   1      45.959  30.013  27.515  1.00  0.00     0.049 A 
ATOM     46  N   UNL A   1      43.627  31.228  29.001  1.00  0.00    -0.248 NA
ATOM     47  C   UNL A   1      42.472  29.219  28.710  1.00  0.00     0.031 C 
ATOM     48  C   UNL A   1      47.129  29.466  26.829  1.00  0.00     0.029 A 
ATOM     49  N   UNL A   1      46.350  31.274  27.895  1.00  0.00    -0.354 N 
ATOM     50  C   UNL A   1      42.376  31.321  29.603  1.00  0.00     0.074 A 
ATOM     51  C   UNL A   1      41.693  30.071  29.358  1.00  0.00     0.031 C 
ATOM     52  C   UNL A   1      48.105  30.392  26.830  1.00  0.00     0.029 A 
ATOM     53  C   UNL A   1      47.618  31.607  27.481  1.00  0.00     0.049 A 
ATOM     54  H   UNL A   1      45.777  31.881  28.416  1.00  0.00     0.167 HD
ATOM     55  C   UNL A   1      41.843  32.351  30.300  1.00  0.00     0.031 A 
ATOM     56  C   UNL A   1      48.296  32.767  27.595  1.00  0.00     0.031 A 
ATOM     57  C   UNL A   1      42.521  33.598  30.530  1.00  0.00     0.049 A 
ATOM     58  C   UNL A   1      47.652  33.933  28.304  1.00  0.00     0.074 A 
ATOM     59  C   UNL A   1      42.072  34.704  31.231  1.00  0.00     0.029 A 
ATOM     60  N   UNL A   1      43.787  33.910  30.059  1.00  0.00    -0.354 N 
ATOM     61  N   UNL A   1      46.473  34.002  28.879  1.00  0.00    -0.248 NA
ATOM     62  C   UNL A   1      48.433  35.175  28.388  1.00  0.00     0.031 C 
ATOM     63  C   UNL A   1      43.039  35.707  31.126  1.00  0.00     0.029 A 
ATOM     64  C   UNL A   1      44.125  35.200  30.430  1.00  0.00     0.049 A 
ATOM     65  H   UNL A   1      44.361  33.304  29.537  1.00  0.00     0.167 HD
ATOM     66  C   UNL A   1      46.391  35.279  29.427  1.00  0.00     0.074 A 
ATOM     67  C   UNL A   1      47.641  35.945  29.123  1.00  0.00     0.031 C 
ATOM     68  C   UNL A   1      45.377  35.847  30.126  1.00  0.00     0.031 A 
BRANCH  55  69
ATOM     69  C   UNL A   1      40.442  32.186  30.828  1.00  0.00    -0.014 A 
ATOM     70  C   UNL A   1      39.325  32.621  30.093  1.00  0.00     0.010 A 
ATOM     71  C   UNL A   1      40.240  31.553  32.068  1.00  0.00     0.010 A 
ATOM     72  C   UNL A   1      38.034  32.459  30.605  1.00  0.00     0.020 A 
ATOM     73  C   UNL A   1      38.950  31.360  32.569  1.00  0.00     0.020 A 
ATOM     74  C   UNL A   1      37.856  31.828  31.840  1.00  0.00     0.054 A 
BRANCH  74  75
ATOM     75  S   UNL A   1      36.168  31.605  32.465  1.00  0.00     0.124 S 
ATOM     76  O   UNL A   1      35.379  32.312  31.460  1.00  0.00    -0.237 OA
ATOM     77  O   UNL A   1      36.020  30.153  32.473  1.00  0.00    -0.237 OA
ATOM     78  O   UNL A   1      36.200  32.233  33.784  1.00  0.00    -0.744 OA
ENDBRANCH  74  75
ENDBRANCH  55  69
BRANCH  56  79
ATOM     79  C   UNL A   1      49.660  32.899  27.007  1.00  0.00    -0.014 A 
ATOM     80  C   UNL A   1      50.792  32.429  27.696  1.00  0.00     0.010 A 
ATOM     81  C   UNL A   1      49.833  33.513  25.752  1.00  0.00     0.010 A 
ATOM     82  C   UNL A   1      52.070  32.588  27.151  1.00  0.00     0.020 A 
ATOM     83  C   UNL A   1      51.106  33.645  25.190  1.00  0.00     0.020 A 
ATOM     84  C   UNL A   1      52.218  33.193  25.899  1.00  0.00     0.054 A 
BRANCH  84  85
ATOM     85  S   UNL A   1      53.883  33.344  25.192  1.00  0.00     0.124 S 
ATOM     86  O   UNL A   1      54.000  32.111  24.421  1.00  0.00    -0.237 OA
ATOM     87  O   UNL A   1      53.780  34.575  24.411  1.00  0.00    -0.237 OA
ATOM     88  O   UNL A   1      54.746  33.432  26.368  1.00  0.00    -0.744 OA
ENDBRANCH  84  85
ENDBRANCH  56  79
BRANCH  68  89
ATOM     89  C   UNL A   1      45.588  37.240  30.667  1.00  0.00    -0.014 A 
ATOM     90  C   UNL A   1      45.572  38.369  29.829  1.00  0.00     0.010 A 
ATOM     91  C   UNL A   1      45.746  37.421  32.054  1.00  0.00     0.010 A 
ATOM     92  C   UNL A   1      45.745  39.648  30.366  1.00  0.00     0.020 A 
ATOM     93  C   UNL A   1      45.885  38.700  32.598  1.00  0.00     0.020 A 
ATOM     94  C   UNL A   1      45.899  39.806  31.747  1.00  0.00     0.054 A 
BRANCH  94  95
ATOM     95  S   UNL A   1      46.082  41.480  32.421  1.00  0.00     0.124 S 
ATOM     96  O   UNL A   1      47.358  41.901  31.850  1.00  0.00    -0.237 OA
ATOM     97  O   UNL A   1      44.902  42.165  31.898  1.00  0.00    -0.237 OA
ATOM     98  O   UNL A   1      46.085  41.274  33.868  1.00  0.00    -0.744 OA
ENDBRANCH  94  95
ENDBRANCH  68  89
ENDBRANCH  42  43
ENDBRANCH  35  37
ENDBRANCH  34  35
ENDBRANCH  33  34
ENDBRANCH  32  33
ENDBRANCH  31  32
ENDBRANCH  30  31
ENDBRANCH  29  30
ENDBRANCH   1  29
TORSDOF 27
ENDMDL
