MODEL 1
REMARK VINA RESULT:      -4.9      0.000      0.000
REMARK SMILES C[C@@H](NC(=O)/C(=C/c1ccc(Cl)cc1)NC(=O)c1ccc(C(C)(C)C)cc1)C(=O)OCCOCCOCCOCCOC(=O)c1ccc(-c2c3nc(c(-c4ccc(S(=O)(=O)[O-])cc4)c4ccc([nH]4)c(-c4ccc(S(=O)(=O)[O-])cc4)c4nc(c(-c5ccc(S(=O)(=O)[O-])cc5)c5ccc2[nH]5)C=C4)C=C3)cc1
REMARK SMILES IDX 35 1 34 2 33 3 32 4 31 5 30 6 28 7 29 8 2 9 1 10 3 11 4 12
REMARK SMILES IDX 5 14 6 15 7 16 15 17 16 18 17 20 18 21 19 22 27 23 20 24
REMARK SMILES IDX 26 25 21 26 22 27 23 28 24 29 25 30 8 31 9 32 14 33 10 34
REMARK SMILES IDX 13 35 11 36 12 37 36 38 37 39 38 40 39 41 40 42 41 43 42 44
REMARK SMILES IDX 43 45 44 46 45 47 46 48 104 49 47 50 103 51 48 52 49 53
REMARK SMILES IDX 50 54 97 55 51 56 102 57 96 58 98 59 52 60 101 61 95 62
REMARK SMILES IDX 94 63 53 65 83 66 64 67 82 68 65 69 68 70 81 71 99 72 66 73
REMARK SMILES IDX 67 74 80 76 100 77 69 78 54 79 55 80 63 81 56 82 62 83 57 84
REMARK SMILES IDX 58 85 59 86 60 87 61 88 84 89 85 90 93 91 86 92 92 93 87 94
REMARK SMILES IDX 88 95 89 96 90 97 91 98 70 99 71 100 79 101 72 102 78 103
REMARK SMILES IDX 73 104 74 105 75 106 76 107 77 108
REMARK H PARENT 3 13 15 19 98 64 68 75
REMARK Flexibility Score: inf
ROOT
ATOM      1  C   UNL A   1      49.085  33.372  32.493  1.00  0.00     0.188 C 
ENDROOT
BRANCH   1   2
ATOM      2  C   UNL A   1      49.180  31.849  32.638  1.00  0.00     0.188 C 
BRANCH   2   3
ATOM      3  O   UNL A   1      48.172  30.957  32.208  1.00  0.00    -0.376 OA
BRANCH   3   4
ATOM      4  C   UNL A   1      47.737  29.787  32.857  1.00  0.00     0.202 C 
BRANCH   4   5
ATOM      5  C   UNL A   1      48.568  28.561  33.248  1.00  0.00     0.261 C 
BRANCH   5   6
ATOM      6  O   UNL A   1      48.416  27.300  32.618  1.00  0.00    -0.462 OA
BRANCH   6   7
ATOM      7  C   UNL A   1      49.525  26.658  32.205  1.00  0.00     0.328 C 
ATOM      8  O   UNL A   1      49.903  25.552  32.558  1.00  0.00    -0.250 OA
BRANCH   7   9
ATOM      9  C   UNL A   1      50.418  27.571  31.409  1.00  0.00     0.189 C 
ATOM     10  C   UNL A   1      51.853  27.033  31.361  1.00  0.00     0.043 C 
BRANCH   9  11
ATOM     11  N   UNL A   1      49.792  27.758  30.088  1.00  0.00    -0.338 N 
ATOM     12  C   UNL A   1      49.943  26.846  29.052  1.00  0.00     0.268 C 
ATOM     13  H   UNL A   1      49.244  28.561  29.934  1.00  0.00     0.164 HD
ATOM     14  O   UNL A   1      49.133  25.938  28.899  1.00  0.00    -0.268 OA
BRANCH  12  15
ATOM     15  C   UNL A   1      51.075  27.085  28.055  1.00  0.00     0.107 C 
ATOM     16  C   UNL A   1      51.461  28.368  27.865  1.00  0.00     0.040 C 
BRANCH  15  17
ATOM     17  N   UNL A   1      51.749  26.058  27.437  1.00  0.00    -0.317 N 
ATOM     18  C   UNL A   1      51.841  25.573  26.165  1.00  0.00     0.255 C 
ATOM     19  H   UNL A   1      52.302  25.546  28.069  1.00  0.00     0.170 HD
ATOM     20  O   UNL A   1      52.474  24.542  25.958  1.00  0.00    -0.269 OA
BRANCH  18  21
ATOM     21  C   UNL A   1      51.130  26.203  25.065  1.00  0.00     0.040 A 
ATOM     22  C   UNL A   1      51.880  26.658  23.987  1.00  0.00     0.014 A 
ATOM     23  C   UNL A   1      49.747  26.342  25.101  1.00  0.00     0.014 A 
ATOM     24  C   UNL A   1      51.219  27.180  22.883  1.00  0.00     0.005 A 
ATOM     25  C   UNL A   1      49.090  26.850  23.979  1.00  0.00     0.005 A 
ATOM     26  C   UNL A   1      49.811  27.243  22.834  1.00  0.00    -0.043 A 
BRANCH  26  27
ATOM     27  C   UNL A   1      49.123  27.764  21.564  1.00  0.00    -0.013 C 
ATOM     28  C   UNL A   1      49.950  28.942  21.018  1.00  0.00     0.016 C 
ATOM     29  C   UNL A   1      49.041  26.649  20.496  1.00  0.00     0.016 C 
ATOM     30  C   UNL A   1      47.678  28.250  21.804  1.00  0.00     0.016 C 
ENDBRANCH  26  27
ENDBRANCH  18  21
ENDBRANCH  15  17
BRANCH  16  31
ATOM     31  C   UNL A   1      52.319  29.036  26.832  1.00  0.00    -0.023 A 
ATOM     32  C   UNL A   1      51.858  29.713  25.686  1.00  0.00     0.010 A 
ATOM     33  C   UNL A   1      53.682  29.210  27.158  1.00  0.00     0.010 A 
ATOM     34  C   UNL A   1      52.708  30.522  24.910  1.00  0.00     0.021 A 
ATOM     35  C   UNL A   1      54.527  30.041  26.402  1.00  0.00     0.021 A 
ATOM     36  C   UNL A   1      54.033  30.699  25.283  1.00  0.00     0.041 A 
ATOM     37  Cl  UNL A   1      55.029  31.802  24.418  1.00  0.00    -0.084 Cl
ENDBRANCH  16  31
ENDBRANCH  12  15
ENDBRANCH   9  11
ENDBRANCH   7   9
ENDBRANCH   6   7
ENDBRANCH   5   6
ENDBRANCH   4   5
ENDBRANCH   3   4
ENDBRANCH   2   3
ENDBRANCH   1   2
BRANCH   1  38
ATOM     38  O   UNL A   1      50.190  34.040  31.924  1.00  0.00    -0.377 OA
BRANCH  38  39
ATOM     39  C   UNL A   1      50.482  35.379  32.287  1.00  0.00     0.188 C 
BRANCH  39  40
ATOM     40  C   UNL A   1      51.126  36.335  31.269  1.00  0.00     0.188 C 
BRANCH  40  41
ATOM     41  O   UNL A   1      52.058  35.699  30.411  1.00  0.00    -0.376 OA
BRANCH  41  42
ATOM     42  C   UNL A   1      53.372  36.219  30.334  1.00  0.00     0.202 C 
BRANCH  42  43
ATOM     43  C   UNL A   1      54.408  35.436  29.512  1.00  0.00     0.261 C 
BRANCH  43  44
ATOM     44  O   UNL A   1      54.165  35.254  28.102  1.00  0.00    -0.460 OA
BRANCH  44  45
ATOM     45  C   UNL A   1      54.239  34.018  27.547  1.00  0.00     0.338 C 
ATOM     46  O   UNL A   1      55.242  33.413  27.263  1.00  0.00    -0.246 OA
BRANCH  45  47
ATOM     47  C   UNL A   1      52.867  33.426  27.591  1.00  0.00     0.060 A 
ATOM     48  C   UNL A   1      51.948  33.756  26.582  1.00  0.00     0.016 A 
ATOM     49  C   UNL A   1      52.499  32.527  28.595  1.00  0.00     0.016 A 
ATOM     50  C   UNL A   1      50.648  33.239  26.606  1.00  0.00     0.010 A 
ATOM     51  C   UNL A   1      51.189  32.032  28.637  1.00  0.00     0.010 A 
ATOM     52  C   UNL A   1      50.244  32.424  27.670  1.00  0.00    -0.014 A 
BRANCH  52  53
ATOM     53  C   UNL A   1      48.794  32.223  27.943  1.00  0.00     0.031 A 
ATOM     54  C   UNL A   1      48.067  33.331  28.663  1.00  0.00     0.074 A 
ATOM     55  C   UNL A   1      48.128  31.114  27.577  1.00  0.00     0.049 A 
ATOM     56  N   UNL A   1      46.838  33.373  29.105  1.00  0.00    -0.248 NA
ATOM     57  C   UNL A   1      48.841  34.558  28.923  1.00  0.00     0.031 C 
ATOM     58  C   UNL A   1      48.685  29.991  26.825  1.00  0.00     0.029 A 
ATOM     59  N   UNL A   1      46.822  30.747  27.809  1.00  0.00    -0.354 N 
ATOM     60  C   UNL A   1      46.699  34.615  29.713  1.00  0.00     0.074 A 
ATOM     61  C   UNL A   1      47.974  35.287  29.604  1.00  0.00     0.031 C 
ATOM     62  C   UNL A   1      47.733  29.052  26.677  1.00  0.00     0.029 A 
ATOM     63  C   UNL A   1      46.511  29.487  27.354  1.00  0.00     0.049 A 
ATOM     64  H   UNL A   1      46.171  31.333  28.258  1.00  0.00     0.167 HD
ATOM     65  C   UNL A   1      45.610  35.154  30.311  1.00  0.00     0.031 A 
ATOM     66  C   UNL A   1      45.384  28.758  27.497  1.00  0.00     0.031 A 
ATOM     67  C   UNL A   1      44.345  34.483  30.433  1.00  0.00     0.049 A 
ATOM     68  C   UNL A   1      44.206  29.342  28.238  1.00  0.00     0.074 A 
ATOM     69  C   UNL A   1      43.176  34.952  31.007  1.00  0.00     0.029 A 
ATOM     70  N   UNL A   1      44.084  33.198  29.985  1.00  0.00    -0.354 N 
ATOM     71  N   UNL A   1      44.082  30.526  28.791  1.00  0.00    -0.248 NA
ATOM     72  C   UNL A   1      43.012  28.493  28.371  1.00  0.00     0.031 C 
ATOM     73  C   UNL A   1      42.229  33.925  30.968  1.00  0.00     0.029 A 
ATOM     74  C   UNL A   1      42.783  32.843  30.300  1.00  0.00     0.049 A 
ATOM     75  H   UNL A   1      44.727  32.622  29.512  1.00  0.00     0.167 HD
ATOM     76  C   UNL A   1      42.788  30.573  29.308  1.00  0.00     0.074 A 
ATOM     77  C   UNL A   1      42.167  29.304  28.992  1.00  0.00     0.031 C 
ATOM     78  C   UNL A   1      42.172  31.578  29.978  1.00  0.00     0.031 A 
BRANCH  65  79
ATOM     79  C   UNL A   1      45.761  36.521  30.923  1.00  0.00    -0.014 A 
ATOM     80  C   UNL A   1      45.444  37.689  30.205  1.00  0.00     0.010 A 
ATOM     81  C   UNL A   1      46.210  36.636  32.252  1.00  0.00     0.010 A 
ATOM     82  C   UNL A   1      45.615  38.947  30.790  1.00  0.00     0.020 A 
ATOM     83  C   UNL A   1      46.352  37.891  32.851  1.00  0.00     0.020 A 
ATOM     84  C   UNL A   1      46.070  39.039  32.109  1.00  0.00     0.054 A 
BRANCH  84  85
ATOM     85  S   UNL A   1      46.268  40.683  32.847  1.00  0.00     0.124 S 
ATOM     86  O   UNL A   1      45.874  41.558  31.745  1.00  0.00    -0.237 OA
ATOM     87  O   UNL A   1      45.342  40.641  33.975  1.00  0.00    -0.237 OA
ATOM     88  O   UNL A   1      47.683  40.735  33.206  1.00  0.00    -0.744 OA
ENDBRANCH  84  85
ENDBRANCH  65  79
BRANCH  66  89
ATOM     89  C   UNL A   1      45.322  27.369  26.956  1.00  0.00    -0.014 A 
ATOM     90  C   UNL A   1      44.759  27.109  25.692  1.00  0.00     0.010 A 
ATOM     91  C   UNL A   1      45.816  26.291  27.714  1.00  0.00     0.010 A 
ATOM     92  C   UNL A   1      44.680  25.800  25.206  1.00  0.00     0.020 A 
ATOM     93  C   UNL A   1      45.767  24.986  27.219  1.00  0.00     0.020 A 
ATOM     94  C   UNL A   1      45.189  24.746  25.971  1.00  0.00     0.054 A 
BRANCH  94  95
ATOM     95  S   UNL A   1      45.125  23.063  25.296  1.00  0.00     0.124 S 
ATOM     96  O   UNL A   1      43.781  22.636  25.673  1.00  0.00    -0.237 OA
ATOM     97  O   UNL A   1      45.341  23.289  23.870  1.00  0.00    -0.237 OA
ATOM     98  O   UNL A   1      46.215  22.378  25.987  1.00  0.00    -0.744 OA
ENDBRANCH  94  95
ENDBRANCH  66  89
BRANCH  78  99
ATOM     99  C   UNL A   1      40.734  31.378  30.385  1.00  0.00    -0.014 A 
ATOM    100  C   UNL A   1      40.391  30.820  31.629  1.00  0.00     0.010 A 
ATOM    101  C   UNL A   1      39.706  31.830  29.534  1.00  0.00     0.010 A 
ATOM    102  C   UNL A   1      39.049  30.695  32.003  1.00  0.00     0.020 A 
ATOM    103  C   UNL A   1      38.366  31.736  29.918  1.00  0.00     0.020 A 
ATOM    104  C   UNL A   1      38.044  31.156  31.145  1.00  0.00     0.054 A 
BRANCH 104 105
ATOM    105  S   UNL A   1      36.315  31.030  31.678  1.00  0.00     0.124 S 
ATOM    106  O   UNL A   1      36.377  31.551  33.040  1.00  0.00    -0.237 OA
ATOM    107  O   UNL A   1      35.620  31.878  30.712  1.00  0.00    -0.237 OA
ATOM    108  O   UNL A   1      36.021  29.603  31.570  1.00  0.00    -0.744 OA
ENDBRANCH 104 105
ENDBRANCH  78  99
ENDBRANCH  52  53
ENDBRANCH  45  47
ENDBRANCH  44  45
ENDBRANCH  43  44
ENDBRANCH  42  43
ENDBRANCH  41  42
ENDBRANCH  40  41
ENDBRANCH  39  40
ENDBRANCH  38  39
ENDBRANCH   1  38
TORSDOF 29
ENDMDL
MODEL 2
REMARK VINA RESULT:      -4.7      6.377     12.681
REMARK SMILES C[C@@H](NC(=O)/C(=C/c1ccc(Cl)cc1)NC(=O)c1ccc(C(C)(C)C)cc1)C(=O)OCCOCCOCCOCCOC(=O)c1ccc(-c2c3nc(c(-c4ccc(S(=O)(=O)[O-])cc4)c4ccc([nH]4)c(-c4ccc(S(=O)(=O)[O-])cc4)c4nc(c(-c5ccc(S(=O)(=O)[O-])cc5)c5ccc2[nH]5)C=C4)C=C3)cc1
REMARK SMILES IDX 35 1 34 2 33 3 32 4 31 5 30 6 28 7 29 8 2 9 1 10 3 11 4 12
REMARK SMILES IDX 5 14 6 15 7 16 15 17 16 18 17 20 18 21 19 22 27 23 20 24
REMARK SMILES IDX 26 25 21 26 22 27 23 28 24 29 25 30 8 31 9 32 14 33 10 34
REMARK SMILES IDX 13 35 11 36 12 37 36 38 37 39 38 40 39 41 40 42 41 43 42 44
REMARK SMILES IDX 43 45 44 46 45 47 46 48 104 49 47 50 103 51 48 52 49 53
REMARK SMILES IDX 50 54 97 55 51 56 102 57 96 58 98 59 52 60 101 61 95 62
REMARK SMILES IDX 94 63 53 65 83 66 64 67 82 68 65 69 68 70 81 71 99 72 66 73
REMARK SMILES IDX 67 74 80 76 100 77 69 78 54 79 55 80 63 81 56 82 62 83 57 84
REMARK SMILES IDX 58 85 59 86 60 87 61 88 84 89 85 90 93 91 86 92 92 93 87 94
REMARK SMILES IDX 88 95 89 96 90 97 91 98 70 99 71 100 79 101 72 102 78 103
REMARK SMILES IDX 73 104 74 105 75 106 76 107 77 108
REMARK H PARENT 3 13 15 19 98 64 68 75
REMARK Flexibility Score: inf
ROOT
ATOM      1  C   UNL A   1      42.591  22.743  25.956  1.00  0.00     0.188 C 
ENDROOT
BRANCH   1   2
ATOM      2  C   UNL A   1      43.342  23.736  25.062  1.00  0.00     0.188 C 
BRANCH   2   3
ATOM      3  O   UNL A   1      42.940  25.077  24.871  1.00  0.00    -0.376 OA
BRANCH   3   4
ATOM      4  C   UNL A   1      43.633  26.238  25.260  1.00  0.00     0.202 C 
BRANCH   4   5
ATOM      5  C   UNL A   1      43.486  27.030  26.564  1.00  0.00     0.261 C 
BRANCH   5   6
ATOM      6  O   UNL A   1      44.280  28.167  26.863  1.00  0.00    -0.462 OA
BRANCH   6   7
ATOM      7  C   UNL A   1      43.683  29.373  26.878  1.00  0.00     0.328 C 
ATOM      8  O   UNL A   1      42.798  29.758  26.131  1.00  0.00    -0.250 OA
BRANCH   7   9
ATOM      9  C   UNL A   1      44.403  30.326  27.793  1.00  0.00     0.189 C 
ATOM     10  C   UNL A   1      45.916  30.286  27.551  1.00  0.00     0.043 C 
BRANCH   9  11
ATOM     11  N   UNL A   1      43.790  31.654  27.615  1.00  0.00    -0.338 N 
ATOM     12  C   UNL A   1      44.224  32.777  28.307  1.00  0.00     0.268 C 
ATOM     13  H   UNL A   1      43.044  31.750  26.981  1.00  0.00     0.164 HD
ATOM     14  O   UNL A   1      45.080  33.513  27.826  1.00  0.00    -0.268 OA
BRANCH  12  15
ATOM     15  C   UNL A   1      43.521  33.120  29.619  1.00  0.00     0.107 C 
ATOM     16  C   UNL A   1      43.801  34.325  30.165  1.00  0.00     0.040 C 
BRANCH  15  17
ATOM     17  N   UNL A   1      42.575  32.301  30.190  1.00  0.00    -0.317 N 
ATOM     18  C   UNL A   1      42.557  31.377  31.193  1.00  0.00     0.255 C 
ATOM     19  H   UNL A   1      41.691  32.409  29.770  1.00  0.00     0.170 HD
ATOM     20  O   UNL A   1      41.537  30.725  31.393  1.00  0.00    -0.269 OA
BRANCH  18  21
ATOM     21  C   UNL A   1      43.750  31.085  31.970  1.00  0.00     0.040 A 
ATOM     22  C   UNL A   1      43.885  31.706  33.206  1.00  0.00     0.014 A 
ATOM     23  C   UNL A   1      44.718  30.213  31.483  1.00  0.00     0.014 A 
ATOM     24  C   UNL A   1      44.968  31.375  34.008  1.00  0.00     0.005 A 
ATOM     25  C   UNL A   1      45.793  29.872  32.305  1.00  0.00     0.005 A 
ATOM     26  C   UNL A   1      45.918  30.417  33.599  1.00  0.00    -0.043 A 
BRANCH  26  27
ATOM     27  C   UNL A   1      47.062  30.033  34.549  1.00  0.00    -0.013 C 
ATOM     28  C   UNL A   1      48.388  30.156  33.779  1.00  0.00     0.016 C 
ATOM     29  C   UNL A   1      47.084  30.975  35.776  1.00  0.00     0.016 C 
ATOM     30  C   UNL A   1      46.946  28.596  35.100  1.00  0.00     0.016 C 
ENDBRANCH  26  27
ENDBRANCH  18  21
ENDBRANCH  15  17
BRANCH  16  31
ATOM     31  C   UNL A   1      43.539  34.923  31.517  1.00  0.00    -0.023 A 
ATOM     32  C   UNL A   1      42.292  34.972  32.172  1.00  0.00     0.010 A 
ATOM     33  C   UNL A   1      44.671  35.246  32.296  1.00  0.00     0.010 A 
ATOM     34  C   UNL A   1      42.181  35.318  33.531  1.00  0.00     0.021 A 
ATOM     35  C   UNL A   1      44.567  35.564  33.661  1.00  0.00     0.021 A 
ATOM     36  C   UNL A   1      43.321  35.593  34.274  1.00  0.00     0.041 A 
ATOM     37  Cl  UNL A   1      43.195  35.873  35.966  1.00  0.00    -0.084 Cl
ENDBRANCH  16  31
ENDBRANCH  12  15
ENDBRANCH   9  11
ENDBRANCH   7   9
ENDBRANCH   6   7
ENDBRANCH   5   6
ENDBRANCH   4   5
ENDBRANCH   3   4
ENDBRANCH   2   3
ENDBRANCH   1   2
BRANCH   1  38
ATOM     38  O   UNL A   1      43.335  22.075  26.952  1.00  0.00    -0.377 OA
BRANCH  38  39
ATOM     39  C   UNL A   1      44.132  22.813  27.863  1.00  0.00     0.188 C 
BRANCH  39  40
ATOM     40  C   UNL A   1      43.981  22.591  29.378  1.00  0.00     0.188 C 
BRANCH  40  41
ATOM     41  O   UNL A   1      43.875  23.796  30.117  1.00  0.00    -0.376 OA
BRANCH  41  42
ATOM     42  C   UNL A   1      43.856  23.725  31.530  1.00  0.00     0.202 C 
BRANCH  42  43
ATOM     43  C   UNL A   1      45.029  24.354  32.297  1.00  0.00     0.261 C 
BRANCH  43  44
ATOM     44  O   UNL A   1      44.965  24.384  33.738  1.00  0.00    -0.460 OA
BRANCH  44  45
ATOM     45  C   UNL A   1      43.778  24.230  34.375  1.00  0.00     0.338 C 
ATOM     46  O   UNL A   1      43.316  23.203  34.805  1.00  0.00    -0.246 OA
BRANCH  45  47
ATOM     47  C   UNL A   1      43.257  25.596  34.686  1.00  0.00     0.060 A 
ATOM     48  C   UNL A   1      43.733  26.693  33.950  1.00  0.00     0.016 A 
ATOM     49  C   UNL A   1      42.283  25.793  35.669  1.00  0.00     0.016 A 
ATOM     50  C   UNL A   1      43.284  27.988  34.232  1.00  0.00     0.010 A 
ATOM     51  C   UNL A   1      41.856  27.091  35.972  1.00  0.00     0.010 A 
ATOM     52  C   UNL A   1      42.390  28.200  35.288  1.00  0.00    -0.014 A 
BRANCH  52  53
ATOM     53  C   UNL A   1      42.240  29.560  35.872  1.00  0.00     0.031 A 
ATOM     54  C   UNL A   1      43.207  29.956  36.959  1.00  0.00     0.074 A 
ATOM     55  C   UNL A   1      41.293  30.428  35.471  1.00  0.00     0.049 A 
ATOM     56  N   UNL A   1      43.237  31.035  37.697  1.00  0.00    -0.248 NA
ATOM     57  C   UNL A   1      44.283  28.994  37.256  1.00  0.00     0.031 C 
ATOM     58  C   UNL A   1      40.332  30.206  34.394  1.00  0.00     0.029 A 
ATOM     59  N   UNL A   1      40.980  31.680  35.947  1.00  0.00    -0.354 N 
ATOM     60  C   UNL A   1      44.317  30.872  38.557  1.00  0.00     0.074 A 
ATOM     61  C   UNL A   1      44.901  29.582  38.267  1.00  0.00     0.031 C 
ATOM     62  C   UNL A   1      39.522  31.277  34.305  1.00  0.00     0.029 A 
ATOM     63  C   UNL A   1      39.882  32.245  35.342  1.00  0.00     0.049 A 
ATOM     64  H   UNL A   1      41.495  32.131  36.655  1.00  0.00     0.167 HD
ATOM     65  C   UNL A   1      44.786  31.716  39.506  1.00  0.00     0.031 A 
ATOM     66  C   UNL A   1      39.223  33.391  35.616  1.00  0.00     0.031 A 
ATOM     67  C   UNL A   1      44.199  32.994  39.807  1.00  0.00     0.049 A 
ATOM     68  C   UNL A   1      39.710  34.283  36.733  1.00  0.00     0.074 A 
ATOM     69  C   UNL A   1      44.610  33.929  40.740  1.00  0.00     0.029 A 
ATOM     70  N   UNL A   1      43.071  33.511  39.191  1.00  0.00    -0.354 N 
ATOM     71  N   UNL A   1      40.745  34.126  37.524  1.00  0.00    -0.248 NA
ATOM     72  C   UNL A   1      38.942  35.512  36.989  1.00  0.00     0.031 C 
ATOM     73  C   UNL A   1      43.691  34.981  40.735  1.00  0.00     0.029 A 
ATOM     74  C   UNL A   1      42.750  34.738  39.747  1.00  0.00     0.049 A 
ATOM     75  H   UNL A   1      42.571  33.072  38.465  1.00  0.00     0.167 HD
ATOM     76  C   UNL A   1      40.768  35.248  38.350  1.00  0.00     0.074 A 
ATOM     77  C   UNL A   1      39.652  36.081  37.954  1.00  0.00     0.031 C 
ATOM     78  C   UNL A   1      41.638  35.561  39.342  1.00  0.00     0.031 A 
BRANCH  65  79
ATOM     79  C   UNL A   1      45.965  31.256  40.322  1.00  0.00    -0.014 A 
ATOM     80  C   UNL A   1      45.796  30.530  41.516  1.00  0.00     0.010 A 
ATOM     81  C   UNL A   1      47.267  31.540  39.873  1.00  0.00     0.010 A 
ATOM     82  C   UNL A   1      46.907  30.136  42.266  1.00  0.00     0.020 A 
ATOM     83  C   UNL A   1      48.382  31.118  40.603  1.00  0.00     0.020 A 
ATOM     84  C   UNL A   1      48.193  30.434  41.805  1.00  0.00     0.054 A 
BRANCH  84  85
ATOM     85  S   UNL A   1      49.616  29.896  42.791  1.00  0.00     0.124 S 
ATOM     86  O   UNL A   1      49.047  28.797  43.567  1.00  0.00    -0.237 OA
ATOM     87  O   UNL A   1      50.584  29.507  41.769  1.00  0.00    -0.237 OA
ATOM     88  O   UNL A   1      49.973  31.083  43.564  1.00  0.00    -0.744 OA
ENDBRANCH  84  85
ENDBRANCH  65  79
BRANCH  66  89
ATOM     89  C   UNL A   1      38.001  33.752  34.840  1.00  0.00    -0.014 A 
ATOM     90  C   UNL A   1      38.099  34.364  33.578  1.00  0.00     0.010 A 
ATOM     91  C   UNL A   1      36.724  33.495  35.374  1.00  0.00     0.010 A 
ATOM     92  C   UNL A   1      36.947  34.723  32.871  1.00  0.00     0.020 A 
ATOM     93  C   UNL A   1      35.570  33.824  34.657  1.00  0.00     0.020 A 
ATOM     94  C   UNL A   1      35.688  34.446  33.414  1.00  0.00     0.054 A 
BRANCH  94  95
ATOM     95  S   UNL A   1      34.208  34.872  32.455  1.00  0.00     0.124 S 
ATOM     96  O   UNL A   1      33.260  33.850  32.889  1.00  0.00    -0.237 OA
ATOM     97  O   UNL A   1      33.923  36.231  32.906  1.00  0.00    -0.237 OA
ATOM     98  O   UNL A   1      34.657  34.760  31.069  1.00  0.00    -0.744 OA
ENDBRANCH  94  95
ENDBRANCH  66  89
BRANCH  78  99
ATOM     99  C   UNL A   1      41.457  36.880  40.051  1.00  0.00    -0.014 A 
ATOM    100  C   UNL A   1      40.707  36.983  41.235  1.00  0.00     0.010 A 
ATOM    101  C   UNL A   1      42.118  38.024  39.560  1.00  0.00     0.010 A 
ATOM    102  C   UNL A   1      40.599  38.209  41.900  1.00  0.00     0.020 A 
ATOM    103  C   UNL A   1      42.039  39.243  40.239  1.00  0.00     0.020 A 
ATOM    104  C   UNL A   1      41.269  39.331  41.399  1.00  0.00     0.054 A 
BRANCH 104 105
ATOM    105  S   UNL A   1      41.156  40.896  42.311  1.00  0.00     0.124 S 
ATOM    106  O   UNL A   1      40.653  40.456  43.609  1.00  0.00    -0.237 OA
ATOM    107  O   UNL A   1      42.537  41.372  42.300  1.00  0.00    -0.237 OA
ATOM    108  O   UNL A   1      40.222  41.693  41.518  1.00  0.00    -0.744 OA
ENDBRANCH 104 105
ENDBRANCH  78  99
ENDBRANCH  52  53
ENDBRANCH  45  47
ENDBRANCH  44  45
ENDBRANCH  43  44
ENDBRANCH  42  43
ENDBRANCH  41  42
ENDBRANCH  40  41
ENDBRANCH  39  40
ENDBRANCH  38  39
ENDBRANCH   1  38
TORSDOF 29
ENDMDL
MODEL 3
REMARK VINA RESULT:      -4.5      5.667     12.371
REMARK SMILES C[C@@H](NC(=O)/C(=C/c1ccc(Cl)cc1)NC(=O)c1ccc(C(C)(C)C)cc1)C(=O)OCCOCCOCCOCCOC(=O)c1ccc(-c2c3nc(c(-c4ccc(S(=O)(=O)[O-])cc4)c4ccc([nH]4)c(-c4ccc(S(=O)(=O)[O-])cc4)c4nc(c(-c5ccc(S(=O)(=O)[O-])cc5)c5ccc2[nH]5)C=C4)C=C3)cc1
REMARK SMILES IDX 35 1 34 2 33 3 32 4 31 5 30 6 28 7 29 8 2 9 1 10 3 11 4 12
REMARK SMILES IDX 5 14 6 15 7 16 15 17 16 18 17 20 18 21 19 22 27 23 20 24
REMARK SMILES IDX 26 25 21 26 22 27 23 28 24 29 25 30 8 31 9 32 14 33 10 34
REMARK SMILES IDX 13 35 11 36 12 37 36 38 37 39 38 40 39 41 40 42 41 43 42 44
REMARK SMILES IDX 43 45 44 46 45 47 46 48 104 49 47 50 103 51 48 52 49 53
REMARK SMILES IDX 50 54 97 55 51 56 102 57 96 58 98 59 52 60 101 61 95 62
REMARK SMILES IDX 94 63 53 65 83 66 64 67 82 68 65 69 68 70 81 71 99 72 66 73
REMARK SMILES IDX 67 74 80 76 100 77 69 78 54 79 55 80 63 81 56 82 62 83 57 84
REMARK SMILES IDX 58 85 59 86 60 87 61 88 84 89 85 90 93 91 86 92 92 93 87 94
REMARK SMILES IDX 88 95 89 96 90 97 91 98 70 99 71 100 79 101 72 102 78 103
REMARK SMILES IDX 73 104 74 105 75 106 76 107 77 108
REMARK H PARENT 3 13 15 19 98 64 68 75
REMARK Flexibility Score: inf
ROOT
ATOM      1  C   UNL A   1      41.296  24.710  27.480  1.00  0.00     0.188 C 
ENDROOT
BRANCH   1   2
ATOM      2  C   UNL A   1      40.503  25.959  27.884  1.00  0.00     0.188 C 
BRANCH   2   3
ATOM      3  O   UNL A   1      39.718  26.043  29.055  1.00  0.00    -0.376 OA
BRANCH   3   4
ATOM      4  C   UNL A   1      39.101  27.190  29.586  1.00  0.00     0.202 C 
BRANCH   4   5
ATOM      5  C   UNL A   1      39.232  27.761  31.002  1.00  0.00     0.261 C 
BRANCH   5   6
ATOM      6  O   UNL A   1      40.107  28.832  31.319  1.00  0.00    -0.462 OA
BRANCH   6   7
ATOM      7  C   UNL A   1      39.630  30.088  31.236  1.00  0.00     0.328 C 
ATOM      8  O   UNL A   1      38.714  30.475  30.527  1.00  0.00    -0.250 OA
BRANCH   7   9
ATOM      9  C   UNL A   1      40.522  31.059  31.960  1.00  0.00     0.189 C 
ATOM     10  C   UNL A   1      40.637  32.380  31.191  1.00  0.00     0.043 C 
BRANCH   9  11
ATOM     11  N   UNL A   1      40.004  31.194  33.333  1.00  0.00    -0.338 N 
ATOM     12  C   UNL A   1      38.647  31.191  33.625  1.00  0.00     0.268 C 
ATOM     13  H   UNL A   1      40.646  31.292  34.073  1.00  0.00     0.164 HD
ATOM     14  O   UNL A   1      38.074  30.143  33.904  1.00  0.00    -0.268 OA
BRANCH  12  15
ATOM     15  C   UNL A   1      37.932  32.539  33.696  1.00  0.00     0.107 C 
ATOM     16  C   UNL A   1      36.582  32.520  33.597  1.00  0.00     0.040 C 
BRANCH  15  17
ATOM     17  N   UNL A   1      38.594  33.718  33.943  1.00  0.00    -0.317 N 
ATOM     18  C   UNL A   1      38.876  34.470  35.045  1.00  0.00     0.255 C 
ATOM     19  H   UNL A   1      38.954  34.119  33.119  1.00  0.00     0.170 HD
ATOM     20  O   UNL A   1      39.418  35.562  34.907  1.00  0.00    -0.269 OA
BRANCH  18  21
ATOM     21  C   UNL A   1      38.466  34.044  36.373  1.00  0.00     0.040 A 
ATOM     22  C   UNL A   1      37.773  32.845  36.483  1.00  0.00     0.014 A 
ATOM     23  C   UNL A   1      38.762  34.820  37.489  1.00  0.00     0.014 A 
ATOM     24  C   UNL A   1      37.450  32.370  37.747  1.00  0.00     0.005 A 
ATOM     25  C   UNL A   1      38.451  34.324  38.757  1.00  0.00     0.005 A 
ATOM     26  C   UNL A   1      37.823  33.072  38.911  1.00  0.00    -0.043 A 
BRANCH  26  27
ATOM     27  C   UNL A   1      37.505  32.473  40.289  1.00  0.00    -0.013 C 
ATOM     28  C   UNL A   1      36.917  31.066  40.077  1.00  0.00     0.016 C 
ATOM     29  C   UNL A   1      38.788  32.375  41.146  1.00  0.00     0.016 C 
ATOM     30  C   UNL A   1      36.494  33.308  41.103  1.00  0.00     0.016 C 
ENDBRANCH  26  27
ENDBRANCH  18  21
ENDBRANCH  15  17
BRANCH  16  31
ATOM     31  C   UNL A   1      35.558  33.592  33.370  1.00  0.00    -0.023 A 
ATOM     32  C   UNL A   1      35.223  34.621  34.273  1.00  0.00     0.010 A 
ATOM     33  C   UNL A   1      35.062  33.724  32.055  1.00  0.00     0.010 A 
ATOM     34  C   UNL A   1      34.441  35.724  33.884  1.00  0.00     0.021 A 
ATOM     35  C   UNL A   1      34.305  34.839  31.655  1.00  0.00     0.021 A 
ATOM     36  C   UNL A   1      34.003  35.838  32.572  1.00  0.00     0.041 A 
ATOM     37  Cl  UNL A   1      33.172  37.255  32.065  1.00  0.00    -0.084 Cl
ENDBRANCH  16  31
ENDBRANCH  12  15
ENDBRANCH   9  11
ENDBRANCH   7   9
ENDBRANCH   6   7
ENDBRANCH   5   6
ENDBRANCH   4   5
ENDBRANCH   3   4
ENDBRANCH   2   3
ENDBRANCH   1   2
BRANCH   1  38
ATOM     38  O   UNL A   1      41.499  24.487  26.102  1.00  0.00    -0.377 OA
BRANCH  38  39
ATOM     39  C   UNL A   1      42.186  25.447  25.316  1.00  0.00     0.188 C 
BRANCH  39  40
ATOM     40  C   UNL A   1      43.717  25.388  25.188  1.00  0.00     0.188 C 
BRANCH  40  41
ATOM     41  O   UNL A   1      44.233  24.068  25.191  1.00  0.00    -0.376 OA
BRANCH  41  42
ATOM     42  C   UNL A   1      45.462  23.818  24.535  1.00  0.00     0.202 C 
BRANCH  42  43
ATOM     43  C   UNL A   1      46.735  24.432  25.136  1.00  0.00     0.261 C 
BRANCH  43  44
ATOM     44  O   UNL A   1      46.997  25.831  24.899  1.00  0.00    -0.460 OA
BRANCH  44  45
ATOM     45  C   UNL A   1      48.012  26.458  25.545  1.00  0.00     0.338 C 
ATOM     46  O   UNL A   1      49.171  26.487  25.215  1.00  0.00    -0.246 OA
BRANCH  45  47
ATOM     47  C   UNL A   1      47.402  27.326  26.598  1.00  0.00     0.060 A 
ATOM     48  C   UNL A   1      48.240  28.108  27.408  1.00  0.00     0.016 A 
ATOM     49  C   UNL A   1      46.016  27.397  26.764  1.00  0.00     0.016 A 
ATOM     50  C   UNL A   1      47.703  28.914  28.420  1.00  0.00     0.010 A 
ATOM     51  C   UNL A   1      45.480  28.179  27.795  1.00  0.00     0.010 A 
ATOM     52  C   UNL A   1      46.324  28.904  28.658  1.00  0.00    -0.014 A 
BRANCH  52  53
ATOM     53  C   UNL A   1      45.792  29.392  29.959  1.00  0.00     0.031 A 
ATOM     54  C   UNL A   1      45.234  30.793  29.996  1.00  0.00     0.074 A 
ATOM     55  C   UNL A   1      45.790  28.643  31.077  1.00  0.00     0.049 A 
ATOM     56  N   UNL A   1      44.800  31.492  31.011  1.00  0.00    -0.248 NA
ATOM     57  C   UNL A   1      45.166  31.501  28.706  1.00  0.00     0.031 C 
ATOM     58  C   UNL A   1      46.240  27.256  31.175  1.00  0.00     0.029 A 
ATOM     59  N   UNL A   1      45.403  28.962  32.357  1.00  0.00    -0.354 N 
ATOM     60  C   UNL A   1      44.430  32.725  30.488  1.00  0.00     0.074 A 
ATOM     61  C   UNL A   1      44.712  32.688  29.071  1.00  0.00     0.031 C 
ATOM     62  C   UNL A   1      46.123  26.851  32.453  1.00  0.00     0.029 A 
ATOM     63  C   UNL A   1      45.626  27.958  33.270  1.00  0.00     0.049 A 
ATOM     64  H   UNL A   1      45.002  29.829  32.598  1.00  0.00     0.167 HD
ATOM     65  C   UNL A   1      43.902  33.797  31.125  1.00  0.00     0.031 A 
ATOM     66  C   UNL A   1      45.479  27.947  34.613  1.00  0.00     0.031 A 
ATOM     67  C   UNL A   1      43.633  33.842  32.536  1.00  0.00     0.049 A 
ATOM     68  C   UNL A   1      44.967  29.179  35.318  1.00  0.00     0.074 A 
ATOM     69  C   UNL A   1      43.084  34.877  33.272  1.00  0.00     0.029 A 
ATOM     70  N   UNL A   1      43.902  32.815  33.426  1.00  0.00    -0.354 N 
ATOM     71  N   UNL A   1      44.601  30.332  34.808  1.00  0.00    -0.248 NA
ATOM     72  C   UNL A   1      44.841  29.107  36.782  1.00  0.00     0.031 C 
ATOM     73  C   UNL A   1      43.085  34.501  34.619  1.00  0.00     0.029 A 
ATOM     74  C   UNL A   1      43.563  33.204  34.711  1.00  0.00     0.049 A 
ATOM     75  H   UNL A   1      44.279  31.939  33.182  1.00  0.00     0.167 HD
ATOM     76  C   UNL A   1      44.175  31.109  35.884  1.00  0.00     0.074 A 
ATOM     77  C   UNL A   1      44.317  30.291  37.070  1.00  0.00     0.031 C 
ATOM     78  C   UNL A   1      43.705  32.380  35.886  1.00  0.00     0.031 A 
BRANCH  65  79
ATOM     79  C   UNL A   1      43.629  35.028  30.301  1.00  0.00    -0.014 A 
ATOM     80  C   UNL A   1      44.557  36.082  30.222  1.00  0.00     0.010 A 
ATOM     81  C   UNL A   1      42.427  35.119  29.574  1.00  0.00     0.010 A 
ATOM     82  C   UNL A   1      44.269  37.224  29.469  1.00  0.00     0.020 A 
ATOM     83  C   UNL A   1      42.150  36.245  28.793  1.00  0.00     0.020 A 
ATOM     84  C   UNL A   1      43.065  37.298  28.760  1.00  0.00     0.054 A 
BRANCH  84  85
ATOM     85  S   UNL A   1      42.725  38.783  27.779  1.00  0.00     0.124 S 
ATOM     86  O   UNL A   1      41.760  39.487  28.621  1.00  0.00    -0.237 OA
ATOM     87  O   UNL A   1      44.041  39.407  27.676  1.00  0.00    -0.237 OA
ATOM     88  O   UNL A   1      42.188  38.256  26.526  1.00  0.00    -0.744 OA
ENDBRANCH  84  85
ENDBRANCH  65  79
BRANCH  66  89
ATOM     89  C   UNL A   1      45.858  26.733  35.393  1.00  0.00    -0.014 A 
ATOM     90  C   UNL A   1      44.918  25.721  35.658  1.00  0.00     0.010 A 
ATOM     91  C   UNL A   1      47.167  26.592  35.890  1.00  0.00     0.010 A 
ATOM     92  C   UNL A   1      45.276  24.600  36.414  1.00  0.00     0.020 A 
ATOM     93  C   UNL A   1      47.537  25.459  36.620  1.00  0.00     0.020 A 
ATOM     94  C   UNL A   1      46.585  24.474  36.887  1.00  0.00     0.054 A 
BRANCH  94  95
ATOM     95  S   UNL A   1      47.041  22.986  37.820  1.00  0.00     0.124 S 
ATOM     96  O   UNL A   1      47.993  22.342  36.919  1.00  0.00    -0.237 OA
ATOM     97  O   UNL A   1      47.607  23.545  39.044  1.00  0.00    -0.237 OA
ATOM     98  O   UNL A   1      45.768  22.287  37.987  1.00  0.00    -0.744 OA
ENDBRANCH  94  95
ENDBRANCH  66  89
BRANCH  78  99
ATOM     99  C   UNL A   1      43.262  32.968  37.203  1.00  0.00    -0.014 A 
ATOM    100  C   UNL A   1      42.003  32.675  37.753  1.00  0.00     0.010 A 
ATOM    101  C   UNL A   1      44.160  33.766  37.939  1.00  0.00     0.010 A 
ATOM    102  C   UNL A   1      41.639  33.191  39.002  1.00  0.00     0.020 A 
ATOM    103  C   UNL A   1      43.812  34.257  39.200  1.00  0.00     0.020 A 
ATOM    104  C   UNL A   1      42.548  33.977  39.719  1.00  0.00     0.054 A 
BRANCH 104 105
ATOM    105  S   UNL A   1      42.070  34.589  41.359  1.00  0.00     0.124 S 
ATOM    106  O   UNL A   1      42.010  33.355  42.138  1.00  0.00    -0.237 OA
ATOM    107  O   UNL A   1      43.169  35.492  41.695  1.00  0.00    -0.237 OA
ATOM    108  O   UNL A   1      40.784  35.241  41.125  1.00  0.00    -0.744 OA
ENDBRANCH 104 105
ENDBRANCH  78  99
ENDBRANCH  52  53
ENDBRANCH  45  47
ENDBRANCH  44  45
ENDBRANCH  43  44
ENDBRANCH  42  43
ENDBRANCH  41  42
ENDBRANCH  40  41
ENDBRANCH  39  40
ENDBRANCH  38  39
ENDBRANCH   1  38
TORSDOF 29
ENDMDL
