MODEL 1
REMARK VINA RESULT:     -10.0      0.000      0.000
REMARK SMILES CCc1cc(OC(F)(F)F)cc2c1O[C@H](C(F)(F)F)C(C(=O)OCCOCCOCCOCCOC(=O)c1ccc(-c3c4nc(c(-c5ccc(S(=O)(=O)[O-])cc5)c5ccc([nH]5)c(-c5ccc(S(=O)(=O)[O-])cc5)c5nc(c(-c6ccc(S(=O)(=O)[O-])cc6)c6ccc3[nH]6)C=C5)C=C4)cc1)=C2
REMARK SMILES IDX 30 1 29 2 28 3 27 4 26 5 25 6 24 7 23 8 21 9 22 10 20 11
REMARK SMILES IDX 3 12 4 13 13 14 5 15 12 16 14 17 11 18 98 19 15 20 2 21 1 22
REMARK SMILES IDX 6 23 7 24 8 25 9 26 10 27 16 28 17 29 18 30 19 31 31 32
REMARK SMILES IDX 32 33 33 34 34 35 35 36 36 37 37 38 38 39 39 40 97 41 40 42
REMARK SMILES IDX 96 43 41 44 42 45 43 46 90 47 44 48 95 49 89 50 91 51 45 52
REMARK SMILES IDX 94 53 88 54 87 55 46 57 76 58 57 59 75 60 58 61 61 62 74 63
REMARK SMILES IDX 92 64 59 65 60 66 73 68 93 69 62 70 47 71 48 72 56 73 49 74
REMARK SMILES IDX 55 75 50 76 51 77 52 78 53 79 54 80 77 81 78 82 86 83 79 84
REMARK SMILES IDX 85 85 80 86 81 87 82 88 83 89 84 90 63 91 64 92 72 93 65 94
REMARK SMILES IDX 71 95 66 96 67 97 68 98 69 99 70 100
REMARK H PARENT 91 56 61 67
REMARK Flexibility Score: inf
ROOT
ATOM      1  C   UNL A   1      39.769  21.934  26.112  1.00  0.00     0.188 C 
ENDROOT
BRANCH   1   2
ATOM      2  O   UNL A   1      38.531  21.309  25.830  1.00  0.00    -0.377 OA
BRANCH   2   3
ATOM      3  C   UNL A   1      37.450  22.090  25.349  1.00  0.00     0.188 C 
BRANCH   3   4
ATOM      4  C   UNL A   1      35.978  21.674  25.596  1.00  0.00     0.188 C 
BRANCH   4   5
ATOM      5  O   UNL A   1      35.079  22.028  24.559  1.00  0.00    -0.376 OA
BRANCH   5   6
ATOM      6  C   UNL A   1      33.747  21.555  24.643  1.00  0.00     0.202 C 
BRANCH   6   7
ATOM      7  C   UNL A   1      32.872  22.106  25.778  1.00  0.00     0.261 C 
BRANCH   7   8
ATOM      8  O   UNL A   1      31.628  22.708  25.387  1.00  0.00    -0.460 OA
BRANCH   8   9
ATOM      9  C   UNL A   1      31.107  23.664  26.185  1.00  0.00     0.338 C 
ATOM     10  O   UNL A   1      30.622  23.493  27.292  1.00  0.00    -0.246 OA
BRANCH   9  11
ATOM     11  C   UNL A   1      31.329  25.005  25.598  1.00  0.00     0.087 C 
ATOM     12  C   UNL A   1      31.498  29.087  24.873  1.00  0.00    -0.002 A 
ATOM     13  C   UNL A   1      30.912  29.593  23.703  1.00  0.00     0.054 A 
ATOM     14  C   UNL A   1      31.356  27.719  25.135  1.00  0.00     0.131 A 
ATOM     15  C   UNL A   1      30.198  28.760  22.831  1.00  0.00     0.130 A 
ATOM     16  C   UNL A   1      30.689  26.862  24.249  1.00  0.00     0.021 A 
ATOM     17  O   UNL A   1      31.870  27.259  26.329  1.00  0.00    -0.475 OA
ATOM     18  C   UNL A   1      30.113  27.389  23.095  1.00  0.00     0.058 A 
ATOM     19  C   UNL A   1      30.546  25.453  24.604  1.00  0.00     0.027 C 
ATOM     20  C   UNL A   1      32.354  25.897  26.260  1.00  0.00     0.316 C 
BRANCH  12  21
ATOM     21  C   UNL A   1      32.346  29.916  25.813  1.00  0.00     0.036 C 
ATOM     22  C   UNL A   1      31.635  30.982  26.628  1.00  0.00     0.009 C 
ENDBRANCH  12  21
BRANCH  15  23
ATOM     23  O   UNL A   1      29.555  29.159  21.692  1.00  0.00    -0.406 OA
BRANCH  23  24
ATOM     24  C   UNL A   1      28.618  30.217  21.811  1.00  0.00     0.573 C 
ATOM     25  F   UNL A   1      27.962  30.169  22.992  1.00  0.00    -0.132 F 
ATOM     26  F   UNL A   1      29.231  31.416  21.691  1.00  0.00    -0.132 F 
ATOM     27  F   UNL A   1      27.706  30.113  20.821  1.00  0.00    -0.132 F 
ENDBRANCH  23  24
ENDBRANCH  15  23
BRANCH  20  28
ATOM     28  C   UNL A   1      33.790  25.893  25.670  1.00  0.00     0.430 C 
ATOM     29  F   UNL A   1      34.540  26.945  26.080  1.00  0.00    -0.167 F 
ATOM     30  F   UNL A   1      34.460  24.775  26.049  1.00  0.00    -0.167 F 
ATOM     31  F   UNL A   1      33.817  25.914  24.324  1.00  0.00    -0.167 F 
ENDBRANCH  20  28
ENDBRANCH   9  11
ENDBRANCH   8   9
ENDBRANCH   7   8
ENDBRANCH   6   7
ENDBRANCH   5   6
ENDBRANCH   4   5
ENDBRANCH   3   4
ENDBRANCH   2   3
ENDBRANCH   1   2
BRANCH   1  32
ATOM     32  C   UNL A   1      40.941  21.090  26.659  1.00  0.00     0.188 C 
BRANCH  32  33
ATOM     33  O   UNL A   1      42.098  21.080  25.835  1.00  0.00    -0.376 OA
BRANCH  33  34
ATOM     34  C   UNL A   1      42.605  22.325  25.395  1.00  0.00     0.202 C 
BRANCH  34  35
ATOM     35  C   UNL A   1      43.367  23.153  26.437  1.00  0.00     0.261 C 
BRANCH  35  36
ATOM     36  O   UNL A   1      42.623  24.201  27.068  1.00  0.00    -0.460 OA
BRANCH  36  37
ATOM     37  C   UNL A   1      42.863  25.466  26.662  1.00  0.00     0.338 C 
ATOM     38  O   UNL A   1      43.225  25.832  25.558  1.00  0.00    -0.246 OA
BRANCH  37  39
ATOM     39  C   UNL A   1      42.430  26.351  27.759  1.00  0.00     0.060 A 
ATOM     40  C   UNL A   1      43.122  27.546  28.003  1.00  0.00     0.016 A 
ATOM     41  C   UNL A   1      41.307  26.008  28.514  1.00  0.00     0.016 A 
ATOM     42  C   UNL A   1      42.687  28.406  29.012  1.00  0.00     0.010 A 
ATOM     43  C   UNL A   1      40.896  26.849  29.544  1.00  0.00     0.010 A 
ATOM     44  C   UNL A   1      41.599  28.037  29.812  1.00  0.00    -0.014 A 
BRANCH  44  45
ATOM     45  C   UNL A   1      41.330  28.739  31.087  1.00  0.00     0.031 A 
ATOM     46  C   UNL A   1      40.222  29.753  31.092  1.00  0.00     0.074 A 
ATOM     47  C   UNL A   1      42.079  28.529  32.184  1.00  0.00     0.049 A 
ATOM     48  N   UNL A   1      39.891  30.617  32.013  1.00  0.00    -0.248 NA
ATOM     49  C   UNL A   1      39.380  29.806  29.881  1.00  0.00     0.031 C 
ATOM     50  C   UNL A   1      43.142  27.536  32.312  1.00  0.00     0.029 A 
ATOM     51  N   UNL A   1      42.064  29.170  33.398  1.00  0.00    -0.354 N 
ATOM     52  C   UNL A   1      38.819  31.328  31.489  1.00  0.00     0.074 A 
ATOM     53  C   UNL A   1      38.565  30.810  30.163  1.00  0.00     0.031 C 
ATOM     54  C   UNL A   1      43.697  27.648  33.533  1.00  0.00     0.029 A 
ATOM     55  C   UNL A   1      43.059  28.751  34.251  1.00  0.00     0.049 A 
ATOM     56  H   UNL A   1      41.406  29.861  33.635  1.00  0.00     0.167 HD
ATOM     57  C   UNL A   1      38.112  32.329  32.059  1.00  0.00     0.031 A 
ATOM     58  C   UNL A   1      43.430  29.233  35.455  1.00  0.00     0.031 A 
ATOM     59  C   UNL A   1      38.390  32.855  33.366  1.00  0.00     0.049 A 
ATOM     60  C   UNL A   1      42.684  30.410  36.037  1.00  0.00     0.074 A 
ATOM     61  C   UNL A   1      37.734  33.867  34.043  1.00  0.00     0.029 A 
ATOM     62  N   UNL A   1      39.414  32.414  34.192  1.00  0.00    -0.354 N 
ATOM     63  N   UNL A   1      41.663  31.068  35.539  1.00  0.00    -0.248 NA
ATOM     64  C   UNL A   1      43.140  30.911  37.342  1.00  0.00     0.031 C 
ATOM     65  C   UNL A   1      38.399  34.078  35.254  1.00  0.00     0.029 A 
ATOM     66  C   UNL A   1      39.422  33.149  35.363  1.00  0.00     0.049 A 
ATOM     67  H   UNL A   1      40.040  31.686  33.977  1.00  0.00     0.167 HD
ATOM     68  C   UNL A   1      41.330  32.030  36.488  1.00  0.00     0.074 A 
ATOM     69  C   UNL A   1      42.258  31.870  37.589  1.00  0.00     0.031 C 
ATOM     70  C   UNL A   1      40.342  32.957  36.456  1.00  0.00     0.031 A 
BRANCH  57  71
ATOM     71  C   UNL A   1      37.004  32.945  31.251  1.00  0.00    -0.014 A 
ATOM     72  C   UNL A   1      37.276  33.866  30.222  1.00  0.00     0.010 A 
ATOM     73  C   UNL A   1      35.671  32.576  31.506  1.00  0.00     0.010 A 
ATOM     74  C   UNL A   1      36.232  34.433  29.489  1.00  0.00     0.020 A 
ATOM     75  C   UNL A   1      34.627  33.118  30.754  1.00  0.00     0.020 A 
ATOM     76  C   UNL A   1      34.913  34.056  29.759  1.00  0.00     0.054 A 
BRANCH  76  77
ATOM     77  S   UNL A   1      33.580  34.788  28.771  1.00  0.00     0.124 S 
ATOM     78  O   UNL A   1      33.289  33.718  27.820  1.00  0.00    -0.237 OA
ATOM     79  O   UNL A   1      32.544  35.040  29.769  1.00  0.00    -0.237 OA
ATOM     80  O   UNL A   1      34.192  35.983  28.195  1.00  0.00    -0.744 OA
ENDBRANCH  76  77
ENDBRANCH  57  71
BRANCH  58  81
ATOM     81  C   UNL A   1      44.580  28.628  36.182  1.00  0.00    -0.014 A 
ATOM     82  C   UNL A   1      45.869  29.176  36.067  1.00  0.00     0.010 A 
ATOM     83  C   UNL A   1      44.394  27.490  36.992  1.00  0.00     0.010 A 
ATOM     84  C   UNL A   1      46.953  28.589  36.731  1.00  0.00     0.020 A 
ATOM     85  C   UNL A   1      45.468  26.919  37.680  1.00  0.00     0.020 A 
ATOM     86  C   UNL A   1      46.744  27.466  37.535  1.00  0.00     0.054 A 
BRANCH  86  87
ATOM     87  S   UNL A   1      48.157  26.753  38.424  1.00  0.00     0.124 S 
ATOM     88  O   UNL A   1      48.072  27.424  39.716  1.00  0.00    -0.237 OA
ATOM     89  O   UNL A   1      47.838  25.327  38.429  1.00  0.00    -0.237 OA
ATOM     90  O   UNL A   1      49.304  27.125  37.598  1.00  0.00    -0.744 OA
ENDBRANCH  86  87
ENDBRANCH  58  81
BRANCH  70  91
ATOM     91  C   UNL A   1      40.154  33.837  37.665  1.00  0.00    -0.014 A 
ATOM     92  C   UNL A   1      39.514  33.366  38.823  1.00  0.00     0.010 A 
ATOM     93  C   UNL A   1      40.738  35.118  37.674  1.00  0.00     0.010 A 
ATOM     94  C   UNL A   1      39.456  34.166  39.969  1.00  0.00     0.020 A 
ATOM     95  C   UNL A   1      40.706  35.908  38.825  1.00  0.00     0.020 A 
ATOM     96  C   UNL A   1      40.060  35.427  39.965  1.00  0.00     0.054 A 
BRANCH  96  97
ATOM     97  S   UNL A   1      40.049  36.406  41.492  1.00  0.00     0.124 S 
ATOM     98  O   UNL A   1      39.183  37.525  41.132  1.00  0.00    -0.237 OA
ATOM     99  O   UNL A   1      39.494  35.470  42.467  1.00  0.00    -0.237 OA
ATOM    100  O   UNL A   1      41.456  36.747  41.696  1.00  0.00    -0.744 OA
ENDBRANCH  96  97
ENDBRANCH  70  91
ENDBRANCH  44  45
ENDBRANCH  37  39
ENDBRANCH  36  37
ENDBRANCH  35  36
ENDBRANCH  34  35
ENDBRANCH  33  34
ENDBRANCH  32  33
ENDBRANCH   1  32
TORSDOF 27
ENDMDL
MODEL 2
REMARK VINA RESULT:      -8.5      8.259     12.804
REMARK SMILES CCc1cc(OC(F)(F)F)cc2c1O[C@H](C(F)(F)F)C(C(=O)OCCOCCOCCOCCOC(=O)c1ccc(-c3c4nc(c(-c5ccc(S(=O)(=O)[O-])cc5)c5ccc([nH]5)c(-c5ccc(S(=O)(=O)[O-])cc5)c5nc(c(-c6ccc(S(=O)(=O)[O-])cc6)c6ccc3[nH]6)C=C5)C=C4)cc1)=C2
REMARK SMILES IDX 30 1 29 2 28 3 27 4 26 5 25 6 24 7 23 8 21 9 22 10 20 11
REMARK SMILES IDX 3 12 4 13 13 14 5 15 12 16 14 17 11 18 98 19 15 20 2 21 1 22
REMARK SMILES IDX 6 23 7 24 8 25 9 26 10 27 16 28 17 29 18 30 19 31 31 32
REMARK SMILES IDX 32 33 33 34 34 35 35 36 36 37 37 38 38 39 39 40 97 41 40 42
REMARK SMILES IDX 96 43 41 44 42 45 43 46 90 47 44 48 95 49 89 50 91 51 45 52
REMARK SMILES IDX 94 53 88 54 87 55 46 57 76 58 57 59 75 60 58 61 61 62 74 63
REMARK SMILES IDX 92 64 59 65 60 66 73 68 93 69 62 70 47 71 48 72 56 73 49 74
REMARK SMILES IDX 55 75 50 76 51 77 52 78 53 79 54 80 77 81 78 82 86 83 79 84
REMARK SMILES IDX 85 85 80 86 81 87 82 88 83 89 84 90 63 91 64 92 72 93 65 94
REMARK SMILES IDX 71 95 66 96 67 97 68 98 69 99 70 100
REMARK H PARENT 91 56 61 67
REMARK Flexibility Score: inf
ROOT
ATOM      1  C   UNL A   1      39.017  21.958  26.120  1.00  0.00     0.188 C 
ENDROOT
BRANCH   1   2
ATOM      2  O   UNL A   1      37.853  21.532  25.436  1.00  0.00    -0.377 OA
BRANCH   2   3
ATOM      3  C   UNL A   1      36.610  22.147  25.727  1.00  0.00     0.188 C 
BRANCH   3   4
ATOM      4  C   UNL A   1      35.269  21.397  25.524  1.00  0.00     0.188 C 
BRANCH   4   5
ATOM      5  O   UNL A   1      34.574  21.735  24.336  1.00  0.00    -0.376 OA
BRANCH   5   6
ATOM      6  C   UNL A   1      33.197  21.416  24.257  1.00  0.00     0.202 C 
BRANCH   6   7
ATOM      7  C   UNL A   1      32.351  21.615  25.522  1.00  0.00     0.261 C 
BRANCH   7   8
ATOM      8  O   UNL A   1      31.132  22.358  25.362  1.00  0.00    -0.460 OA
BRANCH   8   9
ATOM      9  C   UNL A   1      30.844  23.308  26.277  1.00  0.00     0.338 C 
ATOM     10  O   UNL A   1      30.539  23.117  27.443  1.00  0.00    -0.246 OA
BRANCH   9  11
ATOM     11  C   UNL A   1      31.085  24.656  25.715  1.00  0.00     0.087 C 
ATOM     12  C   UNL A   1      31.387  28.748  25.096  1.00  0.00    -0.002 A 
ATOM     13  C   UNL A   1      30.749  29.315  23.982  1.00  0.00     0.054 A 
ATOM     14  C   UNL A   1      31.202  27.380  25.328  1.00  0.00     0.131 A 
ATOM     15  C   UNL A   1      29.944  28.540  23.136  1.00  0.00     0.130 A 
ATOM     16  C   UNL A   1      30.442  26.579  24.463  1.00  0.00     0.021 A 
ATOM     17  O   UNL A   1      31.772  26.862  26.472  1.00  0.00    -0.475 OA
ATOM     18  C   UNL A   1      29.816  27.166  23.366  1.00  0.00     0.058 A 
ATOM     19  C   UNL A   1      30.261  25.168  24.787  1.00  0.00     0.027 C 
ATOM     20  C   UNL A   1      32.190  25.483  26.333  1.00  0.00     0.316 C 
BRANCH  12  21
ATOM     21  C   UNL A   1      32.329  29.511  26.001  1.00  0.00     0.036 C 
ATOM     22  C   UNL A   1      31.825  30.821  26.579  1.00  0.00     0.009 C 
ENDBRANCH  12  21
BRANCH  15  23
ATOM     23  O   UNL A   1      29.247  29.001  22.054  1.00  0.00    -0.406 OA
BRANCH  23  24
ATOM     24  C   UNL A   1      28.392  30.114  22.257  1.00  0.00     0.573 C 
ATOM     25  F   UNL A   1      29.065  31.170  22.766  1.00  0.00    -0.132 F 
ATOM     26  F   UNL A   1      27.797  30.481  21.100  1.00  0.00    -0.132 F 
ATOM     27  F   UNL A   1      27.423  29.773  23.134  1.00  0.00    -0.132 F 
ENDBRANCH  23  24
ENDBRANCH  15  23
BRANCH  20  28
ATOM     28  C   UNL A   1      33.583  25.437  25.649  1.00  0.00     0.430 C 
ATOM     29  F   UNL A   1      34.093  26.666  25.391  1.00  0.00    -0.167 F 
ATOM     30  F   UNL A   1      34.486  24.807  26.443  1.00  0.00    -0.167 F 
ATOM     31  F   UNL A   1      33.583  24.776  24.476  1.00  0.00    -0.167 F 
ENDBRANCH  20  28
ENDBRANCH   9  11
ENDBRANCH   8   9
ENDBRANCH   7   8
ENDBRANCH   6   7
ENDBRANCH   5   6
ENDBRANCH   4   5
ENDBRANCH   3   4
ENDBRANCH   2   3
ENDBRANCH   1   2
BRANCH   1  32
ATOM     32  C   UNL A   1      40.286  21.078  26.086  1.00  0.00     0.188 C 
BRANCH  32  33
ATOM     33  O   UNL A   1      41.506  21.801  26.032  1.00  0.00    -0.376 OA
BRANCH  33  34
ATOM     34  C   UNL A   1      42.040  22.286  27.250  1.00  0.00     0.202 C 
BRANCH  34  35
ATOM     35  C   UNL A   1      43.060  23.425  27.137  1.00  0.00     0.261 C 
BRANCH  35  36
ATOM     36  O   UNL A   1      43.788  23.493  25.906  1.00  0.00    -0.460 OA
BRANCH  36  37
ATOM     37  C   UNL A   1      44.952  22.812  25.834  1.00  0.00     0.338 C 
ATOM     38  O   UNL A   1      45.105  21.638  25.546  1.00  0.00    -0.246 OA
BRANCH  37  39
ATOM     39  C   UNL A   1      46.032  23.802  25.995  1.00  0.00     0.060 A 
ATOM     40  C   UNL A   1      46.522  24.096  27.275  1.00  0.00     0.016 A 
ATOM     41  C   UNL A   1      46.585  24.403  24.863  1.00  0.00     0.016 A 
ATOM     42  C   UNL A   1      47.574  24.999  27.425  1.00  0.00     0.010 A 
ATOM     43  C   UNL A   1      47.610  25.332  25.016  1.00  0.00     0.010 A 
ATOM     44  C   UNL A   1      48.090  25.651  26.299  1.00  0.00    -0.014 A 
BRANCH  44  45
ATOM     45  C   UNL A   1      48.948  26.848  26.449  1.00  0.00     0.031 A 
ATOM     46  C   UNL A   1      50.432  26.624  26.521  1.00  0.00     0.074 A 
ATOM     47  C   UNL A   1      48.429  28.081  26.576  1.00  0.00     0.049 A 
ATOM     48  N   UNL A   1      51.385  27.466  26.815  1.00  0.00    -0.248 NA
ATOM     49  C   UNL A   1      50.900  25.255  26.236  1.00  0.00     0.031 C 
ATOM     50  C   UNL A   1      47.013  28.425  26.469  1.00  0.00     0.029 A 
ATOM     51  N   UNL A   1      49.048  29.276  26.850  1.00  0.00    -0.354 N 
ATOM     52  C   UNL A   1      52.561  26.728  26.769  1.00  0.00     0.074 A 
ATOM     53  C   UNL A   1      52.203  25.367  26.438  1.00  0.00     0.031 C 
ATOM     54  C   UNL A   1      46.867  29.743  26.698  1.00  0.00     0.029 A 
ATOM     55  C   UNL A   1      48.172  30.323  27.014  1.00  0.00     0.049 A 
ATOM     56  H   UNL A   1      50.025  29.373  26.921  1.00  0.00     0.167 HD
ATOM     57  C   UNL A   1      53.828  27.147  26.989  1.00  0.00     0.031 A 
ATOM     58  C   UNL A   1      48.400  31.592  27.412  1.00  0.00     0.031 A 
ATOM     59  C   UNL A   1      54.170  28.495  27.344  1.00  0.00     0.049 A 
ATOM     60  C   UNL A   1      49.812  32.017  27.739  1.00  0.00     0.074 A 
ATOM     61  C   UNL A   1      55.422  29.028  27.587  1.00  0.00     0.029 A 
ATOM     62  N   UNL A   1      53.253  29.522  27.514  1.00  0.00    -0.354 N 
ATOM     63  N   UNL A   1      50.920  31.315  27.679  1.00  0.00    -0.248 NA
ATOM     64  C   UNL A   1      50.005  33.404  28.187  1.00  0.00     0.031 C 
ATOM     65  C   UNL A   1      55.257  30.364  27.962  1.00  0.00     0.029 A 
ATOM     66  C   UNL A   1      53.910  30.682  27.881  1.00  0.00     0.049 A 
ATOM     67  H   UNL A   1      52.280  29.438  27.391  1.00  0.00     0.167 HD
ATOM     68  C   UNL A   1      51.942  32.186  28.042  1.00  0.00     0.074 A 
ATOM     69  C   UNL A   1      51.323  33.466  28.319  1.00  0.00     0.031 C 
ATOM     70  C   UNL A   1      53.275  31.951  28.131  1.00  0.00     0.031 A 
BRANCH  57  71
ATOM     71  C   UNL A   1      54.923  26.121  26.896  1.00  0.00    -0.014 A 
ATOM     72  C   UNL A   1      55.674  25.961  25.716  1.00  0.00     0.010 A 
ATOM     73  C   UNL A   1      55.224  25.322  28.014  1.00  0.00     0.010 A 
ATOM     74  C   UNL A   1      56.682  24.997  25.647  1.00  0.00     0.020 A 
ATOM     75  C   UNL A   1      56.251  24.378  27.957  1.00  0.00     0.020 A 
ATOM     76  C   UNL A   1      56.964  24.210  26.768  1.00  0.00     0.054 A 
BRANCH  76  77
ATOM     77  S   UNL A   1      58.297  22.986  26.657  1.00  0.00     0.124 S 
ATOM     78  O   UNL A   1      58.021  22.135  27.812  1.00  0.00    -0.237 OA
ATOM     79  O   UNL A   1      58.059  22.373  25.354  1.00  0.00    -0.237 OA
ATOM     80  O   UNL A   1      59.515  23.789  26.753  1.00  0.00    -0.744 OA
ENDBRANCH  76  77
ENDBRANCH  57  71
BRANCH  58  81
ATOM     81  C   UNL A   1      47.268  32.548  27.553  1.00  0.00    -0.014 A 
ATOM     82  C   UNL A   1      46.741  33.206  26.427  1.00  0.00     0.010 A 
ATOM     83  C   UNL A   1      46.712  32.816  28.819  1.00  0.00     0.010 A 
ATOM     84  C   UNL A   1      45.694  34.124  26.565  1.00  0.00     0.020 A 
ATOM     85  C   UNL A   1      45.647  33.710  28.957  1.00  0.00     0.020 A 
ATOM     86  C   UNL A   1      45.152  34.368  27.830  1.00  0.00     0.054 A 
BRANCH  86  87
ATOM     87  S   UNL A   1      43.763  35.527  27.977  1.00  0.00     0.124 S 
ATOM     88  O   UNL A   1      43.141  35.424  26.662  1.00  0.00    -0.237 OA
ATOM     89  O   UNL A   1      42.999  34.963  29.086  1.00  0.00    -0.237 OA
ATOM     90  O   UNL A   1      44.413  36.805  28.265  1.00  0.00    -0.744 OA
ENDBRANCH  86  87
ENDBRANCH  58  81
BRANCH  70  91
ATOM     91  C   UNL A   1      54.178  33.106  28.477  1.00  0.00    -0.014 A 
ATOM     92  C   UNL A   1      54.520  33.398  29.809  1.00  0.00     0.010 A 
ATOM     93  C   UNL A   1      54.786  33.834  27.437  1.00  0.00     0.010 A 
ATOM     94  C   UNL A   1      55.449  34.402  30.092  1.00  0.00     0.020 A 
ATOM     95  C   UNL A   1      55.736  34.819  27.715  1.00  0.00     0.020 A 
ATOM     96  C   UNL A   1      56.058  35.100  29.044  1.00  0.00     0.054 A 
BRANCH  96  97
ATOM     97  S   UNL A   1      57.328  36.334  29.436  1.00  0.00     0.124 S 
ATOM     98  O   UNL A   1      58.552  35.656  29.019  1.00  0.00    -0.237 OA
ATOM     99  O   UNL A   1      56.930  37.475  28.615  1.00  0.00    -0.237 OA
ATOM    100  O   UNL A   1      57.187  36.533  30.878  1.00  0.00    -0.744 OA
ENDBRANCH  96  97
ENDBRANCH  70  91
ENDBRANCH  44  45
ENDBRANCH  37  39
ENDBRANCH  36  37
ENDBRANCH  35  36
ENDBRANCH  34  35
ENDBRANCH  33  34
ENDBRANCH  32  33
ENDBRANCH   1  32
TORSDOF 27
ENDMDL
MODEL 3
REMARK VINA RESULT:      -8.4      5.611     10.413
REMARK SMILES CCc1cc(OC(F)(F)F)cc2c1O[C@H](C(F)(F)F)C(C(=O)OCCOCCOCCOCCOC(=O)c1ccc(-c3c4nc(c(-c5ccc(S(=O)(=O)[O-])cc5)c5ccc([nH]5)c(-c5ccc(S(=O)(=O)[O-])cc5)c5nc(c(-c6ccc(S(=O)(=O)[O-])cc6)c6ccc3[nH]6)C=C5)C=C4)cc1)=C2
REMARK SMILES IDX 30 1 29 2 28 3 27 4 26 5 25 6 24 7 23 8 21 9 22 10 20 11
REMARK SMILES IDX 3 12 4 13 13 14 5 15 12 16 14 17 11 18 98 19 15 20 2 21 1 22
REMARK SMILES IDX 6 23 7 24 8 25 9 26 10 27 16 28 17 29 18 30 19 31 31 32
REMARK SMILES IDX 32 33 33 34 34 35 35 36 36 37 37 38 38 39 39 40 97 41 40 42
REMARK SMILES IDX 96 43 41 44 42 45 43 46 90 47 44 48 95 49 89 50 91 51 45 52
REMARK SMILES IDX 94 53 88 54 87 55 46 57 76 58 57 59 75 60 58 61 61 62 74 63
REMARK SMILES IDX 92 64 59 65 60 66 73 68 93 69 62 70 47 71 48 72 56 73 49 74
REMARK SMILES IDX 55 75 50 76 51 77 52 78 53 79 54 80 77 81 78 82 86 83 79 84
REMARK SMILES IDX 85 85 80 86 81 87 82 88 83 89 84 90 63 91 64 92 72 93 65 94
REMARK SMILES IDX 71 95 66 96 67 97 68 98 69 99 70 100
REMARK H PARENT 91 56 61 67
REMARK Flexibility Score: inf
ROOT
ATOM      1  C   UNL A   1      34.525  29.878  27.166  1.00  0.00     0.188 C 
ENDROOT
BRANCH   1   2
ATOM      2  O   UNL A   1      33.236  30.330  27.541  1.00  0.00    -0.377 OA
BRANCH   2   3
ATOM      3  C   UNL A   1      32.219  30.429  26.559  1.00  0.00     0.188 C 
BRANCH   3   4
ATOM      4  C   UNL A   1      32.377  29.778  25.162  1.00  0.00     0.188 C 
BRANCH   4   5
ATOM      5  O   UNL A   1      31.557  28.644  24.939  1.00  0.00    -0.376 OA
BRANCH   5   6
ATOM      6  C   UNL A   1      31.416  28.175  23.611  1.00  0.00     0.202 C 
BRANCH   6   7
ATOM      7  C   UNL A   1      30.208  27.280  23.302  1.00  0.00     0.261 C 
BRANCH   7   8
ATOM      8  O   UNL A   1      30.475  25.875  23.167  1.00  0.00    -0.460 OA
BRANCH   8   9
ATOM      9  C   UNL A   1      31.501  25.497  22.376  1.00  0.00     0.338 C 
ATOM     10  O   UNL A   1      31.742  25.920  21.257  1.00  0.00    -0.246 OA
BRANCH   9  11
ATOM     11  C   UNL A   1      32.407  24.583  23.106  1.00  0.00     0.087 C 
ATOM     12  C   UNL A   1      35.473  22.016  24.217  1.00  0.00    -0.002 A 
ATOM     13  C   UNL A   1      35.147  20.752  24.731  1.00  0.00     0.054 A 
ATOM     14  C   UNL A   1      34.424  22.831  23.773  1.00  0.00     0.131 A 
ATOM     15  C   UNL A   1      33.817  20.314  24.788  1.00  0.00     0.130 A 
ATOM     16  C   UNL A   1      33.084  22.429  23.870  1.00  0.00     0.021 A 
ATOM     17  O   UNL A   1      34.774  24.035  23.198  1.00  0.00    -0.475 OA
ATOM     18  C   UNL A   1      32.786  21.168  24.382  1.00  0.00     0.058 A 
ATOM     19  C   UNL A   1      32.045  23.314  23.354  1.00  0.00     0.027 C 
ATOM     20  C   UNL A   1      33.800  25.082  23.419  1.00  0.00     0.316 C 
BRANCH  12  21
ATOM     21  C   UNL A   1      36.877  22.578  24.200  1.00  0.00     0.036 C 
ATOM     22  C   UNL A   1      37.723  22.367  25.443  1.00  0.00     0.009 C 
ENDBRANCH  12  21
BRANCH  15  23
ATOM     23  O   UNL A   1      33.397  19.090  25.229  1.00  0.00    -0.406 OA
BRANCH  23  24
ATOM     24  C   UNL A   1      33.507  18.001  24.327  1.00  0.00     0.573 C 
ATOM     25  F   UNL A   1      32.813  16.925  24.759  1.00  0.00    -0.132 F 
ATOM     26  F   UNL A   1      33.067  18.350  23.097  1.00  0.00    -0.132 F 
ATOM     27  F   UNL A   1      34.806  17.646  24.220  1.00  0.00    -0.132 F 
ENDBRANCH  23  24
ENDBRANCH  15  23
BRANCH  20  28
ATOM     28  C   UNL A   1      34.034  25.712  24.819  1.00  0.00     0.430 C 
ATOM     29  F   UNL A   1      35.102  25.189  25.469  1.00  0.00    -0.167 F 
ATOM     30  F   UNL A   1      34.266  27.045  24.711  1.00  0.00    -0.167 F 
ATOM     31  F   UNL A   1      32.984  25.575  25.651  1.00  0.00    -0.167 F 
ENDBRANCH  20  28
ENDBRANCH   9  11
ENDBRANCH   8   9
ENDBRANCH   7   8
ENDBRANCH   6   7
ENDBRANCH   5   6
ENDBRANCH   4   5
ENDBRANCH   3   4
ENDBRANCH   2   3
ENDBRANCH   1   2
BRANCH   1  32
ATOM     32  C   UNL A   1      35.637  29.776  28.232  1.00  0.00     0.188 C 
BRANCH  32  33
ATOM     33  O   UNL A   1      35.503  30.686  29.315  1.00  0.00    -0.376 OA
BRANCH  33  34
ATOM     34  C   UNL A   1      36.374  30.530  30.419  1.00  0.00     0.202 C 
BRANCH  34  35
ATOM     35  C   UNL A   1      37.657  29.730  30.163  1.00  0.00     0.261 C 
BRANCH  35  36
ATOM     36  O   UNL A   1      37.735  28.452  30.807  1.00  0.00    -0.460 OA
BRANCH  36  37
ATOM     37  C   UNL A   1      38.147  28.428  32.092  1.00  0.00     0.338 C 
ATOM     38  O   UNL A   1      37.464  28.246  33.085  1.00  0.00    -0.246 OA
BRANCH  37  39
ATOM     39  C   UNL A   1      39.620  28.486  32.065  1.00  0.00     0.060 A 
ATOM     40  C   UNL A   1      40.319  27.912  30.994  1.00  0.00     0.016 A 
ATOM     41  C   UNL A   1      40.299  29.153  33.086  1.00  0.00     0.016 A 
ATOM     42  C   UNL A   1      41.710  28.006  30.944  1.00  0.00     0.010 A 
ATOM     43  C   UNL A   1      41.689  29.213  33.054  1.00  0.00     0.010 A 
ATOM     44  C   UNL A   1      42.400  28.619  31.996  1.00  0.00    -0.014 A 
BRANCH  44  45
ATOM     45  C   UNL A   1      43.860  28.433  32.149  1.00  0.00     0.031 A 
ATOM     46  C   UNL A   1      44.754  29.343  31.355  1.00  0.00     0.074 A 
ATOM     47  C   UNL A   1      44.374  27.457  32.916  1.00  0.00     0.049 A 
ATOM     48  N   UNL A   1      46.046  29.288  31.177  1.00  0.00    -0.248 NA
ATOM     49  C   UNL A   1      44.093  30.461  30.656  1.00  0.00     0.031 C 
ATOM     50  C   UNL A   1      43.608  26.551  33.770  1.00  0.00     0.029 A 
ATOM     51  N   UNL A   1      45.677  27.054  33.077  1.00  0.00    -0.354 N 
ATOM     52  C   UNL A   1      46.350  30.347  30.331  1.00  0.00     0.074 A 
ATOM     53  C   UNL A   1      45.109  31.018  30.017  1.00  0.00     0.031 C 
ATOM     54  C   UNL A   1      44.455  25.680  34.349  1.00  0.00     0.029 A 
ATOM     55  C   UNL A   1      45.813  25.938  33.870  1.00  0.00     0.049 A 
ATOM     56  H   UNL A   1      46.440  27.519  32.665  1.00  0.00     0.167 HD
ATOM     57  C   UNL A   1      47.558  30.725  29.854  1.00  0.00     0.031 A 
ATOM     58  C   UNL A   1      46.904  25.193  34.141  1.00  0.00     0.031 A 
ATOM     59  C   UNL A   1      48.781  30.035  30.151  1.00  0.00     0.049 A 
ATOM     60  C   UNL A   1      48.229  25.580  33.527  1.00  0.00     0.074 A 
ATOM     61  C   UNL A   1      50.062  30.334  29.723  1.00  0.00     0.029 A 
ATOM     62  N   UNL A   1      48.875  28.902  30.946  1.00  0.00    -0.354 N 
ATOM     63  N   UNL A   1      48.509  26.592  32.739  1.00  0.00    -0.248 NA
ATOM     64  C   UNL A   1      49.384  24.724  33.837  1.00  0.00     0.031 C 
ATOM     65  C   UNL A   1      50.922  29.346  30.211  1.00  0.00     0.029 A 
ATOM     66  C   UNL A   1      50.189  28.475  31.003  1.00  0.00     0.049 A 
ATOM     67  H   UNL A   1      48.119  28.467  31.402  1.00  0.00     0.167 HD
ATOM     68  C   UNL A   1      49.877  26.517  32.495  1.00  0.00     0.074 A 
ATOM     69  C   UNL A   1      50.368  25.361  33.217  1.00  0.00     0.031 C 
ATOM     70  C   UNL A   1      50.659  27.334  31.747  1.00  0.00     0.031 A 
BRANCH  57  71
ATOM     71  C   UNL A   1      47.599  31.909  28.928  1.00  0.00    -0.014 A 
ATOM     72  C   UNL A   1      47.554  31.745  27.531  1.00  0.00     0.010 A 
ATOM     73  C   UNL A   1      47.656  33.208  29.465  1.00  0.00     0.010 A 
ATOM     74  C   UNL A   1      47.602  32.857  26.689  1.00  0.00     0.020 A 
ATOM     75  C   UNL A   1      47.674  34.323  28.625  1.00  0.00     0.020 A 
ATOM     76  C   UNL A   1      47.662  34.140  27.241  1.00  0.00     0.054 A 
BRANCH  76  77
ATOM     77  S   UNL A   1      47.695  35.567  26.122  1.00  0.00     0.124 S 
ATOM     78  O   UNL A   1      48.563  35.087  25.049  1.00  0.00    -0.237 OA
ATOM     79  O   UNL A   1      46.287  35.726  25.767  1.00  0.00    -0.237 OA
ATOM     80  O   UNL A   1      48.254  36.639  26.943  1.00  0.00    -0.744 OA
ENDBRANCH  76  77
ENDBRANCH  57  71
BRANCH  58  81
ATOM     81  C   UNL A   1      46.793  23.990  35.011  1.00  0.00    -0.014 A 
ATOM     82  C   UNL A   1      46.485  22.733  34.460  1.00  0.00     0.010 A 
ATOM     83  C   UNL A   1      46.987  24.094  36.402  1.00  0.00     0.010 A 
ATOM     84  C   UNL A   1      46.355  21.609  35.283  1.00  0.00     0.020 A 
ATOM     85  C   UNL A   1      46.887  22.968  37.223  1.00  0.00     0.020 A 
ATOM     86  C   UNL A   1      46.560  21.734  36.660  1.00  0.00     0.054 A 
BRANCH  86  87
ATOM     87  S   UNL A   1      46.433  20.252  37.700  1.00  0.00     0.124 S 
ATOM     88  O   UNL A   1      47.809  19.766  37.706  1.00  0.00    -0.237 OA
ATOM     89  O   UNL A   1      45.948  20.796  38.966  1.00  0.00    -0.237 OA
ATOM     90  O   UNL A   1      45.475  19.412  36.983  1.00  0.00    -0.744 OA
ENDBRANCH  86  87
ENDBRANCH  58  81
BRANCH  70  91
ATOM     91  C   UNL A   1      52.141  27.064  31.713  1.00  0.00    -0.014 A 
ATOM     92  C   UNL A   1      52.992  27.507  32.739  1.00  0.00     0.010 A 
ATOM     93  C   UNL A   1      52.662  26.248  30.691  1.00  0.00     0.010 A 
ATOM     94  C   UNL A   1      54.342  27.143  32.739  1.00  0.00     0.020 A 
ATOM     95  C   UNL A   1      54.004  25.860  30.703  1.00  0.00     0.020 A 
ATOM     96  C   UNL A   1      54.836  26.315  31.726  1.00  0.00     0.054 A 
BRANCH  96  97
ATOM     97  S   UNL A   1      56.569  25.784  31.801  1.00  0.00     0.124 S 
ATOM     98  O   UNL A   1      56.883  25.567  30.391  1.00  0.00    -0.237 OA
ATOM     99  O   UNL A   1      57.229  26.930  32.421  1.00  0.00    -0.237 OA
ATOM    100  O   UNL A   1      56.528  24.576  32.622  1.00  0.00    -0.744 OA
ENDBRANCH  96  97
ENDBRANCH  70  91
ENDBRANCH  44  45
ENDBRANCH  37  39
ENDBRANCH  36  37
ENDBRANCH  35  36
ENDBRANCH  34  35
ENDBRANCH  33  34
ENDBRANCH  32  33
ENDBRANCH   1  32
TORSDOF 27
ENDMDL
