MODEL 1
REMARK VINA RESULT:      -9.2      0.000      0.000
REMARK SMILES CC(C)[C@H](NC(=O)[C@H](C)NC(=O)CNC(=O)OCc1ccccc1)C(=O)OCCOCCOCCOCCOC(=O)c1ccc(-c2c3nc(c(-c4ccc(S(=O)(=O)[O-])cc4)c4ccc([nH]4)c(-c4ccc(S(=O)(=O)[O-])cc4)c4nc(c(-c5ccc(S(=O)(=O)[O-])cc5)c5ccc2[nH]5)C=C4)C=C3)cc1
REMARK SMILES IDX 31 1 30 2 29 3 28 4 27 5 25 6 26 7 4 8 2 9 1 10 3 11 5 12
REMARK SMILES IDX 6 13 7 15 8 16 9 17 10 18 11 19 12 21 13 22 14 23 15 24
REMARK SMILES IDX 16 26 17 27 18 28 19 29 20 30 24 31 21 32 23 33 22 34 32 35
REMARK SMILES IDX 33 36 34 37 35 38 36 39 37 40 38 41 39 42 40 43 41 44 42 45
REMARK SMILES IDX 43 46 101 47 44 48 100 49 45 50 46 51 47 52 94 53 48 54
REMARK SMILES IDX 99 55 93 56 95 57 49 58 98 59 92 60 91 61 50 63 80 64 61 65
REMARK SMILES IDX 79 66 62 67 65 68 78 69 96 70 63 71 64 72 77 74 97 75 66 76
REMARK SMILES IDX 51 77 52 78 60 79 53 80 59 81 54 82 55 83 56 84 57 85 58 86
REMARK SMILES IDX 81 87 82 88 90 89 83 90 89 91 84 92 85 93 86 94 87 95 88 96
REMARK SMILES IDX 67 97 68 98 76 99 69 100 75 101 70 102 71 103 72 104 73 105
REMARK SMILES IDX 74 106
REMARK H PARENT 5 14 10 20 14 25 95 62 65 73
REMARK Flexibility Score: inf
ROOT
ATOM      1  C   UNL A   1      32.508  31.218  27.174  1.00  0.00     0.188 C 
ENDROOT
BRANCH   1   2
ATOM      2  O   UNL A   1      32.112  30.111  26.369  1.00  0.00    -0.376 OA
BRANCH   2   3
ATOM      3  C   UNL A   1      33.180  29.298  25.895  1.00  0.00     0.202 C 
BRANCH   3   4
ATOM      4  C   UNL A   1      33.387  27.957  26.598  1.00  0.00     0.261 C 
BRANCH   4   5
ATOM      5  O   UNL A   1      34.110  26.955  25.873  1.00  0.00    -0.462 OA
BRANCH   5   6
ATOM      6  C   UNL A   1      33.679  25.673  25.773  1.00  0.00     0.328 C 
ATOM      7  O   UNL A   1      32.889  25.154  26.546  1.00  0.00    -0.250 OA
BRANCH   6   8
ATOM      8  C   UNL A   1      34.212  25.057  24.438  1.00  0.00     0.194 C 
BRANCH   8   9
ATOM      9  C   UNL A   1      35.423  24.089  24.404  1.00  0.00     0.017 C 
ATOM     10  C   UNL A   1      35.963  23.680  25.769  1.00  0.00     0.010 C 
ATOM     11  C   UNL A   1      35.076  22.826  23.597  1.00  0.00     0.010 C 
ENDBRANCH   8   9
BRANCH   8  12
ATOM     12  N   UNL A   1      34.349  26.047  23.354  1.00  0.00    -0.341 N 
ATOM     13  C   UNL A   1      33.535  26.417  22.331  1.00  0.00     0.242 C 
ATOM     14  H   UNL A   1      35.202  26.538  23.377  1.00  0.00     0.164 HD
ATOM     15  O   UNL A   1      33.955  27.365  21.654  1.00  0.00    -0.273 OA
BRANCH  13  16
ATOM     16  C   UNL A   1      32.260  25.627  21.885  1.00  0.00     0.168 C 
ATOM     17  C   UNL A   1      32.137  25.803  20.370  1.00  0.00     0.041 C 
BRANCH  16  18
ATOM     18  N   UNL A   1      30.977  25.969  22.503  1.00  0.00    -0.343 N 
ATOM     19  C   UNL A   1      30.205  25.328  23.425  1.00  0.00     0.240 C 
ATOM     20  H   UNL A   1      30.600  26.824  22.193  1.00  0.00     0.164 HD
ATOM     21  O   UNL A   1      29.227  25.957  23.846  1.00  0.00    -0.273 OA
BRANCH  19  22
ATOM     22  C   UNL A   1      30.570  23.981  24.058  1.00  0.00     0.219 C 
BRANCH  22  23
ATOM     23  N   UNL A   1      30.446  23.954  25.493  1.00  0.00    -0.312 N 
ATOM     24  C   UNL A   1      30.470  22.858  26.296  1.00  0.00     0.407 C 
ATOM     25  H   UNL A   1      30.331  24.824  25.940  1.00  0.00     0.167 HD
ATOM     26  O   UNL A   1      30.154  22.936  27.472  1.00  0.00    -0.225 OA
BRANCH  24  27
ATOM     27  O   UNL A   1      30.810  21.721  25.641  1.00  0.00    -0.445 OA
BRANCH  27  28
ATOM     28  C   UNL A   1      32.204  21.391  25.688  1.00  0.00     0.270 C 
BRANCH  28  29
ATOM     29  C   UNL A   1      32.470  20.113  24.938  1.00  0.00    -0.011 A 
ATOM     30  C   UNL A   1      33.035  19.015  25.601  1.00  0.00     0.007 A 
ATOM     31  C   UNL A   1      32.212  20.015  23.566  1.00  0.00     0.007 A 
ATOM     32  C   UNL A   1      33.352  17.849  24.908  1.00  0.00     0.000 A 
ATOM     33  C   UNL A   1      32.521  18.842  22.873  1.00  0.00     0.000 A 
ATOM     34  C   UNL A   1      33.096  17.763  23.543  1.00  0.00     0.000 A 
ENDBRANCH  28  29
ENDBRANCH  27  28
ENDBRANCH  24  27
ENDBRANCH  22  23
ENDBRANCH  19  22
ENDBRANCH  16  18
ENDBRANCH  13  16
ENDBRANCH   8  12
ENDBRANCH   6   8
ENDBRANCH   5   6
ENDBRANCH   4   5
ENDBRANCH   3   4
ENDBRANCH   2   3
ENDBRANCH   1   2
BRANCH   1  35
ATOM     35  C   UNL A   1      31.651  32.475  26.952  1.00  0.00     0.188 C 
BRANCH  35  36
ATOM     36  O   UNL A   1      32.224  33.634  27.544  1.00  0.00    -0.377 OA
BRANCH  36  37
ATOM     37  C   UNL A   1      33.597  33.533  27.909  1.00  0.00     0.188 C 
BRANCH  37  38
ATOM     38  C   UNL A   1      34.135  34.615  28.862  1.00  0.00     0.188 C 
BRANCH  38  39
ATOM     39  O   UNL A   1      33.549  34.531  30.162  1.00  0.00    -0.376 OA
BRANCH  39  40
ATOM     40  C   UNL A   1      34.300  33.850  31.163  1.00  0.00     0.202 C 
BRANCH  40  41
ATOM     41  C   UNL A   1      34.928  32.513  30.740  1.00  0.00     0.261 C 
BRANCH  41  42
ATOM     42  O   UNL A   1      36.362  32.495  30.598  1.00  0.00    -0.460 OA
BRANCH  42  43
ATOM     43  C   UNL A   1      37.112  32.021  31.614  1.00  0.00     0.338 C 
ATOM     44  O   UNL A   1      36.870  32.098  32.806  1.00  0.00    -0.246 OA
BRANCH  43  45
ATOM     45  C   UNL A   1      38.203  31.212  31.033  1.00  0.00     0.060 A 
ATOM     46  C   UNL A   1      38.986  30.411  31.875  1.00  0.00     0.016 A 
ATOM     47  C   UNL A   1      38.471  31.273  29.664  1.00  0.00     0.016 A 
ATOM     48  C   UNL A   1      40.076  29.710  31.355  1.00  0.00     0.010 A 
ATOM     49  C   UNL A   1      39.572  30.587  29.148  1.00  0.00     0.010 A 
ATOM     50  C   UNL A   1      40.404  29.837  29.997  1.00  0.00    -0.014 A 
BRANCH  50  51
ATOM     51  C   UNL A   1      41.723  29.381  29.496  1.00  0.00     0.031 A 
ATOM     52  C   UNL A   1      42.851  30.376  29.458  1.00  0.00     0.074 A 
ATOM     53  C   UNL A   1      41.919  28.123  29.065  1.00  0.00     0.049 A 
ATOM     54  N   UNL A   1      44.064  30.240  28.986  1.00  0.00    -0.248 NA
ATOM     55  C   UNL A   1      42.569  31.708  30.020  1.00  0.00     0.031 C 
ATOM     56  C   UNL A   1      40.922  27.058  29.084  1.00  0.00     0.029 A 
ATOM     57  N   UNL A   1      43.032  27.533  28.519  1.00  0.00    -0.354 N 
ATOM     58  C   UNL A   1      44.684  31.468  29.182  1.00  0.00     0.074 A 
ATOM     59  C   UNL A   1      43.708  32.344  29.795  1.00  0.00     0.031 C 
ATOM     60  C   UNL A   1      41.471  25.937  28.580  1.00  0.00     0.029 A 
ATOM     61  C   UNL A   1      42.842  26.221  28.159  1.00  0.00     0.049 A 
ATOM     62  H   UNL A   1      43.888  28.007  28.396  1.00  0.00     0.167 HD
ATOM     63  C   UNL A   1      45.950  31.837  28.877  1.00  0.00     0.031 A 
ATOM     64  C   UNL A   1      43.673  25.357  27.541  1.00  0.00     0.031 A 
ATOM     65  C   UNL A   1      46.910  30.978  28.239  1.00  0.00     0.049 A 
ATOM     66  C   UNL A   1      45.051  25.816  27.133  1.00  0.00     0.074 A 
ATOM     67  C   UNL A   1      48.216  31.263  27.881  1.00  0.00     0.029 A 
ATOM     68  N   UNL A   1      46.665  29.670  27.854  1.00  0.00    -0.354 N 
ATOM     69  N   UNL A   1      45.628  26.978  27.333  1.00  0.00    -0.248 NA
ATOM     70  C   UNL A   1      45.887  24.848  26.409  1.00  0.00     0.031 C 
ATOM     71  C   UNL A   1      48.743  30.143  27.232  1.00  0.00     0.029 A 
ATOM     72  C   UNL A   1      47.787  29.140  27.239  1.00  0.00     0.049 A 
ATOM     73  H   UNL A   1      45.819  29.187  27.997  1.00  0.00     0.167 HD
ATOM     74  C   UNL A   1      46.902  26.871  26.779  1.00  0.00     0.074 A 
ATOM     75  C   UNL A   1      47.015  25.528  26.250  1.00  0.00     0.031 C 
ATOM     76  C   UNL A   1      47.887  27.800  26.717  1.00  0.00     0.031 A 
BRANCH  63  77
ATOM     77  C   UNL A   1      46.346  33.255  29.192  1.00  0.00    -0.014 A 
ATOM     78  C   UNL A   1      46.113  34.297  28.276  1.00  0.00     0.010 A 
ATOM     79  C   UNL A   1      46.950  33.551  30.428  1.00  0.00     0.010 A 
ATOM     80  C   UNL A   1      46.521  35.601  28.571  1.00  0.00     0.020 A 
ATOM     81  C   UNL A   1      47.334  34.858  30.738  1.00  0.00     0.020 A 
ATOM     82  C   UNL A   1      47.134  35.872  29.798  1.00  0.00     0.054 A 
BRANCH  82  83
ATOM     83  S   UNL A   1      47.652  37.572  30.156  1.00  0.00     0.124 S 
ATOM     84  O   UNL A   1      46.634  38.003  31.111  1.00  0.00    -0.237 OA
ATOM     85  O   UNL A   1      48.992  37.391  30.707  1.00  0.00    -0.237 OA
ATOM     86  O   UNL A   1      47.601  38.233  28.854  1.00  0.00    -0.744 OA
ENDBRANCH  82  83
ENDBRANCH  63  77
BRANCH  64  87
ATOM     87  C   UNL A   1      43.221  23.968  27.246  1.00  0.00    -0.014 A 
ATOM     88  C   UNL A   1      42.614  23.661  26.014  1.00  0.00     0.010 A 
ATOM     89  C   UNL A   1      43.386  22.944  28.197  1.00  0.00     0.010 A 
ATOM     90  C   UNL A   1      42.173  22.362  25.745  1.00  0.00     0.020 A 
ATOM     91  C   UNL A   1      42.970  21.638  27.921  1.00  0.00     0.020 A 
ATOM     92  C   UNL A   1      42.356  21.357  26.700  1.00  0.00     0.054 A 
BRANCH  92  93
ATOM     93  S   UNL A   1      41.825  19.667  26.308  1.00  0.00     0.124 S 
ATOM     94  O   UNL A   1      42.622  19.364  25.124  1.00  0.00    -0.237 OA
ATOM     95  O   UNL A   1      42.185  18.931  27.518  1.00  0.00    -0.237 OA
ATOM     96  O   UNL A   1      40.388  19.803  26.078  1.00  0.00    -0.744 OA
ENDBRANCH  92  93
ENDBRANCH  64  87
BRANCH  76  97
ATOM     97  C   UNL A   1      49.193  27.396  26.082  1.00  0.00    -0.014 A 
ATOM     98  C   UNL A   1      49.358  27.396  24.686  1.00  0.00     0.010 A 
ATOM     99  C   UNL A   1      50.295  27.086  26.901  1.00  0.00     0.010 A 
ATOM    100  C   UNL A   1      50.595  27.069  24.121  1.00  0.00     0.020 A 
ATOM    101  C   UNL A   1      51.539  26.784  26.340  1.00  0.00     0.020 A 
ATOM    102  C   UNL A   1      51.678  26.767  24.951  1.00  0.00     0.054 A 
BRANCH 102 103
ATOM    103  S   UNL A   1      53.286  26.402  24.194  1.00  0.00     0.124 S 
ATOM    104  O   UNL A   1      53.234  24.950  24.054  1.00  0.00    -0.237 OA
ATOM    105  O   UNL A   1      53.232  27.156  22.945  1.00  0.00    -0.237 OA
ATOM    106  O   UNL A   1      54.251  26.898  25.174  1.00  0.00    -0.744 OA
ENDBRANCH 102 103
ENDBRANCH  76  97
ENDBRANCH  50  51
ENDBRANCH  43  45
ENDBRANCH  42  43
ENDBRANCH  41  42
ENDBRANCH  40  41
ENDBRANCH  39  40
ENDBRANCH  38  39
ENDBRANCH  37  38
ENDBRANCH  36  37
ENDBRANCH  35  36
ENDBRANCH   1  35
TORSDOF 32
ENDMDL
MODEL 2
REMARK VINA RESULT:      -7.9      1.942      2.988
REMARK SMILES CC(C)[C@H](NC(=O)[C@H](C)NC(=O)CNC(=O)OCc1ccccc1)C(=O)OCCOCCOCCOCCOC(=O)c1ccc(-c2c3nc(c(-c4ccc(S(=O)(=O)[O-])cc4)c4ccc([nH]4)c(-c4ccc(S(=O)(=O)[O-])cc4)c4nc(c(-c5ccc(S(=O)(=O)[O-])cc5)c5ccc2[nH]5)C=C4)C=C3)cc1
REMARK SMILES IDX 31 1 30 2 29 3 28 4 27 5 25 6 26 7 4 8 2 9 1 10 3 11 5 12
REMARK SMILES IDX 6 13 7 15 8 16 9 17 10 18 11 19 12 21 13 22 14 23 15 24
REMARK SMILES IDX 16 26 17 27 18 28 19 29 20 30 24 31 21 32 23 33 22 34 32 35
REMARK SMILES IDX 33 36 34 37 35 38 36 39 37 40 38 41 39 42 40 43 41 44 42 45
REMARK SMILES IDX 43 46 101 47 44 48 100 49 45 50 46 51 47 52 94 53 48 54
REMARK SMILES IDX 99 55 93 56 95 57 49 58 98 59 92 60 91 61 50 63 80 64 61 65
REMARK SMILES IDX 79 66 62 67 65 68 78 69 96 70 63 71 64 72 77 74 97 75 66 76
REMARK SMILES IDX 51 77 52 78 60 79 53 80 59 81 54 82 55 83 56 84 57 85 58 86
REMARK SMILES IDX 81 87 82 88 90 89 83 90 89 91 84 92 85 93 86 94 87 95 88 96
REMARK SMILES IDX 67 97 68 98 76 99 69 100 75 101 70 102 71 103 72 104 73 105
REMARK SMILES IDX 74 106
REMARK H PARENT 5 14 10 20 14 25 95 62 65 73
REMARK Flexibility Score: inf
ROOT
ATOM      1  C   UNL A   1      32.953  31.162  26.485  1.00  0.00     0.188 C 
ENDROOT
BRANCH   1   2
ATOM      2  O   UNL A   1      32.109  30.035  26.275  1.00  0.00    -0.376 OA
BRANCH   2   3
ATOM      3  C   UNL A   1      31.488  29.976  24.995  1.00  0.00     0.202 C 
BRANCH   3   4
ATOM      4  C   UNL A   1      31.729  28.711  24.172  1.00  0.00     0.261 C 
BRANCH   4   5
ATOM      5  O   UNL A   1      32.558  27.705  24.767  1.00  0.00    -0.462 OA
BRANCH   5   6
ATOM      6  C   UNL A   1      32.867  26.545  24.135  1.00  0.00     0.328 C 
ATOM      7  O   UNL A   1      33.584  26.472  23.149  1.00  0.00    -0.250 OA
BRANCH   6   8
ATOM      8  C   UNL A   1      32.311  25.344  24.969  1.00  0.00     0.194 C 
BRANCH   8   9
ATOM      9  C   UNL A   1      30.930  25.399  25.671  1.00  0.00     0.017 C 
ATOM     10  C   UNL A   1      30.797  26.460  26.756  1.00  0.00     0.010 C 
ATOM     11  C   UNL A   1      29.810  25.594  24.632  1.00  0.00     0.010 C 
ENDBRANCH   8   9
BRANCH   8  12
ATOM     12  N   UNL A   1      33.305  24.770  25.894  1.00  0.00    -0.341 N 
ATOM     13  C   UNL A   1      34.239  23.792  25.758  1.00  0.00     0.242 C 
ATOM     14  H   UNL A   1      33.289  25.177  26.790  1.00  0.00     0.164 HD
ATOM     15  O   UNL A   1      34.970  23.635  26.746  1.00  0.00    -0.273 OA
BRANCH  13  16
ATOM     16  C   UNL A   1      34.303  22.793  24.556  1.00  0.00     0.168 C 
ATOM     17  C   UNL A   1      35.669  22.106  24.623  1.00  0.00     0.041 C 
BRANCH  16  18
ATOM     18  N   UNL A   1      34.109  23.318  23.203  1.00  0.00    -0.343 N 
ATOM     19  C   UNL A   1      33.131  23.117  22.275  1.00  0.00     0.240 C 
ATOM     20  H   UNL A   1      34.819  23.931  22.907  1.00  0.00     0.164 HD
ATOM     21  O   UNL A   1      33.189  23.825  21.263  1.00  0.00    -0.273 OA
BRANCH  19  22
ATOM     22  C   UNL A   1      31.920  22.203  22.493  1.00  0.00     0.219 C 
BRANCH  22  23
ATOM     23  N   UNL A   1      31.880  21.064  21.611  1.00  0.00    -0.312 N 
ATOM     24  C   UNL A   1      32.036  19.759  21.955  1.00  0.00     0.407 C 
ATOM     25  H   UNL A   1      31.722  21.252  20.658  1.00  0.00     0.167 HD
ATOM     26  O   UNL A   1      32.185  18.899  21.101  1.00  0.00    -0.225 OA
BRANCH  24  27
ATOM     27  O   UNL A   1      32.069  19.557  23.295  1.00  0.00    -0.445 OA
BRANCH  27  28
ATOM     28  C   UNL A   1      33.381  19.389  23.847  1.00  0.00     0.270 C 
BRANCH  28  29
ATOM     29  C   UNL A   1      33.531  18.014  24.442  1.00  0.00    -0.011 A 
ATOM     30  C   UNL A   1      32.455  17.419  25.117  1.00  0.00     0.007 A 
ATOM     31  C   UNL A   1      34.752  17.332  24.384  1.00  0.00     0.007 A 
ATOM     32  C   UNL A   1      32.596  16.179  25.733  1.00  0.00     0.000 A 
ATOM     33  C   UNL A   1      34.891  16.083  24.994  1.00  0.00     0.000 A 
ATOM     34  C   UNL A   1      33.816  15.511  25.673  1.00  0.00     0.000 A 
ENDBRANCH  28  29
ENDBRANCH  27  28
ENDBRANCH  24  27
ENDBRANCH  22  23
ENDBRANCH  19  22
ENDBRANCH  16  18
ENDBRANCH  13  16
ENDBRANCH   8  12
ENDBRANCH   6   8
ENDBRANCH   5   6
ENDBRANCH   4   5
ENDBRANCH   3   4
ENDBRANCH   2   3
ENDBRANCH   1   2
BRANCH   1  35
ATOM     35  C   UNL A   1      32.196  32.417  26.952  1.00  0.00     0.188 C 
BRANCH  35  36
ATOM     36  O   UNL A   1      32.762  32.985  28.126  1.00  0.00    -0.377 OA
BRANCH  36  37
ATOM     37  C   UNL A   1      34.145  33.319  28.053  1.00  0.00     0.188 C 
BRANCH  37  38
ATOM     38  C   UNL A   1      34.737  34.059  29.265  1.00  0.00     0.188 C 
BRANCH  38  39
ATOM     39  O   UNL A   1      34.513  33.357  30.489  1.00  0.00    -0.376 OA
BRANCH  39  40
ATOM     40  C   UNL A   1      35.095  32.063  30.606  1.00  0.00     0.202 C 
BRANCH  40  41
ATOM     41  C   UNL A   1      36.615  31.986  30.387  1.00  0.00     0.261 C 
BRANCH  41  42
ATOM     42  O   UNL A   1      37.054  31.626  29.063  1.00  0.00    -0.460 OA
BRANCH  42  43
ATOM     43  C   UNL A   1      36.857  30.362  28.633  1.00  0.00     0.338 C 
ATOM     44  O   UNL A   1      35.799  29.848  28.316  1.00  0.00    -0.246 OA
BRANCH  43  45
ATOM     45  C   UNL A   1      38.183  29.743  28.426  1.00  0.00     0.060 A 
ATOM     46  C   UNL A   1      38.944  29.364  29.541  1.00  0.00     0.016 A 
ATOM     47  C   UNL A   1      38.685  29.571  27.135  1.00  0.00     0.016 A 
ATOM     48  C   UNL A   1      40.234  28.859  29.365  1.00  0.00     0.010 A 
ATOM     49  C   UNL A   1      39.982  29.084  26.961  1.00  0.00     0.010 A 
ATOM     50  C   UNL A   1      40.778  28.767  28.075  1.00  0.00    -0.014 A 
BRANCH  50  51
ATOM     51  C   UNL A   1      42.233  28.555  27.886  1.00  0.00     0.031 A 
ATOM     52  C   UNL A   1      43.165  29.690  28.214  1.00  0.00     0.074 A 
ATOM     53  C   UNL A   1      42.723  27.395  27.416  1.00  0.00     0.049 A 
ATOM     54  N   UNL A   1      44.460  29.775  28.053  1.00  0.00    -0.248 NA
ATOM     55  C   UNL A   1      42.549  30.896  28.794  1.00  0.00     0.031 C 
ATOM     56  C   UNL A   1      41.933  26.210  27.097  1.00  0.00     0.029 A 
ATOM     57  N   UNL A   1      44.014  27.029  27.121  1.00  0.00    -0.354 N 
ATOM     58  C   UNL A   1      44.812  31.043  28.498  1.00  0.00     0.074 A 
ATOM     59  C   UNL A   1      43.593  31.701  28.916  1.00  0.00     0.031 C 
ATOM     60  C   UNL A   1      42.757  25.242  26.657  1.00  0.00     0.029 A 
ATOM     61  C   UNL A   1      44.126  25.755  26.619  1.00  0.00     0.049 A 
ATOM     62  H   UNL A   1      44.787  27.625  27.256  1.00  0.00     0.167 HD
ATOM     63  C   UNL A   1      46.039  31.614  28.552  1.00  0.00     0.031 A 
ATOM     64  C   UNL A   1      45.205  25.090  26.160  1.00  0.00     0.031 A 
ATOM     65  C   UNL A   1      47.247  30.973  28.108  1.00  0.00     0.049 A 
ATOM     66  C   UNL A   1      46.549  25.776  26.150  1.00  0.00     0.074 A 
ATOM     67  C   UNL A   1      48.537  31.472  28.114  1.00  0.00     0.029 A 
ATOM     68  N   UNL A   1      47.312  29.699  27.568  1.00  0.00    -0.354 N 
ATOM     69  N   UNL A   1      46.870  26.973  26.584  1.00  0.00    -0.248 NA
ATOM     70  C   UNL A   1      47.677  25.022  25.583  1.00  0.00     0.031 C 
ATOM     71  C   UNL A   1      49.375  30.518  27.528  1.00  0.00     0.029 A 
ATOM     72  C   UNL A   1      48.617  29.401  27.213  1.00  0.00     0.049 A 
ATOM     73  H   UNL A   1      46.544  29.093  27.453  1.00  0.00     0.167 HD
ATOM     74  C   UNL A   1      48.239  27.104  26.361  1.00  0.00     0.074 A 
ATOM     75  C   UNL A   1      48.687  25.861  25.768  1.00  0.00     0.031 C 
ATOM     76  C   UNL A   1      49.050  28.159  26.624  1.00  0.00     0.031 A 
BRANCH  63  77
ATOM     77  C   UNL A   1      46.118  33.024  29.071  1.00  0.00    -0.014 A 
ATOM     78  C   UNL A   1      45.779  34.120  28.257  1.00  0.00     0.010 A 
ATOM     79  C   UNL A   1      46.527  33.256  30.397  1.00  0.00     0.010 A 
ATOM     80  C   UNL A   1      45.894  35.425  28.745  1.00  0.00     0.020 A 
ATOM     81  C   UNL A   1      46.616  34.557  30.898  1.00  0.00     0.020 A 
ATOM     82  C   UNL A   1      46.317  35.635  30.061  1.00  0.00     0.054 A 
BRANCH  82  83
ATOM     83  S   UNL A   1      46.456  37.337  30.670  1.00  0.00     0.124 S 
ATOM     84  O   UNL A   1      46.122  38.112  29.478  1.00  0.00    -0.237 OA
ATOM     85  O   UNL A   1      45.463  37.377  31.741  1.00  0.00    -0.237 OA
ATOM     86  O   UNL A   1      47.845  37.438  31.108  1.00  0.00    -0.744 OA
ENDBRANCH  82  83
ENDBRANCH  63  77
BRANCH  64  87
ATOM     87  C   UNL A   1      45.064  23.698  25.648  1.00  0.00    -0.014 A 
ATOM     88  C   UNL A   1      44.452  23.453  24.405  1.00  0.00     0.010 A 
ATOM     89  C   UNL A   1      45.532  22.607  26.404  1.00  0.00     0.010 A 
ATOM     90  C   UNL A   1      44.301  22.146  23.934  1.00  0.00     0.020 A 
ATOM     91  C   UNL A   1      45.407  21.300  25.923  1.00  0.00     0.020 A 
ATOM     92  C   UNL A   1      44.783  21.076  24.695  1.00  0.00     0.054 A 
BRANCH  92  93
ATOM     93  S   UNL A   1      44.626  19.391  24.039  1.00  0.00     0.124 S 
ATOM     94  O   UNL A   1      43.433  18.907  24.728  1.00  0.00    -0.237 OA
ATOM     95  O   UNL A   1      44.478  19.620  22.604  1.00  0.00    -0.237 OA
ATOM     96  O   UNL A   1      45.879  18.751  24.433  1.00  0.00    -0.744 OA
ENDBRANCH  92  93
ENDBRANCH  64  87
BRANCH  76  97
ATOM     97  C   UNL A   1      50.516  28.012  26.307  1.00  0.00    -0.014 A 
ATOM     98  C   UNL A   1      51.249  26.893  26.739  1.00  0.00     0.010 A 
ATOM     99  C   UNL A   1      51.150  28.974  25.497  1.00  0.00     0.010 A 
ATOM    100  C   UNL A   1      52.595  26.751  26.388  1.00  0.00     0.020 A 
ATOM    101  C   UNL A   1      52.487  28.822  25.123  1.00  0.00     0.020 A 
ATOM    102  C   UNL A   1      53.205  27.715  25.580  1.00  0.00     0.054 A 
BRANCH 102 103
ATOM    103  S   UNL A   1      54.937  27.479  25.091  1.00  0.00     0.124 S 
ATOM    104  O   UNL A   1      55.637  27.639  26.362  1.00  0.00    -0.237 OA
ATOM    105  O   UNL A   1      54.934  26.126  24.541  1.00  0.00    -0.237 OA
ATOM    106  O   UNL A   1      55.170  28.542  24.114  1.00  0.00    -0.744 OA
ENDBRANCH 102 103
ENDBRANCH  76  97
ENDBRANCH  50  51
ENDBRANCH  43  45
ENDBRANCH  42  43
ENDBRANCH  41  42
ENDBRANCH  40  41
ENDBRANCH  39  40
ENDBRANCH  38  39
ENDBRANCH  37  38
ENDBRANCH  36  37
ENDBRANCH  35  36
ENDBRANCH   1  35
TORSDOF 32
ENDMDL
MODEL 3
REMARK VINA RESULT:      -7.6      7.711     13.689
REMARK SMILES CC(C)[C@H](NC(=O)[C@H](C)NC(=O)CNC(=O)OCc1ccccc1)C(=O)OCCOCCOCCOCCOC(=O)c1ccc(-c2c3nc(c(-c4ccc(S(=O)(=O)[O-])cc4)c4ccc([nH]4)c(-c4ccc(S(=O)(=O)[O-])cc4)c4nc(c(-c5ccc(S(=O)(=O)[O-])cc5)c5ccc2[nH]5)C=C4)C=C3)cc1
REMARK SMILES IDX 31 1 30 2 29 3 28 4 27 5 25 6 26 7 4 8 2 9 1 10 3 11 5 12
REMARK SMILES IDX 6 13 7 15 8 16 9 17 10 18 11 19 12 21 13 22 14 23 15 24
REMARK SMILES IDX 16 26 17 27 18 28 19 29 20 30 24 31 21 32 23 33 22 34 32 35
REMARK SMILES IDX 33 36 34 37 35 38 36 39 37 40 38 41 39 42 40 43 41 44 42 45
REMARK SMILES IDX 43 46 101 47 44 48 100 49 45 50 46 51 47 52 94 53 48 54
REMARK SMILES IDX 99 55 93 56 95 57 49 58 98 59 92 60 91 61 50 63 80 64 61 65
REMARK SMILES IDX 79 66 62 67 65 68 78 69 96 70 63 71 64 72 77 74 97 75 66 76
REMARK SMILES IDX 51 77 52 78 60 79 53 80 59 81 54 82 55 83 56 84 57 85 58 86
REMARK SMILES IDX 81 87 82 88 90 89 83 90 89 91 84 92 85 93 86 94 87 95 88 96
REMARK SMILES IDX 67 97 68 98 76 99 69 100 75 101 70 102 71 103 72 104 73 105
REMARK SMILES IDX 74 106
REMARK H PARENT 5 14 10 20 14 25 95 62 65 73
REMARK Flexibility Score: inf
ROOT
ATOM      1  C   UNL A   1      31.418  30.550  25.218  1.00  0.00     0.188 C 
ENDROOT
BRANCH   1   2
ATOM      2  O   UNL A   1      30.421  29.741  24.601  1.00  0.00    -0.376 OA
BRANCH   2   3
ATOM      3  C   UNL A   1      29.565  30.427  23.693  1.00  0.00     0.202 C 
BRANCH   3   4
ATOM      4  C   UNL A   1      28.886  29.581  22.617  1.00  0.00     0.261 C 
BRANCH   4   5
ATOM      5  O   UNL A   1      29.526  28.347  22.270  1.00  0.00    -0.462 OA
BRANCH   5   6
ATOM      6  C   UNL A   1      29.545  27.275  23.101  1.00  0.00     0.328 C 
ATOM      7  O   UNL A   1      28.547  26.776  23.598  1.00  0.00    -0.250 OA
BRANCH   6   8
ATOM      8  C   UNL A   1      30.998  26.700  23.161  1.00  0.00     0.194 C 
BRANCH   8   9
ATOM      9  C   UNL A   1      32.023  26.933  22.020  1.00  0.00     0.017 C 
ATOM     10  C   UNL A   1      33.438  27.260  22.479  1.00  0.00     0.010 C 
ATOM     11  C   UNL A   1      32.063  25.714  21.081  1.00  0.00     0.010 C 
ENDBRANCH   8   9
BRANCH   8  12
ATOM     12  N   UNL A   1      31.049  25.288  23.579  1.00  0.00    -0.341 N 
ATOM     13  C   UNL A   1      31.611  24.658  24.645  1.00  0.00     0.242 C 
ATOM     14  H   UNL A   1      30.580  24.679  22.964  1.00  0.00     0.164 HD
ATOM     15  O   UNL A   1      31.369  23.445  24.714  1.00  0.00    -0.273 OA
BRANCH  13  16
ATOM     16  C   UNL A   1      32.640  25.319  25.620  1.00  0.00     0.168 C 
ATOM     17  C   UNL A   1      33.255  24.190  26.449  1.00  0.00     0.041 C 
BRANCH  16  18
ATOM     18  N   UNL A   1      32.165  26.364  26.530  1.00  0.00    -0.343 N 
ATOM     19  C   UNL A   1      32.747  27.504  26.998  1.00  0.00     0.240 C 
ATOM     20  H   UNL A   1      31.253  26.214  26.868  1.00  0.00     0.164 HD
ATOM     21  O   UNL A   1      32.018  28.254  27.658  1.00  0.00    -0.273 OA
BRANCH  19  22
ATOM     22  C   UNL A   1      34.162  27.958  26.624  1.00  0.00     0.219 C 
BRANCH  22  23
ATOM     23  N   UNL A   1      34.353  29.385  26.676  1.00  0.00    -0.312 N 
ATOM     24  C   UNL A   1      35.288  30.060  27.393  1.00  0.00     0.407 C 
ATOM     25  H   UNL A   1      33.739  29.930  26.132  1.00  0.00     0.167 HD
ATOM     26  O   UNL A   1      35.227  31.273  27.520  1.00  0.00    -0.225 OA
BRANCH  24  27
ATOM     27  O   UNL A   1      36.208  29.250  27.972  1.00  0.00    -0.445 OA
BRANCH  27  28
ATOM     28  C   UNL A   1      37.263  29.932  28.663  1.00  0.00     0.270 C 
BRANCH  28  29
ATOM     29  C   UNL A   1      37.725  29.127  29.848  1.00  0.00    -0.011 A 
ATOM     30  C   UNL A   1      37.170  29.358  31.114  1.00  0.00     0.007 A 
ATOM     31  C   UNL A   1      38.749  28.180  29.721  1.00  0.00     0.007 A 
ATOM     32  C   UNL A   1      37.634  28.672  32.233  1.00  0.00     0.000 A 
ATOM     33  C   UNL A   1      39.208  27.485  30.842  1.00  0.00     0.000 A 
ATOM     34  C   UNL A   1      38.655  27.736  32.098  1.00  0.00     0.000 A 
ENDBRANCH  28  29
ENDBRANCH  27  28
ENDBRANCH  24  27
ENDBRANCH  22  23
ENDBRANCH  19  22
ENDBRANCH  16  18
ENDBRANCH  13  16
ENDBRANCH   8  12
ENDBRANCH   6   8
ENDBRANCH   5   6
ENDBRANCH   4   5
ENDBRANCH   3   4
ENDBRANCH   2   3
ENDBRANCH   1   2
BRANCH   1  35
ATOM     35  C   UNL A   1      30.870  31.867  25.792  1.00  0.00     0.188 C 
BRANCH  35  36
ATOM     36  O   UNL A   1      31.406  32.164  27.075  1.00  0.00    -0.377 OA
BRANCH  36  37
ATOM     37  C   UNL A   1      32.074  33.417  27.197  1.00  0.00     0.188 C 
BRANCH  37  38
ATOM     38  C   UNL A   1      33.355  33.430  28.049  1.00  0.00     0.188 C 
BRANCH  38  39
ATOM     39  O   UNL A   1      33.637  34.725  28.581  1.00  0.00    -0.376 OA
BRANCH  39  40
ATOM     40  C   UNL A   1      33.089  35.030  29.859  1.00  0.00     0.202 C 
BRANCH  40  41
ATOM     41  C   UNL A   1      34.061  34.943  31.047  1.00  0.00     0.261 C 
BRANCH  41  42
ATOM     42  O   UNL A   1      33.788  33.921  32.026  1.00  0.00    -0.460 OA
BRANCH  42  43
ATOM     43  C   UNL A   1      34.602  32.847  32.091  1.00  0.00     0.338 C 
ATOM     44  O   UNL A   1      34.720  31.961  31.263  1.00  0.00    -0.246 OA
BRANCH  43  45
ATOM     45  C   UNL A   1      35.482  33.018  33.265  1.00  0.00     0.060 A 
ATOM     46  C   UNL A   1      35.185  34.015  34.205  1.00  0.00     0.016 A 
ATOM     47  C   UNL A   1      36.615  32.216  33.418  1.00  0.00     0.016 A 
ATOM     48  C   UNL A   1      36.054  34.248  35.273  1.00  0.00     0.010 A 
ATOM     49  C   UNL A   1      37.493  32.462  34.475  1.00  0.00     0.010 A 
ATOM     50  C   UNL A   1      37.240  33.506  35.382  1.00  0.00    -0.014 A 
BRANCH  50  51
ATOM     51  C   UNL A   1      38.321  33.947  36.295  1.00  0.00     0.031 A 
ATOM     52  C   UNL A   1      38.151  33.697  37.770  1.00  0.00     0.074 A 
ATOM     53  C   UNL A   1      39.420  34.573  35.840  1.00  0.00     0.049 A 
ATOM     54  N   UNL A   1      38.913  34.063  38.768  1.00  0.00    -0.248 NA
ATOM     55  C   UNL A   1      36.955  32.939  38.171  1.00  0.00     0.031 C 
ATOM     56  C   UNL A   1      39.720  34.841  34.437  1.00  0.00     0.029 A 
ATOM     57  N   UNL A   1      40.489  35.103  36.521  1.00  0.00    -0.354 N 
ATOM     58  C   UNL A   1      38.284  33.593  39.914  1.00  0.00     0.074 A 
ATOM     59  C   UNL A   1      37.067  32.934  39.491  1.00  0.00     0.031 C 
ATOM     60  C   UNL A   1      40.902  35.479  34.359  1.00  0.00     0.029 A 
ATOM     61  C   UNL A   1      41.418  35.705  35.708  1.00  0.00     0.049 A 
ATOM     62  H   UNL A   1      40.580  35.055  37.501  1.00  0.00     0.167 HD
ATOM     63  C   UNL A   1      38.679  33.702  41.204  1.00  0.00     0.031 A 
ATOM     64  C   UNL A   1      42.542  36.382  36.021  1.00  0.00     0.031 A 
ATOM     65  C   UNL A   1      39.872  34.383  41.629  1.00  0.00     0.049 A 
ATOM     66  C   UNL A   1      42.918  36.564  37.470  1.00  0.00     0.074 A 
ATOM     67  C   UNL A   1      40.354  34.555  42.914  1.00  0.00     0.029 A 
ATOM     68  N   UNL A   1      40.764  35.016  40.778  1.00  0.00    -0.354 N 
ATOM     69  N   UNL A   1      42.319  36.106  38.545  1.00  0.00    -0.248 NA
ATOM     70  C   UNL A   1      44.121  37.363  37.749  1.00  0.00     0.031 C 
ATOM     71  C   UNL A   1      41.511  35.337  42.844  1.00  0.00     0.029 A 
ATOM     72  C   UNL A   1      41.783  35.602  41.512  1.00  0.00     0.049 A 
ATOM     73  H   UNL A   1      40.687  35.045  39.797  1.00  0.00     0.167 HD
ATOM     74  C   UNL A   1      43.085  36.541  39.623  1.00  0.00     0.074 A 
ATOM     75  C   UNL A   1      44.198  37.287  39.071  1.00  0.00     0.031 C 
ATOM     76  C   UNL A   1      42.885  36.341  40.949  1.00  0.00     0.031 A 
BRANCH  63  77
ATOM     77  C   UNL A   1      37.778  33.103  42.251  1.00  0.00    -0.014 A 
ATOM     78  C   UNL A   1      38.097  31.883  42.875  1.00  0.00     0.010 A 
ATOM     79  C   UNL A   1      36.601  33.777  42.623  1.00  0.00     0.010 A 
ATOM     80  C   UNL A   1      37.230  31.325  43.818  1.00  0.00     0.020 A 
ATOM     81  C   UNL A   1      35.745  33.235  43.586  1.00  0.00     0.020 A 
ATOM     82  C   UNL A   1      36.056  32.002  44.163  1.00  0.00     0.054 A 
BRANCH  82  83
ATOM     83  S   UNL A   1      34.949  31.256  45.391  1.00  0.00     0.124 S 
ATOM     84  O   UNL A   1      35.387  31.904  46.624  1.00  0.00    -0.237 OA
ATOM     85  O   UNL A   1      33.627  31.649  44.911  1.00  0.00    -0.237 OA
ATOM     86  O   UNL A   1      35.243  29.828  45.301  1.00  0.00    -0.744 OA
ENDBRANCH  82  83
ENDBRANCH  63  77
BRANCH  64  87
ATOM     87  C   UNL A   1      43.389  36.961  34.941  1.00  0.00    -0.014 A 
ATOM     88  C   UNL A   1      44.457  36.224  34.397  1.00  0.00     0.010 A 
ATOM     89  C   UNL A   1      43.140  38.258  34.454  1.00  0.00     0.010 A 
ATOM     90  C   UNL A   1      45.264  36.775  33.398  1.00  0.00     0.020 A 
ATOM     91  C   UNL A   1      43.929  38.802  33.435  1.00  0.00     0.020 A 
ATOM     92  C   UNL A   1      44.993  38.061  32.920  1.00  0.00     0.054 A 
BRANCH  92  93
ATOM     93  S   UNL A   1      46.020  38.736  31.585  1.00  0.00     0.124 S 
ATOM     94  O   UNL A   1      46.486  37.524  30.918  1.00  0.00    -0.237 OA
ATOM     95  O   UNL A   1      45.067  39.547  30.830  1.00  0.00    -0.237 OA
ATOM     96  O   UNL A   1      47.047  39.496  32.293  1.00  0.00    -0.744 OA
ENDBRANCH  92  93
ENDBRANCH  64  87
BRANCH  76  97
ATOM     97  C   UNL A   1      43.904  36.905  41.905  1.00  0.00    -0.014 A 
ATOM     98  C   UNL A   1      45.040  36.168  42.282  1.00  0.00     0.010 A 
ATOM     99  C   UNL A   1      43.760  38.225  42.373  1.00  0.00     0.010 A 
ATOM    100  C   UNL A   1      46.001  36.732  43.127  1.00  0.00     0.020 A 
ATOM    101  C   UNL A   1      44.731  38.800  43.197  1.00  0.00     0.020 A 
ATOM    102  C   UNL A   1      45.841  38.045  43.579  1.00  0.00     0.054 A 
BRANCH 102 103
ATOM    103  S   UNL A   1      47.129  38.773  44.629  1.00  0.00     0.124 S 
ATOM    104  O   UNL A   1      46.539  38.656  45.960  1.00  0.00    -0.237 OA
ATOM    105  O   UNL A   1      48.279  37.909  44.374  1.00  0.00    -0.237 OA
ATOM    106  O   UNL A   1      47.259  40.138  44.123  1.00  0.00    -0.744 OA
ENDBRANCH 102 103
ENDBRANCH  76  97
ENDBRANCH  50  51
ENDBRANCH  43  45
ENDBRANCH  42  43
ENDBRANCH  41  42
ENDBRANCH  40  41
ENDBRANCH  39  40
ENDBRANCH  38  39
ENDBRANCH  37  38
ENDBRANCH  36  37
ENDBRANCH  35  36
ENDBRANCH   1  35
TORSDOF 32
ENDMDL
