MODEL 1
REMARK VINA RESULT:      -8.8      0.000      0.000
REMARK SMILES CC(=O)Nc1ccc(/C(=C\c2ccc(S(C)(=O)=O)cc2)C(=O)OCCOCCOCCOCCOC(=O)c2ccc(-c3c4nc(c(-c5ccc(S(=O)(=O)[O-])cc5)c5ccc([nH]5)c(-c5ccc(S(=O)(=O)[O-])cc5)c5nc(c(-c6ccc(S(=O)(=O)[O-])cc6)c6ccc3[nH]6)C=C5)C=C4)cc2)cc1
REMARK SMILES IDX 30 1 29 2 28 3 27 4 26 5 25 6 24 7 23 8 21 9 22 10 9 11
REMARK SMILES IDX 10 12 8 13 5 14 6 15 99 16 7 17 98 18 4 19 1 20 2 21 3 22
REMARK SMILES IDX 11 24 12 25 20 26 13 27 19 28 14 29 15 30 16 31 17 32 18 33
REMARK SMILES IDX 31 34 32 35 33 36 34 37 35 38 36 39 37 40 38 41 39 42 97 43
REMARK SMILES IDX 40 44 96 45 41 46 42 47 43 48 90 49 44 50 95 51 89 52 91 53
REMARK SMILES IDX 45 54 94 55 88 56 87 57 46 59 76 60 57 61 75 62 58 63 61 64
REMARK SMILES IDX 74 65 92 66 59 67 60 68 73 70 93 71 62 72 47 73 48 74 56 75
REMARK SMILES IDX 49 76 55 77 50 78 51 79 52 80 53 81 54 82 77 83 78 84 86 85
REMARK SMILES IDX 79 86 85 87 80 88 81 89 82 90 83 91 84 92 63 93 64 94 72 95
REMARK SMILES IDX 65 96 71 97 66 98 67 99 68 100 69 101 70 102
REMARK H PARENT 4 23 91 58 61 69
REMARK Flexibility Score: inf
ROOT
ATOM      1  C   UNL A   1      42.419  29.171  35.637  1.00  0.00     0.188 C 
ENDROOT
BRANCH   1   2
ATOM      2  O   UNL A   1      41.942  28.418  36.747  1.00  0.00    -0.377 OA
BRANCH   2   3
ATOM      3  C   UNL A   1      41.549  27.069  36.553  1.00  0.00     0.188 C 
BRANCH   3   4
ATOM      4  C   UNL A   1      42.107  26.271  35.358  1.00  0.00     0.188 C 
BRANCH   4   5
ATOM      5  O   UNL A   1      41.821  24.883  35.363  1.00  0.00    -0.376 OA
BRANCH   5   6
ATOM      6  C   UNL A   1      42.923  23.990  35.331  1.00  0.00     0.202 C 
BRANCH   6   7
ATOM      7  C   UNL A   1      43.194  23.285  33.995  1.00  0.00     0.261 C 
BRANCH   7   8
ATOM      8  O   UNL A   1      44.306  22.377  34.006  1.00  0.00    -0.460 OA
BRANCH   8   9
ATOM      9  C   UNL A   1      45.551  22.881  34.198  1.00  0.00     0.338 C 
ATOM     10  O   UNL A   1      45.938  23.971  33.806  1.00  0.00    -0.246 OA
BRANCH   9  11
ATOM     11  C   UNL A   1      46.331  21.979  35.125  1.00  0.00     0.067 C 
ATOM     12  C   UNL A   1      45.743  21.771  36.333  1.00  0.00     0.024 C 
BRANCH  11  13
ATOM     13  C   UNL A   1      47.692  21.489  34.714  1.00  0.00    -0.011 A 
ATOM     14  C   UNL A   1      50.337  20.433  34.477  1.00  0.00     0.041 A 
ATOM     15  C   UNL A   1      49.229  19.703  34.047  1.00  0.00     0.027 A 
ATOM     16  C   UNL A   1      50.134  21.743  34.880  1.00  0.00     0.027 A 
ATOM     17  C   UNL A   1      47.930  20.231  34.150  1.00  0.00     0.011 A 
ATOM     18  C   UNL A   1      48.835  22.265  34.969  1.00  0.00     0.011 A 
BRANCH  14  19
ATOM     19  N   UNL A   1      51.596  19.818  34.398  1.00  0.00    -0.326 N 
ATOM     20  C   UNL A   1      51.858  18.909  36.709  1.00  0.00     0.114 C 
ATOM     21  C   UNL A   1      52.398  19.251  35.346  1.00  0.00     0.221 C 
ATOM     22  O   UNL A   1      53.558  18.957  35.045  1.00  0.00    -0.275 OA
ATOM     23  H   UNL A   1      51.971  19.789  33.488  1.00  0.00     0.169 HD
ENDBRANCH  14  19
ENDBRANCH  11  13
BRANCH  12  24
ATOM     24  C   UNL A   1      46.203  20.893  37.418  1.00  0.00    -0.025 A 
ATOM     25  C   UNL A   1      46.542  21.523  38.623  1.00  0.00     0.009 A 
ATOM     26  C   UNL A   1      46.149  19.494  37.354  1.00  0.00     0.009 A 
ATOM     27  C   UNL A   1      46.653  20.779  39.794  1.00  0.00     0.021 A 
ATOM     28  C   UNL A   1      46.251  18.742  38.529  1.00  0.00     0.021 A 
ATOM     29  C   UNL A   1      46.452  19.399  39.749  1.00  0.00     0.067 A 
BRANCH  29  30
ATOM     30  S   UNL A   1      46.228  18.532  41.283  1.00  0.00     0.175 S 
ATOM     31  C   UNL A   1      47.759  17.687  41.544  1.00  0.00     0.163 C 
ATOM     32  O   UNL A   1      46.088  19.544  42.315  1.00  0.00    -0.224 OA
ATOM     33  O   UNL A   1      45.190  17.538  41.087  1.00  0.00    -0.224 OA
ENDBRANCH  29  30
ENDBRANCH  12  24
ENDBRANCH   9  11
ENDBRANCH   8   9
ENDBRANCH   7   8
ENDBRANCH   6   7
ENDBRANCH   5   6
ENDBRANCH   4   5
ENDBRANCH   3   4
ENDBRANCH   2   3
ENDBRANCH   1   2
BRANCH   1  34
ATOM     34  C   UNL A   1      41.425  29.946  34.739  1.00  0.00     0.188 C 
BRANCH  34  35
ATOM     35  O   UNL A   1      40.110  30.052  35.264  1.00  0.00    -0.376 OA
BRANCH  35  36
ATOM     36  C   UNL A   1      39.270  31.059  34.726  1.00  0.00     0.202 C 
BRANCH  36  37
ATOM     37  C   UNL A   1      37.861  30.633  34.292  1.00  0.00     0.261 C 
BRANCH  37  38
ATOM     38  O   UNL A   1      37.761  29.385  33.592  1.00  0.00    -0.460 OA
BRANCH  38  39
ATOM     39  C   UNL A   1      37.371  29.417  32.299  1.00  0.00     0.338 C 
ATOM     40  O   UNL A   1      36.298  29.797  31.863  1.00  0.00    -0.246 OA
BRANCH  39  41
ATOM     41  C   UNL A   1      38.557  29.088  31.482  1.00  0.00     0.060 A 
ATOM     42  C   UNL A   1      39.658  28.457  32.079  1.00  0.00     0.016 A 
ATOM     43  C   UNL A   1      38.553  29.367  30.115  1.00  0.00     0.016 A 
ATOM     44  C   UNL A   1      40.771  28.118  31.305  1.00  0.00     0.010 A 
ATOM     45  C   UNL A   1      39.676  29.052  29.348  1.00  0.00     0.010 A 
ATOM     46  C   UNL A   1      40.799  28.452  29.945  1.00  0.00    -0.014 A 
BRANCH  46  47
ATOM     47  C   UNL A   1      42.065  28.381  29.179  1.00  0.00     0.031 A 
ATOM     48  C   UNL A   1      42.444  27.058  28.572  1.00  0.00     0.074 A 
ATOM     49  C   UNL A   1      42.874  29.447  29.047  1.00  0.00     0.049 A 
ATOM     50  N   UNL A   1      43.546  26.709  27.964  1.00  0.00    -0.248 NA
ATOM     51  C   UNL A   1      41.443  25.982  28.675  1.00  0.00     0.031 C 
ATOM     52  C   UNL A   1      42.594  30.792  29.545  1.00  0.00     0.029 A 
ATOM     53  N   UNL A   1      44.112  29.554  28.463  1.00  0.00    -0.354 N 
ATOM     54  C   UNL A   1      43.379  25.370  27.629  1.00  0.00     0.074 A 
ATOM     55  C   UNL A   1      42.082  24.964  28.121  1.00  0.00     0.031 C 
ATOM     56  C   UNL A   1      43.642  31.588  29.260  1.00  0.00     0.029 A 
ATOM     57  C   UNL A   1      44.682  30.798  28.602  1.00  0.00     0.049 A 
ATOM     58  H   UNL A   1      44.550  28.810  27.990  1.00  0.00     0.167 HD
ATOM     59  C   UNL A   1      44.233  24.551  26.970  1.00  0.00     0.031 A 
ATOM     60  C   UNL A   1      45.912  31.236  28.266  1.00  0.00     0.031 A 
ATOM     61  C   UNL A   1      45.530  24.956  26.503  1.00  0.00     0.049 A 
ATOM     62  C   UNL A   1      46.881  30.283  27.610  1.00  0.00     0.074 A 
ATOM     63  C   UNL A   1      46.466  24.207  25.814  1.00  0.00     0.029 A 
ATOM     64  N   UNL A   1      46.079  26.217  26.685  1.00  0.00    -0.354 N 
ATOM     65  N   UNL A   1      46.705  29.026  27.278  1.00  0.00    -0.248 NA
ATOM     66  C   UNL A   1      48.214  30.809  27.282  1.00  0.00     0.031 C 
ATOM     67  C   UNL A   1      47.607  24.995  25.637  1.00  0.00     0.029 A 
ATOM     68  C   UNL A   1      47.353  26.258  26.147  1.00  0.00     0.049 A 
ATOM     69  H   UNL A   1      45.628  26.970  27.130  1.00  0.00     0.167 HD
ATOM     70  C   UNL A   1      47.891  28.622  26.671  1.00  0.00     0.074 A 
ATOM     71  C   UNL A   1      48.774  29.770  26.675  1.00  0.00     0.031 C 
ATOM     72  C   UNL A   1      48.216  27.413  26.151  1.00  0.00     0.031 A 
BRANCH  59  73
ATOM     73  C   UNL A   1      43.804  23.124  26.759  1.00  0.00    -0.014 A 
ATOM     74  C   UNL A   1      42.995  22.457  27.695  1.00  0.00     0.010 A 
ATOM     75  C   UNL A   1      44.194  22.450  25.587  1.00  0.00     0.010 A 
ATOM     76  C   UNL A   1      42.613  21.129  27.480  1.00  0.00     0.020 A 
ATOM     77  C   UNL A   1      43.788  21.135  25.353  1.00  0.00     0.020 A 
ATOM     78  C   UNL A   1      43.012  20.477  26.310  1.00  0.00     0.054 A 
BRANCH  78  79
ATOM     79  S   UNL A   1      42.479  18.764  26.046  1.00  0.00     0.124 S 
ATOM     80  O   UNL A   1      41.077  18.939  25.671  1.00  0.00    -0.237 OA
ATOM     81  O   UNL A   1      43.363  18.316  24.974  1.00  0.00    -0.237 OA
ATOM     82  O   UNL A   1      42.700  18.127  27.341  1.00  0.00    -0.744 OA
ENDBRANCH  78  79
ENDBRANCH  59  73
BRANCH  60  83
ATOM     83  C   UNL A   1      46.314  32.639  28.569  1.00  0.00    -0.014 A 
ATOM     84  C   UNL A   1      46.912  32.967  29.798  1.00  0.00     0.010 A 
ATOM     85  C   UNL A   1      46.094  33.659  27.625  1.00  0.00     0.010 A 
ATOM     86  C   UNL A   1      47.271  34.289  30.083  1.00  0.00     0.020 A 
ATOM     87  C   UNL A   1      46.479  34.976  27.894  1.00  0.00     0.020 A 
ATOM     88  C   UNL A   1      47.057  35.284  29.126  1.00  0.00     0.054 A 
BRANCH  88  89
ATOM     89  S   UNL A   1      47.582  36.982  29.496  1.00  0.00     0.124 S 
ATOM     90  O   UNL A   1      46.373  37.556  30.075  1.00  0.00    -0.237 OA
ATOM     91  O   UNL A   1      48.691  36.770  30.423  1.00  0.00    -0.237 OA
ATOM     92  O   UNL A   1      47.965  37.513  28.190  1.00  0.00    -0.744 OA
ENDBRANCH  88  89
ENDBRANCH  60  83
BRANCH  72  93
ATOM     93  C   UNL A   1      49.564  27.266  25.492  1.00  0.00    -0.014 A 
ATOM     94  C   UNL A   1      49.717  27.365  24.098  1.00  0.00     0.010 A 
ATOM     95  C   UNL A   1      50.710  27.120  26.297  1.00  0.00     0.010 A 
ATOM     96  C   UNL A   1      50.988  27.306  23.521  1.00  0.00     0.020 A 
ATOM     97  C   UNL A   1      51.985  27.090  25.727  1.00  0.00     0.020 A 
ATOM     98  C   UNL A   1      52.116  27.174  24.339  1.00  0.00     0.054 A 
BRANCH  98  99
ATOM     99  S   UNL A   1      53.758  27.171  23.570  1.00  0.00     0.124 S 
ATOM    100  O   UNL A   1      54.627  26.891  24.710  1.00  0.00    -0.237 OA
ATOM    101  O   UNL A   1      53.646  26.099  22.585  1.00  0.00    -0.237 OA
ATOM    102  O   UNL A   1      53.882  28.515  23.010  1.00  0.00    -0.744 OA
ENDBRANCH  98  99
ENDBRANCH  72  93
ENDBRANCH  46  47
ENDBRANCH  39  41
ENDBRANCH  38  39
ENDBRANCH  37  38
ENDBRANCH  36  37
ENDBRANCH  35  36
ENDBRANCH  34  35
ENDBRANCH   1  34
TORSDOF 27
ENDMDL
MODEL 2
REMARK VINA RESULT:      -7.9      7.339     18.334
REMARK SMILES CC(=O)Nc1ccc(/C(=C\c2ccc(S(C)(=O)=O)cc2)C(=O)OCCOCCOCCOCCOC(=O)c2ccc(-c3c4nc(c(-c5ccc(S(=O)(=O)[O-])cc5)c5ccc([nH]5)c(-c5ccc(S(=O)(=O)[O-])cc5)c5nc(c(-c6ccc(S(=O)(=O)[O-])cc6)c6ccc3[nH]6)C=C5)C=C4)cc2)cc1
REMARK SMILES IDX 30 1 29 2 28 3 27 4 26 5 25 6 24 7 23 8 21 9 22 10 9 11
REMARK SMILES IDX 10 12 8 13 5 14 6 15 99 16 7 17 98 18 4 19 1 20 2 21 3 22
REMARK SMILES IDX 11 24 12 25 20 26 13 27 19 28 14 29 15 30 16 31 17 32 18 33
REMARK SMILES IDX 31 34 32 35 33 36 34 37 35 38 36 39 37 40 38 41 39 42 97 43
REMARK SMILES IDX 40 44 96 45 41 46 42 47 43 48 90 49 44 50 95 51 89 52 91 53
REMARK SMILES IDX 45 54 94 55 88 56 87 57 46 59 76 60 57 61 75 62 58 63 61 64
REMARK SMILES IDX 74 65 92 66 59 67 60 68 73 70 93 71 62 72 47 73 48 74 56 75
REMARK SMILES IDX 49 76 55 77 50 78 51 79 52 80 53 81 54 82 77 83 78 84 86 85
REMARK SMILES IDX 79 86 85 87 80 88 81 89 82 90 83 91 84 92 63 93 64 94 72 95
REMARK SMILES IDX 65 96 71 97 66 98 67 99 68 100 69 101 70 102
REMARK H PARENT 4 23 91 58 61 69
REMARK Flexibility Score: inf
ROOT
ATOM      1  C   UNL A   1      44.997  39.379  26.272  1.00  0.00     0.188 C 
ENDROOT
BRANCH   1   2
ATOM      2  O   UNL A   1      43.928  40.221  26.691  1.00  0.00    -0.377 OA
BRANCH   2   3
ATOM      3  C   UNL A   1      44.094  41.029  27.845  1.00  0.00     0.188 C 
BRANCH   3   4
ATOM      4  C   UNL A   1      44.621  42.470  27.704  1.00  0.00     0.188 C 
BRANCH   4   5
ATOM      5  O   UNL A   1      44.497  43.043  26.414  1.00  0.00    -0.376 OA
BRANCH   5   6
ATOM      6  C   UNL A   1      45.363  44.120  26.093  1.00  0.00     0.202 C 
BRANCH   6   7
ATOM      7  C   UNL A   1      45.007  44.934  24.842  1.00  0.00     0.261 C 
BRANCH   7   8
ATOM      8  O   UNL A   1      44.343  44.193  23.807  1.00  0.00    -0.460 OA
BRANCH   8   9
ATOM      9  C   UNL A   1      45.055  43.268  23.116  1.00  0.00     0.338 C 
ATOM     10  O   UNL A   1      44.854  42.064  23.136  1.00  0.00    -0.246 OA
BRANCH   9  11
ATOM     11  C   UNL A   1      46.015  43.960  22.176  1.00  0.00     0.067 C 
ATOM     12  C   UNL A   1      47.316  43.596  22.333  1.00  0.00     0.024 C 
BRANCH  11  13
ATOM     13  C   UNL A   1      45.509  45.036  21.256  1.00  0.00    -0.011 A 
ATOM     14  C   UNL A   1      45.081  47.114  19.341  1.00  0.00     0.041 A 
ATOM     15  C   UNL A   1      44.692  45.800  19.078  1.00  0.00     0.027 A 
ATOM     16  C   UNL A   1      45.541  47.411  20.613  1.00  0.00     0.027 A 
ATOM     17  C   UNL A   1      44.889  44.783  20.028  1.00  0.00     0.011 A 
ATOM     18  C   UNL A   1      45.723  46.391  21.559  1.00  0.00     0.011 A 
BRANCH  14  19
ATOM     19  N   UNL A   1      44.908  48.064  18.322  1.00  0.00    -0.326 N 
ATOM     20  C   UNL A   1      47.137  48.008  17.197  1.00  0.00     0.114 C 
ATOM     21  C   UNL A   1      45.781  48.618  17.430  1.00  0.00     0.221 C 
ATOM     22  O   UNL A   1      45.412  49.589  16.764  1.00  0.00    -0.275 OA
ATOM     23  H   UNL A   1      43.984  48.392  18.234  1.00  0.00     0.169 HD
ENDBRANCH  14  19
ENDBRANCH  11  13
BRANCH  12  24
ATOM     24  C   UNL A   1      48.472  44.023  21.534  1.00  0.00    -0.025 A 
ATOM     25  C   UNL A   1      48.957  43.097  20.601  1.00  0.00     0.009 A 
ATOM     26  C   UNL A   1      48.977  45.330  21.545  1.00  0.00     0.009 A 
ATOM     27  C   UNL A   1      49.802  43.513  19.577  1.00  0.00     0.021 A 
ATOM     28  C   UNL A   1      49.821  45.756  20.513  1.00  0.00     0.021 A 
ATOM     29  C   UNL A   1      50.185  44.853  19.508  1.00  0.00     0.067 A 
BRANCH  29  30
ATOM     30  S   UNL A   1      50.944  45.434  18.010  1.00  0.00     0.175 S 
ATOM     31  C   UNL A   1      51.976  44.097  17.487  1.00  0.00     0.163 C 
ATOM     32  O   UNL A   1      49.878  45.591  17.037  1.00  0.00    -0.224 OA
ATOM     33  O   UNL A   1      51.796  46.557  18.349  1.00  0.00    -0.224 OA
ENDBRANCH  29  30
ENDBRANCH  12  24
ENDBRANCH   9  11
ENDBRANCH   8   9
ENDBRANCH   7   8
ENDBRANCH   6   7
ENDBRANCH   5   6
ENDBRANCH   4   5
ENDBRANCH   3   4
ENDBRANCH   2   3
ENDBRANCH   1   2
BRANCH   1  34
ATOM     34  C   UNL A   1      46.388  39.983  25.966  1.00  0.00     0.188 C 
BRANCH  34  35
ATOM     35  O   UNL A   1      47.480  39.277  26.536  1.00  0.00    -0.376 OA
BRANCH  35  36
ATOM     36  C   UNL A   1      48.054  39.804  27.720  1.00  0.00     0.202 C 
BRANCH  36  37
ATOM     37  C   UNL A   1      48.034  38.907  28.964  1.00  0.00     0.261 C 
BRANCH  37  38
ATOM     38  O   UNL A   1      47.600  37.554  28.766  1.00  0.00    -0.460 OA
BRANCH  38  39
ATOM     39  C   UNL A   1      47.106  36.889  29.834  1.00  0.00     0.338 C 
ATOM     40  O   UNL A   1      46.725  37.368  30.888  1.00  0.00    -0.246 OA
BRANCH  39  41
ATOM     41  C   UNL A   1      46.926  35.482  29.420  1.00  0.00     0.060 A 
ATOM     42  C   UNL A   1      46.691  35.179  28.070  1.00  0.00     0.016 A 
ATOM     43  C   UNL A   1      47.038  34.463  30.367  1.00  0.00     0.016 A 
ATOM     44  C   UNL A   1      46.549  33.849  27.669  1.00  0.00     0.010 A 
ATOM     45  C   UNL A   1      46.869  33.137  29.969  1.00  0.00     0.010 A 
ATOM     46  C   UNL A   1      46.597  32.827  28.624  1.00  0.00    -0.014 A 
BRANCH  46  47
ATOM     47  C   UNL A   1      46.154  31.455  28.281  1.00  0.00     0.031 A 
ATOM     48  C   UNL A   1      44.709  31.106  28.512  1.00  0.00     0.074 A 
ATOM     49  C   UNL A   1      47.009  30.532  27.806  1.00  0.00     0.049 A 
ATOM     50  N   UNL A   1      44.107  29.952  28.407  1.00  0.00    -0.248 NA
ATOM     51  C   UNL A   1      43.829  32.213  28.926  1.00  0.00     0.031 C 
ATOM     52  C   UNL A   1      48.418  30.762  27.494  1.00  0.00     0.029 A 
ATOM     53  N   UNL A   1      46.812  29.204  27.521  1.00  0.00    -0.354 N 
ATOM     54  C   UNL A   1      42.783  30.189  28.760  1.00  0.00     0.074 A 
ATOM     55  C   UNL A   1      42.675  31.588  29.104  1.00  0.00     0.031 C 
ATOM     56  C   UNL A   1      48.965  29.605  27.076  1.00  0.00     0.029 A 
ATOM     57  C   UNL A   1      47.957  28.546  27.135  1.00  0.00     0.049 A 
ATOM     58  H   UNL A   1      45.934  28.763  27.588  1.00  0.00     0.167 HD
ATOM     59  C   UNL A   1      41.749  29.315  28.794  1.00  0.00     0.031 A 
ATOM     60  C   UNL A   1      48.172  27.238  26.892  1.00  0.00     0.031 A 
ATOM     61  C   UNL A   1      41.868  27.921  28.471  1.00  0.00     0.049 A 
ATOM     62  C   UNL A   1      47.024  26.266  27.021  1.00  0.00     0.074 A 
ATOM     63  C   UNL A   1      40.879  26.954  28.462  1.00  0.00     0.029 A 
ATOM     64  N   UNL A   1      43.049  27.290  28.108  1.00  0.00    -0.354 N 
ATOM     65  N   UNL A   1      45.772  26.504  27.334  1.00  0.00    -0.248 NA
ATOM     66  C   UNL A   1      47.319  24.849  26.761  1.00  0.00     0.031 C 
ATOM     67  C   UNL A   1      41.475  25.726  28.159  1.00  0.00     0.029 A 
ATOM     68  C   UNL A   1      42.820  25.941  27.903  1.00  0.00     0.049 A 
ATOM     69  H   UNL A   1      43.921  27.736  28.011  1.00  0.00     0.167 HD
ATOM     70  C   UNL A   1      45.124  25.273  27.273  1.00  0.00     0.074 A 
ATOM     71  C   UNL A   1      46.119  24.295  26.888  1.00  0.00     0.031 C 
ATOM     72  C   UNL A   1      43.820  24.981  27.509  1.00  0.00     0.031 A 
BRANCH  59  73
ATOM     73  C   UNL A   1      40.410  29.839  29.241  1.00  0.00    -0.014 A 
ATOM     74  C   UNL A   1      39.365  30.051  28.325  1.00  0.00     0.010 A 
ATOM     75  C   UNL A   1      40.187  30.094  30.606  1.00  0.00     0.010 A 
ATOM     76  C   UNL A   1      38.131  30.542  28.762  1.00  0.00     0.020 A 
ATOM     77  C   UNL A   1      38.946  30.555  31.051  1.00  0.00     0.020 A 
ATOM     78  C   UNL A   1      37.930  30.791  30.123  1.00  0.00     0.054 A 
BRANCH  78  79
ATOM     79  S   UNL A   1      36.311  31.402  30.663  1.00  0.00     0.124 S 
ATOM     80  O   UNL A   1      35.554  31.397  29.413  1.00  0.00    -0.237 OA
ATOM     81  O   UNL A   1      35.904  30.403  31.647  1.00  0.00    -0.237 OA
ATOM     82  O   UNL A   1      36.602  32.727  31.206  1.00  0.00    -0.744 OA
ENDBRANCH  78  79
ENDBRANCH  59  73
BRANCH  60  83
ATOM     83  C   UNL A   1      49.535  26.759  26.529  1.00  0.00    -0.014 A 
ATOM     84  C   UNL A   1      49.917  26.630  25.182  1.00  0.00     0.010 A 
ATOM     85  C   UNL A   1      50.461  26.423  27.534  1.00  0.00     0.010 A 
ATOM     86  C   UNL A   1      51.193  26.163  24.848  1.00  0.00     0.020 A 
ATOM     87  C   UNL A   1      51.747  25.986  27.204  1.00  0.00     0.020 A 
ATOM     88  C   UNL A   1      52.102  25.849  25.862  1.00  0.00     0.054 A 
BRANCH  88  89
ATOM     89  S   UNL A   1      53.770  25.299  25.404  1.00  0.00     0.124 S 
ATOM     90  O   UNL A   1      53.492  24.099  24.623  1.00  0.00    -0.237 OA
ATOM     91  O   UNL A   1      54.280  26.443  24.650  1.00  0.00    -0.237 OA
ATOM     92  O   UNL A   1      54.421  25.072  26.692  1.00  0.00    -0.744 OA
ENDBRANCH  88  89
ENDBRANCH  60  83
BRANCH  72  93
ATOM     93  C   UNL A   1      43.368  23.557  27.311  1.00  0.00    -0.014 A 
ATOM     94  C   UNL A   1      43.103  22.711  28.402  1.00  0.00     0.010 A 
ATOM     95  C   UNL A   1      43.116  23.091  26.007  1.00  0.00     0.010 A 
ATOM     96  C   UNL A   1      42.609  21.421  28.190  1.00  0.00     0.020 A 
ATOM     97  C   UNL A   1      42.594  21.814  25.792  1.00  0.00     0.020 A 
ATOM     98  C   UNL A   1      42.351  20.982  26.887  1.00  0.00     0.054 A 
BRANCH  98  99
ATOM     99  S   UNL A   1      41.643  19.330  26.646  1.00  0.00     0.124 S 
ATOM    100  O   UNL A   1      40.813  19.177  27.839  1.00  0.00    -0.237 OA
ATOM    101  O   UNL A   1      40.915  19.476  25.388  1.00  0.00    -0.237 OA
ATOM    102  O   UNL A   1      42.811  18.455  26.585  1.00  0.00    -0.744 OA
ENDBRANCH  98  99
ENDBRANCH  72  93
ENDBRANCH  46  47
ENDBRANCH  39  41
ENDBRANCH  38  39
ENDBRANCH  37  38
ENDBRANCH  36  37
ENDBRANCH  35  36
ENDBRANCH  34  35
ENDBRANCH   1  34
TORSDOF 27
ENDMDL
MODEL 3
REMARK VINA RESULT:      -7.4      5.338     10.071
REMARK SMILES CC(=O)Nc1ccc(/C(=C\c2ccc(S(C)(=O)=O)cc2)C(=O)OCCOCCOCCOCCOC(=O)c2ccc(-c3c4nc(c(-c5ccc(S(=O)(=O)[O-])cc5)c5ccc([nH]5)c(-c5ccc(S(=O)(=O)[O-])cc5)c5nc(c(-c6ccc(S(=O)(=O)[O-])cc6)c6ccc3[nH]6)C=C5)C=C4)cc2)cc1
REMARK SMILES IDX 30 1 29 2 28 3 27 4 26 5 25 6 24 7 23 8 21 9 22 10 9 11
REMARK SMILES IDX 10 12 8 13 5 14 6 15 99 16 7 17 98 18 4 19 1 20 2 21 3 22
REMARK SMILES IDX 11 24 12 25 20 26 13 27 19 28 14 29 15 30 16 31 17 32 18 33
REMARK SMILES IDX 31 34 32 35 33 36 34 37 35 38 36 39 37 40 38 41 39 42 97 43
REMARK SMILES IDX 40 44 96 45 41 46 42 47 43 48 90 49 44 50 95 51 89 52 91 53
REMARK SMILES IDX 45 54 94 55 88 56 87 57 46 59 76 60 57 61 75 62 58 63 61 64
REMARK SMILES IDX 74 65 92 66 59 67 60 68 73 70 93 71 62 72 47 73 48 74 56 75
REMARK SMILES IDX 49 76 55 77 50 78 51 79 52 80 53 81 54 82 77 83 78 84 86 85
REMARK SMILES IDX 79 86 85 87 80 88 81 89 82 90 83 91 84 92 63 93 64 94 72 95
REMARK SMILES IDX 65 96 71 97 66 98 67 99 68 100 69 101 70 102
REMARK H PARENT 4 23 91 58 61 69
REMARK Flexibility Score: inf
ROOT
ATOM      1  C   UNL A   1      35.849  32.327  29.769  1.00  0.00     0.188 C 
ENDROOT
BRANCH   1   2
ATOM      2  O   UNL A   1      37.227  32.310  30.125  1.00  0.00    -0.377 OA
BRANCH   2   3
ATOM      3  C   UNL A   1      37.940  31.085  30.080  1.00  0.00     0.188 C 
BRANCH   3   4
ATOM      4  C   UNL A   1      37.214  29.761  30.389  1.00  0.00     0.188 C 
BRANCH   4   5
ATOM      5  O   UNL A   1      37.282  29.327  31.736  1.00  0.00    -0.376 OA
BRANCH   5   6
ATOM      6  C   UNL A   1      38.004  28.136  32.001  1.00  0.00     0.202 C 
BRANCH   6   7
ATOM      7  C   UNL A   1      39.534  28.255  32.030  1.00  0.00     0.261 C 
BRANCH   7   8
ATOM      8  O   UNL A   1      40.192  27.879  30.811  1.00  0.00    -0.460 OA
BRANCH   8   9
ATOM      9  C   UNL A   1      41.089  28.741  30.268  1.00  0.00     0.338 C 
ATOM     10  O   UNL A   1      41.189  29.925  30.551  1.00  0.00    -0.246 OA
BRANCH   9  11
ATOM     11  C   UNL A   1      42.066  27.983  29.400  1.00  0.00     0.067 C 
ATOM     12  C   UNL A   1      41.995  26.631  29.522  1.00  0.00     0.024 C 
BRANCH  11  13
ATOM     13  C   UNL A   1      43.080  28.739  28.587  1.00  0.00    -0.011 A 
ATOM     14  C   UNL A   1      44.742  30.630  27.233  1.00  0.00     0.041 A 
ATOM     15  C   UNL A   1      45.192  29.960  28.371  1.00  0.00     0.027 A 
ATOM     16  C   UNL A   1      43.527  30.241  26.690  1.00  0.00     0.027 A 
ATOM     17  C   UNL A   1      44.379  29.019  29.026  1.00  0.00     0.011 A 
ATOM     18  C   UNL A   1      42.728  29.291  27.345  1.00  0.00     0.011 A 
BRANCH  14  19
ATOM     19  N   UNL A   1      45.584  31.599  26.668  1.00  0.00    -0.326 N 
ATOM     20  C   UNL A   1      44.514  33.715  27.452  1.00  0.00     0.114 C 
ATOM     21  C   UNL A   1      45.492  32.959  26.593  1.00  0.00     0.221 C 
ATOM     22  O   UNL A   1      46.275  33.568  25.858  1.00  0.00    -0.275 OA
ATOM     23  H   UNL A   1      46.394  31.229  26.247  1.00  0.00     0.169 HD
ENDBRANCH  14  19
ENDBRANCH  11  13
BRANCH  12  24
ATOM     24  C   UNL A   1      42.747  25.618  28.768  1.00  0.00    -0.025 A 
ATOM     25  C   UNL A   1      42.376  25.441  27.429  1.00  0.00     0.009 A 
ATOM     26  C   UNL A   1      43.889  24.976  29.266  1.00  0.00     0.009 A 
ATOM     27  C   UNL A   1      43.227  24.778  26.550  1.00  0.00     0.021 A 
ATOM     28  C   UNL A   1      44.752  24.315  28.386  1.00  0.00     0.021 A 
ATOM     29  C   UNL A   1      44.437  24.267  27.023  1.00  0.00     0.067 A 
BRANCH  29  30
ATOM     30  S   UNL A   1      45.658  23.765  25.835  1.00  0.00     0.175 S 
ATOM     31  C   UNL A   1      45.224  22.100  25.427  1.00  0.00     0.163 C 
ATOM     32  O   UNL A   1      45.456  24.588  24.657  1.00  0.00    -0.224 OA
ATOM     33  O   UNL A   1      46.947  23.745  26.502  1.00  0.00    -0.224 OA
ENDBRANCH  29  30
ENDBRANCH  12  24
ENDBRANCH   9  11
ENDBRANCH   8   9
ENDBRANCH   7   8
ENDBRANCH   6   7
ENDBRANCH   5   6
ENDBRANCH   4   5
ENDBRANCH   3   4
ENDBRANCH   2   3
ENDBRANCH   1   2
BRANCH   1  34
ATOM     34  C   UNL A   1      34.779  32.708  30.820  1.00  0.00     0.188 C 
BRANCH  34  35
ATOM     35  O   UNL A   1      34.081  33.915  30.546  1.00  0.00    -0.376 OA
BRANCH  35  36
ATOM     36  C   UNL A   1      34.038  34.892  31.571  1.00  0.00     0.202 C 
BRANCH  36  37
ATOM     37  C   UNL A   1      34.342  34.419  32.999  1.00  0.00     0.261 C 
BRANCH  37  38
ATOM     38  O   UNL A   1      35.613  34.804  33.540  1.00  0.00    -0.460 OA
BRANCH  38  39
ATOM     39  C   UNL A   1      36.021  34.202  34.679  1.00  0.00     0.338 C 
ATOM     40  O   UNL A   1      35.320  33.806  35.594  1.00  0.00    -0.246 OA
BRANCH  39  41
ATOM     41  C   UNL A   1      37.466  33.932  34.530  1.00  0.00     0.060 A 
ATOM     42  C   UNL A   1      38.253  33.714  35.670  1.00  0.00     0.016 A 
ATOM     43  C   UNL A   1      38.026  33.849  33.254  1.00  0.00     0.016 A 
ATOM     44  C   UNL A   1      39.613  33.429  35.534  1.00  0.00     0.010 A 
ATOM     45  C   UNL A   1      39.390  33.590  33.121  1.00  0.00     0.010 A 
ATOM     46  C   UNL A   1      40.194  33.407  34.260  1.00  0.00    -0.014 A 
BRANCH  46  47
ATOM     47  C   UNL A   1      41.668  33.409  34.104  1.00  0.00     0.031 A 
ATOM     48  C   UNL A   1      42.364  32.079  34.007  1.00  0.00     0.074 A 
ATOM     49  C   UNL A   1      42.376  34.551  34.079  1.00  0.00     0.049 A 
ATOM     50  N   UNL A   1      43.642  31.811  33.987  1.00  0.00    -0.248 NA
ATOM     51  C   UNL A   1      41.495  30.891  33.931  1.00  0.00     0.031 C 
ATOM     52  C   UNL A   1      41.813  35.900  34.114  1.00  0.00     0.029 A 
ATOM     53  N   UNL A   1      43.733  34.753  34.035  1.00  0.00    -0.354 N 
ATOM     54  C   UNL A   1      43.732  30.425  33.916  1.00  0.00     0.074 A 
ATOM     55  C   UNL A   1      42.382  29.908  33.919  1.00  0.00     0.031 C 
ATOM     56  C   UNL A   1      42.822  36.791  34.109  1.00  0.00     0.029 A 
ATOM     57  C   UNL A   1      44.098  36.077  34.115  1.00  0.00     0.049 A 
ATOM     58  H   UNL A   1      44.384  34.019  33.954  1.00  0.00     0.167 HD
ATOM     59  C   UNL A   1      44.842  29.653  33.853  1.00  0.00     0.031 A 
ATOM     60  C   UNL A   1      45.318  36.641  34.217  1.00  0.00     0.031 A 
ATOM     61  C   UNL A   1      46.181  30.173  33.871  1.00  0.00     0.049 A 
ATOM     62  C   UNL A   1      46.541  35.756  34.232  1.00  0.00     0.074 A 
ATOM     63  C   UNL A   1      47.374  29.476  33.800  1.00  0.00     0.029 A 
ATOM     64  N   UNL A   1      46.507  31.517  33.978  1.00  0.00    -0.354 N 
ATOM     65  N   UNL A   1      46.615  34.449  34.142  1.00  0.00    -0.248 NA
ATOM     66  C   UNL A   1      47.845  36.423  34.362  1.00  0.00     0.031 C 
ATOM     67  C   UNL A   1      48.421  30.393  33.930  1.00  0.00     0.029 A 
ATOM     68  C   UNL A   1      47.882  31.668  34.005  1.00  0.00     0.049 A 
ATOM     69  H   UNL A   1      45.856  32.254  34.027  1.00  0.00     0.167 HD
ATOM     70  C   UNL A   1      47.973  34.141  34.168  1.00  0.00     0.074 A 
ATOM     71  C   UNL A   1      48.683  35.398  34.276  1.00  0.00     0.031 C 
ATOM     72  C   UNL A   1      48.575  32.928  34.102  1.00  0.00     0.031 A 
BRANCH  59  73
ATOM     73  C   UNL A   1      44.649  28.161  33.806  1.00  0.00    -0.014 A 
ATOM     74  C   UNL A   1      44.515  27.479  32.584  1.00  0.00     0.010 A 
ATOM     75  C   UNL A   1      44.634  27.426  35.006  1.00  0.00     0.010 A 
ATOM     76  C   UNL A   1      44.333  26.093  32.564  1.00  0.00     0.020 A 
ATOM     77  C   UNL A   1      44.484  26.038  34.989  1.00  0.00     0.020 A 
ATOM     78  C   UNL A   1      44.319  25.382  33.768  1.00  0.00     0.054 A 
BRANCH  78  79
ATOM     79  S   UNL A   1      44.107  23.582  33.709  1.00  0.00     0.124 S 
ATOM     80  O   UNL A   1      43.954  23.343  32.275  1.00  0.00    -0.237 OA
ATOM     81  O   UNL A   1      45.352  23.095  34.296  1.00  0.00    -0.237 OA
ATOM     82  O   UNL A   1      42.908  23.346  34.509  1.00  0.00    -0.744 OA
ENDBRANCH  78  79
ENDBRANCH  59  73
BRANCH  60  83
ATOM     83  C   UNL A   1      45.450  38.120  34.340  1.00  0.00    -0.014 A 
ATOM     84  C   UNL A   1      45.629  38.923  33.200  1.00  0.00     0.010 A 
ATOM     85  C   UNL A   1      45.401  38.734  35.605  1.00  0.00     0.010 A 
ATOM     86  C   UNL A   1      45.770  40.310  33.324  1.00  0.00     0.020 A 
ATOM     87  C   UNL A   1      45.510  40.122  35.730  1.00  0.00     0.020 A 
ATOM     88  C   UNL A   1      45.704  40.900  34.589  1.00  0.00     0.054 A 
BRANCH  88  89
ATOM     89  S   UNL A   1      45.833  42.706  34.719  1.00  0.00     0.124 S 
ATOM     90  O   UNL A   1      47.229  42.886  35.098  1.00  0.00    -0.237 OA
ATOM     91  O   UNL A   1      45.480  43.143  33.370  1.00  0.00    -0.237 OA
ATOM     92  O   UNL A   1      44.854  43.045  35.750  1.00  0.00    -0.744 OA
ENDBRANCH  88  89
ENDBRANCH  60  83
BRANCH  72  93
ATOM     93  C   UNL A   1      50.082  32.888  34.092  1.00  0.00    -0.014 A 
ATOM     94  C   UNL A   1      50.823  32.749  35.278  1.00  0.00     0.010 A 
ATOM     95  C   UNL A   1      50.761  32.895  32.858  1.00  0.00     0.010 A 
ATOM     96  C   UNL A   1      52.215  32.634  35.232  1.00  0.00     0.020 A 
ATOM     97  C   UNL A   1      52.149  32.750  32.805  1.00  0.00     0.020 A 
ATOM     98  C   UNL A   1      52.869  32.629  33.995  1.00  0.00     0.054 A 
BRANCH  98  99
ATOM     99  S   UNL A   1      54.669  32.407  33.960  1.00  0.00     0.124 S 
ATOM    100  O   UNL A   1      54.828  31.111  34.615  1.00  0.00    -0.237 OA
ATOM    101  O   UNL A   1      54.965  32.429  32.530  1.00  0.00    -0.237 OA
ATOM    102  O   UNL A   1      55.176  33.550  34.715  1.00  0.00    -0.744 OA
ENDBRANCH  98  99
ENDBRANCH  72  93
ENDBRANCH  46  47
ENDBRANCH  39  41
ENDBRANCH  38  39
ENDBRANCH  37  38
ENDBRANCH  36  37
ENDBRANCH  35  36
ENDBRANCH  34  35
ENDBRANCH   1  34
TORSDOF 27
ENDMDL
