MODEL 1
REMARK VINA RESULT:     -11.1      0.000      0.000
REMARK SMILES O=C(OCCOCCOCCOCCOC(=O)c1cc(Cl)cc(Cl)c1NC(=S)NC(=O)c1cccc2ccccc12)c1ccc(-c2c3nc(c(-c4ccc(S(=O)(=O)[O-])cc4)c4ccc([nH]4)c(-c4ccc(S(=O)(=O)[O-])cc4)c4nc(c(-c5ccc(S(=O)(=O)[O-])cc5)c5ccc2[nH]5)C=C4)C=C3)cc1
REMARK SMILES IDX 10 1 9 2 8 3 7 4 6 5 5 6 4 7 3 8 2 9 1 10 42 11 43 12 101 13
REMARK SMILES IDX 44 14 100 15 45 16 46 17 47 18 94 19 48 20 99 21 93 22 95 23
REMARK SMILES IDX 49 24 98 25 92 26 91 27 50 29 80 30 61 31 79 32 62 33 65 34
REMARK SMILES IDX 78 35 96 36 63 37 64 38 77 40 97 41 66 42 51 43 52 44 60 45
REMARK SMILES IDX 53 46 59 47 54 48 55 49 56 50 57 51 58 52 81 53 82 54 90 55
REMARK SMILES IDX 83 56 89 57 84 58 85 59 86 60 87 61 88 62 67 63 68 64 76 65
REMARK SMILES IDX 69 66 75 67 70 68 71 69 72 70 73 71 74 72 11 73 12 74 13 75
REMARK SMILES IDX 14 76 15 77 16 78 17 79 18 80 19 81 25 82 20 83 23 84 21 85
REMARK SMILES IDX 22 86 24 87 26 88 27 90 28 91 29 92 30 93 31 95 32 96 33 97
REMARK SMILES IDX 41 98 34 99 36 100 40 101 35 102 37 103 39 104 38 105
REMARK H PARENT 95 28 65 39 26 89 29 94
REMARK Flexibility Score: inf
ROOT
ATOM      1  C   UNL A   1      39.992  23.325  27.185  1.00  0.00     0.188 C 
ENDROOT
BRANCH   1   2
ATOM      2  O   UNL A   1      40.154  21.912  27.290  1.00  0.00    -0.377 OA
BRANCH   2   3
ATOM      3  C   UNL A   1      40.670  21.279  26.118  1.00  0.00     0.188 C 
BRANCH   3   4
ATOM      4  C   UNL A   1      42.199  21.191  26.132  1.00  0.00     0.188 C 
BRANCH   4   5
ATOM      5  O   UNL A   1      42.737  22.173  25.233  1.00  0.00    -0.376 OA
BRANCH   5   6
ATOM      6  C   UNL A   1      43.370  23.274  25.884  1.00  0.00     0.202 C 
BRANCH   6   7
ATOM      7  C   UNL A   1      43.388  24.529  25.006  1.00  0.00     0.261 C 
BRANCH   7   8
ATOM      8  O   UNL A   1      42.250  25.362  25.292  1.00  0.00    -0.460 OA
BRANCH   8   9
ATOM      9  C   UNL A   1      42.241  26.686  25.591  1.00  0.00     0.338 C 
ATOM     10  O   UNL A   1      42.245  27.496  24.664  1.00  0.00    -0.246 OA
BRANCH   9  11
ATOM     11  C   UNL A   1      42.114  27.218  26.983  1.00  0.00     0.060 A 
ATOM     12  C   UNL A   1      41.193  26.787  27.940  1.00  0.00     0.016 A 
ATOM     13  C   UNL A   1      43.042  28.206  27.360  1.00  0.00     0.016 A 
ATOM     14  C   UNL A   1      41.100  27.411  29.183  1.00  0.00     0.010 A 
ATOM     15  C   UNL A   1      42.987  28.803  28.624  1.00  0.00     0.010 A 
ATOM     16  C   UNL A   1      41.977  28.442  29.522  1.00  0.00    -0.014 A 
BRANCH  16  17
ATOM     17  C   UNL A   1      41.720  29.230  30.747  1.00  0.00     0.031 A 
ATOM     18  C   UNL A   1      40.528  30.147  30.769  1.00  0.00     0.074 A 
ATOM     19  C   UNL A   1      42.467  29.041  31.851  1.00  0.00     0.049 A 
ATOM     20  N   UNL A   1      40.118  30.949  31.715  1.00  0.00    -0.248 NA
ATOM     21  C   UNL A   1      39.677  30.151  29.566  1.00  0.00     0.031 C 
ATOM     22  C   UNL A   1      43.589  28.107  31.966  1.00  0.00     0.029 A 
ATOM     23  N   UNL A   1      42.372  29.604  33.097  1.00  0.00    -0.354 N 
ATOM     24  C   UNL A   1      38.975  31.563  31.217  1.00  0.00     0.074 A 
ATOM     25  C   UNL A   1      38.758  31.049  29.883  1.00  0.00     0.031 C 
ATOM     26  C   UNL A   1      44.056  28.138  33.225  1.00  0.00     0.029 A 
ATOM     27  C   UNL A   1      43.303  29.126  33.990  1.00  0.00     0.049 A 
ATOM     28  H   UNL A   1      41.701  30.285  33.331  1.00  0.00     0.167 HD
ATOM     29  C   UNL A   1      38.178  32.478  31.816  1.00  0.00     0.031 A 
ATOM     30  C   UNL A   1      43.526  29.467  35.275  1.00  0.00     0.031 A 
ATOM     31  C   UNL A   1      38.413  32.997  33.134  1.00  0.00     0.049 A 
ATOM     32  C   UNL A   1      42.664  30.533  35.898  1.00  0.00     0.074 A 
ATOM     33  C   UNL A   1      37.744  34.005  33.802  1.00  0.00     0.029 A 
ATOM     34  N   UNL A   1      39.399  32.529  33.990  1.00  0.00    -0.354 N 
ATOM     35  N   UNL A   1      41.642  31.174  35.378  1.00  0.00    -0.248 NA
ATOM     36  C   UNL A   1      42.994  30.934  37.272  1.00  0.00     0.031 C 
ATOM     37  C   UNL A   1      38.341  34.161  35.060  1.00  0.00     0.029 A 
ATOM     38  C   UNL A   1      39.358  33.225  35.183  1.00  0.00     0.049 A 
ATOM     39  H   UNL A   1      40.035  31.808  33.779  1.00  0.00     0.167 HD
ATOM     40  C   UNL A   1      41.214  32.060  36.359  1.00  0.00     0.074 A 
ATOM     41  C   UNL A   1      42.063  31.847  37.515  1.00  0.00     0.031 C 
ATOM     42  C   UNL A   1      40.223  32.985  36.307  1.00  0.00     0.031 A 
BRANCH  29  43
ATOM     43  C   UNL A   1      37.023  33.002  31.011  1.00  0.00    -0.014 A 
ATOM     44  C   UNL A   1      37.237  33.753  29.841  1.00  0.00     0.010 A 
ATOM     45  C   UNL A   1      35.707  32.776  31.452  1.00  0.00     0.010 A 
ATOM     46  C   UNL A   1      36.156  34.307  29.151  1.00  0.00     0.020 A 
ATOM     47  C   UNL A   1      34.622  33.314  30.756  1.00  0.00     0.020 A 
ATOM     48  C   UNL A   1      34.856  34.096  29.621  1.00  0.00     0.054 A 
BRANCH  48  49
ATOM     49  S   UNL A   1      33.467  34.846  28.725  1.00  0.00     0.124 S 
ATOM     50  O   UNL A   1      34.074  36.065  28.197  1.00  0.00    -0.237 OA
ATOM     51  O   UNL A   1      33.136  33.828  27.731  1.00  0.00    -0.237 OA
ATOM     52  O   UNL A   1      32.458  35.051  29.761  1.00  0.00    -0.744 OA
ENDBRANCH  48  49
ENDBRANCH  29  43
BRANCH  30  53
ATOM     53  C   UNL A   1      44.640  28.839  36.040  1.00  0.00    -0.014 A 
ATOM     54  C   UNL A   1      45.943  29.364  35.980  1.00  0.00     0.010 A 
ATOM     55  C   UNL A   1      44.402  27.694  36.822  1.00  0.00     0.010 A 
ATOM     56  C   UNL A   1      46.990  28.743  36.671  1.00  0.00     0.020 A 
ATOM     57  C   UNL A   1      45.440  27.086  37.534  1.00  0.00     0.020 A 
ATOM     58  C   UNL A   1      46.733  27.605  37.441  1.00  0.00     0.054 A 
BRANCH  58  59
ATOM     59  S   UNL A   1      48.089  26.831  38.366  1.00  0.00     0.124 S 
ATOM     60  O   UNL A   1      48.943  26.333  37.293  1.00  0.00    -0.237 OA
ATOM     61  O   UNL A   1      48.631  27.946  39.140  1.00  0.00    -0.237 OA
ATOM     62  O   UNL A   1      47.414  25.807  39.161  1.00  0.00    -0.744 OA
ENDBRANCH  58  59
ENDBRANCH  30  53
BRANCH  42  63
ATOM     63  C   UNL A   1      40.015  33.825  37.534  1.00  0.00    -0.014 A 
ATOM     64  C   UNL A   1      40.705  35.039  37.693  1.00  0.00     0.010 A 
ATOM     65  C   UNL A   1      39.090  33.420  38.512  1.00  0.00     0.010 A 
ATOM     66  C   UNL A   1      40.493  35.825  38.827  1.00  0.00     0.020 A 
ATOM     67  C   UNL A   1      38.863  34.212  39.639  1.00  0.00     0.020 A 
ATOM     68  C   UNL A   1      39.577  35.403  39.796  1.00  0.00     0.054 A 
BRANCH  68  69
ATOM     69  S   UNL A   1      39.283  36.455  41.244  1.00  0.00     0.124 S 
ATOM     70  O   UNL A   1      38.273  35.691  41.971  1.00  0.00    -0.237 OA
ATOM     71  O   UNL A   1      40.600  36.519  41.874  1.00  0.00    -0.237 OA
ATOM     72  O   UNL A   1      38.817  37.713  40.663  1.00  0.00    -0.744 OA
ENDBRANCH  68  69
ENDBRANCH  42  63
ENDBRANCH  16  17
ENDBRANCH   9  11
ENDBRANCH   8   9
ENDBRANCH   7   8
ENDBRANCH   6   7
ENDBRANCH   5   6
ENDBRANCH   4   5
ENDBRANCH   3   4
ENDBRANCH   2   3
ENDBRANCH   1   2
BRANCH   1  73
ATOM     73  C   UNL A   1      38.573  23.813  26.906  1.00  0.00     0.188 C 
BRANCH  73  74
ATOM     74  O   UNL A   1      38.188  23.566  25.557  1.00  0.00    -0.376 OA
BRANCH  74  75
ATOM     75  C   UNL A   1      37.230  22.519  25.392  1.00  0.00     0.202 C 
BRANCH  75  76
ATOM     76  C   UNL A   1      35.854  23.028  24.956  1.00  0.00     0.261 C 
BRANCH  76  77
ATOM     77  O   UNL A   1      34.875  22.014  24.644  1.00  0.00    -0.460 OA
BRANCH  77  78
ATOM     78  C   UNL A   1      34.163  21.477  25.665  1.00  0.00     0.340 C 
ATOM     79  O   UNL A   1      34.267  21.812  26.837  1.00  0.00    -0.246 OA
BRANCH  78  80
ATOM     80  C   UNL A   1      33.000  20.291  25.117  1.00  0.00     0.086 A 
ATOM     81  C   UNL A   1      33.039  18.252  25.235  1.00  0.00     0.038 A 
ATOM     82  C   UNL A   1      32.064  21.111  24.960  1.00  0.00     0.074 A 
ATOM     83  C   UNL A   1      32.384  17.135  25.189  1.00  0.00     0.043 A 
ATOM     84  C   UNL A   1      32.309  20.140  24.170  1.00  0.00     0.066 A 
ATOM     85  Cl  UNL A   1      32.912  15.541  25.037  1.00  0.00    -0.084 Cl
ATOM     86  C   UNL A   1      32.445  18.118  24.362  1.00  0.00     0.043 A 
ATOM     87  Cl  UNL A   1      32.161  21.280  22.391  1.00  0.00    -0.082 Cl
BRANCH  82  88
ATOM     88  N   UNL A   1      31.373  22.265  24.900  1.00  0.00    -0.330 N 
ATOM     89  H   UNL A   1      30.435  22.256  24.602  1.00  0.00     0.169 HD
BRANCH  88  90
ATOM     90  C   UNL A   1      31.961  23.449  25.250  1.00  0.00     0.177 C 
ATOM     91  S   UNL A   1      31.702  24.068  26.780  1.00  0.00    -0.040 S 
BRANCH  90  92
ATOM     92  N   UNL A   1      32.722  24.197  24.342  1.00  0.00    -0.299 N 
ATOM     93  C   UNL A   1      32.845  25.506  23.806  1.00  0.00     0.258 C 
ATOM     94  H   UNL A   1      33.407  23.617  23.937  1.00  0.00     0.172 HD
ATOM     95  O   UNL A   1      33.740  25.806  23.025  1.00  0.00    -0.269 OA
BRANCH  93  96
ATOM     96  C   UNL A   1      31.826  26.519  24.147  1.00  0.00     0.048 A 
ATOM     97  C   UNL A   1      30.410  26.846  22.821  1.00  0.00     0.014 A 
ATOM     98  C   UNL A   1      32.477  27.846  25.483  1.00  0.00    -0.006 A 
ATOM     99  C   UNL A   1      29.462  28.570  22.639  1.00  0.00     0.001 A 
ATOM    100  C   UNL A   1      31.558  29.609  25.281  1.00  0.00    -0.018 A 
ATOM    101  C   UNL A   1      33.383  27.756  26.562  1.00  0.00     0.009 A 
ATOM    102  C   UNL A   1      30.151  29.932  23.937  1.00  0.00     0.009 A 
ATOM    103  C   UNL A   1      31.949  30.535  26.247  1.00  0.00     0.009 A 
ATOM    104  C   UNL A   1      33.547  28.885  27.395  1.00  0.00     0.001 A 
ATOM    105  C   UNL A   1      32.891  30.164  27.243  1.00  0.00     0.001 A 
ENDBRANCH  93  96
ENDBRANCH  90  92
ENDBRANCH  88  90
ENDBRANCH  82  88
ENDBRANCH  78  80
ENDBRANCH  77  78
ENDBRANCH  76  77
ENDBRANCH  75  76
ENDBRANCH  74  75
ENDBRANCH  73  74
ENDBRANCH   1  73
TORSDOF 27
ENDMDL
MODEL 2
REMARK VINA RESULT:     -10.8      2.640      8.405
REMARK SMILES O=C(OCCOCCOCCOCCOC(=O)c1cc(Cl)cc(Cl)c1NC(=S)NC(=O)c1cccc2ccccc12)c1ccc(-c2c3nc(c(-c4ccc(S(=O)(=O)[O-])cc4)c4ccc([nH]4)c(-c4ccc(S(=O)(=O)[O-])cc4)c4nc(c(-c5ccc(S(=O)(=O)[O-])cc5)c5ccc2[nH]5)C=C4)C=C3)cc1
REMARK SMILES IDX 10 1 9 2 8 3 7 4 6 5 5 6 4 7 3 8 2 9 1 10 42 11 43 12 101 13
REMARK SMILES IDX 44 14 100 15 45 16 46 17 47 18 94 19 48 20 99 21 93 22 95 23
REMARK SMILES IDX 49 24 98 25 92 26 91 27 50 29 80 30 61 31 79 32 62 33 65 34
REMARK SMILES IDX 78 35 96 36 63 37 64 38 77 40 97 41 66 42 51 43 52 44 60 45
REMARK SMILES IDX 53 46 59 47 54 48 55 49 56 50 57 51 58 52 81 53 82 54 90 55
REMARK SMILES IDX 83 56 89 57 84 58 85 59 86 60 87 61 88 62 67 63 68 64 76 65
REMARK SMILES IDX 69 66 75 67 70 68 71 69 72 70 73 71 74 72 11 73 12 74 13 75
REMARK SMILES IDX 14 76 15 77 16 78 17 79 18 80 19 81 25 82 20 83 23 84 21 85
REMARK SMILES IDX 22 86 24 87 26 88 27 90 28 91 29 92 30 93 31 95 32 96 33 97
REMARK SMILES IDX 41 98 34 99 36 100 40 101 35 102 37 103 39 104 38 105
REMARK H PARENT 95 28 65 39 26 89 29 94
REMARK Flexibility Score: inf
ROOT
ATOM      1  C   UNL A   1      40.840  20.462  27.298  1.00  0.00     0.188 C 
ENDROOT
BRANCH   1   2
ATOM      2  O   UNL A   1      41.121  19.503  26.281  1.00  0.00    -0.377 OA
BRANCH   2   3
ATOM      3  C   UNL A   1      42.437  19.579  25.732  1.00  0.00     0.188 C 
BRANCH   3   4
ATOM      4  C   UNL A   1      43.248  18.306  25.991  1.00  0.00     0.188 C 
BRANCH   4   5
ATOM      5  O   UNL A   1      44.281  18.193  24.999  1.00  0.00    -0.376 OA
BRANCH   5   6
ATOM      6  C   UNL A   1      45.490  18.872  25.336  1.00  0.00     0.202 C 
BRANCH   6   7
ATOM      7  C   UNL A   1      45.706  20.122  24.479  1.00  0.00     0.261 C 
BRANCH   7   8
ATOM      8  O   UNL A   1      45.425  21.311  25.240  1.00  0.00    -0.460 OA
BRANCH   8   9
ATOM      9  C   UNL A   1      44.552  22.306  24.938  1.00  0.00     0.338 C 
ATOM     10  O   UNL A   1      43.977  22.271  23.850  1.00  0.00    -0.246 OA
BRANCH   9  11
ATOM     11  C   UNL A   1      44.164  23.385  25.898  1.00  0.00     0.060 A 
ATOM     12  C   UNL A   1      44.369  24.754  25.713  1.00  0.00     0.016 A 
ATOM     13  C   UNL A   1      43.492  22.971  27.063  1.00  0.00     0.016 A 
ATOM     14  C   UNL A   1      44.047  25.672  26.711  1.00  0.00     0.010 A 
ATOM     15  C   UNL A   1      43.120  23.892  28.048  1.00  0.00     0.010 A 
ATOM     16  C   UNL A   1      43.448  25.243  27.896  1.00  0.00    -0.014 A 
BRANCH  16  17
ATOM     17  C   UNL A   1      43.318  26.196  29.021  1.00  0.00     0.031 A 
ATOM     18  C   UNL A   1      44.456  26.305  29.998  1.00  0.00     0.074 A 
ATOM     19  C   UNL A   1      42.261  27.025  29.097  1.00  0.00     0.049 A 
ATOM     20  N   UNL A   1      44.560  27.047  31.069  1.00  0.00    -0.248 NA
ATOM     21  C   UNL A   1      45.642  25.474  29.726  1.00  0.00     0.031 C 
ATOM     22  C   UNL A   1      41.146  27.066  28.148  1.00  0.00     0.029 A 
ATOM     23  N   UNL A   1      41.968  28.014  29.999  1.00  0.00    -0.354 N 
ATOM     24  C   UNL A   1      45.810  26.761  31.604  1.00  0.00     0.074 A 
ATOM     25  C   UNL A   1      46.428  25.772  30.748  1.00  0.00     0.031 C 
ATOM     26  C   UNL A   1      40.308  28.054  28.501  1.00  0.00     0.029 A 
ATOM     27  C   UNL A   1      40.797  28.682  29.725  1.00  0.00     0.049 A 
ATOM     28  H   UNL A   1      42.541  28.227  30.771  1.00  0.00     0.167 HD
ATOM     29  C   UNL A   1      46.393  27.272  32.713  1.00  0.00     0.031 A 
ATOM     30  C   UNL A   1      40.187  29.676  30.401  1.00  0.00     0.031 A 
ATOM     31  C   UNL A   1      45.763  28.239  33.567  1.00  0.00     0.049 A 
ATOM     32  C   UNL A   1      40.825  30.183  31.667  1.00  0.00     0.074 A 
ATOM     33  C   UNL A   1      46.203  28.747  34.775  1.00  0.00     0.029 A 
ATOM     34  N   UNL A   1      44.552  28.854  33.287  1.00  0.00    -0.354 N 
ATOM     35  N   UNL A   1      41.968  29.833  32.211  1.00  0.00    -0.248 NA
ATOM     36  C   UNL A   1      40.086  31.208  32.417  1.00  0.00     0.031 C 
ATOM     37  C   UNL A   1      45.245  29.658  35.237  1.00  0.00     0.029 A 
ATOM     38  C   UNL A   1      44.227  29.739  34.298  1.00  0.00     0.049 A 
ATOM     39  H   UNL A   1      44.004  28.685  32.487  1.00  0.00     0.167 HD
ATOM     40  C   UNL A   1      42.079  30.587  33.374  1.00  0.00     0.074 A 
ATOM     41  C   UNL A   1      40.908  31.439  33.433  1.00  0.00     0.031 C 
ATOM     42  C   UNL A   1      43.049  30.566  34.321  1.00  0.00     0.031 A 
BRANCH  29  43
ATOM     43  C   UNL A   1      47.750  26.738  33.075  1.00  0.00    -0.014 A 
ATOM     44  C   UNL A   1      48.919  27.318  32.549  1.00  0.00     0.010 A 
ATOM     45  C   UNL A   1      47.855  25.617  33.917  1.00  0.00     0.010 A 
ATOM     46  C   UNL A   1      50.169  26.756  32.825  1.00  0.00     0.020 A 
ATOM     47  C   UNL A   1      49.104  25.063  34.208  1.00  0.00     0.020 A 
ATOM     48  C   UNL A   1      50.252  25.624  33.642  1.00  0.00     0.054 A 
BRANCH  48  49
ATOM     49  S   UNL A   1      51.882  24.895  33.966  1.00  0.00     0.124 S 
ATOM     50  O   UNL A   1      52.015  25.089  35.408  1.00  0.00    -0.237 OA
ATOM     51  O   UNL A   1      51.709  23.511  33.533  1.00  0.00    -0.237 OA
ATOM     52  O   UNL A   1      52.788  25.693  33.144  1.00  0.00    -0.744 OA
ENDBRANCH  48  49
ENDBRANCH  29  43
BRANCH  30  53
ATOM     53  C   UNL A   1      38.881  30.216  29.931  1.00  0.00    -0.014 A 
ATOM     54  C   UNL A   1      38.817  31.404  29.182  1.00  0.00     0.010 A 
ATOM     55  C   UNL A   1      37.684  29.549  30.251  1.00  0.00     0.010 A 
ATOM     56  C   UNL A   1      37.582  31.925  28.780  1.00  0.00     0.020 A 
ATOM     57  C   UNL A   1      36.450  30.052  29.830  1.00  0.00     0.020 A 
ATOM     58  C   UNL A   1      36.405  31.248  29.110  1.00  0.00     0.054 A 
BRANCH  58  59
ATOM     59  S   UNL A   1      34.810  31.908  28.549  1.00  0.00     0.124 S 
ATOM     60  O   UNL A   1      35.225  32.984  27.656  1.00  0.00    -0.237 OA
ATOM     61  O   UNL A   1      34.190  30.753  27.903  1.00  0.00    -0.237 OA
ATOM     62  O   UNL A   1      34.166  32.334  29.790  1.00  0.00    -0.744 OA
ENDBRANCH  58  59
ENDBRANCH  30  53
BRANCH  42  63
ATOM     63  C   UNL A   1      42.874  31.489  35.492  1.00  0.00    -0.014 A 
ATOM     64  C   UNL A   1      43.365  32.806  35.442  1.00  0.00     0.010 A 
ATOM     65  C   UNL A   1      42.174  31.053  36.629  1.00  0.00     0.010 A 
ATOM     66  C   UNL A   1      43.181  33.665  36.526  1.00  0.00     0.020 A 
ATOM     67  C   UNL A   1      41.975  31.915  37.709  1.00  0.00     0.020 A 
ATOM     68  C   UNL A   1      42.493  33.212  37.656  1.00  0.00     0.054 A 
BRANCH  68  69
ATOM     69  S   UNL A   1      42.227  34.354  39.040  1.00  0.00     0.124 S 
ATOM     70  O   UNL A   1      41.498  33.515  39.987  1.00  0.00    -0.237 OA
ATOM     71  O   UNL A   1      43.589  34.711  39.434  1.00  0.00    -0.237 OA
ATOM     72  O   UNL A   1      41.455  35.441  38.443  1.00  0.00    -0.744 OA
ENDBRANCH  68  69
ENDBRANCH  42  63
ENDBRANCH  16  17
ENDBRANCH   9  11
ENDBRANCH   8   9
ENDBRANCH   7   8
ENDBRANCH   6   7
ENDBRANCH   5   6
ENDBRANCH   4   5
ENDBRANCH   3   4
ENDBRANCH   2   3
ENDBRANCH   1   2
BRANCH   1  73
ATOM     73  C   UNL A   1      39.992  21.657  26.870  1.00  0.00     0.188 C 
BRANCH  73  74
ATOM     74  O   UNL A   1      39.329  21.415  25.632  1.00  0.00    -0.376 OA
BRANCH  74  75
ATOM     75  C   UNL A   1      38.011  21.958  25.545  1.00  0.00     0.202 C 
BRANCH  75  76
ATOM     76  C   UNL A   1      36.966  20.929  25.109  1.00  0.00     0.261 C 
BRANCH  76  77
ATOM     77  O   UNL A   1      35.620  21.155  25.581  1.00  0.00    -0.460 OA
BRANCH  77  78
ATOM     78  C   UNL A   1      34.695  21.591  24.692  1.00  0.00     0.340 C 
ATOM     79  O   UNL A   1      34.803  22.605  24.016  1.00  0.00    -0.246 OA
BRANCH  78  80
ATOM     80  C   UNL A   1      33.341  20.493  24.546  1.00  0.00     0.086 A 
ATOM     81  C   UNL A   1      33.236  18.478  24.869  1.00  0.00     0.038 A 
ATOM     82  C   UNL A   1      32.466  21.392  24.516  1.00  0.00     0.074 A 
ATOM     83  C   UNL A   1      32.497  17.438  25.089  1.00  0.00     0.043 A 
ATOM     84  C   UNL A   1      32.439  20.336  23.799  1.00  0.00     0.066 A 
ATOM     85  Cl  UNL A   1      32.840  15.789  24.994  1.00  0.00    -0.084 Cl
ATOM     86  C   UNL A   1      32.446  18.335  24.170  1.00  0.00     0.043 A 
ATOM     87  Cl  UNL A   1      31.978  21.332  21.987  1.00  0.00    -0.082 Cl
BRANCH  82  88
ATOM     88  N   UNL A   1      31.879  22.603  24.490  1.00  0.00    -0.330 N 
ATOM     89  H   UNL A   1      31.726  23.051  23.626  1.00  0.00     0.169 HD
BRANCH  88  90
ATOM     90  C   UNL A   1      31.493  23.216  25.650  1.00  0.00     0.177 C 
ATOM     91  S   UNL A   1      30.066  22.751  26.382  1.00  0.00    -0.040 S 
BRANCH  90  92
ATOM     92  N   UNL A   1      32.224  24.272  26.210  1.00  0.00    -0.299 N 
ATOM     93  C   UNL A   1      32.647  25.599  25.938  1.00  0.00     0.258 C 
ATOM     94  H   UNL A   1      32.557  24.003  27.096  1.00  0.00     0.172 HD
ATOM     95  O   UNL A   1      33.262  26.266  26.762  1.00  0.00    -0.269 OA
BRANCH  93  96
ATOM     96  C   UNL A   1      32.400  26.172  24.599  1.00  0.00     0.048 A 
ATOM     97  C   UNL A   1      33.925  27.024  23.695  1.00  0.00     0.014 A 
ATOM     98  C   UNL A   1      30.485  26.630  24.299  1.00  0.00    -0.006 A 
ATOM     99  C   UNL A   1      33.735  28.480  22.372  1.00  0.00     0.001 A 
ATOM    100  C   UNL A   1      30.280  28.131  22.997  1.00  0.00    -0.018 A 
ATOM    101  C   UNL A   1      29.278  26.059  24.762  1.00  0.00     0.009 A 
ATOM    102  C   UNL A   1      31.816  28.991  22.107  1.00  0.00     0.009 A 
ATOM    103  C   UNL A   1      28.946  28.426  22.720  1.00  0.00     0.009 A 
ATOM    104  C   UNL A   1      28.061  26.576  24.265  1.00  0.00     0.001 A 
ATOM    105  C   UNL A   1      27.911  27.669  23.331  1.00  0.00     0.001 A 
ENDBRANCH  93  96
ENDBRANCH  90  92
ENDBRANCH  88  90
ENDBRANCH  82  88
ENDBRANCH  78  80
ENDBRANCH  77  78
ENDBRANCH  76  77
ENDBRANCH  75  76
ENDBRANCH  74  75
ENDBRANCH  73  74
ENDBRANCH   1  73
TORSDOF 27
ENDMDL
MODEL 3
REMARK VINA RESULT:     -10.4      5.061      7.364
REMARK SMILES O=C(OCCOCCOCCOCCOC(=O)c1cc(Cl)cc(Cl)c1NC(=S)NC(=O)c1cccc2ccccc12)c1ccc(-c2c3nc(c(-c4ccc(S(=O)(=O)[O-])cc4)c4ccc([nH]4)c(-c4ccc(S(=O)(=O)[O-])cc4)c4nc(c(-c5ccc(S(=O)(=O)[O-])cc5)c5ccc2[nH]5)C=C4)C=C3)cc1
REMARK SMILES IDX 10 1 9 2 8 3 7 4 6 5 5 6 4 7 3 8 2 9 1 10 42 11 43 12 101 13
REMARK SMILES IDX 44 14 100 15 45 16 46 17 47 18 94 19 48 20 99 21 93 22 95 23
REMARK SMILES IDX 49 24 98 25 92 26 91 27 50 29 80 30 61 31 79 32 62 33 65 34
REMARK SMILES IDX 78 35 96 36 63 37 64 38 77 40 97 41 66 42 51 43 52 44 60 45
REMARK SMILES IDX 53 46 59 47 54 48 55 49 56 50 57 51 58 52 81 53 82 54 90 55
REMARK SMILES IDX 83 56 89 57 84 58 85 59 86 60 87 61 88 62 67 63 68 64 76 65
REMARK SMILES IDX 69 66 75 67 70 68 71 69 72 70 73 71 74 72 11 73 12 74 13 75
REMARK SMILES IDX 14 76 15 77 16 78 17 79 18 80 19 81 25 82 20 83 23 84 21 85
REMARK SMILES IDX 22 86 24 87 26 88 27 90 28 91 29 92 30 93 31 95 32 96 33 97
REMARK SMILES IDX 41 98 34 99 36 100 40 101 35 102 37 103 39 104 38 105
REMARK H PARENT 95 28 65 39 26 89 29 94
REMARK Flexibility Score: inf
ROOT
ATOM      1  C   UNL A   1      40.825  21.667  27.629  1.00  0.00     0.188 C 
ENDROOT
BRANCH   1   2
ATOM      2  O   UNL A   1      40.851  20.490  26.825  1.00  0.00    -0.377 OA
BRANCH   2   3
ATOM      3  C   UNL A   1      42.065  20.284  26.101  1.00  0.00     0.188 C 
BRANCH   3   4
ATOM      4  C   UNL A   1      42.703  18.927  26.411  1.00  0.00     0.188 C 
BRANCH   4   5
ATOM      5  O   UNL A   1      43.380  18.444  25.240  1.00  0.00    -0.376 OA
BRANCH   5   6
ATOM      6  C   UNL A   1      44.793  18.641  25.260  1.00  0.00     0.202 C 
BRANCH   6   7
ATOM      7  C   UNL A   1      45.292  19.364  24.005  1.00  0.00     0.261 C 
BRANCH   7   8
ATOM      8  O   UNL A   1      45.794  20.670  24.341  1.00  0.00    -0.460 OA
BRANCH   8   9
ATOM      9  C   UNL A   1      45.125  21.851  24.313  1.00  0.00     0.338 C 
ATOM     10  O   UNL A   1      44.223  21.994  23.488  1.00  0.00    -0.246 OA
BRANCH   9  11
ATOM     11  C   UNL A   1      45.346  22.950  25.304  1.00  0.00     0.060 A 
ATOM     12  C   UNL A   1      45.610  24.286  24.994  1.00  0.00     0.016 A 
ATOM     13  C   UNL A   1      45.227  22.599  26.661  1.00  0.00     0.016 A 
ATOM     14  C   UNL A   1      45.887  25.215  25.995  1.00  0.00     0.010 A 
ATOM     15  C   UNL A   1      45.455  23.539  27.672  1.00  0.00     0.010 A 
ATOM     16  C   UNL A   1      45.840  24.841  27.338  1.00  0.00    -0.014 A 
BRANCH  16  17
ATOM     17  C   UNL A   1      46.348  25.779  28.364  1.00  0.00     0.031 A 
ATOM     18  C   UNL A   1      45.353  26.482  29.245  1.00  0.00     0.074 A 
ATOM     19  C   UNL A   1      47.671  25.906  28.578  1.00  0.00     0.049 A 
ATOM     20  N   UNL A   1      45.558  27.360  30.190  1.00  0.00    -0.248 NA
ATOM     21  C   UNL A   1      43.934  26.140  29.040  1.00  0.00     0.031 C 
ATOM     22  C   UNL A   1      48.721  25.198  27.842  1.00  0.00     0.029 A 
ATOM     23  N   UNL A   1      48.356  26.654  29.500  1.00  0.00    -0.354 N 
ATOM     24  C   UNL A   1      44.300  27.686  30.679  1.00  0.00     0.074 A 
ATOM     25  C   UNL A   1      43.333  26.921  29.924  1.00  0.00     0.031 C 
ATOM     26  C   UNL A   1      49.915  25.522  28.364  1.00  0.00     0.029 A 
ATOM     27  C   UNL A   1      49.720  26.494  29.436  1.00  0.00     0.049 A 
ATOM     28  H   UNL A   1      47.913  27.249  30.147  1.00  0.00     0.167 HD
ATOM     29  C   UNL A   1      43.975  28.551  31.668  1.00  0.00     0.031 A 
ATOM     30  C   UNL A   1      50.697  27.083  30.153  1.00  0.00     0.031 A 
ATOM     31  C   UNL A   1      44.941  29.322  32.399  1.00  0.00     0.049 A 
ATOM     32  C   UNL A   1      50.311  28.090  31.205  1.00  0.00     0.074 A 
ATOM     33  C   UNL A   1      44.729  30.310  33.343  1.00  0.00     0.029 A 
ATOM     34  N   UNL A   1      46.315  29.174  32.270  1.00  0.00    -0.354 N 
ATOM     35  N   UNL A   1      49.111  28.458  31.592  1.00  0.00    -0.248 NA
ATOM     36  C   UNL A   1      51.408  28.770  31.906  1.00  0.00     0.031 C 
ATOM     37  C   UNL A   1      45.979  30.775  33.770  1.00  0.00     0.029 A 
ATOM     38  C   UNL A   1      46.966  30.051  33.117  1.00  0.00     0.049 A 
ATOM     39  H   UNL A   1      46.759  28.539  31.664  1.00  0.00     0.167 HD
ATOM     40  C   UNL A   1      49.309  29.421  32.574  1.00  0.00     0.074 A 
ATOM     41  C   UNL A   1      50.743  29.550  32.750  1.00  0.00     0.031 C 
ATOM     42  C   UNL A   1      48.394  30.151  33.258  1.00  0.00     0.031 A 
BRANCH  29  43
ATOM     43  C   UNL A   1      42.512  28.735  31.956  1.00  0.00    -0.014 A 
ATOM     44  C   UNL A   1      41.741  29.658  31.226  1.00  0.00     0.010 A 
ATOM     45  C   UNL A   1      41.911  28.007  32.998  1.00  0.00     0.010 A 
ATOM     46  C   UNL A   1      40.403  29.880  31.562  1.00  0.00     0.020 A 
ATOM     47  C   UNL A   1      40.569  28.216  33.327  1.00  0.00     0.020 A 
ATOM     48  C   UNL A   1      39.829  29.168  32.620  1.00  0.00     0.054 A 
BRANCH  48  49
ATOM     49  S   UNL A   1      38.098  29.492  33.058  1.00  0.00     0.124 S 
ATOM     50  O   UNL A   1      37.524  28.149  33.020  1.00  0.00    -0.237 OA
ATOM     51  O   UNL A   1      38.208  30.089  34.387  1.00  0.00    -0.237 OA
ATOM     52  O   UNL A   1      37.639  30.397  32.008  1.00  0.00    -0.744 OA
ENDBRANCH  48  49
ENDBRANCH  29  43
BRANCH  30  53
ATOM     53  C   UNL A   1      52.129  26.785  29.868  1.00  0.00    -0.014 A 
ATOM     54  C   UNL A   1      52.891  25.997  30.747  1.00  0.00     0.010 A 
ATOM     55  C   UNL A   1      52.743  27.308  28.715  1.00  0.00     0.010 A 
ATOM     56  C   UNL A   1      54.246  25.756  30.491  1.00  0.00     0.020 A 
ATOM     57  C   UNL A   1      54.089  27.048  28.442  1.00  0.00     0.020 A 
ATOM     58  C   UNL A   1      54.838  26.286  29.341  1.00  0.00     0.054 A 
BRANCH  58  59
ATOM     59  S   UNL A   1      56.585  25.934  28.995  1.00  0.00     0.124 S 
ATOM     60  O   UNL A   1      56.595  24.476  28.946  1.00  0.00    -0.237 OA
ATOM     61  O   UNL A   1      56.804  26.612  27.719  1.00  0.00    -0.237 OA
ATOM     62  O   UNL A   1      57.282  26.531  30.132  1.00  0.00    -0.744 OA
ENDBRANCH  58  59
ENDBRANCH  30  53
BRANCH  42  63
ATOM     63  C   UNL A   1      48.924  31.147  34.249  1.00  0.00    -0.014 A 
ATOM     64  C   UNL A   1      49.296  32.437  33.834  1.00  0.00     0.010 A 
ATOM     65  C   UNL A   1      49.008  30.804  35.609  1.00  0.00     0.010 A 
ATOM     66  C   UNL A   1      49.770  33.364  34.763  1.00  0.00     0.020 A 
ATOM     67  C   UNL A   1      49.466  31.735  36.544  1.00  0.00     0.020 A 
ATOM     68  C   UNL A   1      49.858  33.005  36.112  1.00  0.00     0.054 A 
BRANCH  68  69
ATOM     69  S   UNL A   1      50.437  34.235  37.314  1.00  0.00     0.124 S 
ATOM     70  O   UNL A   1      50.553  35.433  36.487  1.00  0.00    -0.237 OA
ATOM     71  O   UNL A   1      49.362  34.254  38.304  1.00  0.00    -0.237 OA
ATOM     72  O   UNL A   1      51.702  33.678  37.789  1.00  0.00    -0.744 OA
ENDBRANCH  68  69
ENDBRANCH  42  63
ENDBRANCH  16  17
ENDBRANCH   9  11
ENDBRANCH   8   9
ENDBRANCH   7   8
ENDBRANCH   6   7
ENDBRANCH   5   6
ENDBRANCH   4   5
ENDBRANCH   3   4
ENDBRANCH   2   3
ENDBRANCH   1   2
BRANCH   1  73
ATOM     73  C   UNL A   1      40.026  22.840  27.066  1.00  0.00     0.188 C 
BRANCH  73  74
ATOM     74  O   UNL A   1      39.346  22.485  25.866  1.00  0.00    -0.376 OA
BRANCH  74  75
ATOM     75  C   UNL A   1      37.947  22.243  26.022  1.00  0.00     0.202 C 
BRANCH  75  76
ATOM     76  C   UNL A   1      37.409  21.188  25.052  1.00  0.00     0.261 C 
BRANCH  76  77
ATOM     77  O   UNL A   1      36.065  20.724  25.304  1.00  0.00    -0.460 OA
BRANCH  77  78
ATOM     78  C   UNL A   1      35.053  21.272  24.588  1.00  0.00     0.340 C 
ATOM     79  O   UNL A   1      35.145  22.299  23.929  1.00  0.00    -0.246 OA
BRANCH  78  80
ATOM     80  C   UNL A   1      33.600  20.301  24.635  1.00  0.00     0.086 A 
ATOM     81  C   UNL A   1      33.362  18.298  24.959  1.00  0.00     0.038 A 
ATOM     82  C   UNL A   1      32.814  21.274  24.737  1.00  0.00     0.074 A 
ATOM     83  C   UNL A   1      32.573  17.322  25.279  1.00  0.00     0.043 A 
ATOM     84  C   UNL A   1      32.588  20.238  24.027  1.00  0.00     0.066 A 
ATOM     85  Cl  UNL A   1      32.748  15.652  25.126  1.00  0.00    -0.084 Cl
ATOM     86  C   UNL A   1      32.469  18.237  24.383  1.00  0.00     0.043 A 
ATOM     87  Cl  UNL A   1      31.961  21.303  22.306  1.00  0.00    -0.082 Cl
BRANCH  82  88
ATOM     88  N   UNL A   1      32.341  22.532  24.803  1.00  0.00    -0.330 N 
ATOM     89  H   UNL A   1      32.251  23.062  23.979  1.00  0.00     0.169 HD
BRANCH  88  90
ATOM     90  C   UNL A   1      31.982  23.080  26.004  1.00  0.00     0.177 C 
ATOM     91  S   UNL A   1      32.863  22.697  27.371  1.00  0.00    -0.040 S 
BRANCH  90  92
ATOM     92  N   UNL A   1      30.857  23.903  26.138  1.00  0.00    -0.299 N 
ATOM     93  C   UNL A   1      30.471  25.269  26.141  1.00  0.00     0.258 C 
ATOM     94  H   UNL A   1      30.059  23.343  26.279  1.00  0.00     0.172 HD
ATOM     95  O   UNL A   1      29.298  25.612  26.230  1.00  0.00    -0.269 OA
BRANCH  93  96
ATOM     96  C   UNL A   1      31.518  26.311  26.101  1.00  0.00     0.048 A 
ATOM     97  C   UNL A   1      31.450  27.700  27.492  1.00  0.00     0.014 A 
ATOM     98  C   UNL A   1      32.309  26.539  24.288  1.00  0.00    -0.006 A 
ATOM     99  C   UNL A   1      32.154  29.530  27.243  1.00  0.00     0.001 A 
ATOM    100  C   UNL A   1      32.985  28.398  24.006  1.00  0.00    -0.018 A 
ATOM    101  C   UNL A   1      32.545  25.640  23.224  1.00  0.00     0.009 A 
ATOM    102  C   UNL A   1      32.897  29.790  25.401  1.00  0.00     0.009 A 
ATOM    103  C   UNL A   1      33.603  28.565  22.768  1.00  0.00     0.009 A 
ATOM    104  C   UNL A   1      33.234  26.117  22.087  1.00  0.00     0.001 A 
ATOM    105  C   UNL A   1      33.714  27.465  21.877  1.00  0.00     0.001 A 
ENDBRANCH  93  96
ENDBRANCH  90  92
ENDBRANCH  88  90
ENDBRANCH  82  88
ENDBRANCH  78  80
ENDBRANCH  77  78
ENDBRANCH  76  77
ENDBRANCH  75  76
ENDBRANCH  74  75
ENDBRANCH  73  74
ENDBRANCH   1  73
TORSDOF 27
ENDMDL
