MODEL 1
REMARK VINA RESULT:      -7.5      0.000      0.000
REMARK SMILES C[C@@H]1[C@H](C(=O)OCCOCCOCCOCCOC(=O)c2ccc(-c3c4nc(c(-c5ccc(S(=O)(=O)[O-])cc5)c5ccc([nH]5)c(-c5ccc(S(=O)(=O)[O-])cc5)c5nc(c(-c6ccc(S(=O)(=O)[O-])cc6)c6ccc3[nH]6)C=C5)C=C4)cc2)CC[N@@H+]1[C@@H](C)c1cc(F)cc(F)c1
REMARK SMILES IDX 13 1 12 2 11 3 10 4 9 5 8 6 7 7 6 8 4 9 5 10 3 11 1 12 2 13
REMARK SMILES IDX 83 14 81 15 82 16 84 18 85 19 86 20 87 21 93 22 88 23 91 24
REMARK SMILES IDX 89 25 90 26 92 27 14 28 15 29 16 30 17 31 18 32 19 33 20 34
REMARK SMILES IDX 21 35 22 36 80 37 23 38 79 39 24 40 25 41 26 42 73 43 27 44
REMARK SMILES IDX 78 45 72 46 74 47 28 48 77 49 71 50 70 51 29 53 59 54 40 55
REMARK SMILES IDX 58 56 41 57 44 58 57 59 75 60 42 61 43 62 56 64 76 65 45 66
REMARK SMILES IDX 30 67 31 68 39 69 32 70 38 71 33 72 34 73 35 74 36 75 37 76
REMARK SMILES IDX 60 77 61 78 69 79 62 80 68 81 63 82 64 83 65 84 66 85 67 86
REMARK SMILES IDX 46 87 47 88 55 89 48 90 54 91 49 92 50 93 51 94 52 95 53 96
REMARK H PARENT 83 17 74 52 44 63
REMARK Flexibility Score: inf
ROOT
ATOM      1  C   UNL A   1      35.876  32.326  33.004  1.00  0.00     0.188 C 
ENDROOT
BRANCH   1   2
ATOM      2  O   UNL A   1      37.269  32.152  33.236  1.00  0.00    -0.377 OA
BRANCH   2   3
ATOM      3  C   UNL A   1      37.727  31.482  34.407  1.00  0.00     0.188 C 
BRANCH   3   4
ATOM      4  C   UNL A   1      39.162  31.626  34.958  1.00  0.00     0.188 C 
BRANCH   4   5
ATOM      5  O   UNL A   1      39.503  32.926  35.381  1.00  0.00    -0.376 OA
BRANCH   5   6
ATOM      6  C   UNL A   1      40.794  33.443  35.140  1.00  0.00     0.202 C 
BRANCH   6   7
ATOM      7  C   UNL A   1      41.884  33.394  36.221  1.00  0.00     0.261 C 
BRANCH   7   8
ATOM      8  O   UNL A   1      42.840  32.336  36.105  1.00  0.00    -0.463 OA
BRANCH   8   9
ATOM      9  C   UNL A   1      42.636  31.225  36.836  1.00  0.00     0.315 C 
ATOM     10  O   UNL A   1      41.839  31.163  37.769  1.00  0.00    -0.252 OA
BRANCH   9  11
ATOM     11  C   UNL A   1      43.452  30.017  36.397  1.00  0.00     0.162 C 
ATOM     12  C   UNL A   1      41.393  28.481  35.895  1.00  0.00     0.076 C 
ATOM     13  C   UNL A   1      42.885  28.595  36.172  1.00  0.00     0.196 C 
ATOM     14  N   UNL A   1      43.770  28.011  35.137  1.00  0.00    -0.326 N 
ATOM     15  C   UNL A   1      44.094  30.348  35.060  1.00  0.00     0.083 C 
ATOM     16  C   UNL A   1      44.651  29.028  34.584  1.00  0.00     0.264 C 
ATOM     17  H   UNL A   1      44.325  27.344  35.672  1.00  0.00     0.348 HD
BRANCH  14  18
ATOM     18  C   UNL A   1      43.331  26.918  34.259  1.00  0.00     0.212 C 
ATOM     19  C   UNL A   1      43.508  27.163  32.745  1.00  0.00     0.081 C 
BRANCH  18  20
ATOM     20  C   UNL A   1      43.950  25.573  34.671  1.00  0.00     0.015 A 
ATOM     21  C   UNL A   1      44.297  24.586  33.728  1.00  0.00     0.049 A 
ATOM     22  C   UNL A   1      44.177  25.289  36.028  1.00  0.00     0.049 A 
ATOM     23  C   UNL A   1      44.781  23.349  34.135  1.00  0.00     0.126 A 
ATOM     24  C   UNL A   1      44.682  24.046  36.411  1.00  0.00     0.126 A 
ATOM     25  F   UNL A   1      45.058  22.418  33.212  1.00  0.00    -0.207 F 
ATOM     26  C   UNL A   1      44.972  23.063  35.475  1.00  0.00     0.078 A 
ATOM     27  F   UNL A   1      44.884  23.790  37.711  1.00  0.00    -0.207 F 
ENDBRANCH  18  20
ENDBRANCH  14  18
ENDBRANCH   9  11
ENDBRANCH   8   9
ENDBRANCH   7   8
ENDBRANCH   6   7
ENDBRANCH   5   6
ENDBRANCH   4   5
ENDBRANCH   3   4
ENDBRANCH   2   3
ENDBRANCH   1   2
BRANCH   1  28
ATOM     28  C   UNL A   1      35.470  33.512  32.116  1.00  0.00     0.188 C 
BRANCH  28  29
ATOM     29  O   UNL A   1      34.259  33.281  31.412  1.00  0.00    -0.376 OA
BRANCH  29  30
ATOM     30  C   UNL A   1      34.009  34.106  30.281  1.00  0.00     0.202 C 
BRANCH  30  31
ATOM     31  C   UNL A   1      34.011  33.494  28.865  1.00  0.00     0.261 C 
BRANCH  31  32
ATOM     32  O   UNL A   1      35.107  32.632  28.509  1.00  0.00    -0.460 OA
BRANCH  32  33
ATOM     33  C   UNL A   1      34.857  31.325  28.304  1.00  0.00     0.338 C 
ATOM     34  O   UNL A   1      33.817  30.830  27.894  1.00  0.00    -0.246 OA
BRANCH  33  35
ATOM     35  C   UNL A   1      36.129  30.589  28.481  1.00  0.00     0.060 A 
ATOM     36  C   UNL A   1      36.535  30.221  29.771  1.00  0.00     0.016 A 
ATOM     37  C   UNL A   1      36.921  30.270  27.375  1.00  0.00     0.016 A 
ATOM     38  C   UNL A   1      37.756  29.571  29.961  1.00  0.00     0.010 A 
ATOM     39  C   UNL A   1      38.154  29.638  27.571  1.00  0.00     0.010 A 
ATOM     40  C   UNL A   1      38.596  29.321  28.869  1.00  0.00    -0.014 A 
BRANCH  40  41
ATOM     41  C   UNL A   1      40.009  28.927  29.102  1.00  0.00     0.031 A 
ATOM     42  C   UNL A   1      40.943  29.946  29.701  1.00  0.00     0.074 A 
ATOM     43  C   UNL A   1      40.453  27.687  28.822  1.00  0.00     0.049 A 
ATOM     44  N   UNL A   1      42.219  29.848  29.968  1.00  0.00    -0.248 NA
ATOM     45  C   UNL A   1      40.354  31.252  30.046  1.00  0.00     0.031 C 
ATOM     46  C   UNL A   1      39.640  26.594  28.292  1.00  0.00     0.029 A 
ATOM     47  N   UNL A   1      41.708  27.144  28.947  1.00  0.00    -0.354 N 
ATOM     48  C   UNL A   1      42.588  31.079  30.499  1.00  0.00     0.074 A 
ATOM     49  C   UNL A   1      41.410  31.916  30.491  1.00  0.00     0.031 C 
ATOM     50  C   UNL A   1      40.420  25.510  28.130  1.00  0.00     0.029 A 
ATOM     51  C   UNL A   1      41.794  25.843  28.508  1.00  0.00     0.049 A 
ATOM     52  H   UNL A   1      42.476  27.638  29.316  1.00  0.00     0.167 HD
ATOM     53  C   UNL A   1      43.798  31.476  30.960  1.00  0.00     0.031 A 
ATOM     54  C   UNL A   1      42.860  25.024  28.403  1.00  0.00     0.031 A 
ATOM     55  C   UNL A   1      44.974  30.647  30.953  1.00  0.00     0.049 A 
ATOM     56  C   UNL A   1      44.217  25.517  28.840  1.00  0.00     0.074 A 
ATOM     57  C   UNL A   1      46.245  30.954  31.406  1.00  0.00     0.029 A 
ATOM     58  N   UNL A   1      45.027  29.353  30.458  1.00  0.00    -0.354 N 
ATOM     59  N   UNL A   1      44.546  26.676  29.361  1.00  0.00    -0.248 NA
ATOM     60  C   UNL A   1      45.345  24.589  28.681  1.00  0.00     0.031 C 
ATOM     61  C   UNL A   1      47.081  29.870  31.123  1.00  0.00     0.029 A 
ATOM     62  C   UNL A   1      46.316  28.858  30.566  1.00  0.00     0.049 A 
ATOM     63  H   UNL A   1      44.261  28.858  30.086  1.00  0.00     0.167 HD
ATOM     64  C   UNL A   1      45.912  26.601  29.624  1.00  0.00     0.074 A 
ATOM     65  C   UNL A   1      46.342  25.280  29.216  1.00  0.00     0.031 C 
ATOM     66  C   UNL A   1      46.733  27.540  30.158  1.00  0.00     0.031 A 
BRANCH  53  67
ATOM     67  C   UNL A   1      43.920  32.888  31.473  1.00  0.00    -0.014 A 
ATOM     68  C   UNL A   1      43.688  33.201  32.825  1.00  0.00     0.010 A 
ATOM     69  C   UNL A   1      44.311  33.913  30.592  1.00  0.00     0.010 A 
ATOM     70  C   UNL A   1      43.809  34.518  33.278  1.00  0.00     0.020 A 
ATOM     71  C   UNL A   1      44.465  35.227  31.047  1.00  0.00     0.020 A 
ATOM     72  C   UNL A   1      44.196  35.522  32.385  1.00  0.00     0.054 A 
BRANCH  72  73
ATOM     73  S   UNL A   1      44.372  37.217  33.008  1.00  0.00     0.124 S 
ATOM     74  O   UNL A   1      45.817  37.417  32.933  1.00  0.00    -0.237 OA
ATOM     75  O   UNL A   1      43.580  37.991  32.055  1.00  0.00    -0.237 OA
ATOM     76  O   UNL A   1      43.823  37.149  34.360  1.00  0.00    -0.744 OA
ENDBRANCH  72  73
ENDBRANCH  53  67
BRANCH  54  77
ATOM     77  C   UNL A   1      42.698  23.655  27.835  1.00  0.00    -0.014 A 
ATOM     78  C   UNL A   1      42.996  23.393  26.486  1.00  0.00     0.010 A 
ATOM     79  C   UNL A   1      42.232  22.602  28.645  1.00  0.00     0.010 A 
ATOM     80  C   UNL A   1      42.815  22.111  25.955  1.00  0.00     0.020 A 
ATOM     81  C   UNL A   1      42.082  21.313  28.127  1.00  0.00     0.020 A 
ATOM     82  C   UNL A   1      42.364  21.078  26.781  1.00  0.00     0.054 A 
BRANCH  82  83
ATOM     83  S   UNL A   1      42.190  19.412  26.084  1.00  0.00     0.124 S 
ATOM     84  O   UNL A   1      43.094  19.464  24.940  1.00  0.00    -0.237 OA
ATOM     85  O   UNL A   1      42.620  18.563  27.194  1.00  0.00    -0.237 OA
ATOM     86  O   UNL A   1      40.769  19.323  25.758  1.00  0.00    -0.744 OA
ENDBRANCH  82  83
ENDBRANCH  54  77
BRANCH  66  87
ATOM     87  C   UNL A   1      48.177  27.164  30.379  1.00  0.00    -0.014 A 
ATOM     88  C   UNL A   1      49.164  27.435  29.416  1.00  0.00     0.010 A 
ATOM     89  C   UNL A   1      48.559  26.582  31.603  1.00  0.00     0.010 A 
ATOM     90  C   UNL A   1      50.501  27.100  29.659  1.00  0.00     0.020 A 
ATOM     91  C   UNL A   1      49.897  26.275  31.863  1.00  0.00     0.020 A 
ATOM     92  C   UNL A   1      50.858  26.524  30.882  1.00  0.00     0.054 A 
BRANCH  92  93
ATOM     93  S   UNL A   1      52.604  26.137  31.187  1.00  0.00     0.124 S 
ATOM     94  O   UNL A   1      53.013  27.240  32.051  1.00  0.00    -0.237 OA
ATOM     95  O   UNL A   1      52.532  24.828  31.832  1.00  0.00    -0.237 OA
ATOM     96  O   UNL A   1      53.199  26.137  29.853  1.00  0.00    -0.744 OA
ENDBRANCH  92  93
ENDBRANCH  66  87
ENDBRANCH  40  41
ENDBRANCH  33  35
ENDBRANCH  32  33
ENDBRANCH  31  32
ENDBRANCH  30  31
ENDBRANCH  29  30
ENDBRANCH  28  29
ENDBRANCH   1  28
TORSDOF 25
ENDMDL
MODEL 2
REMARK VINA RESULT:      -7.3      1.454      2.159
REMARK SMILES C[C@@H]1[C@H](C(=O)OCCOCCOCCOCCOC(=O)c2ccc(-c3c4nc(c(-c5ccc(S(=O)(=O)[O-])cc5)c5ccc([nH]5)c(-c5ccc(S(=O)(=O)[O-])cc5)c5nc(c(-c6ccc(S(=O)(=O)[O-])cc6)c6ccc3[nH]6)C=C5)C=C4)cc2)CC[N@@H+]1[C@@H](C)c1cc(F)cc(F)c1
REMARK SMILES IDX 13 1 12 2 11 3 10 4 9 5 8 6 7 7 6 8 4 9 5 10 3 11 1 12 2 13
REMARK SMILES IDX 83 14 81 15 82 16 84 18 85 19 86 20 87 21 93 22 88 23 91 24
REMARK SMILES IDX 89 25 90 26 92 27 14 28 15 29 16 30 17 31 18 32 19 33 20 34
REMARK SMILES IDX 21 35 22 36 80 37 23 38 79 39 24 40 25 41 26 42 73 43 27 44
REMARK SMILES IDX 78 45 72 46 74 47 28 48 77 49 71 50 70 51 29 53 59 54 40 55
REMARK SMILES IDX 58 56 41 57 44 58 57 59 75 60 42 61 43 62 56 64 76 65 45 66
REMARK SMILES IDX 30 67 31 68 39 69 32 70 38 71 33 72 34 73 35 74 36 75 37 76
REMARK SMILES IDX 60 77 61 78 69 79 62 80 68 81 63 82 64 83 65 84 66 85 67 86
REMARK SMILES IDX 46 87 47 88 55 89 48 90 54 91 49 92 50 93 51 94 52 95 53 96
REMARK H PARENT 83 17 74 52 44 63
REMARK Flexibility Score: inf
ROOT
ATOM      1  C   UNL A   1      36.346  31.616  32.943  1.00  0.00     0.188 C 
ENDROOT
BRANCH   1   2
ATOM      2  O   UNL A   1      36.836  32.087  34.194  1.00  0.00    -0.377 OA
BRANCH   2   3
ATOM      3  C   UNL A   1      37.275  33.434  34.336  1.00  0.00     0.188 C 
BRANCH   3   4
ATOM      4  C   UNL A   1      38.641  33.820  34.944  1.00  0.00     0.188 C 
BRANCH   4   5
ATOM      5  O   UNL A   1      39.714  32.998  34.547  1.00  0.00    -0.376 OA
BRANCH   5   6
ATOM      6  C   UNL A   1      40.425  32.236  35.502  1.00  0.00     0.202 C 
BRANCH   6   7
ATOM      7  C   UNL A   1      39.857  30.919  36.048  1.00  0.00     0.261 C 
BRANCH   7   8
ATOM      8  O   UNL A   1      39.571  29.905  35.080  1.00  0.00    -0.463 OA
BRANCH   8   9
ATOM      9  C   UNL A   1      40.612  29.323  34.456  1.00  0.00     0.315 C 
ATOM     10  O   UNL A   1      40.643  29.107  33.247  1.00  0.00    -0.252 OA
BRANCH   9  11
ATOM     11  C   UNL A   1      41.783  28.974  35.363  1.00  0.00     0.162 C 
ATOM     12  C   UNL A   1      41.582  26.382  35.060  1.00  0.00     0.076 C 
ATOM     13  C   UNL A   1      42.121  27.552  35.869  1.00  0.00     0.196 C 
ATOM     14  N   UNL A   1      43.592  27.572  36.053  1.00  0.00    -0.326 N 
ATOM     15  C   UNL A   1      43.061  29.403  34.661  1.00  0.00     0.083 C 
ATOM     16  C   UNL A   1      44.161  28.788  35.493  1.00  0.00     0.264 C 
ATOM     17  H   UNL A   1      43.688  27.595  37.068  1.00  0.00     0.348 HD
BRANCH  14  18
ATOM     18  C   UNL A   1      44.401  26.346  36.020  1.00  0.00     0.212 C 
ATOM     19  C   UNL A   1      45.469  26.278  34.908  1.00  0.00     0.081 C 
BRANCH  18  20
ATOM     20  C   UNL A   1      45.021  26.036  37.392  1.00  0.00     0.015 A 
ATOM     21  C   UNL A   1      44.305  26.203  38.594  1.00  0.00     0.049 A 
ATOM     22  C   UNL A   1      46.347  25.582  37.478  1.00  0.00     0.049 A 
ATOM     23  C   UNL A   1      44.916  25.991  39.824  1.00  0.00     0.126 A 
ATOM     24  C   UNL A   1      46.933  25.358  38.724  1.00  0.00     0.126 A 
ATOM     25  F   UNL A   1      44.219  26.203  40.947  1.00  0.00    -0.207 F 
ATOM     26  C   UNL A   1      46.234  25.575  39.903  1.00  0.00     0.078 A 
ATOM     27  F   UNL A   1      48.202  24.933  38.788  1.00  0.00    -0.207 F 
ENDBRANCH  18  20
ENDBRANCH  14  18
ENDBRANCH   9  11
ENDBRANCH   8   9
ENDBRANCH   7   8
ENDBRANCH   6   7
ENDBRANCH   5   6
ENDBRANCH   4   5
ENDBRANCH   3   4
ENDBRANCH   2   3
ENDBRANCH   1   2
BRANCH   1  28
ATOM     28  C   UNL A   1      35.257  32.464  32.268  1.00  0.00     0.188 C 
BRANCH  28  29
ATOM     29  O   UNL A   1      35.770  33.651  31.682  1.00  0.00    -0.376 OA
BRANCH  29  30
ATOM     30  C   UNL A   1      35.362  33.934  30.349  1.00  0.00     0.202 C 
BRANCH  30  31
ATOM     31  C   UNL A   1      34.430  32.957  29.605  1.00  0.00     0.261 C 
BRANCH  31  32
ATOM     32  O   UNL A   1      34.886  32.417  28.352  1.00  0.00    -0.460 OA
BRANCH  32  33
ATOM     33  C   UNL A   1      34.671  31.112  28.097  1.00  0.00     0.338 C 
ATOM     34  O   UNL A   1      33.656  30.611  27.633  1.00  0.00    -0.246 OA
BRANCH  33  35
ATOM     35  C   UNL A   1      35.949  30.394  28.298  1.00  0.00     0.060 A 
ATOM     36  C   UNL A   1      36.217  29.804  29.541  1.00  0.00     0.016 A 
ATOM     37  C   UNL A   1      36.884  30.312  27.263  1.00  0.00     0.016 A 
ATOM     38  C   UNL A   1      37.439  29.168  29.765  1.00  0.00     0.010 A 
ATOM     39  C   UNL A   1      38.117  29.692  27.497  1.00  0.00     0.010 A 
ATOM     40  C   UNL A   1      38.416  29.151  28.761  1.00  0.00    -0.014 A 
BRANCH  40  41
ATOM     41  C   UNL A   1      39.810  28.763  29.098  1.00  0.00     0.031 A 
ATOM     42  C   UNL A   1      40.672  29.763  29.821  1.00  0.00     0.074 A 
ATOM     43  C   UNL A   1      40.296  27.544  28.800  1.00  0.00     0.049 A 
ATOM     44  N   UNL A   1      41.923  29.669  30.193  1.00  0.00    -0.248 NA
ATOM     45  C   UNL A   1      40.035  31.045  30.175  1.00  0.00     0.031 C 
ATOM     46  C   UNL A   1      39.548  26.468  28.152  1.00  0.00     0.029 A 
ATOM     47  N   UNL A   1      41.544  27.009  29.008  1.00  0.00    -0.354 N 
ATOM     48  C   UNL A   1      42.225  30.877  30.811  1.00  0.00     0.074 A 
ATOM     49  C   UNL A   1      41.038  31.699  30.739  1.00  0.00     0.031 C 
ATOM     50  C   UNL A   1      40.357  25.402  28.008  1.00  0.00     0.029 A 
ATOM     51  C   UNL A   1      41.688  25.732  28.519  1.00  0.00     0.049 A 
ATOM     52  H   UNL A   1      42.269  27.495  29.465  1.00  0.00     0.167 HD
ATOM     53  C   UNL A   1      43.384  31.266  31.393  1.00  0.00     0.031 A 
ATOM     54  C   UNL A   1      42.772  24.932  28.468  1.00  0.00     0.031 A 
ATOM     55  C   UNL A   1      44.569  30.452  31.449  1.00  0.00     0.049 A 
ATOM     56  C   UNL A   1      44.078  25.420  29.044  1.00  0.00     0.074 A 
ATOM     57  C   UNL A   1      45.791  30.753  32.024  1.00  0.00     0.029 A 
ATOM     58  N   UNL A   1      44.685  29.184  30.902  1.00  0.00    -0.354 N 
ATOM     59  N   UNL A   1      44.343  26.557  29.644  1.00  0.00    -0.248 NA
ATOM     60  C   UNL A   1      45.231  24.514  28.941  1.00  0.00     0.031 C 
ATOM     61  C   UNL A   1      46.666  29.693  31.765  1.00  0.00     0.029 A 
ATOM     62  C   UNL A   1      45.967  28.700  31.097  1.00  0.00     0.049 A 
ATOM     63  H   UNL A   1      43.962  28.698  30.443  1.00  0.00     0.167 HD
ATOM     64  C   UNL A   1      45.682  26.485  30.021  1.00  0.00     0.074 A 
ATOM     65  C   UNL A   1      46.166  25.190  29.591  1.00  0.00     0.031 C 
ATOM     66  C   UNL A   1      46.439  27.408  30.667  1.00  0.00     0.031 A 
BRANCH  53  67
ATOM     67  C   UNL A   1      43.439  32.654  31.980  1.00  0.00    -0.014 A 
ATOM     68  C   UNL A   1      43.349  32.869  33.366  1.00  0.00     0.010 A 
ATOM     69  C   UNL A   1      43.622  33.758  31.127  1.00  0.00     0.010 A 
ATOM     70  C   UNL A   1      43.404  34.165  33.887  1.00  0.00     0.020 A 
ATOM     71  C   UNL A   1      43.710  35.054  31.646  1.00  0.00     0.020 A 
ATOM     72  C   UNL A   1      43.584  35.249  33.023  1.00  0.00     0.054 A 
BRANCH  72  73
ATOM     73  S   UNL A   1      43.680  36.917  33.730  1.00  0.00     0.124 S 
ATOM     74  O   UNL A   1      42.280  37.193  34.042  1.00  0.00    -0.237 OA
ATOM     75  O   UNL A   1      44.556  36.725  34.882  1.00  0.00    -0.237 OA
ATOM     76  O   UNL A   1      44.244  37.721  32.648  1.00  0.00    -0.744 OA
ENDBRANCH  72  73
ENDBRANCH  53  67
BRANCH  54  77
ATOM     77  C   UNL A   1      42.681  23.589  27.826  1.00  0.00    -0.014 A 
ATOM     78  C   UNL A   1      42.963  23.423  26.458  1.00  0.00     0.010 A 
ATOM     79  C   UNL A   1      42.300  22.466  28.584  1.00  0.00     0.010 A 
ATOM     80  C   UNL A   1      42.849  22.164  25.858  1.00  0.00     0.020 A 
ATOM     81  C   UNL A   1      42.217  21.201  27.995  1.00  0.00     0.020 A 
ATOM     82  C   UNL A   1      42.481  21.060  26.632  1.00  0.00     0.054 A 
BRANCH  82  83
ATOM     83  S   UNL A   1      42.394  19.428  25.844  1.00  0.00     0.124 S 
ATOM     84  O   UNL A   1      42.800  18.543  26.931  1.00  0.00    -0.237 OA
ATOM     85  O   UNL A   1      40.989  19.346  25.450  1.00  0.00    -0.237 OA
ATOM     86  O   UNL A   1      43.338  19.533  24.735  1.00  0.00    -0.744 OA
ENDBRANCH  82  83
ENDBRANCH  54  77
BRANCH  66  87
ATOM     87  C   UNL A   1      47.864  27.038  30.995  1.00  0.00    -0.014 A 
ATOM     88  C   UNL A   1      48.172  26.146  32.037  1.00  0.00     0.010 A 
ATOM     89  C   UNL A   1      48.910  27.549  30.203  1.00  0.00     0.010 A 
ATOM     90  C   UNL A   1      49.501  25.800  32.302  1.00  0.00     0.020 A 
ATOM     91  C   UNL A   1      50.236  27.181  30.443  1.00  0.00     0.020 A 
ATOM     92  C   UNL A   1      50.525  26.318  31.502  1.00  0.00     0.054 A 
BRANCH  92  93
ATOM     93  S   UNL A   1      52.235  25.820  31.842  1.00  0.00     0.124 S 
ATOM     94  O   UNL A   1      52.063  24.457  32.335  1.00  0.00    -0.237 OA
ATOM     95  O   UNL A   1      52.868  25.939  30.530  1.00  0.00    -0.237 OA
ATOM     96  O   UNL A   1      52.689  26.789  32.836  1.00  0.00    -0.744 OA
ENDBRANCH  92  93
ENDBRANCH  66  87
ENDBRANCH  40  41
ENDBRANCH  33  35
ENDBRANCH  32  33
ENDBRANCH  31  32
ENDBRANCH  30  31
ENDBRANCH  29  30
ENDBRANCH  28  29
ENDBRANCH   1  28
TORSDOF 25
ENDMDL
MODEL 3
REMARK VINA RESULT:      -7.2      6.382     13.722
REMARK SMILES C[C@@H]1[C@H](C(=O)OCCOCCOCCOCCOC(=O)c2ccc(-c3c4nc(c(-c5ccc(S(=O)(=O)[O-])cc5)c5ccc([nH]5)c(-c5ccc(S(=O)(=O)[O-])cc5)c5nc(c(-c6ccc(S(=O)(=O)[O-])cc6)c6ccc3[nH]6)C=C5)C=C4)cc2)CC[N@@H+]1[C@@H](C)c1cc(F)cc(F)c1
REMARK SMILES IDX 13 1 12 2 11 3 10 4 9 5 8 6 7 7 6 8 4 9 5 10 3 11 1 12 2 13
REMARK SMILES IDX 83 14 81 15 82 16 84 18 85 19 86 20 87 21 93 22 88 23 91 24
REMARK SMILES IDX 89 25 90 26 92 27 14 28 15 29 16 30 17 31 18 32 19 33 20 34
REMARK SMILES IDX 21 35 22 36 80 37 23 38 79 39 24 40 25 41 26 42 73 43 27 44
REMARK SMILES IDX 78 45 72 46 74 47 28 48 77 49 71 50 70 51 29 53 59 54 40 55
REMARK SMILES IDX 58 56 41 57 44 58 57 59 75 60 42 61 43 62 56 64 76 65 45 66
REMARK SMILES IDX 30 67 31 68 39 69 32 70 38 71 33 72 34 73 35 74 36 75 37 76
REMARK SMILES IDX 60 77 61 78 69 79 62 80 68 81 63 82 64 83 65 84 66 85 67 86
REMARK SMILES IDX 46 87 47 88 55 89 48 90 54 91 49 92 50 93 51 94 52 95 53 96
REMARK H PARENT 83 17 74 52 44 63
REMARK Flexibility Score: inf
ROOT
ATOM      1  C   UNL A   1      35.932  21.651  26.494  1.00  0.00     0.188 C 
ENDROOT
BRANCH   1   2
ATOM      2  O   UNL A   1      34.665  21.239  25.996  1.00  0.00    -0.377 OA
BRANCH   2   3
ATOM      3  C   UNL A   1      34.580  20.313  24.916  1.00  0.00     0.188 C 
BRANCH   3   4
ATOM      4  C   UNL A   1      33.325  19.461  24.629  1.00  0.00     0.188 C 
BRANCH   4   5
ATOM      5  O   UNL A   1      32.102  20.143  24.788  1.00  0.00    -0.376 OA
BRANCH   5   6
ATOM      6  C   UNL A   1      31.882  21.381  24.145  1.00  0.00     0.202 C 
BRANCH   6   7
ATOM      7  C   UNL A   1      31.697  22.673  24.953  1.00  0.00     0.261 C 
BRANCH   7   8
ATOM      8  O   UNL A   1      31.985  23.894  24.266  1.00  0.00    -0.463 OA
BRANCH   8   9
ATOM      9  C   UNL A   1      31.073  24.348  23.386  1.00  0.00     0.315 C 
ATOM     10  O   UNL A   1      30.183  23.648  22.909  1.00  0.00    -0.252 OA
BRANCH   9  11
ATOM     11  C   UNL A   1      31.203  25.824  23.041  1.00  0.00     0.162 C 
ATOM     12  C   UNL A   1      29.105  26.596  24.401  1.00  0.00     0.076 C 
ATOM     13  C   UNL A   1      30.125  26.900  23.315  1.00  0.00     0.196 C 
ATOM     14  N   UNL A   1      30.899  28.150  23.502  1.00  0.00    -0.326 N 
ATOM     15  C   UNL A   1      32.424  26.367  23.765  1.00  0.00     0.083 C 
ATOM     16  C   UNL A   1      32.323  27.863  23.584  1.00  0.00     0.264 C 
ATOM     17  H   UNL A   1      30.710  28.659  22.638  1.00  0.00     0.348 HD
BRANCH  14  18
ATOM     18  C   UNL A   1      30.373  29.288  24.269  1.00  0.00     0.212 C 
ATOM     19  C   UNL A   1      31.391  30.014  25.174  1.00  0.00     0.081 C 
BRANCH  18  20
ATOM     20  C   UNL A   1      29.633  30.288  23.367  1.00  0.00     0.015 A 
ATOM     21  C   UNL A   1      29.508  31.650  23.702  1.00  0.00     0.049 A 
ATOM     22  C   UNL A   1      29.043  29.853  22.169  1.00  0.00     0.049 A 
ATOM     23  C   UNL A   1      28.765  32.516  22.907  1.00  0.00     0.126 A 
ATOM     24  C   UNL A   1      28.319  30.744  21.377  1.00  0.00     0.126 A 
ATOM     25  F   UNL A   1      28.629  33.795  23.281  1.00  0.00    -0.207 F 
ATOM     26  C   UNL A   1      28.159  32.073  21.744  1.00  0.00     0.078 A 
ATOM     27  F   UNL A   1      27.756  30.310  20.242  1.00  0.00    -0.207 F 
ENDBRANCH  18  20
ENDBRANCH  14  18
ENDBRANCH   9  11
ENDBRANCH   8   9
ENDBRANCH   7   8
ENDBRANCH   6   7
ENDBRANCH   5   6
ENDBRANCH   4   5
ENDBRANCH   3   4
ENDBRANCH   2   3
ENDBRANCH   1   2
BRANCH   1  28
ATOM     28  C   UNL A   1      36.811  22.476  25.539  1.00  0.00     0.188 C 
BRANCH  28  29
ATOM     29  O   UNL A   1      37.459  23.560  26.188  1.00  0.00    -0.376 OA
BRANCH  29  30
ATOM     30  C   UNL A   1      38.728  23.945  25.677  1.00  0.00     0.202 C 
BRANCH  30  31
ATOM     31  C   UNL A   1      39.677  24.804  26.537  1.00  0.00     0.261 C 
BRANCH  31  32
ATOM     32  O   UNL A   1      41.093  24.617  26.365  1.00  0.00    -0.460 OA
BRANCH  32  33
ATOM     33  C   UNL A   1      41.862  25.700  26.140  1.00  0.00     0.338 C 
ATOM     34  O   UNL A   1      42.295  26.084  25.063  1.00  0.00    -0.246 OA
BRANCH  33  35
ATOM     35  C   UNL A   1      41.947  26.464  27.404  1.00  0.00     0.060 A 
ATOM     36  C   UNL A   1      41.504  25.874  28.595  1.00  0.00     0.016 A 
ATOM     37  C   UNL A   1      42.455  27.766  27.410  1.00  0.00     0.016 A 
ATOM     38  C   UNL A   1      41.528  26.599  29.788  1.00  0.00     0.010 A 
ATOM     39  C   UNL A   1      42.458  28.498  28.603  1.00  0.00     0.010 A 
ATOM     40  C   UNL A   1      41.959  27.932  29.790  1.00  0.00    -0.014 A 
BRANCH  40  41
ATOM     41  C   UNL A   1      41.690  28.790  30.972  1.00  0.00     0.031 A 
ATOM     42  C   UNL A   1      40.512  29.728  30.918  1.00  0.00     0.074 A 
ATOM     43  C   UNL A   1      42.447  28.721  32.083  1.00  0.00     0.049 A 
ATOM     44  N   UNL A   1      40.096  30.593  31.807  1.00  0.00    -0.248 NA
ATOM     45  C   UNL A   1      39.693  29.683  29.693  1.00  0.00     0.031 C 
ATOM     46  C   UNL A   1      43.578  27.818  32.284  1.00  0.00     0.029 A 
ATOM     47  N   UNL A   1      42.372  29.434  33.255  1.00  0.00    -0.354 N 
ATOM     48  C   UNL A   1      38.978  31.200  31.246  1.00  0.00     0.074 A 
ATOM     49  C   UNL A   1      38.798  30.628  29.931  1.00  0.00     0.031 C 
ATOM     50  C   UNL A   1      44.098  28.037  33.506  1.00  0.00     0.029 A 
ATOM     51  C   UNL A   1      43.360  29.119  34.157  1.00  0.00     0.049 A 
ATOM     52  H   UNL A   1      41.676  30.107  33.433  1.00  0.00     0.167 HD
ATOM     53  C   UNL A   1      38.169  32.146  31.780  1.00  0.00     0.031 A 
ATOM     54  C   UNL A   1      43.651  29.657  35.360  1.00  0.00     0.031 A 
ATOM     55  C   UNL A   1      38.360  32.726  33.083  1.00  0.00     0.049 A 
ATOM     56  C   UNL A   1      42.788  30.772  35.898  1.00  0.00     0.074 A 
ATOM     57  C   UNL A   1      37.590  33.684  33.718  1.00  0.00     0.029 A 
ATOM     58  N   UNL A   1      39.399  32.412  33.945  1.00  0.00    -0.354 N 
ATOM     59  N   UNL A   1      41.721  31.321  35.366  1.00  0.00    -0.248 NA
ATOM     60  C   UNL A   1      43.165  31.335  37.202  1.00  0.00     0.031 C 
ATOM     61  C   UNL A   1      38.203  33.998  34.935  1.00  0.00     0.029 A 
ATOM     62  C   UNL A   1      39.310  33.180  35.093  1.00  0.00     0.049 A 
ATOM     63  H   UNL A   1      40.098  31.741  33.768  1.00  0.00     0.167 HD
ATOM     64  C   UNL A   1      41.281  32.269  36.288  1.00  0.00     0.074 A 
ATOM     65  C   UNL A   1      42.190  32.207  37.414  1.00  0.00     0.031 C 
ATOM     66  C   UNL A   1      40.219  33.109  36.210  1.00  0.00     0.031 A 
BRANCH  53  67
ATOM     67  C   UNL A   1      37.024  32.644  30.935  1.00  0.00    -0.014 A 
ATOM     68  C   UNL A   1      35.763  32.023  30.968  1.00  0.00     0.010 A 
ATOM     69  C   UNL A   1      37.207  33.777  30.121  1.00  0.00     0.010 A 
ATOM     70  C   UNL A   1      34.716  32.503  30.175  1.00  0.00     0.020 A 
ATOM     71  C   UNL A   1      36.154  34.281  29.352  1.00  0.00     0.020 A 
ATOM     72  C   UNL A   1      34.919  33.630  29.372  1.00  0.00     0.054 A 
BRANCH  72  73
ATOM     73  S   UNL A   1      33.534  34.247  28.377  1.00  0.00     0.124 S 
ATOM     74  O   UNL A   1      34.199  35.204  27.497  1.00  0.00    -0.237 OA
ATOM     75  O   UNL A   1      33.041  33.034  27.730  1.00  0.00    -0.237 OA
ATOM     76  O   UNL A   1      32.632  34.835  29.364  1.00  0.00    -0.744 OA
ENDBRANCH  72  73
ENDBRANCH  53  67
BRANCH  54  77
ATOM     77  C   UNL A   1      44.828  29.170  36.133  1.00  0.00    -0.014 A 
ATOM     78  C   UNL A   1      46.130  29.590  35.807  1.00  0.00     0.010 A 
ATOM     79  C   UNL A   1      44.652  28.268  37.199  1.00  0.00     0.010 A 
ATOM     80  C   UNL A   1      47.232  29.106  36.521  1.00  0.00     0.020 A 
ATOM     81  C   UNL A   1      45.746  27.807  37.935  1.00  0.00     0.020 A 
ATOM     82  C   UNL A   1      47.032  28.221  37.584  1.00  0.00     0.054 A 
BRANCH  82  83
ATOM     83  S   UNL A   1      48.471  27.650  38.531  1.00  0.00     0.124 S 
ATOM     84  O   UNL A   1      48.964  26.554  37.705  1.00  0.00    -0.237 OA
ATOM     85  O   UNL A   1      49.313  28.844  38.570  1.00  0.00    -0.237 OA
ATOM     86  O   UNL A   1      47.901  27.259  39.818  1.00  0.00    -0.744 OA
ENDBRANCH  82  83
ENDBRANCH  54  77
BRANCH  66  87
ATOM     87  C   UNL A   1      39.946  34.005  37.392  1.00  0.00    -0.014 A 
ATOM     88  C   UNL A   1      39.148  33.579  38.469  1.00  0.00     0.010 A 
ATOM     89  C   UNL A   1      40.551  35.274  37.452  1.00  0.00     0.010 A 
ATOM     90  C   UNL A   1      38.933  34.420  39.566  1.00  0.00     0.020 A 
ATOM     91  C   UNL A   1      40.366  36.104  38.560  1.00  0.00     0.020 A 
ATOM     92  C   UNL A   1      39.545  35.677  39.605  1.00  0.00     0.054 A 
BRANCH  92  93
ATOM     93  S   UNL A   1      39.284  36.731  41.058  1.00  0.00     0.124 S 
ATOM     94  O   UNL A   1      38.372  35.920  41.861  1.00  0.00    -0.237 OA
ATOM     95  O   UNL A   1      40.635  36.875  41.594  1.00  0.00    -0.237 OA
ATOM     96  O   UNL A   1      38.705  37.951  40.503  1.00  0.00    -0.744 OA
ENDBRANCH  92  93
ENDBRANCH  66  87
ENDBRANCH  40  41
ENDBRANCH  33  35
ENDBRANCH  32  33
ENDBRANCH  31  32
ENDBRANCH  30  31
ENDBRANCH  29  30
ENDBRANCH  28  29
ENDBRANCH   1  28
TORSDOF 25
ENDMDL
