MODEL 1
REMARK VINA RESULT:     -10.7      0.000      0.000
REMARK SMILES Cc1ccc(-c2cc(Cl)cc3c2O[C@@H](C(F)(F)F)C(C(=O)OCCOCCOCCOCCOC(=O)c2ccc(-c4c5nc(c(-c6ccc(S(=O)(=O)[O-])cc6)c6ccc([nH]6)c(-c6ccc(S(=O)(=O)[O-])cc6)c6nc(c(-c7ccc(S(=O)(=O)[O-])cc7)c7ccc4[nH]7)C=C6)C=C5)cc2)=C3)cc1
REMARK SMILES IDX 29 1 28 2 27 3 26 4 25 5 24 6 23 7 22 8 20 9 21 10 19 11
REMARK SMILES IDX 6 12 7 13 12 14 8 15 11 16 13 17 9 18 10 19 97 20 14 21 5 22
REMARK SMILES IDX 1 23 2 24 3 25 99 26 4 27 98 28 15 29 16 30 17 31 18 32
REMARK SMILES IDX 30 33 31 34 32 35 33 36 34 37 35 38 36 39 37 40 38 41 96 42
REMARK SMILES IDX 39 43 95 44 40 45 41 46 42 47 89 48 43 49 94 50 88 51 90 52
REMARK SMILES IDX 44 53 93 54 87 55 86 56 45 58 75 59 56 60 74 61 57 62 60 63
REMARK SMILES IDX 73 64 91 65 58 66 59 67 72 69 92 70 61 71 46 72 47 73 55 74
REMARK SMILES IDX 48 75 54 76 49 77 50 78 51 79 52 80 53 81 76 82 77 83 85 84
REMARK SMILES IDX 78 85 84 86 79 87 80 88 81 89 82 90 83 91 62 92 63 93 71 94
REMARK SMILES IDX 64 95 70 96 65 97 66 98 67 99 68 100 69 101
REMARK H PARENT 90 57 60 68
REMARK Flexibility Score: inf
ROOT
ATOM      1  C   UNL A   1      34.677  31.573  27.619  1.00  0.00     0.188 C 
ENDROOT
BRANCH   1   2
ATOM      2  O   UNL A   1      35.637  30.539  27.556  1.00  0.00    -0.377 OA
BRANCH   2   3
ATOM      3  C   UNL A   1      35.200  29.181  27.537  1.00  0.00     0.188 C 
BRANCH   3   4
ATOM      4  C   UNL A   1      33.769  28.857  26.935  1.00  0.00     0.188 C 
BRANCH   4   5
ATOM      5  O   UNL A   1      32.623  28.109  27.221  1.00  0.00    -0.376 OA
BRANCH   5   6
ATOM      6  C   UNL A   1      31.719  27.338  26.461  1.00  0.00     0.202 C 
BRANCH   6   7
ATOM      7  C   UNL A   1      31.516  25.899  26.640  1.00  0.00     0.261 C 
BRANCH   7   8
ATOM      8  O   UNL A   1      32.264  24.801  26.225  1.00  0.00    -0.460 OA
BRANCH   8   9
ATOM      9  C   UNL A   1      32.381  24.279  25.027  1.00  0.00     0.338 C 
ATOM     10  O   UNL A   1      31.765  23.408  24.465  1.00  0.00    -0.246 OA
BRANCH   9  11
ATOM     11  C   UNL A   1      33.360  25.261  24.437  1.00  0.00     0.087 C 
ATOM     12  C   UNL A   1      34.807  21.566  24.137  1.00  0.00     0.026 A 
ATOM     13  C   UNL A   1      36.042  21.326  24.764  1.00  0.00     0.033 A 
ATOM     14  C   UNL A   1      34.565  22.993  23.744  1.00  0.00     0.135 A 
ATOM     15  C   UNL A   1      36.881  22.367  25.156  1.00  0.00     0.042 A 
ATOM     16  C   UNL A   1      35.289  23.987  24.440  1.00  0.00     0.019 A 
ATOM     17  O   UNL A   1      33.578  23.564  22.789  1.00  0.00    -0.475 OA
ATOM     18  Cl  UNL A   1      38.320  22.007  26.020  1.00  0.00    -0.084 Cl
ATOM     19  C   UNL A   1      36.490  23.690  25.041  1.00  0.00     0.032 A 
ATOM     20  C   UNL A   1      34.653  25.285  24.783  1.00  0.00     0.027 C 
ATOM     21  C   UNL A   1      33.309  25.044  22.943  1.00  0.00     0.316 C 
BRANCH  12  22
ATOM     22  C   UNL A   1      33.798  20.472  24.642  1.00  0.00    -0.015 A 
ATOM     23  C   UNL A   1      32.544  15.426  25.533  1.00  0.00     0.044 C 
ATOM     24  C   UNL A   1      32.727  17.642  25.246  1.00  0.00    -0.051 A 
ATOM     25  C   UNL A   1      32.899  18.777  26.242  1.00  0.00     0.004 A 
ATOM     26  C   UNL A   1      32.451  18.502  24.086  1.00  0.00     0.004 A 
ATOM     27  C   UNL A   1      33.333  20.170  25.928  1.00  0.00     0.009 A 
ATOM     28  C   UNL A   1      33.084  19.725  23.731  1.00  0.00     0.009 A 
ENDBRANCH  12  22
BRANCH  21  29
ATOM     29  C   UNL A   1      32.225  26.017  22.282  1.00  0.00     0.430 C 
ATOM     30  F   UNL A   1      31.068  25.282  22.150  1.00  0.00    -0.167 F 
ATOM     31  F   UNL A   1      31.898  27.051  23.092  1.00  0.00    -0.167 F 
ATOM     32  F   UNL A   1      32.382  26.551  21.067  1.00  0.00    -0.167 F 
ENDBRANCH  21  29
ENDBRANCH   9  11
ENDBRANCH   8   9
ENDBRANCH   7   8
ENDBRANCH   6   7
ENDBRANCH   5   6
ENDBRANCH   4   5
ENDBRANCH   3   4
ENDBRANCH   2   3
ENDBRANCH   1   2
BRANCH   1  33
ATOM     33  C   UNL A   1      34.964  32.976  28.206  1.00  0.00     0.188 C 
BRANCH  33  34
ATOM     34  O   UNL A   1      34.747  33.108  29.580  1.00  0.00    -0.376 OA
BRANCH  34  35
ATOM     35  C   UNL A   1      35.948  32.752  30.242  1.00  0.00     0.202 C 
BRANCH  35  36
ATOM     36  C   UNL A   1      36.055  31.332  30.984  1.00  0.00     0.261 C 
BRANCH  36  37
ATOM     37  O   UNL A   1      37.017  30.062  30.627  1.00  0.00    -0.460 OA
BRANCH  37  38
ATOM     38  C   UNL A   1      37.744  28.937  30.370  1.00  0.00     0.338 C 
ATOM     39  O   UNL A   1      37.887  28.012  31.168  1.00  0.00    -0.246 OA
BRANCH  38  40
ATOM     40  C   UNL A   1      38.515  28.604  29.140  1.00  0.00     0.060 A 
ATOM     41  C   UNL A   1      38.825  27.272  28.836  1.00  0.00     0.016 A 
ATOM     42  C   UNL A   1      38.958  29.528  28.224  1.00  0.00     0.016 A 
ATOM     43  C   UNL A   1      40.036  26.997  28.206  1.00  0.00     0.010 A 
ATOM     44  C   UNL A   1      40.202  29.268  27.671  1.00  0.00     0.010 A 
ATOM     45  C   UNL A   1      40.864  28.083  28.002  1.00  0.00    -0.014 A 
BRANCH  45  46
ATOM     46  C   UNL A   1      42.150  28.325  28.781  1.00  0.00     0.031 A 
ATOM     47  C   UNL A   1      43.449  27.614  27.859  1.00  0.00     0.074 A 
ATOM     48  C   UNL A   1      42.031  29.191  29.944  1.00  0.00     0.049 A 
ATOM     49  N   UNL A   1      44.694  26.883  28.669  1.00  0.00    -0.248 NA
ATOM     50  C   UNL A   1      43.631  27.007  25.893  1.00  0.00     0.031 C 
ATOM     51  C   UNL A   1      42.898  30.087  30.867  1.00  0.00     0.029 A 
ATOM     52  N   UNL A   1      40.932  29.322  30.814  1.00  0.00    -0.354 N 
ATOM     53  C   UNL A   1      45.861  25.938  27.634  1.00  0.00     0.074 A 
ATOM     54  C   UNL A   1      45.103  26.091  25.817  1.00  0.00     0.031 C 
ATOM     55  C   UNL A   1      42.530  30.217  32.124  1.00  0.00     0.029 A 
ATOM     56  C   UNL A   1      41.470  29.284  32.124  1.00  0.00     0.049 A 
ATOM     57  H   UNL A   1      39.985  29.421  30.563  1.00  0.00     0.167 HD
ATOM     58  C   UNL A   1      47.019  25.532  28.299  1.00  0.00     0.031 A 
ATOM     59  C   UNL A   1      41.023  29.096  33.359  1.00  0.00     0.031 A 
ATOM     60  C   UNL A   1      47.027  25.794  29.832  1.00  0.00     0.049 A 
ATOM     61  C   UNL A   1      42.260  28.106  33.958  1.00  0.00     0.074 A 
ATOM     62  C   UNL A   1      47.924  26.486  30.640  1.00  0.00     0.029 A 
ATOM     63  N   UNL A   1      45.999  25.422  30.760  1.00  0.00    -0.354 N 
ATOM     64  N   UNL A   1      43.337  27.672  33.252  1.00  0.00    -0.248 NA
ATOM     65  C   UNL A   1      42.237  27.344  35.213  1.00  0.00     0.031 C 
ATOM     66  C   UNL A   1      47.451  26.544  31.995  1.00  0.00     0.029 A 
ATOM     67  C   UNL A   1      46.143  26.018  32.065  1.00  0.00     0.049 A 
ATOM     68  H   UNL A   1      45.260  24.814  30.527  1.00  0.00     0.167 HD
ATOM     69  C   UNL A   1      44.076  26.588  33.841  1.00  0.00     0.074 A 
ATOM     70  C   UNL A   1      43.313  26.511  35.120  1.00  0.00     0.031 C 
ATOM     71  C   UNL A   1      45.169  25.763  33.312  1.00  0.00     0.031 A 
BRANCH  58  72
ATOM     72  C   UNL A   1      48.360  25.322  27.500  1.00  0.00    -0.014 A 
ATOM     73  C   UNL A   1      49.574  25.128  28.198  1.00  0.00     0.010 A 
ATOM     74  C   UNL A   1      48.521  25.516  26.104  1.00  0.00     0.010 A 
ATOM     75  C   UNL A   1      50.847  25.237  27.603  1.00  0.00     0.020 A 
ATOM     76  C   UNL A   1      49.794  25.615  25.483  1.00  0.00     0.020 A 
ATOM     77  C   UNL A   1      50.954  25.477  26.242  1.00  0.00     0.054 A 
BRANCH  77  78
ATOM     78  S   UNL A   1      52.610  25.507  25.497  1.00  0.00     0.124 S 
ATOM     79  O   UNL A   1      52.381  26.160  24.210  1.00  0.00    -0.237 OA
ATOM     80  O   UNL A   1      53.369  26.290  26.469  1.00  0.00    -0.237 OA
ATOM     81  O   UNL A   1      52.982  24.096  25.416  1.00  0.00    -0.744 OA
ENDBRANCH  77  78
ENDBRANCH  58  72
BRANCH  59  82
ATOM     82  C   UNL A   1      39.899  30.228  33.419  1.00  0.00    -0.014 A 
ATOM     83  C   UNL A   1      38.576  30.011  33.932  1.00  0.00     0.010 A 
ATOM     84  C   UNL A   1      40.410  31.512  33.857  1.00  0.00     0.010 A 
ATOM     85  C   UNL A   1      37.923  30.901  34.874  1.00  0.00     0.020 A 
ATOM     86  C   UNL A   1      39.781  32.378  34.852  1.00  0.00     0.020 A 
ATOM     87  C   UNL A   1      38.514  32.077  35.347  1.00  0.00     0.054 A 
BRANCH  87  88
ATOM     88  S   UNL A   1      37.493  33.124  36.524  1.00  0.00     0.124 S 
ATOM     89  O   UNL A   1      37.191  32.166  37.581  1.00  0.00    -0.237 OA
ATOM     90  O   UNL A   1      38.418  34.196  36.897  1.00  0.00    -0.237 OA
ATOM     91  O   UNL A   1      36.328  33.586  35.801  1.00  0.00    -0.744 OA
ENDBRANCH  87  88
ENDBRANCH  59  82
BRANCH  71  92
ATOM     92  C   UNL A   1      45.609  24.407  33.924  1.00  0.00    -0.014 A 
ATOM     93  C   UNL A   1      44.872  23.230  33.854  1.00  0.00     0.010 A 
ATOM     94  C   UNL A   1      46.949  24.263  34.417  1.00  0.00     0.010 A 
ATOM     95  C   UNL A   1      45.420  22.007  34.265  1.00  0.00     0.020 A 
ATOM     96  C   UNL A   1      47.535  23.048  34.745  1.00  0.00     0.020 A 
ATOM     97  C   UNL A   1      46.745  21.923  34.695  1.00  0.00     0.054 A 
BRANCH  97  98
ATOM     98  S   UNL A   1      47.412  20.331  35.191  1.00  0.00     0.124 S 
ATOM     99  O   UNL A   1      47.622  20.538  36.621  1.00  0.00    -0.237 OA
ATOM    100  O   UNL A   1      46.329  19.417  34.836  1.00  0.00    -0.237 OA
ATOM    101  O   UNL A   1      48.628  20.191  34.394  1.00  0.00    -0.744 OA
ENDBRANCH  97  98
ENDBRANCH  71  92
ENDBRANCH  45  46
ENDBRANCH  38  40
ENDBRANCH  37  38
ENDBRANCH  36  37
ENDBRANCH  35  36
ENDBRANCH  34  35
ENDBRANCH  33  34
ENDBRANCH   1  33
TORSDOF 25
ENDMDL
MODEL 2
REMARK VINA RESULT:     -10.1      2.224      3.526
REMARK SMILES Cc1ccc(-c2cc(Cl)cc3c2O[C@@H](C(F)(F)F)C(C(=O)OCCOCCOCCOCCOC(=O)c2ccc(-c4c5nc(c(-c6ccc(S(=O)(=O)[O-])cc6)c6ccc([nH]6)c(-c6ccc(S(=O)(=O)[O-])cc6)c6nc(c(-c7ccc(S(=O)(=O)[O-])cc7)c7ccc4[nH]7)C=C6)C=C5)cc2)=C3)cc1
REMARK SMILES IDX 29 1 28 2 27 3 26 4 25 5 24 6 23 7 22 8 20 9 21 10 19 11
REMARK SMILES IDX 6 12 7 13 12 14 8 15 11 16 13 17 9 18 10 19 97 20 14 21 5 22
REMARK SMILES IDX 1 23 2 24 3 25 99 26 4 27 98 28 15 29 16 30 17 31 18 32
REMARK SMILES IDX 30 33 31 34 32 35 33 36 34 37 35 38 36 39 37 40 38 41 96 42
REMARK SMILES IDX 39 43 95 44 40 45 41 46 42 47 89 48 43 49 94 50 88 51 90 52
REMARK SMILES IDX 44 53 93 54 87 55 86 56 45 58 75 59 56 60 74 61 57 62 60 63
REMARK SMILES IDX 73 64 91 65 58 66 59 67 72 69 92 70 61 71 46 72 47 73 55 74
REMARK SMILES IDX 48 75 54 76 49 77 50 78 51 79 52 80 53 81 76 82 77 83 85 84
REMARK SMILES IDX 78 85 84 86 79 87 80 88 81 89 82 90 83 91 62 92 63 93 71 94
REMARK SMILES IDX 64 95 70 96 65 97 66 98 67 99 68 100 69 101
REMARK H PARENT 90 57 60 68
REMARK Flexibility Score: inf
ROOT
ATOM      1  C   UNL A   1      34.413  32.312  28.027  1.00  0.00     0.188 C 
ENDROOT
BRANCH   1   2
ATOM      2  O   UNL A   1      33.243  31.532  27.902  1.00  0.00    -0.377 OA
BRANCH   2   3
ATOM      3  C   UNL A   1      33.192  30.502  26.915  1.00  0.00     0.188 C 
BRANCH   3   4
ATOM      4  C   UNL A   1      33.570  29.024  27.346  1.00  0.00     0.188 C 
BRANCH   4   5
ATOM      5  O   UNL A   1      33.991  27.813  26.789  1.00  0.00    -0.376 OA
BRANCH   5   6
ATOM      6  C   UNL A   1      33.351  26.617  26.400  1.00  0.00     0.202 C 
BRANCH   6   7
ATOM      7  C   UNL A   1      33.990  25.568  25.602  1.00  0.00     0.261 C 
BRANCH   7   8
ATOM      8  O   UNL A   1      34.625  24.385  25.968  1.00  0.00    -0.460 OA
BRANCH   8   9
ATOM      9  C   UNL A   1      35.404  23.604  25.257  1.00  0.00     0.338 C 
ATOM     10  O   UNL A   1      36.102  23.820  24.299  1.00  0.00    -0.246 OA
BRANCH   9  11
ATOM     11  C   UNL A   1      35.380  22.382  26.140  1.00  0.00     0.087 C 
ATOM     12  C   UNL A   1      31.891  22.760  24.263  1.00  0.00     0.026 A 
ATOM     13  C   UNL A   1      30.753  22.878  25.077  1.00  0.00     0.033 A 
ATOM     14  C   UNL A   1      33.052  22.052  24.896  1.00  0.00     0.135 A 
ATOM     15  C   UNL A   1      30.777  22.531  26.427  1.00  0.00     0.042 A 
ATOM     16  C   UNL A   1      33.102  22.028  26.308  1.00  0.00     0.019 A 
ATOM     17  O   UNL A   1      34.256  21.446  24.268  1.00  0.00    -0.475 OA
ATOM     18  Cl  UNL A   1      29.384  22.808  27.391  1.00  0.00    -0.084 Cl
ATOM     19  C   UNL A   1      31.953  22.155  27.054  1.00  0.00     0.032 A 
ATOM     20  C   UNL A   1      34.399  22.149  27.021  1.00  0.00     0.027 C 
ATOM     21  C   UNL A   1      35.419  21.198  25.203  1.00  0.00     0.316 C 
BRANCH  12  22
ATOM     22  C   UNL A   1      31.873  23.958  23.245  1.00  0.00    -0.015 A 
ATOM     23  C   UNL A   1      32.033  29.131  22.222  1.00  0.00     0.044 C 
ATOM     24  C   UNL A   1      31.890  26.895  22.298  1.00  0.00    -0.051 A 
ATOM     25  C   UNL A   1      32.874  25.808  21.896  1.00  0.00     0.004 A 
ATOM     26  C   UNL A   1      30.742  25.996  22.487  1.00  0.00     0.004 A 
ATOM     27  C   UNL A   1      32.807  24.369  22.288  1.00  0.00     0.009 A 
ATOM     28  C   UNL A   1      30.728  24.708  23.090  1.00  0.00     0.009 A 
ENDBRANCH  12  22
BRANCH  21  29
ATOM     29  C   UNL A   1      36.933  20.750  24.945  1.00  0.00     0.430 C 
ATOM     30  F   UNL A   1      37.674  21.255  25.990  1.00  0.00    -0.167 F 
ATOM     31  F   UNL A   1      37.092  19.407  25.015  1.00  0.00    -0.167 F 
ATOM     32  F   UNL A   1      37.626  21.136  23.870  1.00  0.00    -0.167 F 
ENDBRANCH  21  29
ENDBRANCH   9  11
ENDBRANCH   8   9
ENDBRANCH   7   8
ENDBRANCH   6   7
ENDBRANCH   5   6
ENDBRANCH   4   5
ENDBRANCH   3   4
ENDBRANCH   2   3
ENDBRANCH   1   2
BRANCH   1  33
ATOM     33  C   UNL A   1      34.734  33.185  29.263  1.00  0.00     0.188 C 
BRANCH  33  34
ATOM     34  O   UNL A   1      34.418  32.617  30.499  1.00  0.00    -0.376 OA
BRANCH  34  35
ATOM     35  C   UNL A   1      35.529  32.806  31.357  1.00  0.00     0.202 C 
BRANCH  35  36
ATOM     36  C   UNL A   1      36.117  31.560  32.182  1.00  0.00     0.261 C 
BRANCH  36  37
ATOM     37  O   UNL A   1      36.941  30.265  31.627  1.00  0.00    -0.460 OA
BRANCH  37  38
ATOM     38  C   UNL A   1      37.689  29.186  31.254  1.00  0.00     0.338 C 
ATOM     39  O   UNL A   1      37.886  28.206  31.970  1.00  0.00    -0.246 OA
BRANCH  38  40
ATOM     40  C   UNL A   1      38.422  28.976  29.976  1.00  0.00     0.060 A 
ATOM     41  C   UNL A   1      38.707  27.680  29.526  1.00  0.00     0.016 A 
ATOM     42  C   UNL A   1      38.853  29.985  29.149  1.00  0.00     0.016 A 
ATOM     43  C   UNL A   1      39.896  27.459  28.837  1.00  0.00     0.010 A 
ATOM     44  C   UNL A   1      40.078  29.772  28.537  1.00  0.00     0.010 A 
ATOM     45  C   UNL A   1      40.733  28.552  28.724  1.00  0.00    -0.014 A 
BRANCH  45  46
ATOM     46  C   UNL A   1      42.043  28.698  29.488  1.00  0.00     0.031 A 
ATOM     47  C   UNL A   1      43.292  27.982  28.505  1.00  0.00     0.074 A 
ATOM     48  C   UNL A   1      41.983  29.506  30.696  1.00  0.00     0.049 A 
ATOM     49  N   UNL A   1      44.519  27.157  29.250  1.00  0.00    -0.248 NA
ATOM     50  C   UNL A   1      43.411  27.471  26.506  1.00  0.00     0.031 C 
ATOM     51  C   UNL A   1      42.904  30.316  31.646  1.00  0.00     0.029 A 
ATOM     52  N   UNL A   1      40.907  29.639  31.594  1.00  0.00    -0.354 N 
ATOM     53  C   UNL A   1      45.624  26.219  28.144  1.00  0.00     0.074 A 
ATOM     54  C   UNL A   1      44.841  26.499  26.353  1.00  0.00     0.031 C 
ATOM     55  C   UNL A   1      42.566  30.395  32.915  1.00  0.00     0.029 A 
ATOM     56  C   UNL A   1      41.467  29.509  32.890  1.00  0.00     0.049 A 
ATOM     57  H   UNL A   1      39.960  29.791  31.369  1.00  0.00     0.167 HD
ATOM     58  C   UNL A   1      46.776  25.730  28.763  1.00  0.00     0.031 A 
ATOM     59  C   UNL A   1      41.035  29.277  34.122  1.00  0.00     0.031 A 
ATOM     60  C   UNL A   1      46.824  25.911  30.307  1.00  0.00     0.049 A 
ATOM     61  C   UNL A   1      42.238  28.205  34.644  1.00  0.00     0.074 A 
ATOM     62  C   UNL A   1      47.765  26.520  31.131  1.00  0.00     0.029 A 
ATOM     63  N   UNL A   1      45.797  25.535  31.236  1.00  0.00    -0.354 N 
ATOM     64  N   UNL A   1      43.282  27.763  33.894  1.00  0.00    -0.248 NA
ATOM     65  C   UNL A   1      42.205  27.380  35.858  1.00  0.00     0.031 C 
ATOM     66  C   UNL A   1      47.319  26.528  32.496  1.00  0.00     0.029 A 
ATOM     67  C   UNL A   1      45.991  26.055  32.566  1.00  0.00     0.049 A 
ATOM     68  H   UNL A   1      45.028  24.972  30.987  1.00  0.00     0.167 HD
ATOM     69  C   UNL A   1      43.984  26.619  34.411  1.00  0.00     0.074 A 
ATOM     70  C   UNL A   1      43.241  26.508  35.700  1.00  0.00     0.031 C 
ATOM     71  C   UNL A   1      45.030  25.777  33.818  1.00  0.00     0.031 A 
BRANCH  58  72
ATOM     72  C   UNL A   1      48.091  25.505  27.927  1.00  0.00    -0.014 A 
ATOM     73  C   UNL A   1      49.345  25.465  28.580  1.00  0.00     0.010 A 
ATOM     74  C   UNL A   1      48.179  25.541  26.512  1.00  0.00     0.010 A 
ATOM     75  C   UNL A   1      50.580  25.578  27.913  1.00  0.00     0.020 A 
ATOM     76  C   UNL A   1      49.415  25.640  25.819  1.00  0.00     0.020 A 
ATOM     77  C   UNL A   1      50.613  25.661  26.530  1.00  0.00     0.054 A 
BRANCH  77  78
ATOM     78  S   UNL A   1      52.230  25.698  25.703  1.00  0.00     0.124 S 
ATOM     79  O   UNL A   1      52.585  24.284  25.611  1.00  0.00    -0.237 OA
ATOM     80  O   UNL A   1      51.909  26.345  24.433  1.00  0.00    -0.237 OA
ATOM     81  O   UNL A   1      53.065  26.488  26.605  1.00  0.00    -0.744 OA
ENDBRANCH  77  78
ENDBRANCH  58  72
BRANCH  59  82
ATOM     82  C   UNL A   1      39.962  30.451  34.264  1.00  0.00    -0.014 A 
ATOM     83  C   UNL A   1      38.589  30.236  34.623  1.00  0.00     0.010 A 
ATOM     84  C   UNL A   1      40.489  31.621  34.938  1.00  0.00     0.010 A 
ATOM     85  C   UNL A   1      37.893  31.010  35.634  1.00  0.00     0.020 A 
ATOM     86  C   UNL A   1      39.810  32.362  35.999  1.00  0.00     0.020 A 
ATOM     87  C   UNL A   1      38.490  32.064  36.332  1.00  0.00     0.054 A 
BRANCH  87  88
ATOM     88  S   UNL A   1      37.414  32.979  37.569  1.00  0.00     0.124 S 
ATOM     89  O   UNL A   1      38.346  33.973  38.088  1.00  0.00    -0.237 OA
ATOM     90  O   UNL A   1      36.334  33.510  36.735  1.00  0.00    -0.237 OA
ATOM     91  O   UNL A   1      36.969  32.020  38.556  1.00  0.00    -0.744 OA
ENDBRANCH  87  88
ENDBRANCH  59  82
BRANCH  71  92
ATOM     92  C   UNL A   1      45.421  24.374  34.350  1.00  0.00    -0.014 A 
ATOM     93  C   UNL A   1      46.724  23.950  34.585  1.00  0.00     0.010 A 
ATOM     94  C   UNL A   1      44.394  23.501  34.845  1.00  0.00     0.010 A 
ATOM     95  C   UNL A   1      46.986  22.740  35.242  1.00  0.00     0.020 A 
ATOM     96  C   UNL A   1      44.636  22.344  35.573  1.00  0.00     0.020 A 
ATOM     97  C   UNL A   1      45.945  21.954  35.739  1.00  0.00     0.054 A 
BRANCH  97  98
ATOM     98  S   UNL A   1      46.328  20.421  36.594  1.00  0.00     0.124 S 
ATOM     99  O   UNL A   1      45.834  20.708  37.938  1.00  0.00    -0.237 OA
ATOM    100  O   UNL A   1      45.558  19.441  35.832  1.00  0.00    -0.237 OA
ATOM    101  O   UNL A   1      47.779  20.301  36.473  1.00  0.00    -0.744 OA
ENDBRANCH  97  98
ENDBRANCH  71  92
ENDBRANCH  45  46
ENDBRANCH  38  40
ENDBRANCH  37  38
ENDBRANCH  36  37
ENDBRANCH  35  36
ENDBRANCH  34  35
ENDBRANCH  33  34
ENDBRANCH   1  33
TORSDOF 25
ENDMDL
MODEL 3
REMARK VINA RESULT:      -9.6      1.660      2.881
REMARK SMILES Cc1ccc(-c2cc(Cl)cc3c2O[C@@H](C(F)(F)F)C(C(=O)OCCOCCOCCOCCOC(=O)c2ccc(-c4c5nc(c(-c6ccc(S(=O)(=O)[O-])cc6)c6ccc([nH]6)c(-c6ccc(S(=O)(=O)[O-])cc6)c6nc(c(-c7ccc(S(=O)(=O)[O-])cc7)c7ccc4[nH]7)C=C6)C=C5)cc2)=C3)cc1
REMARK SMILES IDX 29 1 28 2 27 3 26 4 25 5 24 6 23 7 22 8 20 9 21 10 19 11
REMARK SMILES IDX 6 12 7 13 12 14 8 15 11 16 13 17 9 18 10 19 97 20 14 21 5 22
REMARK SMILES IDX 1 23 2 24 3 25 99 26 4 27 98 28 15 29 16 30 17 31 18 32
REMARK SMILES IDX 30 33 31 34 32 35 33 36 34 37 35 38 36 39 37 40 38 41 96 42
REMARK SMILES IDX 39 43 95 44 40 45 41 46 42 47 89 48 43 49 94 50 88 51 90 52
REMARK SMILES IDX 44 53 93 54 87 55 86 56 45 58 75 59 56 60 74 61 57 62 60 63
REMARK SMILES IDX 73 64 91 65 58 66 59 67 72 69 92 70 61 71 46 72 47 73 55 74
REMARK SMILES IDX 48 75 54 76 49 77 50 78 51 79 52 80 53 81 76 82 77 83 85 84
REMARK SMILES IDX 78 85 84 86 79 87 80 88 81 89 82 90 83 91 62 92 63 93 71 94
REMARK SMILES IDX 64 95 70 96 65 97 66 98 67 99 68 100 69 101
REMARK H PARENT 90 57 60 68
REMARK Flexibility Score: inf
ROOT
ATOM      1  C   UNL A   1      34.249  32.260  28.038  1.00  0.00     0.188 C 
ENDROOT
BRANCH   1   2
ATOM      2  O   UNL A   1      33.221  31.321  27.801  1.00  0.00    -0.377 OA
BRANCH   2   3
ATOM      3  C   UNL A   1      33.203  30.601  26.569  1.00  0.00     0.188 C 
BRANCH   3   4
ATOM      4  C   UNL A   1      33.326  29.021  26.617  1.00  0.00     0.188 C 
BRANCH   4   5
ATOM      5  O   UNL A   1      33.895  27.961  25.904  1.00  0.00    -0.376 OA
BRANCH   5   6
ATOM      6  C   UNL A   1      33.802  27.487  24.578  1.00  0.00     0.202 C 
BRANCH   6   7
ATOM      7  C   UNL A   1      33.955  26.081  24.198  1.00  0.00     0.261 C 
BRANCH   7   8
ATOM      8  O   UNL A   1      33.019  25.108  23.858  1.00  0.00    -0.460 OA
BRANCH   8   9
ATOM      9  C   UNL A   1      33.145  24.076  23.058  1.00  0.00     0.338 C 
ATOM     10  O   UNL A   1      34.104  23.601  22.502  1.00  0.00    -0.246 OA
BRANCH   9  11
ATOM     11  C   UNL A   1      31.771  23.480  23.225  1.00  0.00     0.087 C 
ATOM     12  C   UNL A   1      34.422  21.371  25.315  1.00  0.00     0.026 A 
ATOM     13  C   UNL A   1      34.533  20.009  24.988  1.00  0.00     0.033 A 
ATOM     14  C   UNL A   1      33.096  21.992  24.988  1.00  0.00     0.135 A 
ATOM     15  C   UNL A   1      33.555  19.349  24.246  1.00  0.00     0.042 A 
ATOM     16  C   UNL A   1      32.318  21.367  23.988  1.00  0.00     0.019 A 
ATOM     17  O   UNL A   1      32.491  23.260  25.478  1.00  0.00    -0.475 OA
ATOM     18  Cl  UNL A   1      33.811  17.715  23.784  1.00  0.00    -0.084 Cl
ATOM     19  C   UNL A   1      32.477  20.030  23.706  1.00  0.00     0.032 A 
ATOM     20  C   UNL A   1      31.522  22.179  23.032  1.00  0.00     0.027 C 
ATOM     21  C   UNL A   1      31.354  23.801  24.641  1.00  0.00     0.316 C 
BRANCH  12  22
ATOM     22  C   UNL A   1      35.865  21.990  25.270  1.00  0.00    -0.015 A 
ATOM     23  C   UNL A   1      40.002  24.199  27.687  1.00  0.00     0.044 C 
ATOM     24  C   UNL A   1      38.424  23.337  26.348  1.00  0.00    -0.051 A 
ATOM     25  C   UNL A   1      38.340  22.009  25.614  1.00  0.00     0.004 A 
ATOM     26  C   UNL A   1      37.274  23.955  25.671  1.00  0.00     0.004 A 
ATOM     27  C   UNL A   1      37.112  21.405  25.018  1.00  0.00     0.009 A 
ATOM     28  C   UNL A   1      36.028  23.356  25.338  1.00  0.00     0.009 A 
ENDBRANCH  12  22
BRANCH  21  29
ATOM     29  C   UNL A   1      30.551  25.184  24.678  1.00  0.00     0.430 C 
ATOM     30  F   UNL A   1      29.668  25.153  23.622  1.00  0.00    -0.167 F 
ATOM     31  F   UNL A   1      29.779  25.303  25.783  1.00  0.00    -0.167 F 
ATOM     32  F   UNL A   1      31.152  26.369  24.532  1.00  0.00    -0.167 F 
ENDBRANCH  21  29
ENDBRANCH   9  11
ENDBRANCH   8   9
ENDBRANCH   7   8
ENDBRANCH   6   7
ENDBRANCH   5   6
ENDBRANCH   4   5
ENDBRANCH   3   4
ENDBRANCH   2   3
ENDBRANCH   1   2
BRANCH   1  33
ATOM     33  C   UNL A   1      34.351  33.114  29.324  1.00  0.00     0.188 C 
BRANCH  33  34
ATOM     34  O   UNL A   1      34.250  32.407  30.525  1.00  0.00    -0.376 OA
BRANCH  34  35
ATOM     35  C   UNL A   1      35.243  32.906  31.404  1.00  0.00     0.202 C 
BRANCH  35  36
ATOM     36  C   UNL A   1      36.065  31.888  32.333  1.00  0.00     0.261 C 
BRANCH  36  37
ATOM     37  O   UNL A   1      37.071  30.682  31.887  1.00  0.00    -0.460 OA
BRANCH  37  38
ATOM     38  C   UNL A   1      37.966  29.691  31.607  1.00  0.00     0.338 C 
ATOM     39  O   UNL A   1      38.208  28.749  32.360  1.00  0.00    -0.246 OA
BRANCH  38  40
ATOM     40  C   UNL A   1      38.830  29.549  30.403  1.00  0.00     0.060 A 
ATOM     41  C   UNL A   1      39.083  28.284  29.857  1.00  0.00     0.016 A 
ATOM     42  C   UNL A   1      39.418  30.597  29.737  1.00  0.00     0.016 A 
ATOM     43  C   UNL A   1      40.329  28.041  29.285  1.00  0.00     0.010 A 
ATOM     44  C   UNL A   1      40.690  30.353  29.246  1.00  0.00     0.010 A 
ATOM     45  C   UNL A   1      41.240  29.075  29.378  1.00  0.00    -0.014 A 
BRANCH  45  46
ATOM     46  C   UNL A   1      42.458  29.050  30.294  1.00  0.00     0.031 A 
ATOM     47  C   UNL A   1      43.769  28.347  29.384  1.00  0.00     0.074 A 
ATOM     48  C   UNL A   1      42.305  29.738  31.566  1.00  0.00     0.049 A 
ATOM     49  N   UNL A   1      44.848  27.367  30.169  1.00  0.00    -0.248 NA
ATOM     50  C   UNL A   1      44.091  28.028  27.368  1.00  0.00     0.031 C 
ATOM     51  C   UNL A   1      43.156  30.381  32.693  1.00  0.00     0.029 A 
ATOM     52  N   UNL A   1      41.141  29.859  32.349  1.00  0.00    -0.354 N 
ATOM     53  C   UNL A   1      46.017  26.464  29.098  1.00  0.00     0.074 A 
ATOM     54  C   UNL A   1      45.467  26.975  27.272  1.00  0.00     0.031 C 
ATOM     55  C   UNL A   1      42.676  30.359  33.918  1.00  0.00     0.029 A 
ATOM     56  C   UNL A   1      41.536  29.562  33.677  1.00  0.00     0.049 A 
ATOM     57  H   UNL A   1      40.239  30.099  32.037  1.00  0.00     0.167 HD
ATOM     58  C   UNL A   1      47.056  25.835  29.785  1.00  0.00     0.031 A 
ATOM     59  C   UNL A   1      40.949  29.241  34.823  1.00  0.00     0.031 A 
ATOM     60  C   UNL A   1      46.933  25.860  31.336  1.00  0.00     0.049 A 
ATOM     61  C   UNL A   1      42.016  28.039  35.358  1.00  0.00     0.074 A 
ATOM     62  C   UNL A   1      47.806  26.316  32.319  1.00  0.00     0.029 A 
ATOM     63  N   UNL A   1      45.784  25.468  32.100  1.00  0.00    -0.354 N 
ATOM     64  N   UNL A   1      43.113  27.599  34.685  1.00  0.00    -0.248 NA
ATOM     65  C   UNL A   1      41.792  27.103  36.467  1.00  0.00     0.031 C 
ATOM     66  C   UNL A   1      47.205  26.221  33.620  1.00  0.00     0.029 A 
ATOM     67  C   UNL A   1      45.851  25.840  33.492  1.00  0.00     0.049 A 
ATOM     68  H   UNL A   1      45.017  24.990  31.710  1.00  0.00     0.167 HD
ATOM     69  C   UNL A   1      43.679  26.362  35.153  1.00  0.00     0.074 A 
ATOM     70  C   UNL A   1      42.785  26.178  36.332  1.00  0.00     0.031 C 
ATOM     71  C   UNL A   1      44.735  25.510  34.593  1.00  0.00     0.031 A 
BRANCH  58  72
ATOM     72  C   UNL A   1      48.445  25.600  29.081  1.00  0.00    -0.014 A 
ATOM     73  C   UNL A   1      49.587  26.309  29.518  1.00  0.00     0.010 A 
ATOM     74  C   UNL A   1      48.640  24.876  27.877  1.00  0.00     0.010 A 
ATOM     75  C   UNL A   1      50.782  26.405  28.778  1.00  0.00     0.020 A 
ATOM     76  C   UNL A   1      49.842  24.948  27.123  1.00  0.00     0.020 A 
ATOM     77  C   UNL A   1      50.908  25.718  27.580  1.00  0.00     0.054 A 
BRANCH  77  78
ATOM     78  S   UNL A   1      52.501  25.783  26.709  1.00  0.00     0.124 S 
ATOM     79  O   UNL A   1      52.518  24.530  25.959  1.00  0.00    -0.237 OA
ATOM     80  O   UNL A   1      52.360  26.993  25.902  1.00  0.00    -0.237 OA
ATOM     81  O   UNL A   1      53.485  25.872  27.787  1.00  0.00    -0.744 OA
ENDBRANCH  77  78
ENDBRANCH  58  72
BRANCH  59  82
ATOM     82  C   UNL A   1      39.941  30.469  34.968  1.00  0.00    -0.014 A 
ATOM     83  C   UNL A   1      38.584  30.336  35.419  1.00  0.00     0.010 A 
ATOM     84  C   UNL A   1      40.558  31.644  35.551  1.00  0.00     0.010 A 
ATOM     85  C   UNL A   1      37.986  31.189  36.429  1.00  0.00     0.020 A 
ATOM     86  C   UNL A   1      39.979  32.465  36.612  1.00  0.00     0.020 A 
ATOM     87  C   UNL A   1      38.670  32.246  37.037  1.00  0.00     0.054 A 
BRANCH  87  88
ATOM     88  S   UNL A   1      37.713  33.268  38.288  1.00  0.00     0.124 S 
ATOM     89  O   UNL A   1      38.056  32.597  39.537  1.00  0.00    -0.237 OA
ATOM     90  O   UNL A   1      38.280  34.607  38.121  1.00  0.00    -0.237 OA
ATOM     91  O   UNL A   1      36.311  33.182  37.942  1.00  0.00    -0.744 OA
ENDBRANCH  87  88
ENDBRANCH  59  82
BRANCH  71  92
ATOM     92  C   UNL A   1      44.976  24.036  35.013  1.00  0.00    -0.014 A 
ATOM     93  C   UNL A   1      44.822  22.938  34.175  1.00  0.00     0.010 A 
ATOM     94  C   UNL A   1      45.602  23.761  36.276  1.00  0.00     0.010 A 
ATOM     95  C   UNL A   1      45.240  21.660  34.571  1.00  0.00     0.020 A 
ATOM     96  C   UNL A   1      46.099  22.520  36.648  1.00  0.00     0.020 A 
ATOM     97  C   UNL A   1      45.882  21.462  35.795  1.00  0.00     0.054 A 
BRANCH  97  98
ATOM     98  S   UNL A   1      46.419  19.810  36.252  1.00  0.00     0.124 S 
ATOM     99  O   UNL A   1      45.955  19.029  35.110  1.00  0.00    -0.237 OA
ATOM    100  O   UNL A   1      47.867  19.974  36.362  1.00  0.00    -0.237 OA
ATOM    101  O   UNL A   1      45.727  19.549  37.512  1.00  0.00    -0.744 OA
ENDBRANCH  97  98
ENDBRANCH  71  92
ENDBRANCH  45  46
ENDBRANCH  38  40
ENDBRANCH  37  38
ENDBRANCH  36  37
ENDBRANCH  35  36
ENDBRANCH  34  35
ENDBRANCH  33  34
ENDBRANCH   1  33
TORSDOF 25
ENDMDL
