MODEL 1
REMARK VINA RESULT:      -7.8      0.000      0.000
REMARK SMILES C[C@H]1[C@H](C)CC[C@@]2(C(=O)OCCOCCOCCOCCOC(=O)c3ccc(-c4c5nc(c(-c6ccc(S(=O)(=O)[O-])cc6)c6ccc([nH]6)c(-c6ccc(S(=O)(=O)[O-])cc6)c6nc(c(-c7ccc(S(=O)(=O)[O-])cc7)c7ccc4[nH]7)C=C6)C=C5)cc3)CC[C@@]3(C)C(=CC[C@@H]4[C@@]5(C)CC[C@H](O)C(C)(C)[C@@H]5CC[C@]43C)[C@H]12
REMARK SMILES IDX 17 1 16 2 15 3 14 4 13 5 12 6 11 7 10 8 8 9 9 10 7 11 1 12
REMARK SMILES IDX 2 13 3 14 107 15 4 16 5 17 89 18 6 19 85 20 87 21 90 22
REMARK SMILES IDX 86 23 88 24 105 25 91 26 92 27 104 28 106 29 93 30 103 31
REMARK SMILES IDX 94 32 95 33 102 34 96 35 99 36 97 37 100 38 101 39 98 40
REMARK SMILES IDX 18 42 19 43 20 44 21 45 22 46 23 47 24 48 25 49 26 50 84 51
REMARK SMILES IDX 27 52 83 53 28 54 29 55 30 56 77 57 31 58 82 59 76 60 78 61
REMARK SMILES IDX 32 62 81 63 75 64 74 65 33 67 63 68 44 69 62 70 45 71 48 72
REMARK SMILES IDX 61 73 79 74 46 75 47 76 60 78 80 79 49 80 34 81 35 82 43 83
REMARK SMILES IDX 36 84 42 85 37 86 38 87 39 88 40 89 41 90 64 91 65 92 73 93
REMARK SMILES IDX 66 94 72 95 67 96 68 97 69 98 70 99 71 100 50 101 51 102
REMARK SMILES IDX 59 103 52 104 58 105 53 106 54 107 55 108 56 109 57 110
REMARK H PARENT 98 41 78 66 48 77
REMARK Flexibility Score: inf
ROOT
ATOM      1  C   UNL A   1      38.168  28.301  31.471  1.00  0.00     0.188 C 
ENDROOT
BRANCH   1   2
ATOM      2  O   UNL A   1      38.351  28.904  32.725  1.00  0.00    -0.377 OA
BRANCH   2   3
ATOM      3  C   UNL A   1      39.190  30.033  32.759  1.00  0.00     0.188 C 
BRANCH   3   4
ATOM      4  C   UNL A   1      40.151  30.204  33.956  1.00  0.00     0.188 C 
BRANCH   4   5
ATOM      5  O   UNL A   1      40.457  29.052  34.727  1.00  0.00    -0.376 OA
BRANCH   5   6
ATOM      6  C   UNL A   1      41.686  28.388  34.544  1.00  0.00     0.202 C 
BRANCH   6   7
ATOM      7  C   UNL A   1      41.854  27.432  33.379  1.00  0.00     0.261 C 
BRANCH   7   8
ATOM      8  O   UNL A   1      42.405  27.963  32.126  1.00  0.00    -0.463 OA
BRANCH   8   9
ATOM      9  C   UNL A   1      43.533  28.356  31.489  1.00  0.00     0.312 C 
ATOM     10  O   UNL A   1      44.560  27.721  31.299  1.00  0.00    -0.252 OA
BRANCH   9  11
ATOM     11  C   UNL A   1      43.340  29.757  30.869  1.00  0.00     0.075 C 
ATOM     12  C   UNL A   1      47.028  30.940  30.005  1.00  0.00     0.008 C 
ATOM     13  C   UNL A   1      45.861  30.365  30.803  1.00  0.00    -0.003 C 
ATOM     14  C   UNL A   1      45.639  31.178  32.141  1.00  0.00    -0.011 C 
ATOM     15  C   UNL A   1      44.533  30.078  29.912  1.00  0.00     0.036 C 
ATOM     16  C   UNL A   1      46.807  31.061  33.143  1.00  0.00     0.008 C 
ATOM     17  C   UNL A   1      44.398  30.764  32.932  1.00  0.00     0.005 C 
ATOM     18  C   UNL A   1      44.430  28.898  28.811  1.00  0.00    -0.063 C 
ATOM     19  C   UNL A   1      43.181  30.730  32.049  1.00  0.00     0.020 C 
ATOM     20  C   UNL A   1      42.010  29.855  30.095  1.00  0.00     0.020 C 
ATOM     21  C   UNL A   1      43.070  28.744  28.009  1.00  0.00    -0.006 C 
ATOM     22  C   UNL A   1      45.331  27.894  28.746  1.00  0.00    -0.027 C 
ATOM     23  C   UNL A   1      41.869  28.832  28.987  1.00  0.00     0.013 C 
ATOM     24  C   UNL A   1      42.981  29.947  27.040  1.00  0.00     0.017 C 
ATOM     25  C   UNL A   1      42.954  27.320  27.164  1.00  0.00    -0.020 C 
ATOM     26  C   UNL A   1      45.012  26.495  28.245  1.00  0.00     0.032 C 
ATOM     27  C   UNL A   1      43.497  26.200  28.117  1.00  0.00     0.006 C 
ATOM     28  C   UNL A   1      41.513  26.959  26.716  1.00  0.00     0.008 C 
ATOM     29  C   UNL A   1      43.790  27.410  25.850  1.00  0.00     0.012 C 
ATOM     30  C   UNL A   1      43.095  24.651  27.859  1.00  0.00    -0.025 C 
ATOM     31  C   UNL A   1      41.388  25.531  26.150  1.00  0.00     0.005 C 
ATOM     32  C   UNL A   1      44.210  23.963  27.046  1.00  0.00     0.012 C 
ATOM     33  C   UNL A   1      42.999  23.889  29.225  1.00  0.00     0.010 C 
ATOM     34  C   UNL A   1      41.644  24.513  27.267  1.00  0.00     0.003 C 
ATOM     35  C   UNL A   1      42.495  22.440  29.147  1.00  0.00     0.033 C 
ATOM     36  C   UNL A   1      41.147  23.030  27.001  1.00  0.00    -0.006 C 
ATOM     37  C   UNL A   1      41.190  22.273  28.365  1.00  0.00     0.120 C 
ATOM     38  C   UNL A   1      41.921  22.267  25.903  1.00  0.00     0.014 C 
ATOM     39  C   UNL A   1      39.668  23.026  26.525  1.00  0.00     0.014 C 
BRANCH  37  40
ATOM     40  O   UNL A   1      40.906  20.882  28.196  1.00  0.00    -0.393 OA
ATOM     41  H   UNL A   1      40.188  20.623  28.795  1.00  0.00     0.210 HD
ENDBRANCH  37  40
ENDBRANCH   9  11
ENDBRANCH   8   9
ENDBRANCH   7   8
ENDBRANCH   6   7
ENDBRANCH   5   6
ENDBRANCH   4   5
ENDBRANCH   3   4
ENDBRANCH   2   3
ENDBRANCH   1   2
BRANCH   1  42
ATOM     42  C   UNL A   1      37.907  29.281  30.314  1.00  0.00     0.188 C 
BRANCH  42  43
ATOM     43  O   UNL A   1      36.712  29.257  29.540  1.00  0.00    -0.376 OA
BRANCH  43  44
ATOM     44  C   UNL A   1      36.672  29.696  28.195  1.00  0.00     0.202 C 
BRANCH  44  45
ATOM     45  C   UNL A   1      35.671  30.775  27.742  1.00  0.00     0.261 C 
BRANCH  45  46
ATOM     46  O   UNL A   1      34.583  31.082  28.622  1.00  0.00    -0.460 OA
BRANCH  46  47
ATOM     47  C   UNL A   1      34.416  32.383  28.951  1.00  0.00     0.338 C 
ATOM     48  O   UNL A   1      33.527  33.128  28.569  1.00  0.00    -0.246 OA
BRANCH  47  49
ATOM     49  C   UNL A   1      35.353  32.699  30.062  1.00  0.00     0.060 A 
ATOM     50  C   UNL A   1      35.867  34.006  30.137  1.00  0.00     0.016 A 
ATOM     51  C   UNL A   1      35.594  31.793  31.103  1.00  0.00     0.016 A 
ATOM     52  C   UNL A   1      36.617  34.408  31.239  1.00  0.00     0.010 A 
ATOM     53  C   UNL A   1      36.418  32.169  32.170  1.00  0.00     0.010 A 
ATOM     54  C   UNL A   1      36.967  33.463  32.212  1.00  0.00    -0.014 A 
BRANCH  54  55
ATOM     55  C   UNL A   1      38.225  33.698  32.959  1.00  0.00     0.031 A 
ATOM     56  C   UNL A   1      39.472  33.799  32.116  1.00  0.00     0.074 A 
ATOM     57  C   UNL A   1      38.277  33.863  34.292  1.00  0.00     0.049 A 
ATOM     58  N   UNL A   1      40.705  34.034  32.475  1.00  0.00    -0.248 NA
ATOM     59  C   UNL A   1      39.294  33.626  30.661  1.00  0.00     0.031 C 
ATOM     60  C   UNL A   1      37.136  33.847  35.206  1.00  0.00     0.029 A 
ATOM     61  N   UNL A   1      39.360  34.082  35.110  1.00  0.00    -0.354 N 
ATOM     62  C   UNL A   1      41.437  34.047  31.292  1.00  0.00     0.074 A 
ATOM     63  C   UNL A   1      40.525  33.778  30.209  1.00  0.00     0.031 C 
ATOM     64  C   UNL A   1      37.583  34.035  36.463  1.00  0.00     0.029 A 
ATOM     65  C   UNL A   1      39.040  34.159  36.444  1.00  0.00     0.049 A 
ATOM     66  H   UNL A   1      40.278  34.177  34.770  1.00  0.00     0.167 HD
ATOM     67  C   UNL A   1      42.759  34.258  31.115  1.00  0.00     0.031 A 
ATOM     68  C   UNL A   1      39.843  34.295  37.519  1.00  0.00     0.031 A 
ATOM     69  C   UNL A   1      43.677  34.460  32.195  1.00  0.00     0.049 A 
ATOM     70  C   UNL A   1      41.335  34.421  37.309  1.00  0.00     0.074 A 
ATOM     71  C   UNL A   1      45.043  34.653  32.136  1.00  0.00     0.029 A 
ATOM     72  N   UNL A   1      43.320  34.470  33.534  1.00  0.00    -0.354 N 
ATOM     73  N   UNL A   1      42.011  34.454  36.184  1.00  0.00    -0.248 NA
ATOM     74  C   UNL A   1      42.170  34.532  38.515  1.00  0.00     0.031 C 
ATOM     75  C   UNL A   1      45.523  34.724  33.448  1.00  0.00     0.029 A 
ATOM     76  C   UNL A   1      44.444  34.641  34.317  1.00  0.00     0.049 A 
ATOM     77  H   UNL A   1      42.402  34.371  33.875  1.00  0.00     0.167 HD
ATOM     78  C   UNL A   1      43.345  34.620  36.546  1.00  0.00     0.074 A 
ATOM     79  C   UNL A   1      43.378  34.691  37.991  1.00  0.00     0.031 C 
ATOM     80  C   UNL A   1      44.446  34.708  35.756  1.00  0.00     0.031 A 
BRANCH  67  81
ATOM     81  C   UNL A   1      43.274  34.213  29.705  1.00  0.00    -0.014 A 
ATOM     82  C   UNL A   1      43.211  35.344  28.870  1.00  0.00     0.010 A 
ATOM     83  C   UNL A   1      43.813  33.016  29.202  1.00  0.00     0.010 A 
ATOM     84  C   UNL A   1      43.649  35.269  27.546  1.00  0.00     0.020 A 
ATOM     85  C   UNL A   1      44.278  32.944  27.887  1.00  0.00     0.020 A 
ATOM     86  C   UNL A   1      44.180  34.068  27.063  1.00  0.00     0.054 A 
BRANCH  86  87
ATOM     87  S   UNL A   1      44.771  34.006  25.350  1.00  0.00     0.124 S 
ATOM     88  O   UNL A   1      45.202  32.615  25.230  1.00  0.00    -0.237 OA
ATOM     89  O   UNL A   1      43.577  34.361  24.588  1.00  0.00    -0.237 OA
ATOM     90  O   UNL A   1      45.844  34.996  25.319  1.00  0.00    -0.744 OA
ENDBRANCH  86  87
ENDBRANCH  67  81
BRANCH  68  91
ATOM     91  C   UNL A   1      39.269  34.292  38.895  1.00  0.00    -0.014 A 
ATOM     92  C   UNL A   1      38.946  33.087  39.543  1.00  0.00     0.010 A 
ATOM     93  C   UNL A   1      39.023  35.508  39.562  1.00  0.00     0.010 A 
ATOM     94  C   UNL A   1      38.377  33.096  40.822  1.00  0.00     0.020 A 
ATOM     95  C   UNL A   1      38.480  35.521  40.850  1.00  0.00     0.020 A 
ATOM     96  C   UNL A   1      38.151  34.314  41.469  1.00  0.00     0.054 A 
BRANCH  96  97
ATOM     97  S   UNL A   1      37.466  34.302  43.150  1.00  0.00     0.124 S 
ATOM     98  O   UNL A   1      37.898  35.598  43.665  1.00  0.00    -0.237 OA
ATOM     99  O   UNL A   1      36.032  34.165  42.903  1.00  0.00    -0.237 OA
ATOM    100  O   UNL A   1      38.097  33.139  43.768  1.00  0.00    -0.744 OA
ENDBRANCH  96  97
ENDBRANCH  68  91
BRANCH  80 101
ATOM    101  C   UNL A   1      45.773  34.930  36.429  1.00  0.00    -0.014 A 
ATOM    102  C   UNL A   1      46.226  36.223  36.743  1.00  0.00     0.010 A 
ATOM    103  C   UNL A   1      46.539  33.818  36.826  1.00  0.00     0.010 A 
ATOM    104  C   UNL A   1      47.438  36.401  37.413  1.00  0.00     0.020 A 
ATOM    105  C   UNL A   1      47.736  33.991  37.522  1.00  0.00     0.020 A 
ATOM    106  C   UNL A   1      48.185  35.283  37.799  1.00  0.00     0.054 A 
BRANCH 106 107
ATOM    107  S   UNL A   1      49.734  35.538  38.707  1.00  0.00     0.124 S 
ATOM    108  O   UNL A   1      50.727  35.038  37.760  1.00  0.00    -0.237 OA
ATOM    109  O   UNL A   1      49.744  36.983  38.924  1.00  0.00    -0.237 OA
ATOM    110  O   UNL A   1      49.565  34.734  39.915  1.00  0.00    -0.744 OA
ENDBRANCH 106 107
ENDBRANCH  80 101
ENDBRANCH  54  55
ENDBRANCH  47  49
ENDBRANCH  46  47
ENDBRANCH  45  46
ENDBRANCH  44  45
ENDBRANCH  43  44
ENDBRANCH  42  43
ENDBRANCH   1  42
TORSDOF 24
ENDMDL
MODEL 2
REMARK VINA RESULT:      -6.7      9.739     17.329
REMARK SMILES C[C@H]1[C@H](C)CC[C@@]2(C(=O)OCCOCCOCCOCCOC(=O)c3ccc(-c4c5nc(c(-c6ccc(S(=O)(=O)[O-])cc6)c6ccc([nH]6)c(-c6ccc(S(=O)(=O)[O-])cc6)c6nc(c(-c7ccc(S(=O)(=O)[O-])cc7)c7ccc4[nH]7)C=C6)C=C5)cc3)CC[C@@]3(C)C(=CC[C@@H]4[C@@]5(C)CC[C@H](O)C(C)(C)[C@@H]5CC[C@]43C)[C@H]12
REMARK SMILES IDX 17 1 16 2 15 3 14 4 13 5 12 6 11 7 10 8 8 9 9 10 7 11 1 12
REMARK SMILES IDX 2 13 3 14 107 15 4 16 5 17 89 18 6 19 85 20 87 21 90 22
REMARK SMILES IDX 86 23 88 24 105 25 91 26 92 27 104 28 106 29 93 30 103 31
REMARK SMILES IDX 94 32 95 33 102 34 96 35 99 36 97 37 100 38 101 39 98 40
REMARK SMILES IDX 18 42 19 43 20 44 21 45 22 46 23 47 24 48 25 49 26 50 84 51
REMARK SMILES IDX 27 52 83 53 28 54 29 55 30 56 77 57 31 58 82 59 76 60 78 61
REMARK SMILES IDX 32 62 81 63 75 64 74 65 33 67 63 68 44 69 62 70 45 71 48 72
REMARK SMILES IDX 61 73 79 74 46 75 47 76 60 78 80 79 49 80 34 81 35 82 43 83
REMARK SMILES IDX 36 84 42 85 37 86 38 87 39 88 40 89 41 90 64 91 65 92 73 93
REMARK SMILES IDX 66 94 72 95 67 96 68 97 69 98 70 99 71 100 50 101 51 102
REMARK SMILES IDX 59 103 52 104 58 105 53 106 54 107 55 108 56 109 57 110
REMARK H PARENT 98 41 78 66 48 77
REMARK Flexibility Score: inf
ROOT
ATOM      1  C   UNL A   1      46.000  42.982  26.114  1.00  0.00     0.188 C 
ENDROOT
BRANCH   1   2
ATOM      2  O   UNL A   1      45.185  42.609  25.034  1.00  0.00    -0.377 OA
BRANCH   2   3
ATOM      3  C   UNL A   1      45.830  42.429  23.796  1.00  0.00     0.188 C 
BRANCH   3   4
ATOM      4  C   UNL A   1      45.057  42.765  22.503  1.00  0.00     0.188 C 
BRANCH   4   5
ATOM      5  O   UNL A   1      45.663  43.662  21.585  1.00  0.00    -0.376 OA
BRANCH   5   6
ATOM      6  C   UNL A   1      45.878  43.265  20.249  1.00  0.00     0.202 C 
BRANCH   6   7
ATOM      7  C   UNL A   1      44.887  43.677  19.178  1.00  0.00     0.261 C 
BRANCH   7   8
ATOM      8  O   UNL A   1      44.345  45.041  19.228  1.00  0.00    -0.463 OA
BRANCH   8   9
ATOM      9  C   UNL A   1      44.534  46.324  18.839  1.00  0.00     0.312 C 
ATOM     10  O   UNL A   1      44.638  47.323  19.536  1.00  0.00    -0.252 OA
BRANCH   9  11
ATOM     11  C   UNL A   1      44.742  46.397  17.311  1.00  0.00     0.075 C 
ATOM     12  C   UNL A   1      43.878  50.163  16.403  1.00  0.00     0.008 C 
ATOM     13  C   UNL A   1      43.744  48.774  17.022  1.00  0.00    -0.003 C 
ATOM     14  C   UNL A   1      42.391  48.086  16.574  1.00  0.00    -0.011 C 
ATOM     15  C   UNL A   1      45.084  47.864  16.896  1.00  0.00     0.036 C 
ATOM     16  C   UNL A   1      41.126  48.799  17.097  1.00  0.00     0.008 C 
ATOM     17  C   UNL A   1      42.241  46.633  17.028  1.00  0.00     0.005 C 
ATOM     18  C   UNL A   1      46.445  48.156  17.717  1.00  0.00    -0.063 C 
ATOM     19  C   UNL A   1      43.462  45.829  16.675  1.00  0.00     0.020 C 
ATOM     20  C   UNL A   1      45.866  45.448  16.847  1.00  0.00     0.020 C 
ATOM     21  C   UNL A   1      47.679  47.186  17.483  1.00  0.00    -0.006 C 
ATOM     22  C   UNL A   1      46.483  49.001  18.771  1.00  0.00    -0.027 C 
ATOM     23  C   UNL A   1      47.202  45.711  17.512  1.00  0.00     0.013 C 
ATOM     24  C   UNL A   1      48.220  47.482  16.064  1.00  0.00     0.017 C 
ATOM     25  C   UNL A   1      48.889  47.367  18.605  1.00  0.00    -0.020 C 
ATOM     26  C   UNL A   1      47.450  48.866  19.935  1.00  0.00     0.032 C 
ATOM     27  C   UNL A   1      48.181  47.501  19.997  1.00  0.00     0.006 C 
ATOM     28  C   UNL A   1      49.896  46.188  18.653  1.00  0.00     0.008 C 
ATOM     29  C   UNL A   1      49.741  48.631  18.272  1.00  0.00     0.012 C 
ATOM     30  C   UNL A   1      49.004  47.198  21.359  1.00  0.00    -0.025 C 
ATOM     31  C   UNL A   1      50.862  46.258  19.853  1.00  0.00     0.005 C 
ATOM     32  C   UNL A   1      49.540  48.522  21.937  1.00  0.00     0.012 C 
ATOM     33  C   UNL A   1      48.045  46.590  22.440  1.00  0.00     0.010 C 
ATOM     34  C   UNL A   1      50.078  46.066  21.154  1.00  0.00     0.003 C 
ATOM     35  C   UNL A   1      48.715  46.128  23.742  1.00  0.00     0.033 C 
ATOM     36  C   UNL A   1      50.923  45.678  22.440  1.00  0.00    -0.006 C 
ATOM     37  C   UNL A   1      49.916  45.201  23.532  1.00  0.00     0.120 C 
ATOM     38  C   UNL A   1      51.853  46.790  22.972  1.00  0.00     0.014 C 
ATOM     39  C   UNL A   1      51.864  44.480  22.135  1.00  0.00     0.014 C 
BRANCH  37  40
ATOM     40  O   UNL A   1      50.573  44.977  24.782  1.00  0.00    -0.393 OA
ATOM     41  H   UNL A   1      49.917  44.971  25.496  1.00  0.00     0.210 HD
ENDBRANCH  37  40
ENDBRANCH   9  11
ENDBRANCH   8   9
ENDBRANCH   7   8
ENDBRANCH   6   7
ENDBRANCH   5   6
ENDBRANCH   4   5
ENDBRANCH   3   4
ENDBRANCH   2   3
ENDBRANCH   1   2
BRANCH   1  42
ATOM     42  C   UNL A   1      46.212  41.884  27.172  1.00  0.00     0.188 C 
BRANCH  42  43
ATOM     43  O   UNL A   1      45.370  40.741  27.274  1.00  0.00    -0.376 OA
BRANCH  43  44
ATOM     44  C   UNL A   1      45.695  39.505  26.668  1.00  0.00     0.202 C 
BRANCH  44  45
ATOM     45  C   UNL A   1      45.222  38.172  27.279  1.00  0.00     0.261 C 
BRANCH  45  46
ATOM     46  O   UNL A   1      45.934  37.676  28.418  1.00  0.00    -0.460 OA
BRANCH  46  47
ATOM     47  C   UNL A   1      47.151  37.132  28.185  1.00  0.00     0.338 C 
ATOM     48  O   UNL A   1      48.228  37.705  28.213  1.00  0.00    -0.246 OA
BRANCH  47  49
ATOM     49  C   UNL A   1      46.991  35.654  28.137  1.00  0.00     0.060 A 
ATOM     50  C   UNL A   1      46.838  35.050  26.875  1.00  0.00     0.016 A 
ATOM     51  C   UNL A   1      47.153  34.857  29.278  1.00  0.00     0.016 A 
ATOM     52  C   UNL A   1      46.845  33.663  26.751  1.00  0.00     0.010 A 
ATOM     53  C   UNL A   1      47.075  33.464  29.165  1.00  0.00     0.010 A 
ATOM     54  C   UNL A   1      46.874  32.871  27.905  1.00  0.00    -0.014 A 
BRANCH  54  55
ATOM     55  C   UNL A   1      46.244  31.533  27.821  1.00  0.00     0.031 A 
ATOM     56  C   UNL A   1      47.143  30.420  27.342  1.00  0.00     0.074 A 
ATOM     57  C   UNL A   1      44.974  31.286  28.186  1.00  0.00     0.049 A 
ATOM     58  N   UNL A   1      46.892  29.147  27.198  1.00  0.00    -0.248 NA
ATOM     59  C   UNL A   1      48.526  30.800  26.991  1.00  0.00     0.031 C 
ATOM     60  C   UNL A   1      44.028  32.264  28.719  1.00  0.00     0.029 A 
ATOM     61  N   UNL A   1      44.264  30.110  28.159  1.00  0.00    -0.354 N 
ATOM     62  C   UNL A   1      48.083  28.584  26.756  1.00  0.00     0.074 A 
ATOM     63  C   UNL A   1      49.051  29.644  26.632  1.00  0.00     0.031 C 
ATOM     64  C   UNL A   1      42.854  31.648  28.957  1.00  0.00     0.029 A 
ATOM     65  C   UNL A   1      42.959  30.241  28.570  1.00  0.00     0.049 A 
ATOM     66  H   UNL A   1      44.654  29.254  27.873  1.00  0.00     0.167 HD
ATOM     67  C   UNL A   1      48.356  27.293  26.467  1.00  0.00     0.031 A 
ATOM     68  C   UNL A   1      41.968  29.327  28.607  1.00  0.00     0.031 A 
ATOM     69  C   UNL A   1      47.378  26.248  26.526  1.00  0.00     0.049 A 
ATOM     70  C   UNL A   1      42.263  27.908  28.176  1.00  0.00     0.074 A 
ATOM     71  C   UNL A   1      47.532  24.909  26.226  1.00  0.00     0.029 A 
ATOM     72  N   UNL A   1      46.053  26.436  26.889  1.00  0.00    -0.354 N 
ATOM     73  N   UNL A   1      43.400  27.384  27.781  1.00  0.00    -0.248 NA
ATOM     74  C   UNL A   1      41.140  26.958  28.201  1.00  0.00     0.031 C 
ATOM     75  C   UNL A   1      46.282  24.294  26.355  1.00  0.00     0.029 A 
ATOM     76  C   UNL A   1      45.369  25.240  26.797  1.00  0.00     0.049 A 
ATOM     77  H   UNL A   1      45.660  27.293  27.171  1.00  0.00     0.167 HD
ATOM     78  C   UNL A   1      43.136  26.039  27.539  1.00  0.00     0.074 A 
ATOM     79  C   UNL A   1      41.736  25.829  27.843  1.00  0.00     0.031 C 
ATOM     80  C   UNL A   1      43.973  25.062  27.107  1.00  0.00     0.031 A 
BRANCH  67  81
ATOM     81  C   UNL A   1      49.749  26.976  26.005  1.00  0.00    -0.014 A 
ATOM     82  C   UNL A   1      50.100  27.054  24.645  1.00  0.00     0.010 A 
ATOM     83  C   UNL A   1      50.717  26.576  26.944  1.00  0.00     0.010 A 
ATOM     84  C   UNL A   1      51.387  26.707  24.228  1.00  0.00     0.020 A 
ATOM     85  C   UNL A   1      52.012  26.254  26.534  1.00  0.00     0.020 A 
ATOM     86  C   UNL A   1      52.335  26.309  25.176  1.00  0.00     0.054 A 
BRANCH  86  87
ATOM     87  S   UNL A   1      54.007  25.894  24.612  1.00  0.00     0.124 S 
ATOM     88  O   UNL A   1      54.014  24.438  24.733  1.00  0.00    -0.237 OA
ATOM     89  O   UNL A   1      54.021  26.411  23.247  1.00  0.00    -0.237 OA
ATOM     90  O   UNL A   1      54.874  26.601  25.552  1.00  0.00    -0.744 OA
ENDBRANCH  86  87
ENDBRANCH  67  81
BRANCH  68  91
ATOM     91  C   UNL A   1      40.595  29.718  29.038  1.00  0.00    -0.014 A 
ATOM     92  C   UNL A   1      39.556  29.864  28.103  1.00  0.00     0.010 A 
ATOM     93  C   UNL A   1      40.326  29.969  30.398  1.00  0.00     0.010 A 
ATOM     94  C   UNL A   1      38.278  30.264  28.515  1.00  0.00     0.020 A 
ATOM     95  C   UNL A   1      39.045  30.342  30.816  1.00  0.00     0.020 A 
ATOM     96  C   UNL A   1      38.031  30.497  29.870  1.00  0.00     0.054 A 
BRANCH  96  97
ATOM     97  S   UNL A   1      36.354  30.959  30.391  1.00  0.00     0.124 S 
ATOM     98  O   UNL A   1      35.913  29.761  31.097  1.00  0.00    -0.237 OA
ATOM     99  O   UNL A   1      36.597  32.133  31.225  1.00  0.00    -0.237 OA
ATOM    100  O   UNL A   1      35.669  31.234  29.130  1.00  0.00    -0.744 OA
ENDBRANCH  96  97
ENDBRANCH  68  91
BRANCH  80 101
ATOM    101  C   UNL A   1      43.415  23.670  26.975  1.00  0.00    -0.014 A 
ATOM    102  C   UNL A   1      43.041  23.150  25.724  1.00  0.00     0.010 A 
ATOM    103  C   UNL A   1      43.344  22.845  28.113  1.00  0.00     0.010 A 
ATOM    104  C   UNL A   1      42.573  21.838  25.619  1.00  0.00     0.020 A 
ATOM    105  C   UNL A   1      42.906  21.525  28.007  1.00  0.00     0.020 A 
ATOM    106  C   UNL A   1      42.509  21.034  26.762  1.00  0.00     0.054 A 
BRANCH 106 107
ATOM    107  S   UNL A   1      41.941  19.320  26.593  1.00  0.00     0.124 S 
ATOM    108  O   UNL A   1      40.527  19.499  26.274  1.00  0.00    -0.237 OA
ATOM    109  O   UNL A   1      42.771  18.812  25.503  1.00  0.00    -0.237 OA
ATOM    110  O   UNL A   1      42.215  18.732  27.902  1.00  0.00    -0.744 OA
ENDBRANCH 106 107
ENDBRANCH  80 101
ENDBRANCH  54  55
ENDBRANCH  47  49
ENDBRANCH  46  47
ENDBRANCH  45  46
ENDBRANCH  44  45
ENDBRANCH  43  44
ENDBRANCH  42  43
ENDBRANCH   1  42
TORSDOF 24
ENDMDL
MODEL 3
REMARK VINA RESULT:      -6.3     10.088     17.408
REMARK SMILES C[C@H]1[C@H](C)CC[C@@]2(C(=O)OCCOCCOCCOCCOC(=O)c3ccc(-c4c5nc(c(-c6ccc(S(=O)(=O)[O-])cc6)c6ccc([nH]6)c(-c6ccc(S(=O)(=O)[O-])cc6)c6nc(c(-c7ccc(S(=O)(=O)[O-])cc7)c7ccc4[nH]7)C=C6)C=C5)cc3)CC[C@@]3(C)C(=CC[C@@H]4[C@@]5(C)CC[C@H](O)C(C)(C)[C@@H]5CC[C@]43C)[C@H]12
REMARK SMILES IDX 17 1 16 2 15 3 14 4 13 5 12 6 11 7 10 8 8 9 9 10 7 11 1 12
REMARK SMILES IDX 2 13 3 14 107 15 4 16 5 17 89 18 6 19 85 20 87 21 90 22
REMARK SMILES IDX 86 23 88 24 105 25 91 26 92 27 104 28 106 29 93 30 103 31
REMARK SMILES IDX 94 32 95 33 102 34 96 35 99 36 97 37 100 38 101 39 98 40
REMARK SMILES IDX 18 42 19 43 20 44 21 45 22 46 23 47 24 48 25 49 26 50 84 51
REMARK SMILES IDX 27 52 83 53 28 54 29 55 30 56 77 57 31 58 82 59 76 60 78 61
REMARK SMILES IDX 32 62 81 63 75 64 74 65 33 67 63 68 44 69 62 70 45 71 48 72
REMARK SMILES IDX 61 73 79 74 46 75 47 76 60 78 80 79 49 80 34 81 35 82 43 83
REMARK SMILES IDX 36 84 42 85 37 86 38 87 39 88 40 89 41 90 64 91 65 92 73 93
REMARK SMILES IDX 66 94 72 95 67 96 68 97 69 98 70 99 71 100 50 101 51 102
REMARK SMILES IDX 59 103 52 104 58 105 53 106 54 107 55 108 56 109 57 110
REMARK H PARENT 98 41 78 66 48 77
REMARK Flexibility Score: inf
ROOT
ATOM      1  C   UNL A   1      46.836  42.571  26.569  1.00  0.00     0.188 C 
ENDROOT
BRANCH   1   2
ATOM      2  O   UNL A   1      45.895  42.123  25.629  1.00  0.00    -0.377 OA
BRANCH   2   3
ATOM      3  C   UNL A   1      46.406  41.450  24.504  1.00  0.00     0.188 C 
BRANCH   3   4
ATOM      4  C   UNL A   1      46.199  42.079  23.109  1.00  0.00     0.188 C 
BRANCH   4   5
ATOM      5  O   UNL A   1      47.328  42.176  22.254  1.00  0.00    -0.376 OA
BRANCH   5   6
ATOM      6  C   UNL A   1      47.148  42.364  20.868  1.00  0.00     0.202 C 
BRANCH   6   7
ATOM      7  C   UNL A   1      47.271  43.756  20.280  1.00  0.00     0.261 C 
BRANCH   7   8
ATOM      8  O   UNL A   1      48.612  44.348  20.184  1.00  0.00    -0.463 OA
BRANCH   8   9
ATOM      9  C   UNL A   1      49.694  44.518  19.390  1.00  0.00     0.312 C 
ATOM     10  O   UNL A   1      49.791  44.331  18.185  1.00  0.00    -0.252 OA
BRANCH   9  11
ATOM     11  C   UNL A   1      50.858  45.138  20.193  1.00  0.00     0.075 C 
ATOM     12  C   UNL A   1      53.816  45.384  17.558  1.00  0.00     0.008 C 
ATOM     13  C   UNL A   1      52.658  44.792  18.356  1.00  0.00    -0.003 C 
ATOM     14  C   UNL A   1      53.116  43.493  19.134  1.00  0.00    -0.011 C 
ATOM     15  C   UNL A   1      51.827  45.887  19.221  1.00  0.00     0.036 C 
ATOM     16  C   UNL A   1      53.508  42.320  18.211  1.00  0.00     0.008 C 
ATOM     17  C   UNL A   1      52.058  42.916  20.077  1.00  0.00     0.005 C 
ATOM     18  C   UNL A   1      50.868  47.010  18.562  1.00  0.00    -0.063 C 
ATOM     19  C   UNL A   1      51.500  43.983  20.979  1.00  0.00     0.020 C 
ATOM     20  C   UNL A   1      50.346  46.112  21.272  1.00  0.00     0.020 C 
ATOM     21  C   UNL A   1      50.127  48.021  19.534  1.00  0.00    -0.006 C 
ATOM     22  C   UNL A   1      50.467  46.947  17.274  1.00  0.00    -0.027 C 
ATOM     23  C   UNL A   1      49.503  47.245  20.724  1.00  0.00     0.013 C 
ATOM     24  C   UNL A   1      51.207  48.971  20.102  1.00  0.00     0.017 C 
ATOM     25  C   UNL A   1      48.927  48.897  18.794  1.00  0.00    -0.020 C 
ATOM     26  C   UNL A   1      49.153  47.515  16.762  1.00  0.00     0.032 C 
ATOM     27  C   UNL A   1      48.148  47.889  17.881  1.00  0.00     0.006 C 
ATOM     28  C   UNL A   1      47.933  49.574  19.774  1.00  0.00     0.008 C 
ATOM     29  C   UNL A   1      49.551  50.059  17.961  1.00  0.00     0.012 C 
ATOM     30  C   UNL A   1      46.641  48.232  17.394  1.00  0.00    -0.025 C 
ATOM     31  C   UNL A   1      46.698  50.176  19.074  1.00  0.00     0.005 C 
ATOM     32  C   UNL A   1      46.691  48.868  15.990  1.00  0.00     0.012 C 
ATOM     33  C   UNL A   1      45.808  46.911  17.260  1.00  0.00     0.010 C 
ATOM     34  C   UNL A   1      45.848  49.050  18.478  1.00  0.00     0.003 C 
ATOM     35  C   UNL A   1      44.318  47.093  16.934  1.00  0.00     0.033 C 
ATOM     36  C   UNL A   1      44.350  49.417  18.105  1.00  0.00    -0.006 C 
ATOM     37  C   UNL A   1      43.591  48.076  17.856  1.00  0.00     0.120 C 
ATOM     38  C   UNL A   1      44.190  50.389  16.916  1.00  0.00     0.014 C 
ATOM     39  C   UNL A   1      43.645  50.122  19.297  1.00  0.00     0.014 C 
BRANCH  37  40
ATOM     40  O   UNL A   1      42.270  48.311  17.361  1.00  0.00    -0.393 OA
ATOM     41  H   UNL A   1      42.276  48.272  16.392  1.00  0.00     0.210 HD
ENDBRANCH  37  40
ENDBRANCH   9  11
ENDBRANCH   8   9
ENDBRANCH   7   8
ENDBRANCH   6   7
ENDBRANCH   5   6
ENDBRANCH   4   5
ENDBRANCH   3   4
ENDBRANCH   2   3
ENDBRANCH   1   2
BRANCH   1  42
ATOM     42  C   UNL A   1      47.008  41.658  27.796  1.00  0.00     0.188 C 
BRANCH  42  43
ATOM     43  O   UNL A   1      46.043  40.681  28.170  1.00  0.00    -0.376 OA
BRANCH  43  44
ATOM     44  C   UNL A   1      46.045  39.372  27.632  1.00  0.00     0.202 C 
BRANCH  44  45
ATOM     45  C   UNL A   1      45.498  38.181  28.442  1.00  0.00     0.261 C 
BRANCH  45  46
ATOM     46  O   UNL A   1      46.330  37.647  29.479  1.00  0.00    -0.460 OA
BRANCH  46  47
ATOM     47  C   UNL A   1      47.512  37.113  29.096  1.00  0.00     0.338 C 
ATOM     48  O   UNL A   1      48.603  37.662  29.105  1.00  0.00    -0.246 OA
BRANCH  47  49
ATOM     49  C   UNL A   1      47.312  35.653  28.897  1.00  0.00     0.060 A 
ATOM     50  C   UNL A   1      46.934  35.209  27.617  1.00  0.00     0.016 A 
ATOM     51  C   UNL A   1      47.648  34.721  29.888  1.00  0.00     0.016 A 
ATOM     52  C   UNL A   1      46.887  33.848  27.327  1.00  0.00     0.010 A 
ATOM     53  C   UNL A   1      47.520  33.353  29.623  1.00  0.00     0.010 A 
ATOM     54  C   UNL A   1      47.094  32.919  28.354  1.00  0.00    -0.014 A 
BRANCH  54  55
ATOM     55  C   UNL A   1      46.428  31.603  28.219  1.00  0.00     0.031 A 
ATOM     56  C   UNL A   1      47.275  30.505  27.623  1.00  0.00     0.074 A 
ATOM     57  C   UNL A   1      45.173  31.359  28.633  1.00  0.00     0.049 A 
ATOM     58  N   UNL A   1      46.985  29.250  27.412  1.00  0.00    -0.248 NA
ATOM     59  C   UNL A   1      48.646  30.878  27.224  1.00  0.00     0.031 C 
ATOM     60  C   UNL A   1      44.279  32.321  29.277  1.00  0.00     0.029 A 
ATOM     61  N   UNL A   1      44.434  30.203  28.569  1.00  0.00    -0.354 N 
ATOM     62  C   UNL A   1      48.139  28.691  26.872  1.00  0.00     0.074 A 
ATOM     63  C   UNL A   1      49.124  29.737  26.766  1.00  0.00     0.031 C 
ATOM     64  C   UNL A   1      43.104  31.715  29.536  1.00  0.00     0.029 A 
ATOM     65  C   UNL A   1      43.156  30.334  29.056  1.00  0.00     0.049 A 
ATOM     66  H   UNL A   1      44.788  29.359  28.209  1.00  0.00     0.167 HD
ATOM     67  C   UNL A   1      48.364  27.416  26.489  1.00  0.00     0.031 A 
ATOM     68  C   UNL A   1      42.146  29.440  29.086  1.00  0.00     0.031 A 
ATOM     69  C   UNL A   1      47.366  26.390  26.532  1.00  0.00     0.049 A 
ATOM     70  C   UNL A   1      42.384  28.047  28.551  1.00  0.00     0.074 A 
ATOM     71  C   UNL A   1      47.472  25.071  26.140  1.00  0.00     0.029 A 
ATOM     72  N   UNL A   1      46.067  26.582  26.976  1.00  0.00    -0.354 N 
ATOM     73  N   UNL A   1      43.486  27.526  28.064  1.00  0.00    -0.248 NA
ATOM     74  C   UNL A   1      41.241  27.121  28.575  1.00  0.00     0.031 C 
ATOM     75  C   UNL A   1      46.216  24.475  26.295  1.00  0.00     0.029 A 
ATOM     76  C   UNL A   1      45.350  25.409  26.844  1.00  0.00     0.049 A 
ATOM     77  H   UNL A   1      45.709  27.428  27.332  1.00  0.00     0.167 HD
ATOM     78  C   UNL A   1      43.177  26.205  27.752  1.00  0.00     0.074 A 
ATOM     79  C   UNL A   1      41.790  26.005  28.115  1.00  0.00     0.031 C 
ATOM     80  C   UNL A   1      43.968  25.240  27.216  1.00  0.00     0.031 A 
BRANCH  67  81
ATOM     81  C   UNL A   1      49.724  27.101  25.935  1.00  0.00    -0.014 A 
ATOM     82  C   UNL A   1      50.012  27.274  24.569  1.00  0.00     0.010 A 
ATOM     83  C   UNL A   1      50.724  26.606  26.791  1.00  0.00     0.010 A 
ATOM     84  C   UNL A   1      51.267  26.928  24.062  1.00  0.00     0.020 A 
ATOM     85  C   UNL A   1      51.988  26.284  26.294  1.00  0.00     0.020 A 
ATOM     86  C   UNL A   1      52.248  26.435  24.930  1.00  0.00     0.054 A 
BRANCH  86  87
ATOM     87  S   UNL A   1      53.878  26.023  24.253  1.00  0.00     0.124 S 
ATOM     88  O   UNL A   1      53.610  25.995  22.817  1.00  0.00    -0.237 OA
ATOM     89  O   UNL A   1      54.706  27.132  24.716  1.00  0.00    -0.237 OA
ATOM     90  O   UNL A   1      54.184  24.727  24.854  1.00  0.00    -0.744 OA
ENDBRANCH  86  87
ENDBRANCH  67  81
BRANCH  68  91
ATOM     91  C   UNL A   1      40.807  29.832  29.613  1.00  0.00    -0.014 A 
ATOM     92  C   UNL A   1      40.566  29.907  30.997  1.00  0.00     0.010 A 
ATOM     93  C   UNL A   1      39.752  30.115  28.724  1.00  0.00     0.010 A 
ATOM     94  C   UNL A   1      39.296  30.243  31.481  1.00  0.00     0.020 A 
ATOM     95  C   UNL A   1      38.490  30.478  29.204  1.00  0.00     0.020 A 
ATOM     96  C   UNL A   1      38.267  30.530  30.581  1.00  0.00     0.054 A 
BRANCH  96  97
ATOM     97  S   UNL A   1      36.643  31.021  31.229  1.00  0.00     0.124 S 
ATOM     98  O   UNL A   1      36.289  29.877  32.062  1.00  0.00    -0.237 OA
ATOM     99  O   UNL A   1      36.953  32.256  31.946  1.00  0.00    -0.237 OA
ATOM    100  O   UNL A   1      35.834  31.196  30.025  1.00  0.00    -0.744 OA
ENDBRANCH  96  97
ENDBRANCH  68  91
BRANCH  80 101
ATOM    101  C   UNL A   1      43.370  23.873  27.024  1.00  0.00    -0.014 A 
ATOM    102  C   UNL A   1      43.241  22.976  28.098  1.00  0.00     0.010 A 
ATOM    103  C   UNL A   1      42.857  23.516  25.763  1.00  0.00     0.010 A 
ATOM    104  C   UNL A   1      42.636  21.731  27.906  1.00  0.00     0.020 A 
ATOM    105  C   UNL A   1      42.227  22.285  25.575  1.00  0.00     0.020 A 
ATOM    106  C   UNL A   1      42.133  21.394  26.645  1.00  0.00     0.054 A 
BRANCH 106 107
ATOM    107  S   UNL A   1      41.314  19.790  26.431  1.00  0.00     0.124 S 
ATOM    108  O   UNL A   1      39.961  20.189  26.051  1.00  0.00    -0.237 OA
ATOM    109  O   UNL A   1      42.105  19.164  25.375  1.00  0.00    -0.237 OA
ATOM    110  O   UNL A   1      41.432  19.162  27.745  1.00  0.00    -0.744 OA
ENDBRANCH 106 107
ENDBRANCH  80 101
ENDBRANCH  54  55
ENDBRANCH  47  49
ENDBRANCH  46  47
ENDBRANCH  45  46
ENDBRANCH  44  45
ENDBRANCH  43  44
ENDBRANCH  42  43
ENDBRANCH   1  42
TORSDOF 24
ENDMDL
