MODEL 1
REMARK VINA RESULT:      -9.2      0.000      0.000
REMARK SMILES CC1(C)CCC[C@@]1(CC(=O)OCCOCCOCCOCCOC(=O)c1ccc(-c2c3nc(c(-c4ccc(S(=O)(=O)[O-])cc4)c4ccc([nH]4)c(-c4ccc(S(=O)(=O)[O-])cc4)c4nc(c(-c5ccc(S(=O)(=O)[O-])cc5)c5ccc2[nH]5)C=C4)C=C3)cc1)[NH+]1CCCCC1
REMARK SMILES IDX 18 1 17 2 16 3 15 4 14 5 13 6 12 7 11 8 9 9 10 10 8 11 7 12
REMARK SMILES IDX 1 13 2 14 3 15 4 16 5 17 6 18 86 19 87 20 91 21 88 23 90 24
REMARK SMILES IDX 89 25 19 26 20 27 21 28 22 29 23 30 24 31 25 32 26 33 27 34
REMARK SMILES IDX 85 35 28 36 84 37 29 38 30 39 31 40 78 41 32 42 83 43 77 44
REMARK SMILES IDX 79 45 33 46 82 47 76 48 75 49 34 51 64 52 45 53 63 54 46 55
REMARK SMILES IDX 49 56 62 57 80 58 47 59 48 60 61 62 81 63 50 64 35 65 36 66
REMARK SMILES IDX 44 67 37 68 43 69 38 70 39 71 40 72 41 73 42 74 65 75 66 76
REMARK SMILES IDX 74 77 67 78 73 79 68 80 69 81 70 82 71 83 72 84 51 85 52 86
REMARK SMILES IDX 60 87 53 88 59 89 54 90 55 91 56 92 57 93 58 94
REMARK H PARENT 86 22 79 50 49 61
REMARK Flexibility Score: inf
ROOT
ATOM      1  C   UNL A   1      35.834  22.016  24.238  1.00  0.00     0.188 C 
ENDROOT
BRANCH   1   2
ATOM      2  O   UNL A   1      34.431  22.172  24.402  1.00  0.00    -0.377 OA
BRANCH   2   3
ATOM      3  C   UNL A   1      33.531  21.389  23.640  1.00  0.00     0.188 C 
BRANCH   3   4
ATOM      4  C   UNL A   1      32.080  21.439  24.138  1.00  0.00     0.188 C 
BRANCH   4   5
ATOM      5  O   UNL A   1      31.883  21.706  25.521  1.00  0.00    -0.376 OA
BRANCH   5   6
ATOM      6  C   UNL A   1      30.661  22.362  25.879  1.00  0.00     0.202 C 
BRANCH   6   7
ATOM      7  C   UNL A   1      30.730  23.494  26.933  1.00  0.00     0.261 C 
BRANCH   7   8
ATOM      8  O   UNL A   1      30.037  24.703  26.528  1.00  0.00    -0.463 OA
BRANCH   8   9
ATOM      9  C   UNL A   1      30.507  25.385  25.449  1.00  0.00     0.312 C 
ATOM     10  O   UNL A   1      29.888  25.512  24.399  1.00  0.00    -0.252 OA
BRANCH   9  11
ATOM     11  C   UNL A   1      31.776  26.194  25.772  1.00  0.00     0.191 C 
BRANCH  11  12
ATOM     12  C   UNL A   1      32.155  27.572  25.085  1.00  0.00     0.113 C 
ATOM     13  C   UNL A   1      34.146  28.389  26.629  1.00  0.00     0.018 C 
ATOM     14  C   UNL A   1      32.676  28.596  26.215  1.00  0.00     0.020 C 
ATOM     15  C   UNL A   1      31.859  28.548  27.535  1.00  0.00     0.018 C 
ATOM     16  C   UNL A   1      32.409  29.993  25.614  1.00  0.00     0.013 C 
ATOM     17  C   UNL A   1      31.093  29.843  24.867  1.00  0.00     0.007 C 
ATOM     18  C   UNL A   1      30.912  28.350  24.561  1.00  0.00     0.070 C 
BRANCH  12  19
ATOM     19  N   UNL A   1      33.235  27.324  24.024  1.00  0.00    -0.329 N 
ATOM     20  C   UNL A   1      33.066  27.713  22.612  1.00  0.00     0.262 C 
ATOM     21  C   UNL A   1      33.976  26.056  24.004  1.00  0.00     0.262 C 
ATOM     22  H   UNL A   1      33.762  28.062  24.492  1.00  0.00     0.348 HD
ATOM     23  C   UNL A   1      32.290  26.722  21.744  1.00  0.00     0.062 C 
ATOM     24  C   UNL A   1      33.276  24.946  23.227  1.00  0.00     0.062 C 
ATOM     25  C   UNL A   1      32.896  25.329  21.806  1.00  0.00     0.012 C 
ENDBRANCH  12  19
ENDBRANCH  11  12
ENDBRANCH   9  11
ENDBRANCH   8   9
ENDBRANCH   7   8
ENDBRANCH   6   7
ENDBRANCH   5   6
ENDBRANCH   4   5
ENDBRANCH   3   4
ENDBRANCH   2   3
ENDBRANCH   1   2
BRANCH   1  26
ATOM     26  C   UNL A   1      36.683  21.928  25.516  1.00  0.00     0.188 C 
BRANCH  26  27
ATOM     27  O   UNL A   1      38.006  21.381  25.432  1.00  0.00    -0.376 OA
BRANCH  27  28
ATOM     28  C   UNL A   1      38.158  20.014  25.068  1.00  0.00     0.202 C 
BRANCH  28  29
ATOM     29  C   UNL A   1      39.320  19.270  25.708  1.00  0.00     0.261 C 
BRANCH  29  30
ATOM     30  O   UNL A   1      40.255  20.204  26.269  1.00  0.00    -0.460 OA
BRANCH  30  31
ATOM     31  C   UNL A   1      41.545  19.824  26.168  1.00  0.00     0.338 C 
ATOM     32  O   UNL A   1      41.969  18.739  25.798  1.00  0.00    -0.246 OA
BRANCH  31  33
ATOM     33  C   UNL A   1      42.421  20.987  26.379  1.00  0.00     0.060 A 
ATOM     34  C   UNL A   1      42.627  21.388  27.703  1.00  0.00     0.016 A 
ATOM     35  C   UNL A   1      42.964  21.717  25.316  1.00  0.00     0.016 A 
ATOM     36  C   UNL A   1      43.319  22.557  27.976  1.00  0.00     0.010 A 
ATOM     37  C   UNL A   1      43.639  22.909  25.591  1.00  0.00     0.010 A 
ATOM     38  C   UNL A   1      43.768  23.355  26.919  1.00  0.00    -0.014 A 
BRANCH  38  39
ATOM     39  C   UNL A   1      44.145  24.751  27.221  1.00  0.00     0.031 A 
ATOM     40  C   UNL A   1      45.583  25.153  27.025  1.00  0.00     0.074 A 
ATOM     41  C   UNL A   1      43.212  25.656  27.560  1.00  0.00     0.049 A 
ATOM     42  N   UNL A   1      46.146  26.317  27.204  1.00  0.00    -0.248 NA
ATOM     43  C   UNL A   1      46.507  24.104  26.556  1.00  0.00     0.031 C 
ATOM     44  C   UNL A   1      41.781  25.385  27.698  1.00  0.00     0.029 A 
ATOM     45  N   UNL A   1      43.332  26.991  27.841  1.00  0.00    -0.354 N 
ATOM     46  C   UNL A   1      47.487  26.139  26.885  1.00  0.00     0.074 A 
ATOM     47  C   UNL A   1      47.662  24.752  26.519  1.00  0.00     0.031 C 
ATOM     48  C   UNL A   1      41.156  26.522  28.050  1.00  0.00     0.029 A 
ATOM     49  C   UNL A   1      42.146  27.586  28.197  1.00  0.00     0.049 A 
ATOM     50  H   UNL A   1      44.186  27.478  27.792  1.00  0.00     0.167 HD
ATOM     51  C   UNL A   1      48.483  27.054  26.898  1.00  0.00     0.031 A 
ATOM     52  C   UNL A   1      41.899  28.842  28.620  1.00  0.00     0.031 A 
ATOM     53  C   UNL A   1      48.296  28.431  27.264  1.00  0.00     0.049 A 
ATOM     54  C   UNL A   1      43.046  29.818  28.705  1.00  0.00     0.074 A 
ATOM     55  C   UNL A   1      49.236  29.445  27.298  1.00  0.00     0.029 A 
ATOM     56  N   UNL A   1      47.090  28.985  27.668  1.00  0.00    -0.354 N 
ATOM     57  N   UNL A   1      44.305  29.641  28.381  1.00  0.00    -0.248 NA
ATOM     58  C   UNL A   1      42.735  31.165  29.203  1.00  0.00     0.031 C 
ATOM     59  C   UNL A   1      48.613  30.596  27.790  1.00  0.00     0.029 A 
ATOM     60  C   UNL A   1      47.270  30.318  27.988  1.00  0.00     0.049 A 
ATOM     61  H   UNL A   1      46.235  28.501  27.719  1.00  0.00     0.167 HD
ATOM     62  C   UNL A   1      44.929  30.865  28.607  1.00  0.00     0.074 A 
ATOM     63  C   UNL A   1      43.905  31.775  29.075  1.00  0.00     0.031 C 
ATOM     64  C   UNL A   1      46.232  31.207  28.444  1.00  0.00     0.031 A 
BRANCH  51  65
ATOM     65  C   UNL A   1      49.874  26.594  26.552  1.00  0.00    -0.014 A 
ATOM     66  C   UNL A   1      50.716  26.005  27.512  1.00  0.00     0.010 A 
ATOM     67  C   UNL A   1      50.313  26.680  25.218  1.00  0.00     0.010 A 
ATOM     68  C   UNL A   1      51.974  25.518  27.144  1.00  0.00     0.020 A 
ATOM     69  C   UNL A   1      51.557  26.171  24.841  1.00  0.00     0.020 A 
ATOM     70  C   UNL A   1      52.382  25.595  25.808  1.00  0.00     0.054 A 
BRANCH  70  71
ATOM     71  S   UNL A   1      53.988  24.889  25.347  1.00  0.00     0.124 S 
ATOM     72  O   UNL A   1      53.657  23.478  25.165  1.00  0.00    -0.237 OA
ATOM     73  O   UNL A   1      54.317  25.619  24.126  1.00  0.00    -0.237 OA
ATOM     74  O   UNL A   1      54.841  25.184  26.496  1.00  0.00    -0.744 OA
ENDBRANCH  70  71
ENDBRANCH  51  65
BRANCH  52  75
ATOM     75  C   UNL A   1      40.528  29.236  29.048  1.00  0.00    -0.014 A 
ATOM     76  C   UNL A   1      39.548  29.598  28.108  1.00  0.00     0.010 A 
ATOM     77  C   UNL A   1      40.210  29.288  30.419  1.00  0.00     0.010 A 
ATOM     78  C   UNL A   1      38.292  30.044  28.532  1.00  0.00     0.020 A 
ATOM     79  C   UNL A   1      38.945  29.698  30.845  1.00  0.00     0.020 A 
ATOM     80  C   UNL A   1      37.999  30.094  29.898  1.00  0.00     0.054 A 
BRANCH  80  81
ATOM     81  S   UNL A   1      36.362  30.669  30.426  1.00  0.00     0.124 S 
ATOM     82  O   UNL A   1      35.609  30.626  29.177  1.00  0.00    -0.237 OA
ATOM     83  O   UNL A   1      35.987  29.672  31.426  1.00  0.00    -0.237 OA
ATOM     84  O   UNL A   1      36.624  32.005  30.956  1.00  0.00    -0.744 OA
ENDBRANCH  80  81
ENDBRANCH  52  75
BRANCH  64  85
ATOM     85  C   UNL A   1      46.616  32.635  28.726  1.00  0.00    -0.014 A 
ATOM     86  C   UNL A   1      47.023  33.046  30.008  1.00  0.00     0.010 A 
ATOM     87  C   UNL A   1      46.629  33.568  27.671  1.00  0.00     0.010 A 
ATOM     88  C   UNL A   1      47.397  34.372  30.237  1.00  0.00     0.020 A 
ATOM     89  C   UNL A   1      47.036  34.885  27.889  1.00  0.00     0.020 A 
ATOM     90  C   UNL A   1      47.404  35.283  29.175  1.00  0.00     0.054 A 
BRANCH  90  91
ATOM     91  S   UNL A   1      47.936  36.987  29.492  1.00  0.00     0.124 S 
ATOM     92  O   UNL A   1      49.248  37.019  28.851  1.00  0.00    -0.237 OA
ATOM     93  O   UNL A   1      46.895  37.774  28.836  1.00  0.00    -0.237 OA
ATOM     94  O   UNL A   1      47.954  37.079  30.951  1.00  0.00    -0.744 OA
ENDBRANCH  90  91
ENDBRANCH  64  85
ENDBRANCH  38  39
ENDBRANCH  31  33
ENDBRANCH  30  31
ENDBRANCH  29  30
ENDBRANCH  28  29
ENDBRANCH  27  28
ENDBRANCH  26  27
ENDBRANCH   1  26
TORSDOF 25
ENDMDL
MODEL 2
REMARK VINA RESULT:      -8.7      2.045      8.994
REMARK SMILES CC1(C)CCC[C@@]1(CC(=O)OCCOCCOCCOCCOC(=O)c1ccc(-c2c3nc(c(-c4ccc(S(=O)(=O)[O-])cc4)c4ccc([nH]4)c(-c4ccc(S(=O)(=O)[O-])cc4)c4nc(c(-c5ccc(S(=O)(=O)[O-])cc5)c5ccc2[nH]5)C=C4)C=C3)cc1)[NH+]1CCCCC1
REMARK SMILES IDX 18 1 17 2 16 3 15 4 14 5 13 6 12 7 11 8 9 9 10 10 8 11 7 12
REMARK SMILES IDX 1 13 2 14 3 15 4 16 5 17 6 18 86 19 87 20 91 21 88 23 90 24
REMARK SMILES IDX 89 25 19 26 20 27 21 28 22 29 23 30 24 31 25 32 26 33 27 34
REMARK SMILES IDX 85 35 28 36 84 37 29 38 30 39 31 40 78 41 32 42 83 43 77 44
REMARK SMILES IDX 79 45 33 46 82 47 76 48 75 49 34 51 64 52 45 53 63 54 46 55
REMARK SMILES IDX 49 56 62 57 80 58 47 59 48 60 61 62 81 63 50 64 35 65 36 66
REMARK SMILES IDX 44 67 37 68 43 69 38 70 39 71 40 72 41 73 42 74 65 75 66 76
REMARK SMILES IDX 74 77 67 78 73 79 68 80 69 81 70 82 71 83 72 84 51 85 52 86
REMARK SMILES IDX 60 87 53 88 59 89 54 90 55 91 56 92 57 93 58 94
REMARK H PARENT 86 22 79 50 49 61
REMARK Flexibility Score: inf
ROOT
ATOM      1  C   UNL A   1      35.355  29.788  27.226  1.00  0.00     0.188 C 
ENDROOT
BRANCH   1   2
ATOM      2  O   UNL A   1      34.182  29.081  26.844  1.00  0.00    -0.377 OA
BRANCH   2   3
ATOM      3  C   UNL A   1      32.974  29.778  26.606  1.00  0.00     0.188 C 
BRANCH   3   4
ATOM      4  C   UNL A   1      32.432  29.624  25.178  1.00  0.00     0.188 C 
BRANCH   4   5
ATOM      5  O   UNL A   1      31.951  28.338  24.808  1.00  0.00    -0.376 OA
BRANCH   5   6
ATOM      6  C   UNL A   1      31.341  28.230  23.515  1.00  0.00     0.202 C 
BRANCH   6   7
ATOM      7  C   UNL A   1      31.428  26.866  22.787  1.00  0.00     0.261 C 
BRANCH   7   8
ATOM      8  O   UNL A   1      32.153  25.857  23.537  1.00  0.00    -0.463 OA
BRANCH   8   9
ATOM      9  C   UNL A   1      33.062  25.091  22.875  1.00  0.00     0.312 C 
ATOM     10  O   UNL A   1      33.993  25.547  22.224  1.00  0.00    -0.252 OA
BRANCH   9  11
ATOM     11  C   UNL A   1      32.951  23.600  23.242  1.00  0.00     0.191 C 
BRANCH  11  12
ATOM     12  C   UNL A   1      33.580  22.953  24.546  1.00  0.00     0.113 C 
ATOM     13  C   UNL A   1      32.193  20.704  24.727  1.00  0.00     0.018 C 
ATOM     14  C   UNL A   1      32.443  22.107  25.314  1.00  0.00     0.020 C 
ATOM     15  C   UNL A   1      31.054  22.802  25.344  1.00  0.00     0.018 C 
ATOM     16  C   UNL A   1      32.921  22.073  26.782  1.00  0.00     0.013 C 
ATOM     17  C   UNL A   1      33.540  23.442  27.014  1.00  0.00     0.007 C 
ATOM     18  C   UNL A   1      33.925  24.007  25.640  1.00  0.00     0.070 C 
BRANCH  12  19
ATOM     19  N   UNL A   1      34.758  22.056  24.144  1.00  0.00    -0.329 N 
ATOM     20  C   UNL A   1      35.501  21.235  25.117  1.00  0.00     0.262 C 
ATOM     21  C   UNL A   1      35.758  22.534  23.179  1.00  0.00     0.262 C 
ATOM     22  H   UNL A   1      34.059  21.460  23.699  1.00  0.00     0.348 HD
ATOM     23  C   UNL A   1      36.599  21.964  25.892  1.00  0.00     0.062 C 
ATOM     24  C   UNL A   1      36.883  23.347  23.810  1.00  0.00     0.062 C 
ATOM     25  C   UNL A   1      37.588  22.642  24.957  1.00  0.00     0.012 C 
ENDBRANCH  12  19
ENDBRANCH  11  12
ENDBRANCH   9  11
ENDBRANCH   8   9
ENDBRANCH   7   8
ENDBRANCH   6   7
ENDBRANCH   5   6
ENDBRANCH   4   5
ENDBRANCH   3   4
ENDBRANCH   2   3
ENDBRANCH   1   2
BRANCH   1  26
ATOM     26  C   UNL A   1      35.443  30.261  28.685  1.00  0.00     0.188 C 
BRANCH  26  27
ATOM     27  O   UNL A   1      34.835  31.509  29.045  1.00  0.00    -0.376 OA
BRANCH  27  28
ATOM     28  C   UNL A   1      35.477  32.718  28.657  1.00  0.00     0.202 C 
BRANCH  28  29
ATOM     29  C   UNL A   1      36.029  33.581  29.782  1.00  0.00     0.261 C 
BRANCH  29  30
ATOM     30  O   UNL A   1      37.432  33.332  29.952  1.00  0.00    -0.460 OA
BRANCH  30  31
ATOM     31  C   UNL A   1      37.721  32.433  30.916  1.00  0.00     0.338 C 
ATOM     32  O   UNL A   1      37.161  32.301  31.994  1.00  0.00    -0.246 OA
BRANCH  31  33
ATOM     33  C   UNL A   1      38.706  31.465  30.410  1.00  0.00     0.060 A 
ATOM     34  C   UNL A   1      39.697  31.049  31.306  1.00  0.00     0.016 A 
ATOM     35  C   UNL A   1      38.715  31.032  29.080  1.00  0.00     0.016 A 
ATOM     36  C   UNL A   1      40.742  30.253  30.866  1.00  0.00     0.010 A 
ATOM     37  C   UNL A   1      39.783  30.251  28.631  1.00  0.00     0.010 A 
ATOM     38  C   UNL A   1      40.823  29.908  29.513  1.00  0.00    -0.014 A 
BRANCH  38  39
ATOM     39  C   UNL A   1      42.117  29.405  29.007  1.00  0.00     0.031 A 
ATOM     40  C   UNL A   1      43.278  30.363  28.962  1.00  0.00     0.074 A 
ATOM     41  C   UNL A   1      42.276  28.108  28.697  1.00  0.00     0.049 A 
ATOM     42  N   UNL A   1      44.508  30.152  28.580  1.00  0.00    -0.248 NA
ATOM     43  C   UNL A   1      43.020  31.742  29.418  1.00  0.00     0.031 C 
ATOM     44  C   UNL A   1      41.235  27.084  28.784  1.00  0.00     0.029 A 
ATOM     45  N   UNL A   1      43.381  27.431  28.254  1.00  0.00    -0.354 N 
ATOM     46  C   UNL A   1      45.165  31.367  28.733  1.00  0.00     0.074 A 
ATOM     47  C   UNL A   1      44.197  32.319  29.227  1.00  0.00     0.031 C 
ATOM     48  C   UNL A   1      41.752  25.906  28.393  1.00  0.00     0.029 A 
ATOM     49  C   UNL A   1      43.144  26.102  27.996  1.00  0.00     0.049 A 
ATOM     50  H   UNL A   1      44.261  27.855  28.133  1.00  0.00     0.167 HD
ATOM     51  C   UNL A   1      46.462  31.660  28.484  1.00  0.00     0.031 A 
ATOM     52  C   UNL A   1      43.956  25.163  27.471  1.00  0.00     0.031 A 
ATOM     53  C   UNL A   1      47.415  30.703  27.994  1.00  0.00     0.049 A 
ATOM     54  C   UNL A   1      45.374  25.541  27.125  1.00  0.00     0.074 A 
ATOM     55  C   UNL A   1      48.758  30.892  27.721  1.00  0.00     0.029 A 
ATOM     56  N   UNL A   1      47.126  29.380  27.696  1.00  0.00    -0.354 N 
ATOM     57  N   UNL A   1      45.987  26.689  27.294  1.00  0.00    -0.248 NA
ATOM     58  C   UNL A   1      46.212  24.494  26.524  1.00  0.00     0.031 C 
ATOM     59  C   UNL A   1      49.263  29.702  27.190  1.00  0.00     0.029 A 
ATOM     60  C   UNL A   1      48.256  28.751  27.206  1.00  0.00     0.049 A 
ATOM     61  H   UNL A   1      46.247  28.953  27.815  1.00  0.00     0.167 HD
ATOM     62  C   UNL A   1      47.291  26.491  26.850  1.00  0.00     0.074 A 
ATOM     63  C   UNL A   1      47.381  25.110  26.425  1.00  0.00     0.031 C 
ATOM     64  C   UNL A   1      48.323  27.371  26.798  1.00  0.00     0.031 A 
BRANCH  51  65
ATOM     65  C   UNL A   1      46.921  33.079  28.690  1.00  0.00    -0.014 A 
ATOM     66  C   UNL A   1      46.878  34.025  27.652  1.00  0.00     0.010 A 
ATOM     67  C   UNL A   1      47.327  33.489  29.973  1.00  0.00     0.010 A 
ATOM     68  C   UNL A   1      47.239  35.354  27.892  1.00  0.00     0.020 A 
ATOM     69  C   UNL A   1      47.663  34.820  30.225  1.00  0.00     0.020 A 
ATOM     70  C   UNL A   1      47.620  35.745  29.181  1.00  0.00     0.054 A 
BRANCH  70  71
ATOM     71  S   UNL A   1      48.012  37.491  29.480  1.00  0.00     0.124 S 
ATOM     72  O   UNL A   1      49.285  37.398  30.190  1.00  0.00    -0.237 OA
ATOM     73  O   UNL A   1      48.085  38.036  28.126  1.00  0.00    -0.237 OA
ATOM     74  O   UNL A   1      46.887  37.968  30.280  1.00  0.00    -0.744 OA
ENDBRANCH  70  71
ENDBRANCH  51  65
BRANCH  52  75
ATOM     75  C   UNL A   1      43.440  23.795  27.190  1.00  0.00    -0.014 A 
ATOM     76  C   UNL A   1      43.015  23.428  25.901  1.00  0.00     0.010 A 
ATOM     77  C   UNL A   1      43.335  22.857  28.235  1.00  0.00     0.010 A 
ATOM     78  C   UNL A   1      42.458  22.166  25.672  1.00  0.00     0.020 A 
ATOM     79  C   UNL A   1      42.812  21.583  28.003  1.00  0.00     0.020 A 
ATOM     80  C   UNL A   1      42.357  21.252  26.726  1.00  0.00     0.054 A 
BRANCH  80  81
ATOM     81  S   UNL A   1      41.637  19.618  26.406  1.00  0.00     0.124 S 
ATOM     82  O   UNL A   1      41.961  18.899  27.633  1.00  0.00    -0.237 OA
ATOM     83  O   UNL A   1      40.223  19.932  26.209  1.00  0.00    -0.237 OA
ATOM     84  O   UNL A   1      42.340  19.164  25.208  1.00  0.00    -0.744 OA
ENDBRANCH  80  81
ENDBRANCH  52  75
BRANCH  64  85
ATOM     85  C   UNL A   1      49.651  26.856  26.307  1.00  0.00    -0.014 A 
ATOM     86  C   UNL A   1      50.011  26.932  24.950  1.00  0.00     0.010 A 
ATOM     87  C   UNL A   1      50.578  26.345  27.235  1.00  0.00     0.010 A 
ATOM     88  C   UNL A   1      51.259  26.469  24.526  1.00  0.00     0.020 A 
ATOM     89  C   UNL A   1      51.839  25.915  26.820  1.00  0.00     0.020 A 
ATOM     90  C   UNL A   1      52.166  25.966  25.464  1.00  0.00     0.054 A 
BRANCH  90  91
ATOM     91  S   UNL A   1      53.795  25.413  24.891  1.00  0.00     0.124 S 
ATOM     92  O   UNL A   1      53.581  23.980  24.704  1.00  0.00    -0.237 OA
ATOM     93  O   UNL A   1      53.982  26.187  23.667  1.00  0.00    -0.237 OA
ATOM     94  O   UNL A   1      54.689  25.770  25.991  1.00  0.00    -0.744 OA
ENDBRANCH  90  91
ENDBRANCH  64  85
ENDBRANCH  38  39
ENDBRANCH  31  33
ENDBRANCH  30  31
ENDBRANCH  29  30
ENDBRANCH  28  29
ENDBRANCH  27  28
ENDBRANCH  26  27
ENDBRANCH   1  26
TORSDOF 25
ENDMDL
MODEL 3
REMARK VINA RESULT:      -8.6      1.196      2.020
REMARK SMILES CC1(C)CCC[C@@]1(CC(=O)OCCOCCOCCOCCOC(=O)c1ccc(-c2c3nc(c(-c4ccc(S(=O)(=O)[O-])cc4)c4ccc([nH]4)c(-c4ccc(S(=O)(=O)[O-])cc4)c4nc(c(-c5ccc(S(=O)(=O)[O-])cc5)c5ccc2[nH]5)C=C4)C=C3)cc1)[NH+]1CCCCC1
REMARK SMILES IDX 18 1 17 2 16 3 15 4 14 5 13 6 12 7 11 8 9 9 10 10 8 11 7 12
REMARK SMILES IDX 1 13 2 14 3 15 4 16 5 17 6 18 86 19 87 20 91 21 88 23 90 24
REMARK SMILES IDX 89 25 19 26 20 27 21 28 22 29 23 30 24 31 25 32 26 33 27 34
REMARK SMILES IDX 85 35 28 36 84 37 29 38 30 39 31 40 78 41 32 42 83 43 77 44
REMARK SMILES IDX 79 45 33 46 82 47 76 48 75 49 34 51 64 52 45 53 63 54 46 55
REMARK SMILES IDX 49 56 62 57 80 58 47 59 48 60 61 62 81 63 50 64 35 65 36 66
REMARK SMILES IDX 44 67 37 68 43 69 38 70 39 71 40 72 41 73 42 74 65 75 66 76
REMARK SMILES IDX 74 77 67 78 73 79 68 80 69 81 70 82 71 83 72 84 51 85 52 86
REMARK SMILES IDX 60 87 53 88 59 89 54 90 55 91 56 92 57 93 58 94
REMARK H PARENT 86 22 79 50 49 61
REMARK Flexibility Score: inf
ROOT
ATOM      1  C   UNL A   1      36.796  22.242  24.917  1.00  0.00     0.188 C 
ENDROOT
BRANCH   1   2
ATOM      2  O   UNL A   1      35.740  22.456  25.846  1.00  0.00    -0.377 OA
BRANCH   2   3
ATOM      3  C   UNL A   1      34.950  21.370  26.291  1.00  0.00     0.188 C 
BRANCH   3   4
ATOM      4  C   UNL A   1      33.677  21.787  27.040  1.00  0.00     0.188 C 
BRANCH   4   5
ATOM      5  O   UNL A   1      32.492  21.926  26.267  1.00  0.00    -0.376 OA
BRANCH   5   6
ATOM      6  C   UNL A   1      32.528  21.394  24.937  1.00  0.00     0.202 C 
BRANCH   6   7
ATOM      7  C   UNL A   1      32.642  22.395  23.761  1.00  0.00     0.261 C 
BRANCH   7   8
ATOM      8  O   UNL A   1      32.808  23.772  24.189  1.00  0.00    -0.463 OA
BRANCH   8   9
ATOM      9  C   UNL A   1      33.818  24.500  23.641  1.00  0.00     0.312 C 
ATOM     10  O   UNL A   1      34.547  24.090  22.747  1.00  0.00    -0.252 OA
BRANCH   9  11
ATOM     11  C   UNL A   1      33.782  25.975  24.079  1.00  0.00     0.191 C 
BRANCH  11  12
ATOM     12  C   UNL A   1      32.457  26.767  24.440  1.00  0.00     0.113 C 
ATOM     13  C   UNL A   1      33.004  29.165  23.456  1.00  0.00     0.018 C 
ATOM     14  C   UNL A   1      32.828  28.309  24.726  1.00  0.00     0.020 C 
ATOM     15  C   UNL A   1      34.135  28.502  25.544  1.00  0.00     0.018 C 
ATOM     16  C   UNL A   1      31.689  28.811  25.640  1.00  0.00     0.013 C 
ATOM     17  C   UNL A   1      31.374  27.628  26.542  1.00  0.00     0.007 C 
ATOM     18  C   UNL A   1      31.868  26.364  25.825  1.00  0.00     0.070 C 
BRANCH  12  19
ATOM     19  N   UNL A   1      31.465  26.645  23.276  1.00  0.00    -0.329 N 
ATOM     20  C   UNL A   1      30.935  27.817  22.556  1.00  0.00     0.262 C 
ATOM     21  C   UNL A   1      30.356  25.683  23.346  1.00  0.00     0.262 C 
ATOM     22  H   UNL A   1      32.251  26.275  22.739  1.00  0.00     0.348 HD
ATOM     23  C   UNL A   1      29.744  28.513  23.215  1.00  0.00     0.062 C 
ATOM     24  C   UNL A   1      29.116  26.225  24.051  1.00  0.00     0.062 C 
ATOM     25  C   UNL A   1      28.607  27.541  23.485  1.00  0.00     0.012 C 
ENDBRANCH  12  19
ENDBRANCH  11  12
ENDBRANCH   9  11
ENDBRANCH   8   9
ENDBRANCH   7   8
ENDBRANCH   6   7
ENDBRANCH   5   6
ENDBRANCH   4   5
ENDBRANCH   3   4
ENDBRANCH   2   3
ENDBRANCH   1   2
BRANCH   1  26
ATOM     26  C   UNL A   1      37.975  21.375  25.385  1.00  0.00     0.188 C 
BRANCH  26  27
ATOM     27  O   UNL A   1      37.991  19.984  25.041  1.00  0.00    -0.376 OA
BRANCH  27  28
ATOM     28  C   UNL A   1      39.049  19.171  25.537  1.00  0.00     0.202 C 
BRANCH  28  29
ATOM     29  C   UNL A   1      40.274  19.903  26.063  1.00  0.00     0.261 C 
BRANCH  29  30
ATOM     30  O   UNL A   1      41.439  19.512  25.321  1.00  0.00    -0.460 OA
BRANCH  30  31
ATOM     31  C   UNL A   1      42.606  19.789  25.938  1.00  0.00     0.338 C 
ATOM     32  O   UNL A   1      43.611  19.093  25.965  1.00  0.00    -0.246 OA
BRANCH  31  33
ATOM     33  C   UNL A   1      42.589  21.176  26.429  1.00  0.00     0.060 A 
ATOM     34  C   UNL A   1      42.496  22.184  25.464  1.00  0.00     0.016 A 
ATOM     35  C   UNL A   1      42.739  21.491  27.783  1.00  0.00     0.016 A 
ATOM     36  C   UNL A   1      42.619  23.514  25.834  1.00  0.00     0.010 A 
ATOM     37  C   UNL A   1      42.889  22.830  28.153  1.00  0.00     0.010 A 
ATOM     38  C   UNL A   1      42.883  23.836  27.169  1.00  0.00    -0.014 A 
BRANCH  38  39
ATOM     39  C   UNL A   1      43.388  25.193  27.463  1.00  0.00     0.031 A 
ATOM     40  C   UNL A   1      44.826  25.498  27.137  1.00  0.00     0.074 A 
ATOM     41  C   UNL A   1      42.561  26.152  27.910  1.00  0.00     0.049 A 
ATOM     42  N   UNL A   1      45.487  26.613  27.284  1.00  0.00    -0.248 NA
ATOM     43  C   UNL A   1      45.623  24.400  26.558  1.00  0.00     0.031 C 
ATOM     44  C   UNL A   1      41.133  25.978  28.180  1.00  0.00     0.029 A 
ATOM     45  N   UNL A   1      42.804  27.467  28.206  1.00  0.00    -0.354 N 
ATOM     46  C   UNL A   1      46.776  26.350  26.833  1.00  0.00     0.074 A 
ATOM     47  C   UNL A   1      46.813  24.966  26.422  1.00  0.00     0.031 C 
ATOM     48  C   UNL A   1      40.629  27.146  28.616  1.00  0.00     0.029 A 
ATOM     49  C   UNL A   1      41.704  28.134  28.687  1.00  0.00     0.049 A 
ATOM     50  H   UNL A   1      43.682  27.893  28.084  1.00  0.00     0.167 HD
ATOM     51  C   UNL A   1      47.832  27.192  26.768  1.00  0.00     0.031 A 
ATOM     52  C   UNL A   1      41.590  29.391  29.159  1.00  0.00     0.031 A 
ATOM     53  C   UNL A   1      47.781  28.568  27.179  1.00  0.00     0.049 A 
ATOM     54  C   UNL A   1      42.808  30.281  29.152  1.00  0.00     0.074 A 
ATOM     55  C   UNL A   1      48.792  29.512  27.142  1.00  0.00     0.029 A 
ATOM     56  N   UNL A   1      46.664  29.195  27.710  1.00  0.00    -0.354 N 
ATOM     57  N   UNL A   1      44.015  30.026  28.704  1.00  0.00    -0.248 NA
ATOM     58  C   UNL A   1      42.645  31.633  29.707  1.00  0.00     0.031 C 
ATOM     59  C   UNL A   1      48.304  30.690  27.717  1.00  0.00     0.029 A 
ATOM     60  C   UNL A   1      46.970  30.502  28.039  1.00  0.00     0.049 A 
ATOM     61  H   UNL A   1      45.784  28.771  27.833  1.00  0.00     0.167 HD
ATOM     62  C   UNL A   1      44.744  31.195  28.894  1.00  0.00     0.074 A 
ATOM     63  C   UNL A   1      43.838  32.162  29.478  1.00  0.00     0.031 C 
ATOM     64  C   UNL A   1      46.048  31.449  28.611  1.00  0.00     0.031 A 
BRANCH  51  65
ATOM     65  C   UNL A   1      49.147  26.645  26.278  1.00  0.00    -0.014 A 
ATOM     66  C   UNL A   1      49.658  26.981  25.012  1.00  0.00     0.010 A 
ATOM     67  C   UNL A   1      49.920  25.847  27.139  1.00  0.00     0.010 A 
ATOM     68  C   UNL A   1      50.917  26.520  24.615  1.00  0.00     0.020 A 
ATOM     69  C   UNL A   1      51.189  25.406  26.757  1.00  0.00     0.020 A 
ATOM     70  C   UNL A   1      51.678  25.743  25.495  1.00  0.00     0.054 A 
BRANCH  70  71
ATOM     71  S   UNL A   1      53.338  25.221  24.981  1.00  0.00     0.124 S 
ATOM     72  O   UNL A   1      53.350  23.815  25.377  1.00  0.00    -0.237 OA
ATOM     73  O   UNL A   1      53.317  25.468  23.541  1.00  0.00    -0.237 OA
ATOM     74  O   UNL A   1      54.229  26.091  25.746  1.00  0.00    -0.744 OA
ENDBRANCH  70  71
ENDBRANCH  51  65
BRANCH  52  75
ATOM     75  C   UNL A   1      40.299  29.869  29.727  1.00  0.00    -0.014 A 
ATOM     76  C   UNL A   1      39.261  30.323  28.894  1.00  0.00     0.010 A 
ATOM     77  C   UNL A   1      40.119  29.907  31.123  1.00  0.00     0.010 A 
ATOM     78  C   UNL A   1      38.087  30.844  29.447  1.00  0.00     0.020 A 
ATOM     79  C   UNL A   1      38.934  30.394  31.678  1.00  0.00     0.020 A 
ATOM     80  C   UNL A   1      37.932  30.879  30.836  1.00  0.00     0.054 A 
BRANCH  80  81
ATOM     81  S   UNL A   1      36.399  31.553  31.532  1.00  0.00     0.124 S 
ATOM     82  O   UNL A   1      35.918  30.439  32.342  1.00  0.00    -0.237 OA
ATOM     83  O   UNL A   1      36.877  32.717  32.276  1.00  0.00    -0.237 OA
ATOM     84  O   UNL A   1      35.596  31.865  30.352  1.00  0.00    -0.744 OA
ENDBRANCH  80  81
ENDBRANCH  52  75
BRANCH  64  85
ATOM     85  C   UNL A   1      46.560  32.839  28.885  1.00  0.00    -0.014 A 
ATOM     86  C   UNL A   1      46.422  33.871  27.940  1.00  0.00     0.010 A 
ATOM     87  C   UNL A   1      47.133  33.129  30.137  1.00  0.00     0.010 A 
ATOM     88  C   UNL A   1      46.884  35.157  28.228  1.00  0.00     0.020 A 
ATOM     89  C   UNL A   1      47.564  34.421  30.443  1.00  0.00     0.020 A 
ATOM     90  C   UNL A   1      47.450  35.424  29.479  1.00  0.00     0.054 A 
BRANCH  90  91
ATOM     91  S   UNL A   1      48.001  37.113  29.843  1.00  0.00     0.124 S 
ATOM     92  O   UNL A   1      49.453  36.953  29.896  1.00  0.00    -0.237 OA
ATOM     93  O   UNL A   1      47.493  37.868  28.700  1.00  0.00    -0.237 OA
ATOM     94  O   UNL A   1      47.362  37.419  31.120  1.00  0.00    -0.744 OA
ENDBRANCH  90  91
ENDBRANCH  64  85
ENDBRANCH  38  39
ENDBRANCH  31  33
ENDBRANCH  30  31
ENDBRANCH  29  30
ENDBRANCH  28  29
ENDBRANCH  27  28
ENDBRANCH  26  27
ENDBRANCH   1  26
TORSDOF 25
ENDMDL
