MODEL 1
REMARK VINA RESULT:      -7.6      0.000      0.000
REMARK SMILES NC(=O)C[C@@H](NC(=O)c1ccc(F)cc1)C(=O)OCCOCCOCCOCCOC(=O)c1ccc(-c2c3nc(c(-c4ccc(S(=O)(=O)[O-])cc4)c4ccc([nH]4)c(-c4ccc(S(=O)(=O)[O-])cc4)c4nc(c(-c5ccc(S(=O)(=O)[O-])cc5)c5ccc2[nH]5)C=C4)C=C3)cc1
REMARK SMILES IDX 25 1 24 2 23 3 22 4 21 5 20 6 19 7 18 8 16 9 17 10 5 11 4 12
REMARK SMILES IDX 2 13 1 14 3 17 6 18 7 19 8 21 9 22 10 23 15 24 11 25 14 26
REMARK SMILES IDX 12 27 13 28 26 29 27 30 28 31 29 32 30 33 31 34 32 35 33 36
REMARK SMILES IDX 34 37 92 38 35 39 91 40 36 41 37 42 38 43 85 44 39 45 90 46
REMARK SMILES IDX 84 47 86 48 40 49 89 50 83 51 82 52 41 54 71 55 52 56 70 57
REMARK SMILES IDX 53 58 56 59 69 60 87 61 54 62 55 63 68 65 88 66 57 67 42 68
REMARK SMILES IDX 43 69 51 70 44 71 50 72 45 73 46 74 47 75 48 76 49 77 72 78
REMARK SMILES IDX 73 79 81 80 74 81 80 82 75 83 76 84 77 85 78 86 79 87 58 88
REMARK SMILES IDX 59 89 67 90 60 91 66 92 61 93 62 94 63 95 64 96 65 97
REMARK H PARENT 1 15 1 16 6 20 86 53 56 64
REMARK Flexibility Score: inf
ROOT
ATOM      1  C   UNL A   1      34.370  33.400  29.045  1.00  0.00     0.188 C 
ENDROOT
BRANCH   1   2
ATOM      2  O   UNL A   1      35.463  33.183  28.153  1.00  0.00    -0.377 OA
BRANCH   2   3
ATOM      3  C   UNL A   1      35.715  31.891  27.624  1.00  0.00     0.188 C 
BRANCH   3   4
ATOM      4  C   UNL A   1      35.510  30.701  28.573  1.00  0.00     0.188 C 
BRANCH   4   5
ATOM      5  O   UNL A   1      34.977  29.540  27.957  1.00  0.00    -0.376 OA
BRANCH   5   6
ATOM      6  C   UNL A   1      34.048  29.708  26.904  1.00  0.00     0.202 C 
BRANCH   6   7
ATOM      7  C   UNL A   1      32.864  28.743  26.823  1.00  0.00     0.261 C 
BRANCH   7   8
ATOM      8  O   UNL A   1      31.699  29.055  26.045  1.00  0.00    -0.462 OA
BRANCH   8   9
ATOM      9  C   UNL A   1      31.140  28.171  25.190  1.00  0.00     0.329 C 
ATOM     10  O   UNL A   1      30.935  26.985  25.408  1.00  0.00    -0.250 OA
BRANCH   9  11
ATOM     11  C   UNL A   1      30.969  28.808  23.817  1.00  0.00     0.201 C 
BRANCH  11  12
ATOM     12  C   UNL A   1      29.957  29.962  23.807  1.00  0.00     0.136 C 
BRANCH  12  13
ATOM     13  C   UNL A   1      29.627  30.324  22.379  1.00  0.00     0.220 C 
ATOM     14  N   UNL A   1      29.430  31.650  22.142  1.00  0.00    -0.370 N 
ATOM     15  H   UNL A   1      29.212  31.961  21.234  1.00  0.00     0.159 HD
ATOM     16  H   UNL A   1      29.507  32.299  22.879  1.00  0.00     0.159 HD
ATOM     17  O   UNL A   1      29.598  29.506  21.466  1.00  0.00    -0.275 OA
ENDBRANCH  12  13
ENDBRANCH  11  12
BRANCH  11  18
ATOM     18  N   UNL A   1      32.234  29.117  23.110  1.00  0.00    -0.338 N 
ATOM     19  C   UNL A   1      33.397  28.398  22.947  1.00  0.00     0.251 C 
ATOM     20  H   UNL A   1      32.245  30.001  22.676  1.00  0.00     0.164 HD
ATOM     21  O   UNL A   1      34.456  29.006  22.816  1.00  0.00    -0.269 OA
BRANCH  19  22
ATOM     22  C   UNL A   1      33.404  26.922  22.804  1.00  0.00     0.040 A 
ATOM     23  C   UNL A   1      32.930  26.317  21.631  1.00  0.00     0.017 A 
ATOM     24  C   UNL A   1      33.959  26.126  23.815  1.00  0.00     0.017 A 
ATOM     25  C   UNL A   1      32.874  24.923  21.529  1.00  0.00     0.040 A 
ATOM     26  C   UNL A   1      33.941  24.729  23.693  1.00  0.00     0.040 A 
ATOM     27  C   UNL A   1      33.370  24.141  22.565  1.00  0.00     0.123 A 
ATOM     28  F   UNL A   1      33.243  22.810  22.503  1.00  0.00    -0.207 F 
ENDBRANCH  19  22
ENDBRANCH  11  18
ENDBRANCH   9  11
ENDBRANCH   8   9
ENDBRANCH   7   8
ENDBRANCH   6   7
ENDBRANCH   5   6
ENDBRANCH   4   5
ENDBRANCH   3   4
ENDBRANCH   2   3
ENDBRANCH   1   2
BRANCH   1  29
ATOM     29  C   UNL A   1      34.320  34.604  30.006  1.00  0.00     0.188 C 
BRANCH  29  30
ATOM     30  O   UNL A   1      34.906  34.364  31.270  1.00  0.00    -0.376 OA
BRANCH  30  31
ATOM     31  C   UNL A   1      34.082  34.441  32.418  1.00  0.00     0.202 C 
BRANCH  31  32
ATOM     32  C   UNL A   1      34.371  33.500  33.597  1.00  0.00     0.261 C 
BRANCH  32  33
ATOM     33  O   UNL A   1      35.445  33.845  34.486  1.00  0.00    -0.460 OA
BRANCH  33  34
ATOM     34  C   UNL A   1      36.569  33.099  34.497  1.00  0.00     0.338 C 
ATOM     35  O   UNL A   1      36.874  32.219  33.710  1.00  0.00    -0.246 OA
BRANCH  34  36
ATOM     36  C   UNL A   1      37.473  33.684  35.515  1.00  0.00     0.060 A 
ATOM     37  C   UNL A   1      38.509  34.548  35.123  1.00  0.00     0.016 A 
ATOM     38  C   UNL A   1      37.276  33.391  36.866  1.00  0.00     0.016 A 
ATOM     39  C   UNL A   1      39.383  35.078  36.077  1.00  0.00     0.010 A 
ATOM     40  C   UNL A   1      38.165  33.898  37.814  1.00  0.00     0.010 A 
ATOM     41  C   UNL A   1      39.249  34.704  37.420  1.00  0.00    -0.014 A 
BRANCH  41  42
ATOM     42  C   UNL A   1      40.370  34.892  38.372  1.00  0.00     0.031 A 
ATOM     43  C   UNL A   1      40.406  36.188  39.138  1.00  0.00     0.074 A 
ATOM     44  C   UNL A   1      41.346  33.982  38.530  1.00  0.00     0.049 A 
ATOM     45  N   UNL A   1      41.353  36.686  39.887  1.00  0.00    -0.248 NA
ATOM     46  C   UNL A   1      39.212  37.046  39.027  1.00  0.00     0.031 C 
ATOM     47  C   UNL A   1      41.389  32.663  37.902  1.00  0.00     0.029 A 
ATOM     48  N   UNL A   1      42.510  34.048  39.257  1.00  0.00    -0.354 N 
ATOM     49  C   UNL A   1      40.883  37.923  40.312  1.00  0.00     0.074 A 
ATOM     50  C   UNL A   1      39.576  38.110  39.723  1.00  0.00     0.031 C 
ATOM     51  C   UNL A   1      42.538  32.053  38.251  1.00  0.00     0.029 A 
ATOM     52  C   UNL A   1      43.330  32.958  39.085  1.00  0.00     0.049 A 
ATOM     53  H   UNL A   1      42.735  34.805  39.845  1.00  0.00     0.167 HD
ATOM     54  C   UNL A   1      41.487  38.827  41.116  1.00  0.00     0.031 A 
ATOM     55  C   UNL A   1      44.590  32.739  39.516  1.00  0.00     0.031 A 
ATOM     56  C   UNL A   1      42.794  38.641  41.683  1.00  0.00     0.049 A 
ATOM     57  C   UNL A   1      45.285  33.798  40.338  1.00  0.00     0.074 A 
ATOM     58  C   UNL A   1      43.497  39.492  42.517  1.00  0.00     0.029 A 
ATOM     59  N   UNL A   1      43.597  37.532  41.468  1.00  0.00    -0.354 N 
ATOM     60  N   UNL A   1      44.830  34.962  40.737  1.00  0.00    -0.248 NA
ATOM     61  C   UNL A   1      46.663  33.514  40.769  1.00  0.00     0.031 C 
ATOM     62  C   UNL A   1      44.752  38.925  42.752  1.00  0.00     0.029 A 
ATOM     63  C   UNL A   1      44.799  37.686  42.133  1.00  0.00     0.049 A 
ATOM     64  H   UNL A   1      43.348  36.751  40.923  1.00  0.00     0.167 HD
ATOM     65  C   UNL A   1      45.848  35.528  41.501  1.00  0.00     0.074 A 
ATOM     66  C   UNL A   1      46.943  34.581  41.506  1.00  0.00     0.031 C 
ATOM     67  C   UNL A   1      45.870  36.720  42.147  1.00  0.00     0.031 A 
BRANCH  54  68
ATOM     68  C   UNL A   1      40.759  40.116  41.389  1.00  0.00    -0.014 A 
ATOM     69  C   UNL A   1      39.881  40.247  42.479  1.00  0.00     0.010 A 
ATOM     70  C   UNL A   1      40.979  41.226  40.552  1.00  0.00     0.010 A 
ATOM     71  C   UNL A   1      39.209  41.451  42.706  1.00  0.00     0.020 A 
ATOM     72  C   UNL A   1      40.334  42.441  40.794  1.00  0.00     0.020 A 
ATOM     73  C   UNL A   1      39.440  42.540  41.860  1.00  0.00     0.054 A 
BRANCH  73  74
ATOM     74  S   UNL A   1      38.573  44.098  42.194  1.00  0.00     0.124 S 
ATOM     75  O   UNL A   1      39.455  44.729  43.173  1.00  0.00    -0.237 OA
ATOM     76  O   UNL A   1      38.540  44.732  40.879  1.00  0.00    -0.237 OA
ATOM     77  O   UNL A   1      37.275  43.671  42.711  1.00  0.00    -0.744 OA
ENDBRANCH  73  74
ENDBRANCH  54  68
BRANCH  55  78
ATOM     78  C   UNL A   1      45.292  31.474  39.159  1.00  0.00    -0.014 A 
ATOM     79  C   UNL A   1      45.983  31.356  37.940  1.00  0.00     0.010 A 
ATOM     80  C   UNL A   1      45.270  30.373  40.036  1.00  0.00     0.010 A 
ATOM     81  C   UNL A   1      46.623  30.160  37.598  1.00  0.00     0.020 A 
ATOM     82  C   UNL A   1      45.935  29.186  39.713  1.00  0.00     0.020 A 
ATOM     83  C   UNL A   1      46.600  29.085  38.491  1.00  0.00     0.054 A 
BRANCH  83  84
ATOM     84  S   UNL A   1      47.487  27.564  38.049  1.00  0.00     0.124 S 
ATOM     85  O   UNL A   1      48.603  28.081  37.263  1.00  0.00    -0.237 OA
ATOM     86  O   UNL A   1      47.833  27.014  39.358  1.00  0.00    -0.237 OA
ATOM     87  O   UNL A   1      46.495  26.795  37.300  1.00  0.00    -0.744 OA
ENDBRANCH  83  84
ENDBRANCH  55  78
BRANCH  67  88
ATOM     88  C   UNL A   1      47.079  37.057  42.981  1.00  0.00    -0.014 A 
ATOM     89  C   UNL A   1      48.246  37.589  42.407  1.00  0.00     0.010 A 
ATOM     90  C   UNL A   1      46.989  36.951  44.382  1.00  0.00     0.010 A 
ATOM     91  C   UNL A   1      49.305  38.002  43.222  1.00  0.00     0.020 A 
ATOM     92  C   UNL A   1      48.033  37.391  45.200  1.00  0.00     0.020 A 
ATOM     93  C   UNL A   1      49.187  37.911  44.613  1.00  0.00     0.054 A 
BRANCH  93  94
ATOM     94  S   UNL A   1      50.537  38.542  45.648  1.00  0.00     0.124 S 
ATOM     95  O   UNL A   1      50.995  39.697  44.880  1.00  0.00    -0.237 OA
ATOM     96  O   UNL A   1      49.858  38.852  46.903  1.00  0.00    -0.237 OA
ATOM     97  O   UNL A   1      51.477  37.426  45.713  1.00  0.00    -0.744 OA
ENDBRANCH  93  94
ENDBRANCH  67  88
ENDBRANCH  41  42
ENDBRANCH  34  36
ENDBRANCH  33  34
ENDBRANCH  32  33
ENDBRANCH  31  32
ENDBRANCH  30  31
ENDBRANCH  29  30
ENDBRANCH   1  29
TORSDOF 27
ENDMDL
MODEL 2
REMARK VINA RESULT:      -7.3      9.354     12.144
REMARK SMILES NC(=O)C[C@@H](NC(=O)c1ccc(F)cc1)C(=O)OCCOCCOCCOCCOC(=O)c1ccc(-c2c3nc(c(-c4ccc(S(=O)(=O)[O-])cc4)c4ccc([nH]4)c(-c4ccc(S(=O)(=O)[O-])cc4)c4nc(c(-c5ccc(S(=O)(=O)[O-])cc5)c5ccc2[nH]5)C=C4)C=C3)cc1
REMARK SMILES IDX 25 1 24 2 23 3 22 4 21 5 20 6 19 7 18 8 16 9 17 10 5 11 4 12
REMARK SMILES IDX 2 13 1 14 3 17 6 18 7 19 8 21 9 22 10 23 15 24 11 25 14 26
REMARK SMILES IDX 12 27 13 28 26 29 27 30 28 31 29 32 30 33 31 34 32 35 33 36
REMARK SMILES IDX 34 37 92 38 35 39 91 40 36 41 37 42 38 43 85 44 39 45 90 46
REMARK SMILES IDX 84 47 86 48 40 49 89 50 83 51 82 52 41 54 71 55 52 56 70 57
REMARK SMILES IDX 53 58 56 59 69 60 87 61 54 62 55 63 68 65 88 66 57 67 42 68
REMARK SMILES IDX 43 69 51 70 44 71 50 72 45 73 46 74 47 75 48 76 49 77 72 78
REMARK SMILES IDX 73 79 81 80 74 81 80 82 75 83 76 84 77 85 78 86 79 87 58 88
REMARK SMILES IDX 59 89 67 90 60 91 66 92 61 93 62 94 63 95 64 96 65 97
REMARK H PARENT 1 15 1 16 6 20 86 53 56 64
REMARK Flexibility Score: inf
ROOT
ATOM      1  C   UNL A   1      35.368  34.072  31.434  1.00  0.00     0.188 C 
ENDROOT
BRANCH   1   2
ATOM      2  O   UNL A   1      36.419  34.089  30.468  1.00  0.00    -0.377 OA
BRANCH   2   3
ATOM      3  C   UNL A   1      37.775  34.168  30.879  1.00  0.00     0.188 C 
BRANCH   3   4
ATOM      4  C   UNL A   1      38.714  33.055  30.390  1.00  0.00     0.188 C 
BRANCH   4   5
ATOM      5  O   UNL A   1      39.973  33.509  29.922  1.00  0.00    -0.376 OA
BRANCH   5   6
ATOM      6  C   UNL A   1      40.103  34.872  29.567  1.00  0.00     0.202 C 
BRANCH   6   7
ATOM      7  C   UNL A   1      41.148  35.249  28.517  1.00  0.00     0.261 C 
BRANCH   7   8
ATOM      8  O   UNL A   1      42.308  36.021  28.863  1.00  0.00    -0.462 OA
BRANCH   8   9
ATOM      9  C   UNL A   1      43.565  35.570  28.659  1.00  0.00     0.329 C 
ATOM     10  O   UNL A   1      44.114  34.660  29.263  1.00  0.00    -0.250 OA
BRANCH   9  11
ATOM     11  C   UNL A   1      44.299  36.487  27.689  1.00  0.00     0.201 C 
BRANCH  11  12
ATOM     12  C   UNL A   1      45.402  35.772  26.896  1.00  0.00     0.136 C 
BRANCH  12  13
ATOM     13  C   UNL A   1      44.789  35.070  25.709  1.00  0.00     0.220 C 
ATOM     14  N   UNL A   1      45.670  34.630  24.770  1.00  0.00    -0.370 N 
ATOM     15  H   UNL A   1      45.343  34.162  23.968  1.00  0.00     0.159 HD
ATOM     16  H   UNL A   1      46.636  34.777  24.893  1.00  0.00     0.159 HD
ATOM     17  O   UNL A   1      43.588  34.843  25.608  1.00  0.00    -0.275 OA
ENDBRANCH  12  13
ENDBRANCH  11  12
BRANCH  11  18
ATOM     18  N   UNL A   1      43.423  37.343  26.855  1.00  0.00    -0.338 N 
ATOM     19  C   UNL A   1      43.308  38.710  26.745  1.00  0.00     0.251 C 
ATOM     20  H   UNL A   1      42.811  36.840  26.270  1.00  0.00     0.164 HD
ATOM     21  O   UNL A   1      42.220  39.190  26.436  1.00  0.00    -0.269 OA
BRANCH  19  22
ATOM     22  C   UNL A   1      44.473  39.618  26.867  1.00  0.00     0.040 A 
ATOM     23  C   UNL A   1      45.642  39.380  26.131  1.00  0.00     0.017 A 
ATOM     24  C   UNL A   1      44.382  40.766  27.665  1.00  0.00     0.017 A 
ATOM     25  C   UNL A   1      46.763  40.199  26.304  1.00  0.00     0.040 A 
ATOM     26  C   UNL A   1      45.493  41.610  27.805  1.00  0.00     0.040 A 
ATOM     27  C   UNL A   1      46.683  41.301  27.147  1.00  0.00     0.123 A 
ATOM     28  F   UNL A   1      47.778  42.037  27.374  1.00  0.00    -0.207 F 
ENDBRANCH  19  22
ENDBRANCH  11  18
ENDBRANCH   9  11
ENDBRANCH   8   9
ENDBRANCH   7   8
ENDBRANCH   6   7
ENDBRANCH   5   6
ENDBRANCH   4   5
ENDBRANCH   3   4
ENDBRANCH   2   3
ENDBRANCH   1   2
BRANCH   1  29
ATOM     29  C   UNL A   1      34.878  32.767  32.093  1.00  0.00     0.188 C 
BRANCH  29  30
ATOM     30  O   UNL A   1      35.400  32.537  33.387  1.00  0.00    -0.376 OA
BRANCH  30  31
ATOM     31  C   UNL A   1      35.734  33.657  34.186  1.00  0.00     0.202 C 
BRANCH  31  32
ATOM     32  C   UNL A   1      36.222  33.417  35.622  1.00  0.00     0.261 C 
BRANCH  32  33
ATOM     33  O   UNL A   1      37.588  33.736  35.931  1.00  0.00    -0.460 OA
BRANCH  33  34
ATOM     34  C   UNL A   1      38.544  32.795  35.780  1.00  0.00     0.338 C 
ATOM     35  O   UNL A   1      38.414  31.589  35.907  1.00  0.00    -0.246 OA
BRANCH  34  36
ATOM     36  C   UNL A   1      39.738  33.470  35.221  1.00  0.00     0.060 A 
ATOM     37  C   UNL A   1      39.644  34.184  34.016  1.00  0.00     0.016 A 
ATOM     38  C   UNL A   1      40.952  33.413  35.910  1.00  0.00     0.016 A 
ATOM     39  C   UNL A   1      40.776  34.797  33.469  1.00  0.00     0.010 A 
ATOM     40  C   UNL A   1      42.087  34.001  35.351  1.00  0.00     0.010 A 
ATOM     41  C   UNL A   1      42.014  34.654  34.107  1.00  0.00    -0.014 A 
BRANCH  41  42
ATOM     42  C   UNL A   1      43.277  34.913  33.373  1.00  0.00     0.031 A 
ATOM     43  C   UNL A   1      43.674  36.353  33.182  1.00  0.00     0.074 A 
ATOM     44  C   UNL A   1      44.026  33.926  32.853  1.00  0.00     0.049 A 
ATOM     45  N   UNL A   1      44.615  36.864  32.435  1.00  0.00    -0.248 NA
ATOM     46  C   UNL A   1      42.887  37.351  33.928  1.00  0.00     0.031 C 
ATOM     47  C   UNL A   1      43.788  32.495  33.026  1.00  0.00     0.029 A 
ATOM     48  N   UNL A   1      45.135  33.989  32.044  1.00  0.00    -0.354 N 
ATOM     49  C   UNL A   1      44.515  38.242  32.598  1.00  0.00     0.074 A 
ATOM     50  C   UNL A   1      43.412  38.487  33.498  1.00  0.00     0.031 C 
ATOM     51  C   UNL A   1      44.711  31.813  32.321  1.00  0.00     0.029 A 
ATOM     52  C   UNL A   1      45.570  32.759  31.609  1.00  0.00     0.049 A 
ATOM     53  H   UNL A   1      45.576  34.835  31.799  1.00  0.00     0.167 HD
ATOM     54  C   UNL A   1      45.271  39.216  32.042  1.00  0.00     0.031 A 
ATOM     55  C   UNL A   1      46.523  32.440  30.708  1.00  0.00     0.031 A 
ATOM     56  C   UNL A   1      46.355  38.963  31.134  1.00  0.00     0.049 A 
ATOM     57  C   UNL A   1      47.296  33.544  30.027  1.00  0.00     0.074 A 
ATOM     58  C   UNL A   1      47.189  39.878  30.518  1.00  0.00     0.029 A 
ATOM     59  N   UNL A   1      46.749  37.705  30.706  1.00  0.00    -0.354 N 
ATOM     60  N   UNL A   1      47.196  34.843  30.192  1.00  0.00    -0.248 NA
ATOM     61  C   UNL A   1      48.312  33.143  29.042  1.00  0.00     0.031 C 
ATOM     62  C   UNL A   1      48.046  39.176  29.667  1.00  0.00     0.029 A 
ATOM     63  C   UNL A   1      47.799  37.820  29.814  1.00  0.00     0.049 A 
ATOM     64  H   UNL A   1      46.341  36.856  30.994  1.00  0.00     0.167 HD
ATOM     65  C   UNL A   1      48.164  35.407  29.364  1.00  0.00     0.074 A 
ATOM     66  C   UNL A   1      48.837  34.312  28.700  1.00  0.00     0.031 C 
ATOM     67  C   UNL A   1      48.474  36.715  29.180  1.00  0.00     0.031 A 
BRANCH  54  68
ATOM     68  C   UNL A   1      44.917  40.643  32.366  1.00  0.00    -0.014 A 
ATOM     69  C   UNL A   1      43.912  41.328  31.663  1.00  0.00     0.010 A 
ATOM     70  C   UNL A   1      45.588  41.301  33.414  1.00  0.00     0.010 A 
ATOM     71  C   UNL A   1      43.609  42.656  31.975  1.00  0.00     0.020 A 
ATOM     72  C   UNL A   1      45.266  42.618  33.752  1.00  0.00     0.020 A 
ATOM     73  C   UNL A   1      44.289  43.292  33.018  1.00  0.00     0.054 A 
BRANCH  73  74
ATOM     74  S   UNL A   1      43.856  45.007  33.419  1.00  0.00     0.124 S 
ATOM     75  O   UNL A   1      42.611  44.837  34.165  1.00  0.00    -0.237 OA
ATOM     76  O   UNL A   1      45.004  45.450  34.206  1.00  0.00    -0.237 OA
ATOM     77  O   UNL A   1      43.715  45.645  32.112  1.00  0.00    -0.744 OA
ENDBRANCH  73  74
ENDBRANCH  54  68
BRANCH  55  78
ATOM     78  C   UNL A   1      46.785  31.012  30.370  1.00  0.00    -0.014 A 
ATOM     79  C   UNL A   1      47.663  30.239  31.150  1.00  0.00     0.010 A 
ATOM     80  C   UNL A   1      46.159  30.417  29.258  1.00  0.00     0.010 A 
ATOM     81  C   UNL A   1      47.922  28.906  30.818  1.00  0.00     0.020 A 
ATOM     82  C   UNL A   1      46.391  29.075  28.940  1.00  0.00     0.020 A 
ATOM     83  C   UNL A   1      47.280  28.331  29.718  1.00  0.00     0.054 A 
BRANCH  83  84
ATOM     84  S   UNL A   1      47.589  26.582  29.341  1.00  0.00     0.124 S 
ATOM     85  O   UNL A   1      48.168  26.100  30.592  1.00  0.00    -0.237 OA
ATOM     86  O   UNL A   1      46.250  26.088  29.030  1.00  0.00    -0.237 OA
ATOM     87  O   UNL A   1      48.507  26.635  28.205  1.00  0.00    -0.744 OA
ENDBRANCH  83  84
ENDBRANCH  55  78
BRANCH  67  88
ATOM     88  C   UNL A   1      49.635  37.053  28.280  1.00  0.00    -0.014 A 
ATOM     89  C   UNL A   1      50.961  37.011  28.740  1.00  0.00     0.010 A 
ATOM     90  C   UNL A   1      49.388  37.295  26.915  1.00  0.00     0.010 A 
ATOM     91  C   UNL A   1      52.021  37.214  27.850  1.00  0.00     0.020 A 
ATOM     92  C   UNL A   1      50.445  37.467  26.018  1.00  0.00     0.020 A 
ATOM     93  C   UNL A   1      51.756  37.429  26.493  1.00  0.00     0.054 A 
BRANCH  93  94
ATOM     94  S   UNL A   1      53.152  37.592  25.346  1.00  0.00     0.124 S 
ATOM     95  O   UNL A   1      54.206  36.859  26.041  1.00  0.00    -0.237 OA
ATOM     96  O   UNL A   1      52.643  36.961  24.132  1.00  0.00    -0.237 OA
ATOM     97  O   UNL A   1      53.358  39.036  25.251  1.00  0.00    -0.744 OA
ENDBRANCH  93  94
ENDBRANCH  67  88
ENDBRANCH  41  42
ENDBRANCH  34  36
ENDBRANCH  33  34
ENDBRANCH  32  33
ENDBRANCH  31  32
ENDBRANCH  30  31
ENDBRANCH  29  30
ENDBRANCH   1  29
TORSDOF 27
ENDMDL
MODEL 3
REMARK VINA RESULT:      -6.9      9.526     13.163
REMARK SMILES NC(=O)C[C@@H](NC(=O)c1ccc(F)cc1)C(=O)OCCOCCOCCOCCOC(=O)c1ccc(-c2c3nc(c(-c4ccc(S(=O)(=O)[O-])cc4)c4ccc([nH]4)c(-c4ccc(S(=O)(=O)[O-])cc4)c4nc(c(-c5ccc(S(=O)(=O)[O-])cc5)c5ccc2[nH]5)C=C4)C=C3)cc1
REMARK SMILES IDX 25 1 24 2 23 3 22 4 21 5 20 6 19 7 18 8 16 9 17 10 5 11 4 12
REMARK SMILES IDX 2 13 1 14 3 17 6 18 7 19 8 21 9 22 10 23 15 24 11 25 14 26
REMARK SMILES IDX 12 27 13 28 26 29 27 30 28 31 29 32 30 33 31 34 32 35 33 36
REMARK SMILES IDX 34 37 92 38 35 39 91 40 36 41 37 42 38 43 85 44 39 45 90 46
REMARK SMILES IDX 84 47 86 48 40 49 89 50 83 51 82 52 41 54 71 55 52 56 70 57
REMARK SMILES IDX 53 58 56 59 69 60 87 61 54 62 55 63 68 65 88 66 57 67 42 68
REMARK SMILES IDX 43 69 51 70 44 71 50 72 45 73 46 74 47 75 48 76 49 77 72 78
REMARK SMILES IDX 73 79 81 80 74 81 80 82 75 83 76 84 77 85 78 86 79 87 58 88
REMARK SMILES IDX 59 89 67 90 60 91 66 92 61 93 62 94 63 95 64 96 65 97
REMARK H PARENT 1 15 1 16 6 20 86 53 56 64
REMARK Flexibility Score: inf
ROOT
ATOM      1  C   UNL A   1      35.242  34.288  31.672  1.00  0.00     0.188 C 
ENDROOT
BRANCH   1   2
ATOM      2  O   UNL A   1      36.364  33.999  30.838  1.00  0.00    -0.377 OA
BRANCH   2   3
ATOM      3  C   UNL A   1      37.676  33.978  31.379  1.00  0.00     0.188 C 
BRANCH   3   4
ATOM      4  C   UNL A   1      38.639  32.920  30.819  1.00  0.00     0.188 C 
BRANCH   4   5
ATOM      5  O   UNL A   1      39.800  33.448  30.200  1.00  0.00    -0.376 OA
BRANCH   5   6
ATOM      6  C   UNL A   1      39.735  34.754  29.662  1.00  0.00     0.202 C 
BRANCH   6   7
ATOM      7  C   UNL A   1      40.572  35.068  28.421  1.00  0.00     0.261 C 
BRANCH   7   8
ATOM      8  O   UNL A   1      41.786  35.827  28.512  1.00  0.00    -0.462 OA
BRANCH   8   9
ATOM      9  C   UNL A   1      42.988  35.317  28.167  1.00  0.00     0.329 C 
ATOM     10  O   UNL A   1      43.757  34.716  28.904  1.00  0.00    -0.250 OA
BRANCH   9  11
ATOM     11  C   UNL A   1      43.361  35.761  26.759  1.00  0.00     0.201 C 
BRANCH  11  12
ATOM     12  C   UNL A   1      43.057  34.702  25.690  1.00  0.00     0.136 C 
BRANCH  12  13
ATOM     13  C   UNL A   1      44.349  34.246  25.056  1.00  0.00     0.220 C 
ATOM     14  N   UNL A   1      44.216  33.421  23.983  1.00  0.00    -0.370 N 
ATOM     15  H   UNL A   1      45.016  33.083  23.518  1.00  0.00     0.159 HD
ATOM     16  H   UNL A   1      43.319  33.160  23.669  1.00  0.00     0.159 HD
ATOM     17  O   UNL A   1      45.453  34.633  25.426  1.00  0.00    -0.275 OA
ENDBRANCH  12  13
ENDBRANCH  11  12
BRANCH  11  18
ATOM     18  N   UNL A   1      42.909  37.124  26.394  1.00  0.00    -0.338 N 
ATOM     19  C   UNL A   1      43.207  38.362  26.916  1.00  0.00     0.251 C 
ATOM     20  H   UNL A   1      42.280  37.148  25.637  1.00  0.00     0.164 HD
ATOM     21  O   UNL A   1      42.364  39.253  26.846  1.00  0.00    -0.269 OA
BRANCH  19  22
ATOM     22  C   UNL A   1      44.548  38.697  27.453  1.00  0.00     0.040 A 
ATOM     23  C   UNL A   1      44.691  39.647  28.473  1.00  0.00     0.017 A 
ATOM     24  C   UNL A   1      45.676  38.005  26.992  1.00  0.00     0.017 A 
ATOM     25  C   UNL A   1      45.963  40.010  28.927  1.00  0.00     0.040 A 
ATOM     26  C   UNL A   1      46.948  38.340  27.478  1.00  0.00     0.040 A 
ATOM     27  C   UNL A   1      47.082  39.361  28.417  1.00  0.00     0.123 A 
ATOM     28  F   UNL A   1      48.303  39.763  28.791  1.00  0.00    -0.207 F 
ENDBRANCH  19  22
ENDBRANCH  11  18
ENDBRANCH   9  11
ENDBRANCH   8   9
ENDBRANCH   7   8
ENDBRANCH   6   7
ENDBRANCH   5   6
ENDBRANCH   4   5
ENDBRANCH   3   4
ENDBRANCH   2   3
ENDBRANCH   1   2
BRANCH   1  29
ATOM     29  C   UNL A   1      34.501  33.191  32.463  1.00  0.00     0.188 C 
BRANCH  29  30
ATOM     30  O   UNL A   1      35.021  32.956  33.756  1.00  0.00    -0.376 OA
BRANCH  30  31
ATOM     31  C   UNL A   1      35.624  34.035  34.445  1.00  0.00     0.202 C 
BRANCH  31  32
ATOM     32  C   UNL A   1      36.644  33.726  35.551  1.00  0.00     0.261 C 
BRANCH  32  33
ATOM     33  O   UNL A   1      38.013  34.096  35.327  1.00  0.00    -0.460 OA
BRANCH  33  34
ATOM     34  C   UNL A   1      39.002  33.377  35.898  1.00  0.00     0.338 C 
ATOM     35  O   UNL A   1      38.889  32.544  36.781  1.00  0.00    -0.246 OA
BRANCH  34  36
ATOM     36  C   UNL A   1      40.233  33.624  35.111  1.00  0.00     0.060 A 
ATOM     37  C   UNL A   1      40.163  34.323  33.895  1.00  0.00     0.016 A 
ATOM     38  C   UNL A   1      41.465  33.180  35.596  1.00  0.00     0.016 A 
ATOM     39  C   UNL A   1      41.318  34.532  33.135  1.00  0.00     0.010 A 
ATOM     40  C   UNL A   1      42.613  33.363  34.824  1.00  0.00     0.010 A 
ATOM     41  C   UNL A   1      42.537  33.997  33.570  1.00  0.00    -0.014 A 
BRANCH  41  42
ATOM     42  C   UNL A   1      43.668  33.827  32.625  1.00  0.00     0.031 A 
ATOM     43  C   UNL A   1      44.748  34.876  32.657  1.00  0.00     0.074 A 
ATOM     44  C   UNL A   1      43.727  32.816  31.742  1.00  0.00     0.049 A 
ATOM     45  N   UNL A   1      45.741  35.073  31.831  1.00  0.00    -0.248 NA
ATOM     46  C   UNL A   1      44.686  35.845  33.766  1.00  0.00     0.031 C 
ATOM     47  C   UNL A   1      42.784  31.704  31.658  1.00  0.00     0.029 A 
ATOM     48  N   UNL A   1      44.617  32.583  30.722  1.00  0.00    -0.354 N 
ATOM     49  C   UNL A   1      46.403  36.201  32.303  1.00  0.00     0.074 A 
ATOM     50  C   UNL A   1      45.689  36.657  33.474  1.00  0.00     0.031 C 
ATOM     51  C   UNL A   1      43.132  30.916  30.623  1.00  0.00     0.029 A 
ATOM     52  C   UNL A   1      44.290  31.498  29.943  1.00  0.00     0.049 A 
ATOM     53  H   UNL A   1      45.414  33.140  30.565  1.00  0.00     0.167 HD
ATOM     54  C   UNL A   1      47.503  36.807  31.802  1.00  0.00     0.031 A 
ATOM     55  C   UNL A   1      44.838  31.055  28.792  1.00  0.00     0.031 A 
ATOM     56  C   UNL A   1      48.196  36.357  30.628  1.00  0.00     0.049 A 
ATOM     57  C   UNL A   1      46.010  31.797  28.197  1.00  0.00     0.074 A 
ATOM     58  C   UNL A   1      49.326  36.896  30.038  1.00  0.00     0.029 A 
ATOM     59  N   UNL A   1      47.820  35.266  29.858  1.00  0.00    -0.354 N 
ATOM     60  N   UNL A   1      46.630  32.860  28.653  1.00  0.00    -0.248 NA
ATOM     61  C   UNL A   1      46.560  31.281  26.933  1.00  0.00     0.031 C 
ATOM     62  C   UNL A   1      49.594  36.168  28.876  1.00  0.00     0.029 A 
ATOM     63  C   UNL A   1      48.681  35.129  28.786  1.00  0.00     0.049 A 
ATOM     64  H   UNL A   1      47.054  34.678  30.049  1.00  0.00     0.167 HD
ATOM     65  C   UNL A   1      47.667  33.112  27.757  1.00  0.00     0.074 A 
ATOM     66  C   UNL A   1      47.589  32.093  26.732  1.00  0.00     0.031 C 
ATOM     67  C   UNL A   1      48.603  34.092  27.787  1.00  0.00     0.031 A 
BRANCH  54  68
ATOM     68  C   UNL A   1      47.993  38.049  32.499  1.00  0.00    -0.014 A 
ATOM     69  C   UNL A   1      47.501  39.322  32.162  1.00  0.00     0.010 A 
ATOM     70  C   UNL A   1      48.945  37.934  33.529  1.00  0.00     0.010 A 
ATOM     71  C   UNL A   1      47.979  40.461  32.816  1.00  0.00     0.020 A 
ATOM     72  C   UNL A   1      49.401  39.067  34.208  1.00  0.00     0.020 A 
ATOM     73  C   UNL A   1      48.926  40.325  33.835  1.00  0.00     0.054 A 
BRANCH  73  74
ATOM     74  S   UNL A   1      49.509  41.818  34.684  1.00  0.00     0.124 S 
ATOM     75  O   UNL A   1      50.644  42.213  33.852  1.00  0.00    -0.237 OA
ATOM     76  O   UNL A   1      48.346  42.697  34.616  1.00  0.00    -0.237 OA
ATOM     77  O   UNL A   1      49.854  41.346  36.023  1.00  0.00    -0.744 OA
ENDBRANCH  73  74
ENDBRANCH  54  68
BRANCH  55  78
ATOM     78  C   UNL A   1      44.269  29.861  28.105  1.00  0.00    -0.014 A 
ATOM     79  C   UNL A   1      44.713  28.567  28.428  1.00  0.00     0.010 A 
ATOM     80  C   UNL A   1      43.281  30.012  27.113  1.00  0.00     0.010 A 
ATOM     81  C   UNL A   1      44.192  27.450  27.766  1.00  0.00     0.020 A 
ATOM     82  C   UNL A   1      42.734  28.897  26.471  1.00  0.00     0.020 A 
ATOM     83  C   UNL A   1      43.202  27.623  26.796  1.00  0.00     0.054 A 
BRANCH  83  84
ATOM     84  S   UNL A   1      42.501  26.154  25.992  1.00  0.00     0.124 S 
ATOM     85  O   UNL A   1      43.587  25.746  25.104  1.00  0.00    -0.237 OA
ATOM     86  O   UNL A   1      42.243  25.271  27.126  1.00  0.00    -0.237 OA
ATOM     87  O   UNL A   1      41.306  26.667  25.325  1.00  0.00    -0.744 OA
ENDBRANCH  83  84
ENDBRANCH  55  78
BRANCH  67  88
ATOM     88  C   UNL A   1      49.675  34.087  26.727  1.00  0.00    -0.014 A 
ATOM     89  C   UNL A   1      49.639  34.973  25.637  1.00  0.00     0.010 A 
ATOM     90  C   UNL A   1      50.799  33.258  26.901  1.00  0.00     0.010 A 
ATOM     91  C   UNL A   1      50.709  35.025  24.737  1.00  0.00     0.020 A 
ATOM     92  C   UNL A   1      51.882  33.329  26.022  1.00  0.00     0.020 A 
ATOM     93  C   UNL A   1      51.827  34.210  24.942  1.00  0.00     0.054 A 
BRANCH  93  94
ATOM     94  S   UNL A   1      53.240  34.366  23.813  1.00  0.00     0.124 S 
ATOM     95  O   UNL A   1      54.254  34.967  24.676  1.00  0.00    -0.237 OA
ATOM     96  O   UNL A   1      53.488  32.982  23.420  1.00  0.00    -0.237 OA
ATOM     97  O   UNL A   1      52.739  35.232  22.747  1.00  0.00    -0.744 OA
ENDBRANCH  93  94
ENDBRANCH  67  88
ENDBRANCH  41  42
ENDBRANCH  34  36
ENDBRANCH  33  34
ENDBRANCH  32  33
ENDBRANCH  31  32
ENDBRANCH  30  31
ENDBRANCH  29  30
ENDBRANCH   1  29
TORSDOF 27
ENDMDL
