MODEL 1
REMARK VINA RESULT:      -9.5      0.000      0.000
REMARK SMILES CCc1ccc2[nH]c(C(=O)c3cc(C)ccn3)c(CC(=O)OCCOCCOCCOCCOC(=O)c3ccc(-c4c5nc(c(-c6ccc(S(=O)(=O)[O-])cc6)c6ccc([nH]6)c(-c6ccc(S(=O)(=O)[O-])cc6)c6nc(c(-c7ccc(S(=O)(=O)[O-])cc7)c7ccc4[nH]7)C=C6)C=C5)cc3)c2c1
REMARK SMILES IDX 28 1 27 2 26 3 25 4 24 5 23 6 22 7 20 8 21 9 19 10 18 11
REMARK SMILES IDX 3 12 4 13 98 14 5 15 97 16 6 17 7 18 8 19 2 21 1 22 9 23
REMARK SMILES IDX 10 24 11 25 12 26 17 27 13 28 16 29 14 30 15 31 29 32 30 33
REMARK SMILES IDX 31 34 32 35 33 36 34 37 35 38 36 39 37 40 38 41 96 42 39 43
REMARK SMILES IDX 95 44 40 45 41 46 42 47 89 48 43 49 94 50 88 51 90 52 44 53
REMARK SMILES IDX 93 54 87 55 86 56 45 58 75 59 56 60 74 61 57 62 60 63 73 64
REMARK SMILES IDX 91 65 58 66 59 67 72 69 92 70 61 71 46 72 47 73 55 74 48 75
REMARK SMILES IDX 54 76 49 77 50 78 51 79 52 80 53 81 76 82 77 83 85 84 78 85
REMARK SMILES IDX 84 86 79 87 80 88 81 89 82 90 83 91 62 92 63 93 71 94 64 95
REMARK SMILES IDX 70 96 65 97 66 98 67 99 68 100 69 101
REMARK H PARENT 7 20 90 57 60 68
REMARK Flexibility Score: inf
ROOT
ATOM      1  O   UNL A   1      31.650  27.866  26.392  1.00  0.00    -0.377 OA
ENDROOT
BRANCH   1   2
ATOM      2  C   UNL A   1      32.813  27.097  26.183  1.00  0.00     0.188 C 
BRANCH   2   3
ATOM      3  C   UNL A   1      33.596  26.953  24.860  1.00  0.00     0.188 C 
BRANCH   3   4
ATOM      4  O   UNL A   1      34.589  25.959  24.713  1.00  0.00    -0.376 OA
BRANCH   4   5
ATOM      5  C   UNL A   1      34.438  24.644  25.204  1.00  0.00     0.202 C 
BRANCH   5   6
ATOM      6  C   UNL A   1      35.600  23.731  25.647  1.00  0.00     0.261 C 
BRANCH   6   7
ATOM      7  O   UNL A   1      35.280  22.373  26.001  1.00  0.00    -0.463 OA
BRANCH   7   8
ATOM      8  C   UNL A   1      34.341  22.172  26.952  1.00  0.00     0.310 C 
ATOM      9  O   UNL A   1      34.425  22.658  28.079  1.00  0.00    -0.252 OA
BRANCH   8  10
ATOM     10  C   UNL A   1      33.125  21.335  26.555  1.00  0.00     0.161 C 
BRANCH  10  11
ATOM     11  C   UNL A   1      32.725  21.083  25.106  1.00  0.00     0.000 A 
ATOM     12  C   UNL A   1      33.382  17.486  23.936  1.00  0.00    -0.048 A 
ATOM     13  C   UNL A   1      32.837  17.654  22.657  1.00  0.00     0.006 A 
ATOM     14  C   UNL A   1      33.511  18.603  24.782  1.00  0.00     0.014 A 
ATOM     15  C   UNL A   1      32.353  18.893  22.227  1.00  0.00     0.027 A 
ATOM     16  C   UNL A   1      32.944  19.840  24.411  1.00  0.00     0.004 A 
ATOM     17  C   UNL A   1      32.381  19.948  23.146  1.00  0.00     0.046 A 
ATOM     18  N   UNL A   1      31.907  21.228  23.034  1.00  0.00    -0.352 N 
ATOM     19  C   UNL A   1      31.887  21.854  24.267  1.00  0.00     0.093 A 
ATOM     20  H   UNL A   1      31.619  21.646  22.191  1.00  0.00     0.167 HD
BRANCH  12  21
ATOM     21  C   UNL A   1      33.812  16.111  24.391  1.00  0.00     0.032 C 
ATOM     22  C   UNL A   1      32.795  15.429  25.305  1.00  0.00     0.009 C 
ENDBRANCH  12  21
BRANCH  19  23
ATOM     23  C   UNL A   1      31.185  23.116  24.555  1.00  0.00     0.227 C 
ATOM     24  O   UNL A   1      30.556  23.279  25.599  1.00  0.00    -0.285 OA
BRANCH  23  25
ATOM     25  C   UNL A   1      31.271  24.302  23.619  1.00  0.00     0.113 A 
ATOM     26  C   UNL A   1      30.509  25.461  23.768  1.00  0.00     0.036 A 
ATOM     27  N   UNL A   1      32.195  24.164  22.631  1.00  0.00    -0.253 NA
ATOM     28  C   UNL A   1      30.680  26.505  22.841  1.00  0.00    -0.047 A 
ATOM     29  C   UNL A   1      32.346  25.185  21.761  1.00  0.00     0.112 A 
ATOM     30  C   UNL A   1      29.911  27.791  22.924  1.00  0.00     0.044 C 
ATOM     31  C   UNL A   1      31.602  26.345  21.804  1.00  0.00     0.023 A 
ENDBRANCH  23  25
ENDBRANCH  19  23
ENDBRANCH  10  11
ENDBRANCH   8  10
ENDBRANCH   7   8
ENDBRANCH   6   7
ENDBRANCH   5   6
ENDBRANCH   4   5
ENDBRANCH   3   4
ENDBRANCH   2   3
ENDBRANCH   1   2
BRANCH   1  32
ATOM     32  C   UNL A   1      31.721  28.883  27.356  1.00  0.00     0.188 C 
BRANCH  32  33
ATOM     33  C   UNL A   1      31.745  30.255  26.687  1.00  0.00     0.188 C 
BRANCH  33  34
ATOM     34  O   UNL A   1      32.799  31.079  27.152  1.00  0.00    -0.376 OA
BRANCH  34  35
ATOM     35  C   UNL A   1      34.131  30.575  27.176  1.00  0.00     0.202 C 
BRANCH  35  36
ATOM     36  C   UNL A   1      34.813  29.945  28.416  1.00  0.00     0.261 C 
BRANCH  36  37
ATOM     37  O   UNL A   1      36.195  30.225  28.636  1.00  0.00    -0.460 OA
BRANCH  37  38
ATOM     38  C   UNL A   1      36.761  29.769  29.764  1.00  0.00     0.338 C 
ATOM     39  O   UNL A   1      36.200  29.323  30.749  1.00  0.00    -0.246 OA
BRANCH  38  40
ATOM     40  C   UNL A   1      38.202  29.695  29.468  1.00  0.00     0.060 A 
ATOM     41  C   UNL A   1      38.594  29.649  28.125  1.00  0.00     0.016 A 
ATOM     42  C   UNL A   1      39.152  29.779  30.494  1.00  0.00     0.016 A 
ATOM     43  C   UNL A   1      39.941  29.689  27.800  1.00  0.00     0.010 A 
ATOM     44  C   UNL A   1      40.506  29.770  30.169  1.00  0.00     0.010 A 
ATOM     45  C   UNL A   1      40.896  29.696  28.822  1.00  0.00    -0.014 A 
BRANCH  45  46
ATOM     46  C   UNL A   1      42.282  29.342  28.469  1.00  0.00     0.031 A 
ATOM     47  C   UNL A   1      42.542  27.918  28.075  1.00  0.00     0.074 A 
ATOM     48  C   UNL A   1      43.245  30.276  28.426  1.00  0.00     0.049 A 
ATOM     49  N   UNL A   1      43.650  27.356  27.677  1.00  0.00    -0.248 NA
ATOM     50  C   UNL A   1      41.386  27.004  28.134  1.00  0.00     0.031 C 
ATOM     51  C   UNL A   1      43.060  31.697  28.721  1.00  0.00     0.029 A 
ATOM     52  N   UNL A   1      44.569  30.165  28.099  1.00  0.00    -0.354 N 
ATOM     53  C   UNL A   1      43.326  26.023  27.444  1.00  0.00     0.074 A 
ATOM     54  C   UNL A   1      41.931  25.854  27.778  1.00  0.00     0.031 C 
ATOM     55  C   UNL A   1      44.234  32.330  28.553  1.00  0.00     0.029 A 
ATOM     56  C   UNL A   1      45.253  31.354  28.174  1.00  0.00     0.049 A 
ATOM     57  H   UNL A   1      44.991  29.315  27.835  1.00  0.00     0.167 HD
ATOM     58  C   UNL A   1      44.127  25.031  26.994  1.00  0.00     0.031 A 
ATOM     59  C   UNL A   1      46.559  31.609  27.969  1.00  0.00     0.031 A 
ATOM     60  C   UNL A   1      45.522  25.221  26.709  1.00  0.00     0.049 A 
ATOM     61  C   UNL A   1      47.456  30.470  27.563  1.00  0.00     0.074 A 
ATOM     62  C   UNL A   1      46.445  24.296  26.256  1.00  0.00     0.029 A 
ATOM     63  N   UNL A   1      46.201  26.422  26.871  1.00  0.00    -0.354 N 
ATOM     64  N   UNL A   1      47.143  29.214  27.332  1.00  0.00    -0.248 NA
ATOM     65  C   UNL A   1      48.879  30.780  27.381  1.00  0.00     0.031 C 
ATOM     66  C   UNL A   1      47.695  24.922  26.214  1.00  0.00     0.029 A 
ATOM     67  C   UNL A   1      47.538  26.256  26.563  1.00  0.00     0.049 A 
ATOM     68  H   UNL A   1      45.789  27.267  27.163  1.00  0.00     0.167 HD
ATOM     69  C   UNL A   1      48.324  28.590  26.951  1.00  0.00     0.074 A 
ATOM     70  C   UNL A   1      49.355  29.611  26.972  1.00  0.00     0.031 C 
ATOM     71  C   UNL A   1      48.541  27.294  26.609  1.00  0.00     0.031 A 
BRANCH  58  72
ATOM     72  C   UNL A   1      43.515  23.660  26.866  1.00  0.00    -0.014 A 
ATOM     73  C   UNL A   1      42.859  23.249  25.690  1.00  0.00     0.010 A 
ATOM     74  C   UNL A   1      43.562  22.780  27.962  1.00  0.00     0.010 A 
ATOM     75  C   UNL A   1      42.208  22.013  25.637  1.00  0.00     0.020 A 
ATOM     76  C   UNL A   1      42.943  21.529  27.900  1.00  0.00     0.020 A 
ATOM     77  C   UNL A   1      42.247  21.164  26.747  1.00  0.00     0.054 A 
BRANCH  77  78
ATOM     78  S   UNL A   1      41.376  19.577  26.661  1.00  0.00     0.124 S 
ATOM     79  O   UNL A   1      42.457  18.656  26.318  1.00  0.00    -0.237 OA
ATOM     80  O   UNL A   1      40.836  19.434  28.011  1.00  0.00    -0.237 OA
ATOM     81  O   UNL A   1      40.380  19.783  25.612  1.00  0.00    -0.744 OA
ENDBRANCH  77  78
ENDBRANCH  58  72
BRANCH  59  82
ATOM     82  C   UNL A   1      47.077  32.993  28.137  1.00  0.00    -0.014 A 
ATOM     83  C   UNL A   1      47.488  33.457  29.399  1.00  0.00     0.010 A 
ATOM     84  C   UNL A   1      47.210  33.843  27.022  1.00  0.00     0.010 A 
ATOM     85  C   UNL A   1      48.027  34.739  29.541  1.00  0.00     0.020 A 
ATOM     86  C   UNL A   1      47.774  35.116  27.157  1.00  0.00     0.020 A 
ATOM     87  C   UNL A   1      48.177  35.557  28.417  1.00  0.00     0.054 A 
BRANCH  87  88
ATOM     88  S   UNL A   1      48.960  37.180  28.617  1.00  0.00     0.124 S 
ATOM     89  O   UNL A   1      49.453  37.116  29.988  1.00  0.00    -0.237 OA
ATOM     90  O   UNL A   1      49.983  37.164  27.574  1.00  0.00    -0.237 OA
ATOM     91  O   UNL A   1      47.865  38.120  28.389  1.00  0.00    -0.744 OA
ENDBRANCH  87  88
ENDBRANCH  59  82
BRANCH  71  92
ATOM     92  C   UNL A   1      49.940  26.915  26.201  1.00  0.00    -0.014 A 
ATOM     93  C   UNL A   1      50.786  26.199  27.066  1.00  0.00     0.010 A 
ATOM     94  C   UNL A   1      50.388  27.228  24.905  1.00  0.00     0.010 A 
ATOM     95  C   UNL A   1      52.069  25.834  26.652  1.00  0.00     0.020 A 
ATOM     96  C   UNL A   1      51.656  26.834  24.475  1.00  0.00     0.020 A 
ATOM     97  C   UNL A   1      52.494  26.151  25.358  1.00  0.00     0.054 A 
BRANCH  97  98
ATOM     98  S   UNL A   1      54.147  25.624  24.831  1.00  0.00     0.124 S 
ATOM     99  O   UNL A   1      54.071  24.175  24.994  1.00  0.00    -0.237 OA
ATOM    100  O   UNL A   1      54.207  26.099  23.451  1.00  0.00    -0.237 OA
ATOM    101  O   UNL A   1      55.042  26.310  25.760  1.00  0.00    -0.744 OA
ENDBRANCH  97  98
ENDBRANCH  71  92
ENDBRANCH  45  46
ENDBRANCH  38  40
ENDBRANCH  37  38
ENDBRANCH  36  37
ENDBRANCH  35  36
ENDBRANCH  34  35
ENDBRANCH  33  34
ENDBRANCH  32  33
ENDBRANCH   1  32
TORSDOF 27
ENDMDL
MODEL 2
REMARK VINA RESULT:      -9.3      2.116      8.615
REMARK SMILES CCc1ccc2[nH]c(C(=O)c3cc(C)ccn3)c(CC(=O)OCCOCCOCCOCCOC(=O)c3ccc(-c4c5nc(c(-c6ccc(S(=O)(=O)[O-])cc6)c6ccc([nH]6)c(-c6ccc(S(=O)(=O)[O-])cc6)c6nc(c(-c7ccc(S(=O)(=O)[O-])cc7)c7ccc4[nH]7)C=C6)C=C5)cc3)c2c1
REMARK SMILES IDX 28 1 27 2 26 3 25 4 24 5 23 6 22 7 20 8 21 9 19 10 18 11
REMARK SMILES IDX 3 12 4 13 98 14 5 15 97 16 6 17 7 18 8 19 2 21 1 22 9 23
REMARK SMILES IDX 10 24 11 25 12 26 17 27 13 28 16 29 14 30 15 31 29 32 30 33
REMARK SMILES IDX 31 34 32 35 33 36 34 37 35 38 36 39 37 40 38 41 96 42 39 43
REMARK SMILES IDX 95 44 40 45 41 46 42 47 89 48 43 49 94 50 88 51 90 52 44 53
REMARK SMILES IDX 93 54 87 55 86 56 45 58 75 59 56 60 74 61 57 62 60 63 73 64
REMARK SMILES IDX 91 65 58 66 59 67 72 69 92 70 61 71 46 72 47 73 55 74 48 75
REMARK SMILES IDX 54 76 49 77 50 78 51 79 52 80 53 81 76 82 77 83 85 84 78 85
REMARK SMILES IDX 84 86 79 87 80 88 81 89 82 90 83 91 62 92 63 93 71 94 64 95
REMARK SMILES IDX 70 96 65 97 66 98 67 99 68 100 69 101
REMARK H PARENT 7 20 90 57 60 68
REMARK Flexibility Score: inf
ROOT
ATOM      1  O   UNL A   1      36.260  22.132  24.520  1.00  0.00    -0.377 OA
ENDROOT
BRANCH   1   2
ATOM      2  C   UNL A   1      35.358  21.294  25.206  1.00  0.00     0.188 C 
BRANCH   2   3
ATOM      3  C   UNL A   1      34.789  21.519  26.624  1.00  0.00     0.188 C 
BRANCH   3   4
ATOM      4  O   UNL A   1      33.395  21.541  26.847  1.00  0.00    -0.376 OA
BRANCH   4   5
ATOM      5  C   UNL A   1      32.733  22.617  27.478  1.00  0.00     0.202 C 
BRANCH   5   6
ATOM      6  C   UNL A   1      31.470  23.315  26.935  1.00  0.00     0.261 C 
BRANCH   6   7
ATOM      7  O   UNL A   1      31.339  24.729  27.169  1.00  0.00    -0.463 OA
BRANCH   7   8
ATOM      8  C   UNL A   1      30.877  25.497  26.157  1.00  0.00     0.310 C 
ATOM      9  O   UNL A   1      29.685  25.544  25.851  1.00  0.00    -0.252 OA
BRANCH   8  10
ATOM     10  C   UNL A   1      31.903  26.355  25.417  1.00  0.00     0.161 C 
BRANCH  10  11
ATOM     11  C   UNL A   1      32.313  26.100  23.972  1.00  0.00     0.000 A 
ATOM     12  C   UNL A   1      32.558  22.374  23.080  1.00  0.00    -0.048 A 
ATOM     13  C   UNL A   1      32.866  22.574  21.729  1.00  0.00     0.006 A 
ATOM     14  C   UNL A   1      32.483  23.484  23.941  1.00  0.00     0.014 A 
ATOM     15  C   UNL A   1      33.032  23.857  21.200  1.00  0.00     0.027 A 
ATOM     16  C   UNL A   1      32.550  24.791  23.417  1.00  0.00     0.004 A 
ATOM     17  C   UNL A   1      32.821  24.939  22.063  1.00  0.00     0.046 A 
ATOM     18  N   UNL A   1      32.831  26.285  21.808  1.00  0.00    -0.352 N 
ATOM     19  C   UNL A   1      32.301  26.990  22.873  1.00  0.00     0.093 A 
ATOM     20  H   UNL A   1      33.170  26.694  20.980  1.00  0.00     0.167 HD
BRANCH  12  21
ATOM     21  C   UNL A   1      32.301  20.974  23.590  1.00  0.00     0.032 C 
ATOM     22  C   UNL A   1      32.169  19.938  22.475  1.00  0.00     0.009 C 
ENDBRANCH  12  21
BRANCH  19  23
ATOM     23  C   UNL A   1      31.906  28.408  22.825  1.00  0.00     0.227 C 
ATOM     24  O   UNL A   1      32.737  29.311  22.900  1.00  0.00    -0.285 OA
BRANCH  23  25
ATOM     25  C   UNL A   1      30.467  28.822  22.602  1.00  0.00     0.113 A 
ATOM     26  C   UNL A   1      29.380  28.208  23.224  1.00  0.00     0.036 A 
ATOM     27  N   UNL A   1      30.319  29.885  21.767  1.00  0.00    -0.253 NA
ATOM     28  C   UNL A   1      28.086  28.685  22.946  1.00  0.00    -0.047 A 
ATOM     29  C   UNL A   1      29.067  30.329  21.526  1.00  0.00     0.112 A 
ATOM     30  C   UNL A   1      26.857  28.093  23.572  1.00  0.00     0.044 C 
ATOM     31  C   UNL A   1      27.934  29.752  22.058  1.00  0.00     0.023 A 
ENDBRANCH  23  25
ENDBRANCH  19  23
ENDBRANCH  10  11
ENDBRANCH   8  10
ENDBRANCH   7   8
ENDBRANCH   6   7
ENDBRANCH   5   6
ENDBRANCH   4   5
ENDBRANCH   3   4
ENDBRANCH   2   3
ENDBRANCH   1   2
BRANCH   1  32
ATOM     32  C   UNL A   1      36.535  23.383  25.095  1.00  0.00     0.188 C 
BRANCH  32  33
ATOM     33  C   UNL A   1      37.945  23.406  25.679  1.00  0.00     0.188 C 
BRANCH  33  34
ATOM     34  O   UNL A   1      38.596  22.151  25.601  1.00  0.00    -0.376 OA
BRANCH  34  35
ATOM     35  C   UNL A   1      39.589  21.809  26.564  1.00  0.00     0.202 C 
BRANCH  35  36
ATOM     36  C   UNL A   1      40.338  20.455  26.614  1.00  0.00     0.261 C 
BRANCH  36  37
ATOM     37  O   UNL A   1      41.172  20.107  25.510  1.00  0.00    -0.460 OA
BRANCH  37  38
ATOM     38  C   UNL A   1      42.475  19.891  25.744  1.00  0.00     0.338 C 
ATOM     39  O   UNL A   1      43.093  18.851  25.603  1.00  0.00    -0.246 OA
BRANCH  38  40
ATOM     40  C   UNL A   1      43.051  21.227  25.975  1.00  0.00     0.060 A 
ATOM     41  C   UNL A   1      43.481  21.540  27.270  1.00  0.00     0.016 A 
ATOM     42  C   UNL A   1      43.261  22.114  24.911  1.00  0.00     0.016 A 
ATOM     43  C   UNL A   1      44.128  22.744  27.508  1.00  0.00     0.010 A 
ATOM     44  C   UNL A   1      43.866  23.343  25.160  1.00  0.00     0.010 A 
ATOM     45  C   UNL A   1      44.272  23.665  26.465  1.00  0.00    -0.014 A 
BRANCH  45  46
ATOM     46  C   UNL A   1      44.591  25.059  26.820  1.00  0.00     0.031 A 
ATOM     47  C   UNL A   1      46.002  25.516  26.586  1.00  0.00     0.074 A 
ATOM     48  C   UNL A   1      43.638  25.898  27.255  1.00  0.00     0.049 A 
ATOM     49  N   UNL A   1      46.534  26.693  26.766  1.00  0.00    -0.248 NA
ATOM     50  C   UNL A   1      46.939  24.499  26.074  1.00  0.00     0.031 C 
ATOM     51  C   UNL A   1      42.228  25.555  27.438  1.00  0.00     0.029 A 
ATOM     52  N   UNL A   1      43.717  27.219  27.605  1.00  0.00    -0.354 N 
ATOM     53  C   UNL A   1      47.867  26.557  26.394  1.00  0.00     0.074 A 
ATOM     54  C   UNL A   1      48.070  25.179  26.012  1.00  0.00     0.031 C 
ATOM     55  C   UNL A   1      41.569  26.648  27.862  1.00  0.00     0.029 A 
ATOM     56  C   UNL A   1      42.517  27.750  28.011  1.00  0.00     0.049 A 
ATOM     57  H   UNL A   1      44.552  27.739  27.569  1.00  0.00     0.167 HD
ATOM     58  C   UNL A   1      48.833  27.503  26.375  1.00  0.00     0.031 A 
ATOM     59  C   UNL A   1      42.232  28.986  28.462  1.00  0.00     0.031 A 
ATOM     60  C   UNL A   1      48.611  28.857  26.799  1.00  0.00     0.049 A 
ATOM     61  C   UNL A   1      43.345  29.999  28.528  1.00  0.00     0.074 A 
ATOM     62  C   UNL A   1      49.507  29.908  26.837  1.00  0.00     0.029 A 
ATOM     63  N   UNL A   1      47.400  29.341  27.279  1.00  0.00    -0.354 N 
ATOM     64  N   UNL A   1      44.601  29.869  28.163  1.00  0.00    -0.248 NA
ATOM     65  C   UNL A   1      43.004  31.324  29.057  1.00  0.00     0.031 C 
ATOM     66  C   UNL A   1      48.857  31.008  27.408  1.00  0.00     0.029 A 
ATOM     67  C   UNL A   1      47.534  30.666  27.651  1.00  0.00     0.049 A 
ATOM     68  H   UNL A   1      46.569  28.817  27.344  1.00  0.00     0.167 HD
ATOM     69  C   UNL A   1      45.194  31.104  28.392  1.00  0.00     0.074 A 
ATOM     70  C   UNL A   1      44.154  31.970  28.917  1.00  0.00     0.031 C 
ATOM     71  C   UNL A   1      46.478  31.494  28.184  1.00  0.00     0.031 A 
BRANCH  58  72
ATOM     72  C   UNL A   1      50.213  27.066  25.955  1.00  0.00    -0.014 A 
ATOM     73  C   UNL A   1      51.044  26.316  26.811  1.00  0.00     0.010 A 
ATOM     74  C   UNL A   1      50.704  27.449  24.695  1.00  0.00     0.010 A 
ATOM     75  C   UNL A   1      52.358  26.016  26.439  1.00  0.00     0.020 A 
ATOM     76  C   UNL A   1      52.005  27.120  24.304  1.00  0.00     0.020 A 
ATOM     77  C   UNL A   1      52.832  26.428  25.190  1.00  0.00     0.054 A 
BRANCH  77  78
ATOM     78  S   UNL A   1      54.546  26.046  24.741  1.00  0.00     0.124 S 
ATOM     79  O   UNL A   1      54.652  24.639  25.118  1.00  0.00    -0.237 OA
ATOM     80  O   UNL A   1      54.568  26.313  23.305  1.00  0.00    -0.237 OA
ATOM     81  O   UNL A   1      55.333  26.968  25.556  1.00  0.00    -0.744 OA
ENDBRANCH  77  78
ENDBRANCH  58  72
BRANCH  59  82
ATOM     82  C   UNL A   1      40.842  29.321  28.873  1.00  0.00    -0.014 A 
ATOM     83  C   UNL A   1      39.868  29.644  27.913  1.00  0.00     0.010 A 
ATOM     84  C   UNL A   1      40.470  29.270  30.231  1.00  0.00     0.010 A 
ATOM     85  C   UNL A   1      38.550  29.903  28.300  1.00  0.00     0.020 A 
ATOM     86  C   UNL A   1      39.147  29.501  30.619  1.00  0.00     0.020 A 
ATOM     87  C   UNL A   1      38.195  29.819  29.650  1.00  0.00     0.054 A 
BRANCH  87  88
ATOM     88  S   UNL A   1      36.460  30.072  30.114  1.00  0.00     0.124 S 
ATOM     89  O   UNL A   1      35.752  29.542  28.953  1.00  0.00    -0.237 OA
ATOM     90  O   UNL A   1      36.347  29.286  31.339  1.00  0.00    -0.237 OA
ATOM     91  O   UNL A   1      36.362  31.519  30.299  1.00  0.00    -0.744 OA
ENDBRANCH  87  88
ENDBRANCH  59  82
BRANCH  71  92
ATOM     92  C   UNL A   1      46.821  32.927  28.497  1.00  0.00    -0.014 A 
ATOM     93  C   UNL A   1      47.303  33.304  29.762  1.00  0.00     0.010 A 
ATOM     94  C   UNL A   1      46.717  33.897  27.483  1.00  0.00     0.010 A 
ATOM     95  C   UNL A   1      47.643  34.635  30.017  1.00  0.00     0.020 A 
ATOM     96  C   UNL A   1      47.089  35.220  27.723  1.00  0.00     0.020 A 
ATOM     97  C   UNL A   1      47.537  35.583  28.995  1.00  0.00     0.054 A 
BRANCH  97  98
ATOM     98  S   UNL A   1      48.028  37.295  29.340  1.00  0.00     0.124 S 
ATOM     99  O   UNL A   1      47.289  38.034  28.320  1.00  0.00    -0.237 OA
ATOM    100  O   UNL A   1      47.569  37.486  30.713  1.00  0.00    -0.237 OA
ATOM    101  O   UNL A   1      49.479  37.279  29.170  1.00  0.00    -0.744 OA
ENDBRANCH  97  98
ENDBRANCH  71  92
ENDBRANCH  45  46
ENDBRANCH  38  40
ENDBRANCH  37  38
ENDBRANCH  36  37
ENDBRANCH  35  36
ENDBRANCH  34  35
ENDBRANCH  33  34
ENDBRANCH  32  33
ENDBRANCH   1  32
TORSDOF 27
ENDMDL
MODEL 3
REMARK VINA RESULT:      -9.1      5.082      6.011
REMARK SMILES CCc1ccc2[nH]c(C(=O)c3cc(C)ccn3)c(CC(=O)OCCOCCOCCOCCOC(=O)c3ccc(-c4c5nc(c(-c6ccc(S(=O)(=O)[O-])cc6)c6ccc([nH]6)c(-c6ccc(S(=O)(=O)[O-])cc6)c6nc(c(-c7ccc(S(=O)(=O)[O-])cc7)c7ccc4[nH]7)C=C6)C=C5)cc3)c2c1
REMARK SMILES IDX 28 1 27 2 26 3 25 4 24 5 23 6 22 7 20 8 21 9 19 10 18 11
REMARK SMILES IDX 3 12 4 13 98 14 5 15 97 16 6 17 7 18 8 19 2 21 1 22 9 23
REMARK SMILES IDX 10 24 11 25 12 26 17 27 13 28 16 29 14 30 15 31 29 32 30 33
REMARK SMILES IDX 31 34 32 35 33 36 34 37 35 38 36 39 37 40 38 41 96 42 39 43
REMARK SMILES IDX 95 44 40 45 41 46 42 47 89 48 43 49 94 50 88 51 90 52 44 53
REMARK SMILES IDX 93 54 87 55 86 56 45 58 75 59 56 60 74 61 57 62 60 63 73 64
REMARK SMILES IDX 91 65 58 66 59 67 72 69 92 70 61 71 46 72 47 73 55 74 48 75
REMARK SMILES IDX 54 76 49 77 50 78 51 79 52 80 53 81 76 82 77 83 85 84 78 85
REMARK SMILES IDX 84 86 79 87 80 88 81 89 82 90 83 91 62 92 63 93 71 94 64 95
REMARK SMILES IDX 70 96 65 97 66 98 67 99 68 100 69 101
REMARK H PARENT 7 20 90 57 60 68
REMARK Flexibility Score: inf
ROOT
ATOM      1  O   UNL A   1      32.151  26.672  26.716  1.00  0.00    -0.377 OA
ENDROOT
BRANCH   1   2
ATOM      2  C   UNL A   1      33.441  26.421  26.204  1.00  0.00     0.188 C 
BRANCH   2   3
ATOM      3  C   UNL A   1      33.881  26.525  24.727  1.00  0.00     0.188 C 
BRANCH   3   4
ATOM      4  O   UNL A   1      34.791  25.596  24.178  1.00  0.00    -0.376 OA
BRANCH   4   5
ATOM      5  C   UNL A   1      34.792  24.226  24.520  1.00  0.00     0.202 C 
BRANCH   5   6
ATOM      6  C   UNL A   1      35.748  23.573  25.539  1.00  0.00     0.261 C 
BRANCH   6   7
ATOM      7  O   UNL A   1      35.373  22.290  26.073  1.00  0.00    -0.463 OA
BRANCH   7   8
ATOM      8  C   UNL A   1      34.304  22.236  26.898  1.00  0.00     0.310 C 
ATOM      9  O   UNL A   1      34.232  22.897  27.933  1.00  0.00    -0.252 OA
BRANCH   8  10
ATOM     10  C   UNL A   1      33.145  21.337  26.467  1.00  0.00     0.161 C 
BRANCH  10  11
ATOM     11  C   UNL A   1      32.698  21.194  25.018  1.00  0.00     0.000 A 
ATOM     12  C   UNL A   1      33.238  17.674  23.584  1.00  0.00    -0.048 A 
ATOM     13  C   UNL A   1      32.660  17.941  22.337  1.00  0.00     0.006 A 
ATOM     14  C   UNL A   1      33.417  18.727  24.500  1.00  0.00     0.014 A 
ATOM     15  C   UNL A   1      32.191  19.216  22.008  1.00  0.00     0.027 A 
ATOM     16  C   UNL A   1      32.868  19.998  24.233  1.00  0.00     0.004 A 
ATOM     17  C   UNL A   1      32.271  20.204  22.996  1.00  0.00     0.046 A 
ATOM     18  N   UNL A   1      31.822  21.498  22.986  1.00  0.00    -0.352 N 
ATOM     19  C   UNL A   1      31.853  22.039  24.259  1.00  0.00     0.093 A 
ATOM     20  H   UNL A   1      31.520  21.979  22.183  1.00  0.00     0.167 HD
BRANCH  12  21
ATOM     21  C   UNL A   1      33.650  16.262  23.931  1.00  0.00     0.032 C 
ATOM     22  C   UNL A   1      33.133  15.796  25.291  1.00  0.00     0.009 C 
ENDBRANCH  12  21
BRANCH  19  23
ATOM     23  C   UNL A   1      31.189  23.291  24.655  1.00  0.00     0.227 C 
ATOM     24  O   UNL A   1      30.702  23.437  25.775  1.00  0.00    -0.285 OA
BRANCH  23  25
ATOM     25  C   UNL A   1      31.144  24.490  23.732  1.00  0.00     0.113 A 
ATOM     26  C   UNL A   1      30.342  25.609  23.956  1.00  0.00     0.036 A 
ATOM     27  N   UNL A   1      31.991  24.407  22.671  1.00  0.00    -0.253 NA
ATOM     28  C   UNL A   1      30.389  26.669  23.033  1.00  0.00    -0.047 A 
ATOM     29  C   UNL A   1      32.024  25.442  21.806  1.00  0.00     0.112 A 
ATOM     30  C   UNL A   1      29.569  27.916  23.194  1.00  0.00     0.044 C 
ATOM     31  C   UNL A   1      31.232  26.565  21.925  1.00  0.00     0.023 A 
ENDBRANCH  23  25
ENDBRANCH  19  23
ENDBRANCH  10  11
ENDBRANCH   8  10
ENDBRANCH   7   8
ENDBRANCH   6   7
ENDBRANCH   5   6
ENDBRANCH   4   5
ENDBRANCH   3   4
ENDBRANCH   2   3
ENDBRANCH   1   2
BRANCH   1  32
ATOM     32  C   UNL A   1      31.906  27.954  27.231  1.00  0.00     0.188 C 
BRANCH  32  33
ATOM     33  C   UNL A   1      31.527  28.919  26.111  1.00  0.00     0.188 C 
BRANCH  33  34
ATOM     34  O   UNL A   1      32.566  29.825  25.787  1.00  0.00    -0.376 OA
BRANCH  34  35
ATOM     35  C   UNL A   1      33.634  30.033  26.706  1.00  0.00     0.202 C 
BRANCH  35  36
ATOM     36  C   UNL A   1      33.716  31.208  27.712  1.00  0.00     0.261 C 
BRANCH  36  37
ATOM     37  O   UNL A   1      35.008  31.634  28.143  1.00  0.00    -0.460 OA
BRANCH  37  38
ATOM     38  C   UNL A   1      35.162  31.983  29.429  1.00  0.00     0.338 C 
ATOM     39  O   UNL A   1      34.337  32.493  30.165  1.00  0.00    -0.246 OA
BRANCH  38  40
ATOM     40  C   UNL A   1      36.454  31.402  29.833  1.00  0.00     0.060 A 
ATOM     41  C   UNL A   1      36.434  30.268  30.653  1.00  0.00     0.016 A 
ATOM     42  C   UNL A   1      37.659  31.901  29.323  1.00  0.00     0.016 A 
ATOM     43  C   UNL A   1      37.622  29.625  30.968  1.00  0.00     0.010 A 
ATOM     44  C   UNL A   1      38.856  31.285  29.679  1.00  0.00     0.010 A 
ATOM     45  C   UNL A   1      38.834  30.163  30.524  1.00  0.00    -0.014 A 
BRANCH  45  46
ATOM     46  C   UNL A   1      40.070  29.708  31.184  1.00  0.00     0.031 A 
ATOM     47  C   UNL A   1      40.821  28.587  30.526  1.00  0.00     0.074 A 
ATOM     48  C   UNL A   1      40.539  30.327  32.279  1.00  0.00     0.049 A 
ATOM     49  N   UNL A   1      41.950  28.031  30.867  1.00  0.00    -0.248 NA
ATOM     50  C   UNL A   1      40.209  28.021  29.309  1.00  0.00     0.031 C 
ATOM     51  C   UNL A   1      39.911  31.472  32.938  1.00  0.00     0.029 A 
ATOM     52  N   UNL A   1      41.666  30.085  33.016  1.00  0.00    -0.354 N 
ATOM     53  C   UNL A   1      42.182  27.048  29.912  1.00  0.00     0.074 A 
ATOM     54  C   UNL A   1      41.062  27.060  29.000  1.00  0.00     0.031 C 
ATOM     55  C   UNL A   1      40.671  31.838  33.985  1.00  0.00     0.029 A 
ATOM     56  C   UNL A   1      41.814  30.934  34.085  1.00  0.00     0.049 A 
ATOM     57  H   UNL A   1      42.309  29.370  32.802  1.00  0.00     0.167 HD
ATOM     58  C   UNL A   1      43.238  26.210  29.809  1.00  0.00     0.031 A 
ATOM     59  C   UNL A   1      42.765  30.960  35.038  1.00  0.00     0.031 A 
ATOM     60  C   UNL A   1      44.319  26.194  30.756  1.00  0.00     0.049 A 
ATOM     61  C   UNL A   1      43.882  29.953  34.963  1.00  0.00     0.074 A 
ATOM     62  C   UNL A   1      45.442  25.389  30.771  1.00  0.00     0.029 A 
ATOM     63  N   UNL A   1      44.398  27.017  31.872  1.00  0.00    -0.354 N 
ATOM     64  N   UNL A   1      44.103  29.033  34.050  1.00  0.00    -0.248 NA
ATOM     65  C   UNL A   1      44.881  29.990  36.038  1.00  0.00     0.031 C 
ATOM     66  C   UNL A   1      46.162  25.676  31.935  1.00  0.00     0.029 A 
ATOM     67  C   UNL A   1      45.531  26.716  32.604  1.00  0.00     0.049 A 
ATOM     68  H   UNL A   1      43.742  27.713  32.106  1.00  0.00     0.167 HD
ATOM     69  C   UNL A   1      45.281  28.399  34.426  1.00  0.00     0.074 A 
ATOM     70  C   UNL A   1      45.730  29.051  35.643  1.00  0.00     0.031 C 
ATOM     71  C   UNL A   1      45.939  27.377  33.820  1.00  0.00     0.031 A 
BRANCH  58  72
ATOM     72  C   UNL A   1      43.213  25.209  28.684  1.00  0.00    -0.014 A 
ATOM     73  C   UNL A   1      42.710  23.906  28.862  1.00  0.00     0.010 A 
ATOM     74  C   UNL A   1      43.744  25.567  27.431  1.00  0.00     0.010 A 
ATOM     75  C   UNL A   1      42.797  22.964  27.832  1.00  0.00     0.020 A 
ATOM     76  C   UNL A   1      43.800  24.639  26.387  1.00  0.00     0.020 A 
ATOM     77  C   UNL A   1      43.350  23.336  26.603  1.00  0.00     0.054 A 
BRANCH  77  78
ATOM     78  S   UNL A   1      43.473  22.091  25.291  1.00  0.00     0.124 S 
ATOM     79  O   UNL A   1      44.779  21.496  25.560  1.00  0.00    -0.237 OA
ATOM     80  O   UNL A   1      42.324  21.229  25.560  1.00  0.00    -0.237 OA
ATOM     81  O   UNL A   1      43.388  22.873  24.060  1.00  0.00    -0.744 OA
ENDBRANCH  77  78
ENDBRANCH  58  72
BRANCH  59  82
ATOM     82  C   UNL A   1      42.696  31.975  36.124  1.00  0.00    -0.014 A 
ATOM     83  C   UNL A   1      42.051  31.683  37.338  1.00  0.00     0.010 A 
ATOM     84  C   UNL A   1      43.322  33.227  35.968  1.00  0.00     0.010 A 
ATOM     85  C   UNL A   1      42.039  32.620  38.376  1.00  0.00     0.020 A 
ATOM     86  C   UNL A   1      43.334  34.155  37.013  1.00  0.00     0.020 A 
ATOM     87  C   UNL A   1      42.690  33.846  38.211  1.00  0.00     0.054 A 
BRANCH  87  88
ATOM     88  S   UNL A   1      42.734  35.006  39.605  1.00  0.00     0.124 S 
ATOM     89  O   UNL A   1      44.049  34.745  40.179  1.00  0.00    -0.237 OA
ATOM     90  O   UNL A   1      42.577  36.298  38.941  1.00  0.00    -0.237 OA
ATOM     91  O   UNL A   1      41.598  34.596  40.428  1.00  0.00    -0.744 OA
ENDBRANCH  87  88
ENDBRANCH  59  82
BRANCH  71  92
ATOM     92  C   UNL A   1      47.229  26.921  34.450  1.00  0.00    -0.014 A 
ATOM     93  C   UNL A   1      47.246  25.939  35.456  1.00  0.00     0.010 A 
ATOM     94  C   UNL A   1      48.447  27.443  33.978  1.00  0.00     0.010 A 
ATOM     95  C   UNL A   1      48.459  25.511  36.001  1.00  0.00     0.020 A 
ATOM     96  C   UNL A   1      49.662  26.993  34.496  1.00  0.00     0.020 A 
ATOM     97  C   UNL A   1      49.659  26.039  35.516  1.00  0.00     0.054 A 
BRANCH  97  98
ATOM     98  S   UNL A   1      51.221  25.433  36.210  1.00  0.00     0.124 S 
ATOM     99  O   UNL A   1      51.096  25.813  37.615  1.00  0.00    -0.237 OA
ATOM    100  O   UNL A   1      51.155  24.000  35.938  1.00  0.00    -0.237 OA
ATOM    101  O   UNL A   1      52.240  26.160  35.457  1.00  0.00    -0.744 OA
ENDBRANCH  97  98
ENDBRANCH  71  92
ENDBRANCH  45  46
ENDBRANCH  38  40
ENDBRANCH  37  38
ENDBRANCH  36  37
ENDBRANCH  35  36
ENDBRANCH  34  35
ENDBRANCH  33  34
ENDBRANCH  32  33
ENDBRANCH   1  32
TORSDOF 27
ENDMDL
