MODEL 1
REMARK VINA RESULT:      -8.4      0.000      0.000
REMARK SMILES CN(CCc1cccs1)C(=O)c1cccn1CC(=O)OCCOCCOCCOCCOC(=O)c1ccc(-c2c3nc(c(-c4ccc(S(=O)(=O)[O-])cc4)c4ccc([nH]4)c(-c4ccc(S(=O)(=O)[O-])cc4)c4nc(c(-c5ccc(S(=O)(=O)[O-])cc5)c5ccc2[nH]5)C=C4)C=C3)cc1
REMARK SMILES IDX 24 1 23 2 22 3 21 4 20 5 18 6 19 7 17 8 16 9 12 10 13 11
REMARK SMILES IDX 14 12 15 13 10 14 11 15 2 16 1 17 3 18 4 19 5 20 6 21 9 22
REMARK SMILES IDX 7 23 8 24 25 25 26 26 27 27 28 28 29 29 30 30 31 31 32 32
REMARK SMILES IDX 33 33 34 34 35 35 36 36 94 37 37 38 93 39 38 40 39 41 40 42
REMARK SMILES IDX 87 43 41 44 92 45 86 46 88 47 42 48 91 49 85 50 84 51 43 53
REMARK SMILES IDX 73 54 54 55 72 56 55 57 58 58 71 59 89 60 56 61 57 62 70 64
REMARK SMILES IDX 90 65 59 66 44 67 45 68 53 69 46 70 52 71 47 72 48 73 49 74
REMARK SMILES IDX 50 75 51 76 74 77 75 78 83 79 76 80 82 81 77 82 78 83 79 84
REMARK SMILES IDX 80 85 81 86 60 87 61 88 69 89 62 90 68 91 63 92 64 93 65 94
REMARK SMILES IDX 66 95 67 96
REMARK H PARENT 88 52 58 63
REMARK Flexibility Score: inf
ROOT
ATOM      1  C   UNL A   1      33.768  21.976  26.880  1.00  0.00     0.188 C 
ENDROOT
BRANCH   1   2
ATOM      2  O   UNL A   1      32.347  21.851  26.913  1.00  0.00    -0.376 OA
BRANCH   2   3
ATOM      3  C   UNL A   1      31.582  23.036  26.884  1.00  0.00     0.202 C 
BRANCH   3   4
ATOM      4  C   UNL A   1      31.767  23.826  25.582  1.00  0.00     0.261 C 
BRANCH   4   5
ATOM      5  O   UNL A   1      30.555  24.326  24.978  1.00  0.00    -0.462 OA
BRANCH   5   6
ATOM      6  C   UNL A   1      30.461  25.675  24.835  1.00  0.00     0.326 C 
ATOM      7  O   UNL A   1      30.309  26.460  25.768  1.00  0.00    -0.250 OA
BRANCH   6   8
ATOM      8  C   UNL A   1      30.410  26.135  23.395  1.00  0.00     0.244 C 
BRANCH   8   9
ATOM      9  N   UNL A   1      31.574  26.859  22.890  1.00  0.00    -0.332 N 
ATOM     10  C   UNL A   1      31.692  28.219  22.622  1.00  0.00     0.107 A 
ATOM     11  C   UNL A   1      33.045  28.416  22.422  1.00  0.00     0.033 A 
ATOM     12  C   UNL A   1      33.741  27.204  22.434  1.00  0.00     0.020 A 
ATOM     13  C   UNL A   1      32.829  26.274  22.849  1.00  0.00     0.087 A 
BRANCH  10  14
ATOM     14  C   UNL A   1      30.674  29.261  22.727  1.00  0.00     0.270 C 
ATOM     15  O   UNL A   1      30.004  29.584  21.744  1.00  0.00    -0.267 OA
BRANCH  14  16
ATOM     16  N   UNL A   1      30.395  29.845  23.987  1.00  0.00    -0.340 N 
ATOM     17  C   UNL A   1      29.468  30.970  23.971  1.00  0.00     0.147 C 
BRANCH  16  18
ATOM     18  C   UNL A   1      31.162  29.642  25.241  1.00  0.00     0.125 C 
BRANCH  18  19
ATOM     19  C   UNL A   1      31.636  30.925  25.983  1.00  0.00     0.068 C 
BRANCH  19  20
ATOM     20  C   UNL A   1      32.899  30.735  26.787  1.00  0.00     0.006 A 
ATOM     21  C   UNL A   1      33.493  31.613  27.679  1.00  0.00     0.015 A 
ATOM     22  S   UNL A   1      33.826  29.292  26.637  1.00  0.00    -0.149 S 
ATOM     23  C   UNL A   1      34.804  31.195  28.058  1.00  0.00     0.012 A 
ATOM     24  C   UNL A   1      35.132  29.973  27.516  1.00  0.00     0.065 A 
ENDBRANCH  19  20
ENDBRANCH  18  19
ENDBRANCH  16  18
ENDBRANCH  14  16
ENDBRANCH  10  14
ENDBRANCH   8   9
ENDBRANCH   6   8
ENDBRANCH   5   6
ENDBRANCH   4   5
ENDBRANCH   3   4
ENDBRANCH   2   3
ENDBRANCH   1   2
BRANCH   1  25
ATOM     25  C   UNL A   1      34.652  21.074  25.979  1.00  0.00     0.188 C 
BRANCH  25  26
ATOM     26  O   UNL A   1      35.801  21.716  25.422  1.00  0.00    -0.377 OA
BRANCH  26  27
ATOM     27  C   UNL A   1      36.974  20.906  25.376  1.00  0.00     0.188 C 
BRANCH  27  28
ATOM     28  C   UNL A   1      38.261  21.736  25.408  1.00  0.00     0.188 C 
BRANCH  28  29
ATOM     29  O   UNL A   1      38.043  23.034  25.953  1.00  0.00    -0.376 OA
BRANCH  29  30
ATOM     30  C   UNL A   1      38.987  23.583  26.854  1.00  0.00     0.202 C 
BRANCH  30  31
ATOM     31  C   UNL A   1      40.427  23.622  26.334  1.00  0.00     0.261 C 
BRANCH  31  32
ATOM     32  O   UNL A   1      41.300  24.560  26.964  1.00  0.00    -0.460 OA
BRANCH  32  33
ATOM     33  C   UNL A   1      41.453  25.720  26.312  1.00  0.00     0.338 C 
ATOM     34  O   UNL A   1      41.989  25.923  25.226  1.00  0.00    -0.246 OA
BRANCH  33  35
ATOM     35  C   UNL A   1      40.980  26.822  27.116  1.00  0.00     0.060 A 
ATOM     36  C   UNL A   1      41.229  28.108  26.632  1.00  0.00     0.016 A 
ATOM     37  C   UNL A   1      40.685  26.546  28.454  1.00  0.00     0.016 A 
ATOM     38  C   UNL A   1      41.311  29.135  27.541  1.00  0.00     0.010 A 
ATOM     39  C   UNL A   1      40.814  27.567  29.368  1.00  0.00     0.010 A 
ATOM     40  C   UNL A   1      41.161  28.842  28.904  1.00  0.00    -0.014 A 
BRANCH  40  41
ATOM     41  C   UNL A   1      41.256  29.958  29.846  1.00  0.00     0.031 A 
ATOM     42  C   UNL A   1      42.608  29.943  30.553  1.00  0.00     0.074 A 
ATOM     43  C   UNL A   1      40.127  30.720  29.986  1.00  0.00     0.049 A 
ATOM     44  N   UNL A   1      42.913  30.396  31.724  1.00  0.00    -0.248 NA
ATOM     45  C   UNL A   1      43.772  29.246  29.929  1.00  0.00     0.031 C 
ATOM     46  C   UNL A   1      38.889  30.562  29.181  1.00  0.00     0.029 A 
ATOM     47  N   UNL A   1      39.772  31.756  30.821  1.00  0.00    -0.354 N 
ATOM     48  C   UNL A   1      44.296  30.208  31.907  1.00  0.00     0.074 A 
ATOM     49  C   UNL A   1      44.756  29.411  30.813  1.00  0.00     0.031 C 
ATOM     50  C   UNL A   1      37.918  31.395  29.617  1.00  0.00     0.029 A 
ATOM     51  C   UNL A   1      38.425  32.193  30.716  1.00  0.00     0.049 A 
ATOM     52  H   UNL A   1      40.411  32.167  31.449  1.00  0.00     0.167 HD
ATOM     53  C   UNL A   1      44.995  30.826  32.897  1.00  0.00     0.031 A 
ATOM     54  C   UNL A   1      37.754  33.101  31.490  1.00  0.00     0.031 A 
ATOM     55  C   UNL A   1      44.107  31.573  33.721  1.00  0.00     0.049 A 
ATOM     56  C   UNL A   1      38.766  33.682  32.386  1.00  0.00     0.074 A 
ATOM     57  C   UNL A   1      43.165  31.191  34.640  1.00  0.00     0.029 A 
ATOM     58  N   UNL A   1      43.874  32.872  33.337  1.00  0.00    -0.354 N 
ATOM     59  N   UNL A   1      39.689  34.524  32.032  1.00  0.00    -0.248 NA
ATOM     60  C   UNL A   1      38.798  33.242  33.789  1.00  0.00     0.031 C 
ATOM     61  C   UNL A   1      42.118  32.108  34.431  1.00  0.00     0.029 A 
ATOM     62  C   UNL A   1      42.542  33.115  33.555  1.00  0.00     0.049 A 
ATOM     63  H   UNL A   1      44.536  33.505  32.976  1.00  0.00     0.167 HD
ATOM     64  C   UNL A   1      40.601  34.399  33.049  1.00  0.00     0.074 A 
ATOM     65  C   UNL A   1      39.872  33.912  34.200  1.00  0.00     0.031 C 
ATOM     66  C   UNL A   1      41.898  34.127  32.751  1.00  0.00     0.031 A 
BRANCH  53  67
ATOM     67  C   UNL A   1      46.465  31.039  33.091  1.00  0.00    -0.014 A 
ATOM     68  C   UNL A   1      46.895  31.298  34.416  1.00  0.00     0.010 A 
ATOM     69  C   UNL A   1      47.347  31.341  32.045  1.00  0.00     0.010 A 
ATOM     70  C   UNL A   1      48.080  31.977  34.680  1.00  0.00     0.020 A 
ATOM     71  C   UNL A   1      48.566  31.987  32.307  1.00  0.00     0.020 A 
ATOM     72  C   UNL A   1      48.892  32.353  33.616  1.00  0.00     0.054 A 
BRANCH  72  73
ATOM     73  S   UNL A   1      50.331  33.394  33.970  1.00  0.00     0.124 S 
ATOM     74  O   UNL A   1      51.087  32.563  34.903  1.00  0.00    -0.237 OA
ATOM     75  O   UNL A   1      50.934  33.562  32.649  1.00  0.00    -0.237 OA
ATOM     76  O   UNL A   1      49.744  34.607  34.536  1.00  0.00    -0.744 OA
ENDBRANCH  72  73
ENDBRANCH  53  67
BRANCH  54  77
ATOM     77  C   UNL A   1      36.330  33.552  31.736  1.00  0.00    -0.014 A 
ATOM     78  C   UNL A   1      35.658  33.591  32.964  1.00  0.00     0.010 A 
ATOM     79  C   UNL A   1      35.610  34.091  30.632  1.00  0.00     0.010 A 
ATOM     80  C   UNL A   1      34.414  34.262  33.095  1.00  0.00     0.020 A 
ATOM     81  C   UNL A   1      34.414  34.799  30.752  1.00  0.00     0.020 A 
ATOM     82  C   UNL A   1      33.828  34.906  31.998  1.00  0.00     0.054 A 
BRANCH  82  83
ATOM     83  S   UNL A   1      32.392  35.999  32.189  1.00  0.00     0.124 S 
ATOM     84  O   UNL A   1      31.359  35.083  32.660  1.00  0.00    -0.237 OA
ATOM     85  O   UNL A   1      32.858  36.983  33.165  1.00  0.00    -0.237 OA
ATOM     86  O   UNL A   1      32.190  36.530  30.842  1.00  0.00    -0.744 OA
ENDBRANCH  82  83
ENDBRANCH  54  77
BRANCH  66  87
ATOM     87  C   UNL A   1      42.371  34.602  31.387  1.00  0.00    -0.014 A 
ATOM     88  C   UNL A   1      42.166  33.779  30.264  1.00  0.00     0.010 A 
ATOM     89  C   UNL A   1      43.085  35.801  31.189  1.00  0.00     0.010 A 
ATOM     90  C   UNL A   1      42.648  34.137  28.996  1.00  0.00     0.020 A 
ATOM     91  C   UNL A   1      43.577  36.168  29.921  1.00  0.00     0.020 A 
ATOM     92  C   UNL A   1      43.349  35.333  28.829  1.00  0.00     0.054 A 
BRANCH  92  93
ATOM     93  S   UNL A   1      43.961  35.761  27.171  1.00  0.00     0.124 S 
ATOM     94  O   UNL A   1      42.961  35.161  26.291  1.00  0.00    -0.237 OA
ATOM     95  O   UNL A   1      43.965  37.222  27.204  1.00  0.00    -0.237 OA
ATOM     96  O   UNL A   1      45.283  35.139  27.112  1.00  0.00    -0.744 OA
ENDBRANCH  92  93
ENDBRANCH  66  87
ENDBRANCH  40  41
ENDBRANCH  33  35
ENDBRANCH  32  33
ENDBRANCH  31  32
ENDBRANCH  30  31
ENDBRANCH  29  30
ENDBRANCH  28  29
ENDBRANCH  27  28
ENDBRANCH  26  27
ENDBRANCH  25  26
ENDBRANCH   1  25
TORSDOF 29
ENDMDL
MODEL 2
REMARK VINA RESULT:      -8.1      2.245      2.874
REMARK SMILES CN(CCc1cccs1)C(=O)c1cccn1CC(=O)OCCOCCOCCOCCOC(=O)c1ccc(-c2c3nc(c(-c4ccc(S(=O)(=O)[O-])cc4)c4ccc([nH]4)c(-c4ccc(S(=O)(=O)[O-])cc4)c4nc(c(-c5ccc(S(=O)(=O)[O-])cc5)c5ccc2[nH]5)C=C4)C=C3)cc1
REMARK SMILES IDX 24 1 23 2 22 3 21 4 20 5 18 6 19 7 17 8 16 9 12 10 13 11
REMARK SMILES IDX 14 12 15 13 10 14 11 15 2 16 1 17 3 18 4 19 5 20 6 21 9 22
REMARK SMILES IDX 7 23 8 24 25 25 26 26 27 27 28 28 29 29 30 30 31 31 32 32
REMARK SMILES IDX 33 33 34 34 35 35 36 36 94 37 37 38 93 39 38 40 39 41 40 42
REMARK SMILES IDX 87 43 41 44 92 45 86 46 88 47 42 48 91 49 85 50 84 51 43 53
REMARK SMILES IDX 73 54 54 55 72 56 55 57 58 58 71 59 89 60 56 61 57 62 70 64
REMARK SMILES IDX 90 65 59 66 44 67 45 68 53 69 46 70 52 71 47 72 48 73 49 74
REMARK SMILES IDX 50 75 51 76 74 77 75 78 83 79 76 80 82 81 77 82 78 83 79 84
REMARK SMILES IDX 80 85 81 86 60 87 61 88 69 89 62 90 68 91 63 92 64 93 65 94
REMARK SMILES IDX 66 95 67 96
REMARK H PARENT 88 52 58 63
REMARK Flexibility Score: inf
ROOT
ATOM      1  C   UNL A   1      34.198  22.025  26.901  1.00  0.00     0.188 C 
ENDROOT
BRANCH   1   2
ATOM      2  O   UNL A   1      32.813  21.813  26.632  1.00  0.00    -0.376 OA
BRANCH   2   3
ATOM      3  C   UNL A   1      31.956  22.933  26.677  1.00  0.00     0.202 C 
BRANCH   3   4
ATOM      4  C   UNL A   1      31.951  23.726  25.363  1.00  0.00     0.261 C 
BRANCH   4   5
ATOM      5  O   UNL A   1      30.662  24.208  24.930  1.00  0.00    -0.462 OA
BRANCH   5   6
ATOM      6  C   UNL A   1      30.530  25.555  24.802  1.00  0.00     0.326 C 
ATOM      7  O   UNL A   1      30.322  26.322  25.740  1.00  0.00    -0.250 OA
BRANCH   6   8
ATOM      8  C   UNL A   1      30.511  26.034  23.367  1.00  0.00     0.244 C 
BRANCH   8   9
ATOM      9  N   UNL A   1      31.662  26.812  22.915  1.00  0.00    -0.332 N 
ATOM     10  C   UNL A   1      31.720  28.172  22.622  1.00  0.00     0.107 A 
ATOM     11  C   UNL A   1      33.070  28.440  22.497  1.00  0.00     0.033 A 
ATOM     12  C   UNL A   1      33.829  27.270  22.579  1.00  0.00     0.020 A 
ATOM     13  C   UNL A   1      32.947  26.299  22.961  1.00  0.00     0.087 A 
BRANCH  10  14
ATOM     14  C   UNL A   1      30.641  29.156  22.643  1.00  0.00     0.270 C 
ATOM     15  O   UNL A   1      30.022  29.428  21.612  1.00  0.00    -0.267 OA
BRANCH  14  16
ATOM     16  N   UNL A   1      30.247  29.739  23.872  1.00  0.00    -0.340 N 
ATOM     17  C   UNL A   1      29.372  30.900  23.768  1.00  0.00     0.147 C 
BRANCH  16  18
ATOM     18  C   UNL A   1      30.861  29.495  25.200  1.00  0.00     0.125 C 
BRANCH  18  19
ATOM     19  C   UNL A   1      31.724  30.647  25.791  1.00  0.00     0.068 C 
BRANCH  19  20
ATOM     20  C   UNL A   1      33.044  30.190  26.364  1.00  0.00     0.006 A 
ATOM     21  C   UNL A   1      33.733  29.016  26.109  1.00  0.00     0.015 A 
ATOM     22  S   UNL A   1      33.879  31.153  27.521  1.00  0.00    -0.149 S 
ATOM     23  C   UNL A   1      34.814  28.814  27.019  1.00  0.00     0.012 A 
ATOM     24  C   UNL A   1      34.970  29.879  27.878  1.00  0.00     0.065 A 
ENDBRANCH  19  20
ENDBRANCH  18  19
ENDBRANCH  16  18
ENDBRANCH  14  16
ENDBRANCH  10  14
ENDBRANCH   8   9
ENDBRANCH   6   8
ENDBRANCH   5   6
ENDBRANCH   4   5
ENDBRANCH   3   4
ENDBRANCH   2   3
ENDBRANCH   1   2
BRANCH   1  25
ATOM     25  C   UNL A   1      35.311  21.292  26.109  1.00  0.00     0.188 C 
BRANCH  25  26
ATOM     26  O   UNL A   1      36.553  21.992  26.021  1.00  0.00    -0.377 OA
BRANCH  26  27
ATOM     27  C   UNL A   1      37.566  21.320  25.274  1.00  0.00     0.188 C 
BRANCH  27  28
ATOM     28  C   UNL A   1      38.946  21.963  25.449  1.00  0.00     0.188 C 
BRANCH  28  29
ATOM     29  O   UNL A   1      39.364  21.965  26.811  1.00  0.00    -0.376 OA
BRANCH  29  30
ATOM     30  C   UNL A   1      40.519  21.242  27.191  1.00  0.00     0.202 C 
BRANCH  30  31
ATOM     31  C   UNL A   1      41.746  21.474  26.305  1.00  0.00     0.261 C 
BRANCH  31  32
ATOM     32  O   UNL A   1      42.633  22.515  26.715  1.00  0.00    -0.460 OA
BRANCH  32  33
ATOM     33  C   UNL A   1      42.681  23.575  25.898  1.00  0.00     0.338 C 
ATOM     34  O   UNL A   1      43.071  23.629  24.735  1.00  0.00    -0.246 OA
BRANCH  33  35
ATOM     35  C   UNL A   1      42.294  24.776  26.599  1.00  0.00     0.060 A 
ATOM     36  C   UNL A   1      42.490  25.988  25.932  1.00  0.00     0.016 A 
ATOM     37  C   UNL A   1      42.140  24.677  27.985  1.00  0.00     0.016 A 
ATOM     38  C   UNL A   1      42.666  27.120  26.689  1.00  0.00     0.010 A 
ATOM     39  C   UNL A   1      42.363  25.804  28.743  1.00  0.00     0.010 A 
ATOM     40  C   UNL A   1      42.659  27.005  28.087  1.00  0.00    -0.014 A 
BRANCH  40  41
ATOM     41  C   UNL A   1      42.851  28.230  28.864  1.00  0.00     0.031 A 
ATOM     42  C   UNL A   1      44.318  28.387  29.255  1.00  0.00     0.074 A 
ATOM     43  C   UNL A   1      41.714  28.929  29.168  1.00  0.00     0.049 A 
ATOM     44  N   UNL A   1      44.821  28.996  30.277  1.00  0.00    -0.248 NA
ATOM     45  C   UNL A   1      45.381  27.695  28.467  1.00  0.00     0.031 C 
ATOM     46  C   UNL A   1      40.353  28.597  28.674  1.00  0.00     0.029 A 
ATOM     47  N   UNL A   1      41.453  30.034  29.948  1.00  0.00    -0.354 N 
ATOM     48  C   UNL A   1      46.223  28.920  30.171  1.00  0.00     0.074 A 
ATOM     49  C   UNL A   1      46.510  28.029  29.092  1.00  0.00     0.031 C 
ATOM     50  C   UNL A   1      39.426  29.413  29.223  1.00  0.00     0.029 A 
ATOM     51  C   UNL A   1      40.081  30.368  30.095  1.00  0.00     0.049 A 
ATOM     52  H   UNL A   1      42.170  30.558  30.374  1.00  0.00     0.167 HD
ATOM     53  C   UNL A   1      47.057  29.696  30.914  1.00  0.00     0.031 A 
ATOM     54  C   UNL A   1      39.510  31.318  30.899  1.00  0.00     0.031 A 
ATOM     55  C   UNL A   1      46.300  30.479  31.830  1.00  0.00     0.049 A 
ATOM     56  C   UNL A   1      40.632  32.067  31.486  1.00  0.00     0.074 A 
ATOM     57  C   UNL A   1      45.610  30.152  32.968  1.00  0.00     0.029 A 
ATOM     58  N   UNL A   1      45.877  31.705  31.374  1.00  0.00    -0.354 N 
ATOM     59  N   UNL A   1      41.382  32.917  30.852  1.00  0.00    -0.248 NA
ATOM     60  C   UNL A   1      40.997  31.803  32.885  1.00  0.00     0.031 C 
ATOM     61  C   UNL A   1      44.465  30.968  32.899  1.00  0.00     0.029 A 
ATOM     62  C   UNL A   1      44.604  31.887  31.852  1.00  0.00     0.049 A 
ATOM     63  H   UNL A   1      46.390  32.331  30.813  1.00  0.00     0.167 HD
ATOM     64  C   UNL A   1      42.495  32.975  31.652  1.00  0.00     0.074 A 
ATOM     65  C   UNL A   1      42.070  32.584  32.979  1.00  0.00     0.031 C 
ATOM     66  C   UNL A   1      43.719  32.752  31.108  1.00  0.00     0.031 A 
BRANCH  53  67
ATOM     67  C   UNL A   1      48.510  30.025  30.758  1.00  0.00    -0.014 A 
ATOM     68  C   UNL A   1      48.900  30.587  29.517  1.00  0.00     0.010 A 
ATOM     69  C   UNL A   1      49.513  29.504  31.587  1.00  0.00     0.010 A 
ATOM     70  C   UNL A   1      50.206  30.487  29.049  1.00  0.00     0.020 A 
ATOM     71  C   UNL A   1      50.843  29.440  31.139  1.00  0.00     0.020 A 
ATOM     72  C   UNL A   1      51.164  29.877  29.851  1.00  0.00     0.054 A 
BRANCH  72  73
ATOM     73  S   UNL A   1      52.808  29.593  29.146  1.00  0.00     0.124 S 
ATOM     74  O   UNL A   1      53.451  28.791  30.182  1.00  0.00    -0.237 OA
ATOM     75  O   UNL A   1      52.503  28.884  27.904  1.00  0.00    -0.237 OA
ATOM     76  O   UNL A   1      53.341  30.942  28.968  1.00  0.00    -0.744 OA
ENDBRANCH  72  73
ENDBRANCH  53  67
BRANCH  54  77
ATOM     77  C   UNL A   1      38.136  31.705  31.402  1.00  0.00    -0.014 A 
ATOM     78  C   UNL A   1      37.388  31.056  32.392  1.00  0.00     0.010 A 
ATOM     79  C   UNL A   1      37.563  32.908  30.899  1.00  0.00     0.010 A 
ATOM     80  C   UNL A   1      36.225  31.658  32.942  1.00  0.00     0.020 A 
ATOM     81  C   UNL A   1      36.453  33.538  31.462  1.00  0.00     0.020 A 
ATOM     82  C   UNL A   1      35.798  32.920  32.508  1.00  0.00     0.054 A 
BRANCH  82  83
ATOM     83  S   UNL A   1      34.490  33.833  33.373  1.00  0.00     0.124 S 
ATOM     84  O   UNL A   1      33.313  33.008  33.127  1.00  0.00    -0.237 OA
ATOM     85  O   UNL A   1      34.969  33.857  34.754  1.00  0.00    -0.237 OA
ATOM     86  O   UNL A   1      34.492  35.136  32.708  1.00  0.00    -0.744 OA
ENDBRANCH  82  83
ENDBRANCH  54  77
BRANCH  66  87
ATOM     87  C   UNL A   1      43.851  33.087  29.631  1.00  0.00    -0.014 A 
ATOM     88  C   UNL A   1      44.186  32.068  28.722  1.00  0.00     0.010 A 
ATOM     89  C   UNL A   1      43.733  34.396  29.120  1.00  0.00     0.010 A 
ATOM     90  C   UNL A   1      44.391  32.337  27.361  1.00  0.00     0.020 A 
ATOM     91  C   UNL A   1      43.941  34.679  27.757  1.00  0.00     0.020 A 
ATOM     92  C   UNL A   1      44.265  33.643  26.883  1.00  0.00     0.054 A 
BRANCH  92  93
ATOM     93  S   UNL A   1      44.542  33.954  25.112  1.00  0.00     0.124 S 
ATOM     94  O   UNL A   1      43.381  34.760  24.739  1.00  0.00    -0.237 OA
ATOM     95  O   UNL A   1      45.818  34.665  25.113  1.00  0.00    -0.237 OA
ATOM     96  O   UNL A   1      44.577  32.617  24.521  1.00  0.00    -0.744 OA
ENDBRANCH  92  93
ENDBRANCH  66  87
ENDBRANCH  40  41
ENDBRANCH  33  35
ENDBRANCH  32  33
ENDBRANCH  31  32
ENDBRANCH  30  31
ENDBRANCH  29  30
ENDBRANCH  28  29
ENDBRANCH  27  28
ENDBRANCH  26  27
ENDBRANCH  25  26
ENDBRANCH   1  25
TORSDOF 29
ENDMDL
MODEL 3
REMARK VINA RESULT:      -8.1      4.309      9.549
REMARK SMILES CN(CCc1cccs1)C(=O)c1cccn1CC(=O)OCCOCCOCCOCCOC(=O)c1ccc(-c2c3nc(c(-c4ccc(S(=O)(=O)[O-])cc4)c4ccc([nH]4)c(-c4ccc(S(=O)(=O)[O-])cc4)c4nc(c(-c5ccc(S(=O)(=O)[O-])cc5)c5ccc2[nH]5)C=C4)C=C3)cc1
REMARK SMILES IDX 24 1 23 2 22 3 21 4 20 5 18 6 19 7 17 8 16 9 12 10 13 11
REMARK SMILES IDX 14 12 15 13 10 14 11 15 2 16 1 17 3 18 4 19 5 20 6 21 9 22
REMARK SMILES IDX 7 23 8 24 25 25 26 26 27 27 28 28 29 29 30 30 31 31 32 32
REMARK SMILES IDX 33 33 34 34 35 35 36 36 94 37 37 38 93 39 38 40 39 41 40 42
REMARK SMILES IDX 87 43 41 44 92 45 86 46 88 47 42 48 91 49 85 50 84 51 43 53
REMARK SMILES IDX 73 54 54 55 72 56 55 57 58 58 71 59 89 60 56 61 57 62 70 64
REMARK SMILES IDX 90 65 59 66 44 67 45 68 53 69 46 70 52 71 47 72 48 73 49 74
REMARK SMILES IDX 50 75 51 76 74 77 75 78 83 79 76 80 82 81 77 82 78 83 79 84
REMARK SMILES IDX 80 85 81 86 60 87 61 88 69 89 62 90 68 91 63 92 64 93 65 94
REMARK SMILES IDX 66 95 67 96
REMARK H PARENT 88 52 58 63
REMARK Flexibility Score: inf
ROOT
ATOM      1  C   UNL A   1      33.411  21.383  26.539  1.00  0.00     0.188 C 
ENDROOT
BRANCH   1   2
ATOM      2  O   UNL A   1      32.500  21.967  27.470  1.00  0.00    -0.376 OA
BRANCH   2   3
ATOM      3  C   UNL A   1      32.032  23.270  27.202  1.00  0.00     0.202 C 
BRANCH   3   4
ATOM      4  C   UNL A   1      30.723  23.274  26.403  1.00  0.00     0.261 C 
BRANCH   4   5
ATOM      5  O   UNL A   1      29.860  24.409  26.625  1.00  0.00    -0.462 OA
BRANCH   5   6
ATOM      6  C   UNL A   1      30.299  25.607  26.155  1.00  0.00     0.326 C 
ATOM      7  O   UNL A   1      31.082  26.340  26.756  1.00  0.00    -0.250 OA
BRANCH   6   8
ATOM      8  C   UNL A   1      29.623  26.047  24.876  1.00  0.00     0.244 C 
BRANCH   8   9
ATOM      9  N   UNL A   1      30.459  26.134  23.682  1.00  0.00    -0.332 N 
ATOM     10  C   UNL A   1      30.605  27.208  22.808  1.00  0.00     0.107 A 
ATOM     11  C   UNL A   1      31.686  26.867  22.019  1.00  0.00     0.033 A 
ATOM     12  C   UNL A   1      32.127  25.570  22.295  1.00  0.00     0.020 A 
ATOM     13  C   UNL A   1      31.433  25.188  23.409  1.00  0.00     0.087 A 
BRANCH  10  14
ATOM     14  C   UNL A   1      29.925  28.500  22.832  1.00  0.00     0.270 C 
ATOM     15  O   UNL A   1      28.950  28.709  22.107  1.00  0.00    -0.267 OA
BRANCH  14  16
ATOM     16  N   UNL A   1      30.337  29.493  23.755  1.00  0.00    -0.340 N 
ATOM     17  C   UNL A   1      29.568  30.731  23.737  1.00  0.00     0.147 C 
BRANCH  16  18
ATOM     18  C   UNL A   1      31.621  29.527  24.498  1.00  0.00     0.125 C 
BRANCH  18  19
ATOM     19  C   UNL A   1      31.526  29.648  26.047  1.00  0.00     0.068 C 
BRANCH  19  20
ATOM     20  C   UNL A   1      32.865  29.767  26.733  1.00  0.00     0.006 A 
ATOM     21  C   UNL A   1      33.420  30.874  27.353  1.00  0.00     0.015 A 
ATOM     22  S   UNL A   1      33.945  28.427  26.788  1.00  0.00    -0.149 S 
ATOM     23  C   UNL A   1      34.799  30.684  27.668  1.00  0.00     0.012 A 
ATOM     24  C   UNL A   1      35.227  29.411  27.360  1.00  0.00     0.065 A 
ENDBRANCH  19  20
ENDBRANCH  18  19
ENDBRANCH  16  18
ENDBRANCH  14  16
ENDBRANCH  10  14
ENDBRANCH   8   9
ENDBRANCH   6   8
ENDBRANCH   5   6
ENDBRANCH   4   5
ENDBRANCH   3   4
ENDBRANCH   2   3
ENDBRANCH   1   2
BRANCH   1  25
ATOM     25  C   UNL A   1      32.924  20.647  25.263  1.00  0.00     0.188 C 
BRANCH  25  26
ATOM     26  O   UNL A   1      33.145  21.348  24.038  1.00  0.00    -0.377 OA
BRANCH  26  27
ATOM     27  C   UNL A   1      33.802  22.607  24.181  1.00  0.00     0.188 C 
BRANCH  27  28
ATOM     28  C   UNL A   1      34.936  22.793  23.168  1.00  0.00     0.188 C 
BRANCH  28  29
ATOM     29  O   UNL A   1      36.211  22.507  23.736  1.00  0.00    -0.376 OA
BRANCH  29  30
ATOM     30  C   UNL A   1      36.330  21.491  24.714  1.00  0.00     0.202 C 
BRANCH  30  31
ATOM     31  C   UNL A   1      37.673  21.458  25.449  1.00  0.00     0.261 C 
BRANCH  31  32
ATOM     32  O   UNL A   1      38.527  22.585  25.254  1.00  0.00    -0.460 OA
BRANCH  32  33
ATOM     33  C   UNL A   1      38.443  23.533  26.196  1.00  0.00     0.338 C 
ATOM     34  O   UNL A   1      37.437  24.054  26.671  1.00  0.00    -0.246 OA
BRANCH  33  35
ATOM     35  C   UNL A   1      39.757  24.000  26.568  1.00  0.00     0.060 A 
ATOM     36  C   UNL A   1      40.311  23.466  27.733  1.00  0.00     0.016 A 
ATOM     37  C   UNL A   1      40.189  25.197  25.989  1.00  0.00     0.016 A 
ATOM     38  C   UNL A   1      41.239  24.219  28.411  1.00  0.00     0.010 A 
ATOM     39  C   UNL A   1      41.083  25.970  26.693  1.00  0.00     0.010 A 
ATOM     40  C   UNL A   1      41.570  25.488  27.914  1.00  0.00    -0.014 A 
BRANCH  40  41
ATOM     41  C   UNL A   1      42.559  26.266  28.661  1.00  0.00     0.031 A 
ATOM     42  C   UNL A   1      41.884  27.418  29.398  1.00  0.00     0.074 A 
ATOM     43  C   UNL A   1      43.865  25.893  28.490  1.00  0.00     0.049 A 
ATOM     44  N   UNL A   1      42.381  28.559  29.743  1.00  0.00    -0.248 NA
ATOM     45  C   UNL A   1      40.427  27.350  29.719  1.00  0.00     0.031 C 
ATOM     46  C   UNL A   1      44.317  24.711  27.712  1.00  0.00     0.029 A 
ATOM     47  N   UNL A   1      45.070  26.414  28.907  1.00  0.00    -0.354 N 
ATOM     48  C   UNL A   1      41.389  29.259  30.455  1.00  0.00     0.074 A 
ATOM     49  C   UNL A   1      40.179  28.510  30.328  1.00  0.00     0.031 C 
ATOM     50  C   UNL A   1      45.667  24.660  27.647  1.00  0.00     0.029 A 
ATOM     51  C   UNL A   1      46.226  25.771  28.392  1.00  0.00     0.049 A 
ATOM     52  H   UNL A   1      45.125  27.182  29.522  1.00  0.00     0.167 HD
ATOM     53  C   UNL A   1      41.664  30.360  31.206  1.00  0.00     0.031 A 
ATOM     54  C   UNL A   1      47.540  26.135  28.521  1.00  0.00     0.031 A 
ATOM     55  C   UNL A   1      43.037  30.708  31.066  1.00  0.00     0.049 A 
ATOM     56  C   UNL A   1      47.548  27.268  29.459  1.00  0.00     0.074 A 
ATOM     57  C   UNL A   1      43.747  31.253  30.028  1.00  0.00     0.029 A 
ATOM     58  N   UNL A   1      43.904  30.121  31.957  1.00  0.00    -0.354 N 
ATOM     59  N   UNL A   1      47.346  27.186  30.739  1.00  0.00    -0.248 NA
ATOM     60  C   UNL A   1      47.731  28.624  28.920  1.00  0.00     0.031 C 
ATOM     61  C   UNL A   1      44.977  30.569  30.083  1.00  0.00     0.029 A 
ATOM     62  C   UNL A   1      45.038  29.804  31.253  1.00  0.00     0.049 A 
ATOM     63  H   UNL A   1      43.742  29.960  32.915  1.00  0.00     0.167 HD
ATOM     64  C   UNL A   1      47.005  28.475  31.062  1.00  0.00     0.074 A 
ATOM     65  C   UNL A   1      47.584  29.323  30.043  1.00  0.00     0.031 C 
ATOM     66  C   UNL A   1      45.849  28.709  31.734  1.00  0.00     0.031 A 
BRANCH  53  67
ATOM     67  C   UNL A   1      40.878  31.057  32.273  1.00  0.00    -0.014 A 
ATOM     68  C   UNL A   1      40.019  30.246  33.056  1.00  0.00     0.010 A 
ATOM     69  C   UNL A   1      40.679  32.444  32.305  1.00  0.00     0.010 A 
ATOM     70  C   UNL A   1      38.911  30.774  33.710  1.00  0.00     0.020 A 
ATOM     71  C   UNL A   1      39.587  32.990  33.000  1.00  0.00     0.020 A 
ATOM     72  C   UNL A   1      38.680  32.144  33.645  1.00  0.00     0.054 A 
BRANCH  72  73
ATOM     73  S   UNL A   1      37.136  32.780  34.345  1.00  0.00     0.124 S 
ATOM     74  O   UNL A   1      37.204  32.299  35.722  1.00  0.00    -0.237 OA
ATOM     75  O   UNL A   1      37.285  34.225  34.179  1.00  0.00    -0.237 OA
ATOM     76  O   UNL A   1      36.104  32.169  33.512  1.00  0.00    -0.744 OA
ENDBRANCH  72  73
ENDBRANCH  53  67
BRANCH  54  77
ATOM     77  C   UNL A   1      48.880  25.785  27.911  1.00  0.00    -0.014 A 
ATOM     78  C   UNL A   1      49.195  25.717  26.549  1.00  0.00     0.010 A 
ATOM     79  C   UNL A   1      49.979  25.597  28.798  1.00  0.00     0.010 A 
ATOM     80  C   UNL A   1      50.543  25.619  26.113  1.00  0.00     0.020 A 
ATOM     81  C   UNL A   1      51.312  25.551  28.389  1.00  0.00     0.020 A 
ATOM     82  C   UNL A   1      51.594  25.590  27.038  1.00  0.00     0.054 A 
BRANCH  82  83
ATOM     83  S   UNL A   1      53.326  25.743  26.518  1.00  0.00     0.124 S 
ATOM     84  O   UNL A   1      53.568  24.470  25.849  1.00  0.00    -0.237 OA
ATOM     85  O   UNL A   1      53.303  26.920  25.651  1.00  0.00    -0.237 OA
ATOM     86  O   UNL A   1      54.041  25.933  27.779  1.00  0.00    -0.744 OA
ENDBRANCH  82  83
ENDBRANCH  54  77
BRANCH  66  87
ATOM     87  C   UNL A   1      45.360  27.572  32.615  1.00  0.00    -0.014 A 
ATOM     88  C   UNL A   1      45.766  27.522  33.961  1.00  0.00     0.010 A 
ATOM     89  C   UNL A   1      44.573  26.504  32.137  1.00  0.00     0.010 A 
ATOM     90  C   UNL A   1      45.402  26.455  34.797  1.00  0.00     0.020 A 
ATOM     91  C   UNL A   1      44.205  25.427  32.966  1.00  0.00     0.020 A 
ATOM     92  C   UNL A   1      44.621  25.413  34.297  1.00  0.00     0.054 A 
BRANCH  92  93
ATOM     93  S   UNL A   1      44.171  24.047  35.411  1.00  0.00     0.124 S 
ATOM     94  O   UNL A   1      44.699  24.491  36.699  1.00  0.00    -0.237 OA
ATOM     95  O   UNL A   1      42.714  24.023  35.308  1.00  0.00    -0.237 OA
ATOM     96  O   UNL A   1      44.852  22.886  34.836  1.00  0.00    -0.744 OA
ENDBRANCH  92  93
ENDBRANCH  66  87
ENDBRANCH  40  41
ENDBRANCH  33  35
ENDBRANCH  32  33
ENDBRANCH  31  32
ENDBRANCH  30  31
ENDBRANCH  29  30
ENDBRANCH  28  29
ENDBRANCH  27  28
ENDBRANCH  26  27
ENDBRANCH  25  26
ENDBRANCH   1  25
TORSDOF 29
ENDMDL
