MODEL 1
REMARK VINA RESULT:      -9.7      0.000      0.000
REMARK SMILES Cc1c(CC(=O)OCCOCCOCCOCCOC(=O)c2ccc(-c3c4nc(c(-c5ccc(S(=O)(=O)[O-])cc5)c5ccc([nH]5)c(-c5ccc(S(=O)(=O)[O-])cc5)c5nc(c(-c6ccc(S(=O)(=O)[O-])cc6)c6ccc3[nH]6)C=C5)C=C4)cc2)c2ccccc2n1C(=O)c1ccc(Cl)cc1
REMARK SMILES IDX 13 1 12 2 11 3 10 4 9 5 8 6 7 7 5 8 6 9 4 10 3 11 1 12 2 13
REMARK SMILES IDX 88 14 82 15 87 16 83 17 86 18 84 19 85 20 89 21 90 22 91 23
REMARK SMILES IDX 92 24 97 25 93 26 96 27 94 28 95 29 14 30 15 31 16 32 17 33
REMARK SMILES IDX 18 34 19 35 20 36 21 37 22 38 23 39 81 40 24 41 80 42 25 43
REMARK SMILES IDX 26 44 27 45 74 46 28 47 79 48 73 49 75 50 29 51 78 52 72 53
REMARK SMILES IDX 71 54 30 56 60 57 41 58 59 59 42 60 45 61 58 62 76 63 43 64
REMARK SMILES IDX 44 65 57 67 77 68 46 69 31 70 32 71 40 72 33 73 39 74 34 75
REMARK SMILES IDX 35 76 36 77 37 78 38 79 61 80 62 81 70 82 63 83 69 84 64 85
REMARK SMILES IDX 65 86 66 87 67 88 68 89 47 90 48 91 56 92 49 93 55 94 50 95
REMARK SMILES IDX 51 96 52 97 53 98 54 99
REMARK H PARENT 75 55 45 66
REMARK Flexibility Score: inf
ROOT
ATOM      1  O   UNL A   1      34.725  32.830  28.838  1.00  0.00    -0.377 OA
ENDROOT
BRANCH   1   2
ATOM      2  C   UNL A   1      33.571  32.829  28.045  1.00  0.00     0.188 C 
BRANCH   2   3
ATOM      3  C   UNL A   1      33.097  31.575  27.316  1.00  0.00     0.188 C 
BRANCH   3   4
ATOM      4  O   UNL A   1      34.000  30.507  27.166  1.00  0.00    -0.376 OA
BRANCH   4   5
ATOM      5  C   UNL A   1      33.690  29.258  26.572  1.00  0.00     0.202 C 
BRANCH   5   6
ATOM      6  C   UNL A   1      32.968  28.975  25.235  1.00  0.00     0.261 C 
BRANCH   6   7
ATOM      7  O   UNL A   1      31.769  28.191  25.200  1.00  0.00    -0.463 OA
BRANCH   7   8
ATOM      8  C   UNL A   1      31.020  28.275  24.077  1.00  0.00     0.310 C 
ATOM      9  O   UNL A   1      30.613  29.337  23.613  1.00  0.00    -0.252 OA
BRANCH   8  10
ATOM     10  C   UNL A   1      30.714  26.944  23.399  1.00  0.00     0.160 C 
BRANCH  10  11
ATOM     11  C   UNL A   1      31.258  25.644  23.969  1.00  0.00    -0.008 A 
ATOM     12  C   UNL A   1      33.372  25.344  22.495  1.00  0.00     0.065 C 
ATOM     13  C   UNL A   1      32.396  24.954  23.562  1.00  0.00     0.028 A 
ATOM     14  N   UNL A   1      32.543  23.784  24.326  1.00  0.00    -0.280 N 
ATOM     15  C   UNL A   1      30.769  24.945  25.123  1.00  0.00     0.004 A 
ATOM     16  C   UNL A   1      31.479  23.742  25.242  1.00  0.00     0.056 A 
ATOM     17  C   UNL A   1      29.711  25.201  26.034  1.00  0.00     0.010 A 
ATOM     18  C   UNL A   1      31.072  22.769  26.184  1.00  0.00     0.027 A 
ATOM     19  C   UNL A   1      29.302  24.218  26.944  1.00  0.00     0.001 A 
ATOM     20  C   UNL A   1      29.965  23.007  27.001  1.00  0.00     0.002 A 
BRANCH  14  21
ATOM     21  C   UNL A   1      33.611  22.839  24.226  1.00  0.00     0.262 C 
ATOM     22  O   UNL A   1      34.776  23.233  24.288  1.00  0.00    -0.268 OA
BRANCH  21  23
ATOM     23  C   UNL A   1      33.455  21.378  24.106  1.00  0.00     0.040 A 
ATOM     24  C   UNL A   1      34.337  20.522  24.774  1.00  0.00     0.015 A 
ATOM     25  C   UNL A   1      32.413  20.865  23.324  1.00  0.00     0.015 A 
ATOM     26  C   UNL A   1      34.213  19.139  24.601  1.00  0.00     0.021 A 
ATOM     27  C   UNL A   1      32.292  19.483  23.160  1.00  0.00     0.021 A 
ATOM     28  C   UNL A   1      33.200  18.627  23.786  1.00  0.00     0.041 A 
ATOM     29  Cl  UNL A   1      33.077  16.928  23.541  1.00  0.00    -0.084 Cl
ENDBRANCH  21  23
ENDBRANCH  14  21
ENDBRANCH  10  11
ENDBRANCH   8  10
ENDBRANCH   7   8
ENDBRANCH   6   7
ENDBRANCH   5   6
ENDBRANCH   4   5
ENDBRANCH   3   4
ENDBRANCH   2   3
ENDBRANCH   1   2
BRANCH   1  30
ATOM     30  C   UNL A   1      34.738  33.776  29.862  1.00  0.00     0.188 C 
BRANCH  30  31
ATOM     31  C   UNL A   1      34.086  35.089  29.439  1.00  0.00     0.188 C 
BRANCH  31  32
ATOM     32  O   UNL A   1      33.144  35.771  30.263  1.00  0.00    -0.376 OA
BRANCH  32  33
ATOM     33  C   UNL A   1      33.445  36.146  31.598  1.00  0.00     0.202 C 
BRANCH  33  34
ATOM     34  C   UNL A   1      34.895  36.131  32.140  1.00  0.00     0.261 C 
BRANCH  34  35
ATOM     35  O   UNL A   1      35.092  35.379  33.337  1.00  0.00    -0.460 OA
BRANCH  35  36
ATOM     36  C   UNL A   1      34.744  34.061  33.345  1.00  0.00     0.338 C 
ATOM     37  O   UNL A   1      33.685  33.570  33.097  1.00  0.00    -0.246 OA
BRANCH  36  38
ATOM     38  C   UNL A   1      36.049  33.350  33.414  1.00  0.00     0.060 A 
ATOM     39  C   UNL A   1      37.248  34.026  33.160  1.00  0.00     0.016 A 
ATOM     40  C   UNL A   1      35.974  31.954  33.334  1.00  0.00     0.016 A 
ATOM     41  C   UNL A   1      38.322  33.304  32.643  1.00  0.00     0.010 A 
ATOM     42  C   UNL A   1      37.043  31.243  32.793  1.00  0.00     0.010 A 
ATOM     43  C   UNL A   1      38.190  31.926  32.382  1.00  0.00    -0.014 A 
BRANCH  43  44
ATOM     44  C   UNL A   1      39.371  31.201  31.893  1.00  0.00     0.031 A 
ATOM     45  C   UNL A   1      40.312  30.865  32.996  1.00  0.00     0.074 A 
ATOM     46  C   UNL A   1      39.564  30.685  30.661  1.00  0.00     0.049 A 
ATOM     47  N   UNL A   1      41.570  31.139  33.111  1.00  0.00    -0.248 NA
ATOM     48  C   UNL A   1      39.706  30.247  34.190  1.00  0.00     0.031 C 
ATOM     49  C   UNL A   1      38.611  30.621  29.552  1.00  0.00     0.029 A 
ATOM     50  N   UNL A   1      40.640  29.983  30.181  1.00  0.00    -0.354 N 
ATOM     51  C   UNL A   1      41.950  30.594  34.334  1.00  0.00     0.074 A 
ATOM     52  C   UNL A   1      40.742  30.210  35.018  1.00  0.00     0.031 C 
ATOM     53  C   UNL A   1      39.057  29.735  28.631  1.00  0.00     0.029 A 
ATOM     54  C   UNL A   1      40.368  29.250  29.030  1.00  0.00     0.049 A 
ATOM     55  H   UNL A   1      41.526  29.997  30.611  1.00  0.00     0.167 HD
ATOM     56  C   UNL A   1      43.235  30.294  34.653  1.00  0.00     0.031 A 
ATOM     57  C   UNL A   1      41.109  28.240  28.503  1.00  0.00     0.031 A 
ATOM     58  C   UNL A   1      44.187  30.977  33.832  1.00  0.00     0.049 A 
ATOM     59  C   UNL A   1      42.479  28.338  29.062  1.00  0.00     0.074 A 
ATOM     60  C   UNL A   1      44.508  32.303  33.627  1.00  0.00     0.029 A 
ATOM     61  N   UNL A   1      44.753  30.279  32.793  1.00  0.00    -0.354 N 
ATOM     62  N   UNL A   1      43.308  29.312  28.812  1.00  0.00    -0.248 NA
ATOM     63  C   UNL A   1      42.813  27.515  30.214  1.00  0.00     0.031 C 
ATOM     64  C   UNL A   1      44.870  32.392  32.255  1.00  0.00     0.029 A 
ATOM     65  C   UNL A   1      44.782  31.112  31.702  1.00  0.00     0.049 A 
ATOM     66  H   UNL A   1      45.078  29.350  32.826  1.00  0.00     0.167 HD
ATOM     67  C   UNL A   1      44.028  29.477  29.986  1.00  0.00     0.074 A 
ATOM     68  C   UNL A   1      43.758  28.277  30.768  1.00  0.00     0.031 C 
ATOM     69  C   UNL A   1      44.563  30.685  30.330  1.00  0.00     0.031 A 
BRANCH  56  70
ATOM     70  C   UNL A   1      43.580  29.136  35.548  1.00  0.00    -0.014 A 
ATOM     71  C   UNL A   1      43.094  27.831  35.301  1.00  0.00     0.010 A 
ATOM     72  C   UNL A   1      44.568  29.275  36.536  1.00  0.00     0.010 A 
ATOM     73  C   UNL A   1      43.507  26.731  36.046  1.00  0.00     0.020 A 
ATOM     74  C   UNL A   1      45.033  28.162  37.256  1.00  0.00     0.020 A 
ATOM     75  C   UNL A   1      44.485  26.902  37.015  1.00  0.00     0.054 A 
BRANCH  75  76
ATOM     76  S   UNL A   1      45.078  25.427  37.876  1.00  0.00     0.124 S 
ATOM     77  O   UNL A   1      44.416  25.550  39.172  1.00  0.00    -0.237 OA
ATOM     78  O   UNL A   1      44.592  24.348  37.021  1.00  0.00    -0.237 OA
ATOM     79  O   UNL A   1      46.528  25.601  37.892  1.00  0.00    -0.744 OA
ENDBRANCH  75  76
ENDBRANCH  56  70
BRANCH  57  80
ATOM     80  C   UNL A   1      40.597  26.976  27.896  1.00  0.00    -0.014 A 
ATOM     81  C   UNL A   1      39.874  26.063  28.691  1.00  0.00     0.010 A 
ATOM     82  C   UNL A   1      41.062  26.522  26.645  1.00  0.00     0.010 A 
ATOM     83  C   UNL A   1      39.684  24.735  28.297  1.00  0.00     0.020 A 
ATOM     84  C   UNL A   1      40.880  25.185  26.243  1.00  0.00     0.020 A 
ATOM     85  C   UNL A   1      40.224  24.292  27.093  1.00  0.00     0.054 A 
BRANCH  85  86
ATOM     86  S   UNL A   1      40.136  22.516  26.725  1.00  0.00     0.124 S 
ATOM     87  O   UNL A   1      40.327  21.925  28.048  1.00  0.00    -0.237 OA
ATOM     88  O   UNL A   1      38.794  22.376  26.165  1.00  0.00    -0.237 OA
ATOM     89  O   UNL A   1      41.229  22.301  25.780  1.00  0.00    -0.744 OA
ENDBRANCH  85  86
ENDBRANCH  57  80
BRANCH  69  90
ATOM     90  C   UNL A   1      44.649  31.779  29.284  1.00  0.00    -0.014 A 
ATOM     91  C   UNL A   1      43.481  32.519  29.017  1.00  0.00     0.010 A 
ATOM     92  C   UNL A   1      45.748  31.927  28.418  1.00  0.00     0.010 A 
ATOM     93  C   UNL A   1      43.383  33.325  27.880  1.00  0.00     0.020 A 
ATOM     94  C   UNL A   1      45.667  32.760  27.293  1.00  0.00     0.020 A 
ATOM     95  C   UNL A   1      44.470  33.421  27.010  1.00  0.00     0.054 A 
BRANCH  95  96
ATOM     96  S   UNL A   1      44.262  34.356  25.469  1.00  0.00     0.124 S 
ATOM     97  O   UNL A   1      42.980  35.025  25.683  1.00  0.00    -0.237 OA
ATOM     98  O   UNL A   1      45.430  35.233  25.464  1.00  0.00    -0.237 OA
ATOM     99  O   UNL A   1      44.251  33.326  24.432  1.00  0.00    -0.744 OA
ENDBRANCH  95  96
ENDBRANCH  69  90
ENDBRANCH  43  44
ENDBRANCH  36  38
ENDBRANCH  35  36
ENDBRANCH  34  35
ENDBRANCH  33  34
ENDBRANCH  32  33
ENDBRANCH  31  32
ENDBRANCH  30  31
ENDBRANCH   1  30
TORSDOF 26
ENDMDL
MODEL 2
REMARK VINA RESULT:      -9.2      3.961     10.447
REMARK SMILES Cc1c(CC(=O)OCCOCCOCCOCCOC(=O)c2ccc(-c3c4nc(c(-c5ccc(S(=O)(=O)[O-])cc5)c5ccc([nH]5)c(-c5ccc(S(=O)(=O)[O-])cc5)c5nc(c(-c6ccc(S(=O)(=O)[O-])cc6)c6ccc3[nH]6)C=C5)C=C4)cc2)c2ccccc2n1C(=O)c1ccc(Cl)cc1
REMARK SMILES IDX 13 1 12 2 11 3 10 4 9 5 8 6 7 7 5 8 6 9 4 10 3 11 1 12 2 13
REMARK SMILES IDX 88 14 82 15 87 16 83 17 86 18 84 19 85 20 89 21 90 22 91 23
REMARK SMILES IDX 92 24 97 25 93 26 96 27 94 28 95 29 14 30 15 31 16 32 17 33
REMARK SMILES IDX 18 34 19 35 20 36 21 37 22 38 23 39 81 40 24 41 80 42 25 43
REMARK SMILES IDX 26 44 27 45 74 46 28 47 79 48 73 49 75 50 29 51 78 52 72 53
REMARK SMILES IDX 71 54 30 56 60 57 41 58 59 59 42 60 45 61 58 62 76 63 43 64
REMARK SMILES IDX 44 65 57 67 77 68 46 69 31 70 32 71 40 72 33 73 39 74 34 75
REMARK SMILES IDX 35 76 36 77 37 78 38 79 61 80 62 81 70 82 63 83 69 84 64 85
REMARK SMILES IDX 65 86 66 87 67 88 68 89 47 90 48 91 56 92 49 93 55 94 50 95
REMARK SMILES IDX 51 96 52 97 53 98 54 99
REMARK H PARENT 75 55 45 66
REMARK Flexibility Score: inf
ROOT
ATOM      1  O   UNL A   1      45.636  32.119  26.165  1.00  0.00    -0.377 OA
ENDROOT
BRANCH   1   2
ATOM      2  C   UNL A   1      46.419  31.457  27.117  1.00  0.00     0.188 C 
BRANCH   2   3
ATOM      3  C   UNL A   1      47.299  30.265  26.748  1.00  0.00     0.188 C 
BRANCH   3   4
ATOM      4  O   UNL A   1      46.861  29.402  25.727  1.00  0.00    -0.376 OA
BRANCH   4   5
ATOM      5  C   UNL A   1      46.946  27.989  25.766  1.00  0.00     0.202 C 
BRANCH   5   6
ATOM      6  C   UNL A   1      47.140  26.997  24.596  1.00  0.00     0.261 C 
BRANCH   6   7
ATOM      7  O   UNL A   1      46.689  25.641  24.700  1.00  0.00    -0.463 OA
BRANCH   7   8
ATOM      8  C   UNL A   1      45.660  25.405  25.546  1.00  0.00     0.310 C 
ATOM      9  O   UNL A   1      45.812  25.061  26.716  1.00  0.00    -0.252 OA
BRANCH   8  10
ATOM     10  C   UNL A   1      44.270  25.608  24.954  1.00  0.00     0.160 C 
BRANCH  10  11
ATOM     11  C   UNL A   1      43.028  25.305  25.778  1.00  0.00    -0.008 A 
ATOM     12  C   UNL A   1      42.728  22.784  25.244  1.00  0.00     0.065 C 
ATOM     13  C   UNL A   1      42.362  24.088  25.883  1.00  0.00     0.028 A 
ATOM     14  N   UNL A   1      41.246  24.228  26.725  1.00  0.00    -0.280 N 
ATOM     15  C   UNL A   1      42.380  26.189  26.703  1.00  0.00     0.004 A 
ATOM     16  C   UNL A   1      41.215  25.561  27.168  1.00  0.00     0.056 A 
ATOM     17  C   UNL A   1      42.647  27.519  27.123  1.00  0.00     0.010 A 
ATOM     18  C   UNL A   1      40.284  26.283  27.949  1.00  0.00     0.027 A 
ATOM     19  C   UNL A   1      41.703  28.230  27.874  1.00  0.00     0.001 A 
ATOM     20  C   UNL A   1      40.525  27.622  28.264  1.00  0.00     0.002 A 
BRANCH  14  21
ATOM     21  C   UNL A   1      40.340  23.189  27.105  1.00  0.00     0.262 C 
ATOM     22  O   UNL A   1      40.581  22.511  28.103  1.00  0.00    -0.268 OA
BRANCH  21  23
ATOM     23  C   UNL A   1      39.069  22.871  26.430  1.00  0.00     0.040 A 
ATOM     24  C   UNL A   1      38.036  23.814  26.399  1.00  0.00     0.015 A 
ATOM     25  C   UNL A   1      38.915  21.621  25.818  1.00  0.00     0.015 A 
ATOM     26  C   UNL A   1      36.815  23.474  25.808  1.00  0.00     0.021 A 
ATOM     27  C   UNL A   1      37.694  21.290  25.225  1.00  0.00     0.021 A 
ATOM     28  C   UNL A   1      36.646  22.212  25.235  1.00  0.00     0.041 A 
ATOM     29  Cl  UNL A   1      35.128  21.781  24.547  1.00  0.00    -0.084 Cl
ENDBRANCH  21  23
ENDBRANCH  14  21
ENDBRANCH  10  11
ENDBRANCH   8  10
ENDBRANCH   7   8
ENDBRANCH   6   7
ENDBRANCH   5   6
ENDBRANCH   4   5
ENDBRANCH   3   4
ENDBRANCH   2   3
ENDBRANCH   1   2
BRANCH   1  30
ATOM     30  C   UNL A   1      45.132  33.355  26.569  1.00  0.00     0.188 C 
BRANCH  30  31
ATOM     31  C   UNL A   1      45.234  34.404  25.466  1.00  0.00     0.188 C 
BRANCH  31  32
ATOM     32  O   UNL A   1      46.388  35.224  25.299  1.00  0.00    -0.376 OA
BRANCH  32  33
ATOM     33  C   UNL A   1      46.840  36.103  26.318  1.00  0.00     0.202 C 
BRANCH  33  34
ATOM     34  C   UNL A   1      45.907  37.164  26.949  1.00  0.00     0.261 C 
BRANCH  34  35
ATOM     35  O   UNL A   1      45.258  36.766  28.156  1.00  0.00    -0.460 OA
BRANCH  35  36
ATOM     36  C   UNL A   1      44.804  37.733  29.003  1.00  0.00     0.338 C 
ATOM     37  O   UNL A   1      45.083  38.893  29.025  1.00  0.00    -0.246 OA
BRANCH  36  38
ATOM     38  C   UNL A   1      43.645  37.093  29.683  1.00  0.00     0.060 A 
ATOM     39  C   UNL A   1      43.660  36.867  31.064  1.00  0.00     0.016 A 
ATOM     40  C   UNL A   1      42.774  36.389  28.843  1.00  0.00     0.016 A 
ATOM     41  C   UNL A   1      42.926  35.796  31.570  1.00  0.00     0.010 A 
ATOM     42  C   UNL A   1      42.063  35.305  29.352  1.00  0.00     0.010 A 
ATOM     43  C   UNL A   1      42.193  34.964  30.701  1.00  0.00    -0.014 A 
BRANCH  43  44
ATOM     44  C   UNL A   1      41.389  33.886  31.292  1.00  0.00     0.031 A 
ATOM     45  C   UNL A   1      39.995  33.885  30.773  1.00  0.00     0.074 A 
ATOM     46  C   UNL A   1      41.826  32.861  32.054  1.00  0.00     0.049 A 
ATOM     47  N   UNL A   1      38.879  33.932  31.423  1.00  0.00    -0.248 NA
ATOM     48  C   UNL A   1      39.856  33.974  29.307  1.00  0.00     0.031 C 
ATOM     49  C   UNL A   1      43.208  32.509  32.384  1.00  0.00     0.029 A 
ATOM     50  N   UNL A   1      41.109  31.827  32.599  1.00  0.00    -0.354 N 
ATOM     51  C   UNL A   1      37.888  33.907  30.447  1.00  0.00     0.074 A 
ATOM     52  C   UNL A   1      38.541  34.099  29.177  1.00  0.00     0.031 C 
ATOM     53  C   UNL A   1      43.245  31.245  32.865  1.00  0.00     0.029 A 
ATOM     54  C   UNL A   1      41.887  30.737  32.975  1.00  0.00     0.049 A 
ATOM     55  H   UNL A   1      40.131  31.854  32.715  1.00  0.00     0.167 HD
ATOM     56  C   UNL A   1      36.605  33.533  30.690  1.00  0.00     0.031 A 
ATOM     57  C   UNL A   1      41.459  29.476  33.248  1.00  0.00     0.031 A 
ATOM     58  C   UNL A   1      36.261  33.594  32.078  1.00  0.00     0.049 A 
ATOM     59  C   UNL A   1      40.008  29.539  33.542  1.00  0.00     0.074 A 
ATOM     60  C   UNL A   1      36.179  34.612  33.006  1.00  0.00     0.029 A 
ATOM     61  N   UNL A   1      36.268  32.421  32.791  1.00  0.00    -0.354 N 
ATOM     62  N   UNL A   1      39.492  30.128  34.584  1.00  0.00    -0.248 NA
ATOM     63  C   UNL A   1      39.074  29.247  32.466  1.00  0.00     0.031 C 
ATOM     64  C   UNL A   1      36.584  34.027  34.237  1.00  0.00     0.029 A 
ATOM     65  C   UNL A   1      36.860  32.677  34.003  1.00  0.00     0.049 A 
ATOM     66  H   UNL A   1      35.912  31.554  32.488  1.00  0.00     0.167 HD
ATOM     67  C   UNL A   1      38.282  30.641  34.141  1.00  0.00     0.074 A 
ATOM     68  C   UNL A   1      38.031  29.975  32.869  1.00  0.00     0.031 C 
ATOM     69  C   UNL A   1      37.727  31.750  34.711  1.00  0.00     0.031 A 
BRANCH  56  70
ATOM     70  C   UNL A   1      35.774  32.833  29.652  1.00  0.00    -0.014 A 
ATOM     71  C   UNL A   1      35.997  31.481  29.302  1.00  0.00     0.010 A 
ATOM     72  C   UNL A   1      34.611  33.440  29.149  1.00  0.00     0.010 A 
ATOM     73  C   UNL A   1      35.156  30.787  28.438  1.00  0.00     0.020 A 
ATOM     74  C   UNL A   1      33.725  32.732  28.321  1.00  0.00     0.020 A 
ATOM     75  C   UNL A   1      34.015  31.416  27.959  1.00  0.00     0.054 A 
BRANCH  75  76
ATOM     76  S   UNL A   1      32.888  30.440  26.935  1.00  0.00     0.124 S 
ATOM     77  O   UNL A   1      31.808  31.391  26.689  1.00  0.00    -0.237 OA
ATOM     78  O   UNL A   1      33.718  30.116  25.778  1.00  0.00    -0.237 OA
ATOM     79  O   UNL A   1      32.545  29.307  27.790  1.00  0.00    -0.744 OA
ENDBRANCH  75  76
ENDBRANCH  56  70
BRANCH  57  80
ATOM     80  C   UNL A   1      42.127  28.200  32.857  1.00  0.00    -0.014 A 
ATOM     81  C   UNL A   1      42.721  27.391  33.848  1.00  0.00     0.010 A 
ATOM     82  C   UNL A   1      42.448  27.920  31.513  1.00  0.00     0.010 A 
ATOM     83  C   UNL A   1      43.651  26.398  33.526  1.00  0.00     0.020 A 
ATOM     84  C   UNL A   1      43.388  26.926  31.181  1.00  0.00     0.020 A 
ATOM     85  C   UNL A   1      44.011  26.199  32.197  1.00  0.00     0.054 A 
BRANCH  85  86
ATOM     86  S   UNL A   1      45.374  25.049  31.849  1.00  0.00     0.124 S 
ATOM     87  O   UNL A   1      46.500  25.963  31.670  1.00  0.00    -0.237 OA
ATOM     88  O   UNL A   1      45.416  24.234  33.060  1.00  0.00    -0.237 OA
ATOM     89  O   UNL A   1      44.938  24.348  30.644  1.00  0.00    -0.744 OA
ENDBRANCH  85  86
ENDBRANCH  57  80
BRANCH  69  90
ATOM     90  C   UNL A   1      38.265  32.245  36.040  1.00  0.00    -0.014 A 
ATOM     91  C   UNL A   1      37.608  31.815  37.209  1.00  0.00     0.010 A 
ATOM     92  C   UNL A   1      39.216  33.277  36.147  1.00  0.00     0.010 A 
ATOM     93  C   UNL A   1      37.835  32.445  38.436  1.00  0.00     0.020 A 
ATOM     94  C   UNL A   1      39.472  33.891  37.381  1.00  0.00     0.020 A 
ATOM     95  C   UNL A   1      38.748  33.497  38.509  1.00  0.00     0.054 A 
BRANCH  95  96
ATOM     96  S   UNL A   1      38.912  34.390  40.081  1.00  0.00     0.124 S 
ATOM     97  O   UNL A   1      37.756  33.907  40.833  1.00  0.00    -0.237 OA
ATOM     98  O   UNL A   1      40.211  33.938  40.573  1.00  0.00    -0.237 OA
ATOM     99  O   UNL A   1      38.848  35.798  39.693  1.00  0.00    -0.744 OA
ENDBRANCH  95  96
ENDBRANCH  69  90
ENDBRANCH  43  44
ENDBRANCH  36  38
ENDBRANCH  35  36
ENDBRANCH  34  35
ENDBRANCH  33  34
ENDBRANCH  32  33
ENDBRANCH  31  32
ENDBRANCH  30  31
ENDBRANCH   1  30
TORSDOF 26
ENDMDL
MODEL 3
REMARK VINA RESULT:      -9.2      3.305      5.051
REMARK SMILES Cc1c(CC(=O)OCCOCCOCCOCCOC(=O)c2ccc(-c3c4nc(c(-c5ccc(S(=O)(=O)[O-])cc5)c5ccc([nH]5)c(-c5ccc(S(=O)(=O)[O-])cc5)c5nc(c(-c6ccc(S(=O)(=O)[O-])cc6)c6ccc3[nH]6)C=C5)C=C4)cc2)c2ccccc2n1C(=O)c1ccc(Cl)cc1
REMARK SMILES IDX 13 1 12 2 11 3 10 4 9 5 8 6 7 7 5 8 6 9 4 10 3 11 1 12 2 13
REMARK SMILES IDX 88 14 82 15 87 16 83 17 86 18 84 19 85 20 89 21 90 22 91 23
REMARK SMILES IDX 92 24 97 25 93 26 96 27 94 28 95 29 14 30 15 31 16 32 17 33
REMARK SMILES IDX 18 34 19 35 20 36 21 37 22 38 23 39 81 40 24 41 80 42 25 43
REMARK SMILES IDX 26 44 27 45 74 46 28 47 79 48 73 49 75 50 29 51 78 52 72 53
REMARK SMILES IDX 71 54 30 56 60 57 41 58 59 59 42 60 45 61 58 62 76 63 43 64
REMARK SMILES IDX 44 65 57 67 77 68 46 69 31 70 32 71 40 72 33 73 39 74 34 75
REMARK SMILES IDX 35 76 36 77 37 78 38 79 61 80 62 81 70 82 63 83 69 84 64 85
REMARK SMILES IDX 65 86 66 87 67 88 68 89 47 90 48 91 56 92 49 93 55 94 50 95
REMARK SMILES IDX 51 96 52 97 53 98 54 99
REMARK H PARENT 75 55 45 66
REMARK Flexibility Score: inf
ROOT
ATOM      1  O   UNL A   1      34.743  32.101  28.452  1.00  0.00    -0.377 OA
ENDROOT
BRANCH   1   2
ATOM      2  C   UNL A   1      33.413  32.033  28.020  1.00  0.00     0.188 C 
BRANCH   2   3
ATOM      3  C   UNL A   1      32.883  30.836  27.233  1.00  0.00     0.188 C 
BRANCH   3   4
ATOM      4  O   UNL A   1      33.680  29.678  27.161  1.00  0.00    -0.376 OA
BRANCH   4   5
ATOM      5  C   UNL A   1      34.051  29.022  25.961  1.00  0.00     0.202 C 
BRANCH   5   6
ATOM      6  C   UNL A   1      33.157  28.596  24.774  1.00  0.00     0.261 C 
BRANCH   6   7
ATOM      7  O   UNL A   1      31.871  28.005  24.997  1.00  0.00    -0.463 OA
BRANCH   7   8
ATOM      8  C   UNL A   1      30.916  28.260  24.074  1.00  0.00     0.310 C 
ATOM      9  O   UNL A   1      30.447  29.379  23.877  1.00  0.00    -0.252 OA
BRANCH   8  10
ATOM     10  C   UNL A   1      30.454  27.053  23.266  1.00  0.00     0.160 C 
BRANCH  10  11
ATOM     11  C   UNL A   1      30.947  25.656  23.613  1.00  0.00    -0.008 A 
ATOM     12  C   UNL A   1      32.581  25.244  21.640  1.00  0.00     0.065 C 
ATOM     13  C   UNL A   1      31.852  24.879  22.897  1.00  0.00     0.028 A 
ATOM     14  N   UNL A   1      32.027  23.641  23.538  1.00  0.00    -0.280 N 
ATOM     15  C   UNL A   1      30.666  24.925  24.815  1.00  0.00     0.004 A 
ATOM     16  C   UNL A   1      31.221  23.643  24.688  1.00  0.00     0.056 A 
ATOM     17  C   UNL A   1      29.903  25.222  25.975  1.00  0.00     0.010 A 
ATOM     18  C   UNL A   1      30.933  22.648  25.651  1.00  0.00     0.027 A 
ATOM     19  C   UNL A   1      29.604  24.220  26.905  1.00  0.00     0.001 A 
ATOM     20  C   UNL A   1      30.099  22.941  26.731  1.00  0.00     0.002 A 
BRANCH  14  21
ATOM     21  C   UNL A   1      32.907  22.593  23.123  1.00  0.00     0.262 C 
ATOM     22  O   UNL A   1      32.584  21.868  22.182  1.00  0.00    -0.268 OA
BRANCH  21  23
ATOM     23  C   UNL A   1      34.238  22.316  23.693  1.00  0.00     0.040 A 
ATOM     24  C   UNL A   1      35.342  23.077  23.295  1.00  0.00     0.015 A 
ATOM     25  C   UNL A   1      34.377  21.291  24.636  1.00  0.00     0.015 A 
ATOM     26  C   UNL A   1      36.609  22.763  23.798  1.00  0.00     0.021 A 
ATOM     27  C   UNL A   1      35.645  20.985  25.138  1.00  0.00     0.021 A 
ATOM     28  C   UNL A   1      36.756  21.712  24.707  1.00  0.00     0.041 A 
ATOM     29  Cl  UNL A   1      38.322  21.299  25.291  1.00  0.00    -0.084 Cl
ENDBRANCH  21  23
ENDBRANCH  14  21
ENDBRANCH  10  11
ENDBRANCH   8  10
ENDBRANCH   7   8
ENDBRANCH   6   7
ENDBRANCH   5   6
ENDBRANCH   4   5
ENDBRANCH   3   4
ENDBRANCH   2   3
ENDBRANCH   1   2
BRANCH   1  30
ATOM     30  C   UNL A   1      35.221  33.389  28.690  1.00  0.00     0.188 C 
BRANCH  30  31
ATOM     31  C   UNL A   1      34.097  34.419  28.738  1.00  0.00     0.188 C 
BRANCH  31  32
ATOM     32  O   UNL A   1      34.244  35.675  29.396  1.00  0.00    -0.376 OA
BRANCH  32  33
ATOM     33  C   UNL A   1      33.208  36.237  30.187  1.00  0.00     0.202 C 
BRANCH  33  34
ATOM     34  C   UNL A   1      32.693  35.537  31.466  1.00  0.00     0.261 C 
BRANCH  34  35
ATOM     35  O   UNL A   1      33.622  35.482  32.549  1.00  0.00    -0.460 OA
BRANCH  35  36
ATOM     36  C   UNL A   1      33.983  34.261  33.038  1.00  0.00     0.338 C 
ATOM     37  O   UNL A   1      33.365  33.241  33.023  1.00  0.00    -0.246 OA
BRANCH  36  38
ATOM     38  C   UNL A   1      35.441  34.403  33.301  1.00  0.00     0.060 A 
ATOM     39  C   UNL A   1      36.308  34.866  32.304  1.00  0.00     0.016 A 
ATOM     40  C   UNL A   1      35.922  33.685  34.402  1.00  0.00     0.016 A 
ATOM     41  C   UNL A   1      37.635  34.440  32.326  1.00  0.00     0.010 A 
ATOM     42  C   UNL A   1      37.243  33.243  34.404  1.00  0.00     0.010 A 
ATOM     43  C   UNL A   1      38.081  33.561  33.332  1.00  0.00    -0.014 A 
BRANCH  43  44
ATOM     44  C   UNL A   1      39.502  33.191  33.344  1.00  0.00     0.031 A 
ATOM     45  C   UNL A   1      40.317  34.143  34.146  1.00  0.00     0.074 A 
ATOM     46  C   UNL A   1      40.056  32.046  32.889  1.00  0.00     0.049 A 
ATOM     47  N   UNL A   1      41.362  34.821  33.799  1.00  0.00    -0.248 NA
ATOM     48  C   UNL A   1      39.792  34.467  35.486  1.00  0.00     0.031 C 
ATOM     49  C   UNL A   1      39.372  30.856  32.382  1.00  0.00     0.029 A 
ATOM     50  N   UNL A   1      41.371  31.660  32.908  1.00  0.00    -0.354 N 
ATOM     51  C   UNL A   1      41.715  35.548  34.931  1.00  0.00     0.074 A 
ATOM     52  C   UNL A   1      40.632  35.420  35.871  1.00  0.00     0.031 C 
ATOM     53  C   UNL A   1      40.241  29.818  32.359  1.00  0.00     0.029 A 
ATOM     54  C   UNL A   1      41.559  30.290  32.748  1.00  0.00     0.049 A 
ATOM     55  H   UNL A   1      42.116  32.294  33.024  1.00  0.00     0.167 HD
ATOM     56  C   UNL A   1      42.957  36.059  35.137  1.00  0.00     0.031 A 
ATOM     57  C   UNL A   1      42.683  29.577  33.023  1.00  0.00     0.031 A 
ATOM     58  C   UNL A   1      43.720  36.169  33.931  1.00  0.00     0.049 A 
ATOM     59  C   UNL A   1      43.824  30.522  33.075  1.00  0.00     0.074 A 
ATOM     60  C   UNL A   1      43.577  36.887  32.762  1.00  0.00     0.029 A 
ATOM     61  N   UNL A   1      44.651  35.193  33.672  1.00  0.00    -0.354 N 
ATOM     62  N   UNL A   1      44.282  31.181  32.048  1.00  0.00    -0.248 NA
ATOM     63  C   UNL A   1      44.244  31.022  34.374  1.00  0.00     0.031 C 
ATOM     64  C   UNL A   1      44.093  36.044  31.740  1.00  0.00     0.029 A 
ATOM     65  C   UNL A   1      44.552  34.869  32.342  1.00  0.00     0.049 A 
ATOM     66  H   UNL A   1      45.275  34.797  34.323  1.00  0.00     0.167 HD
ATOM     67  C   UNL A   1      44.705  32.397  32.565  1.00  0.00     0.074 A 
ATOM     68  C   UNL A   1      44.759  32.197  34.007  1.00  0.00     0.031 C 
ATOM     69  C   UNL A   1      44.715  33.529  31.802  1.00  0.00     0.031 A 
BRANCH  56  70
ATOM     70  C   UNL A   1      43.547  36.179  36.514  1.00  0.00    -0.014 A 
ATOM     71  C   UNL A   1      43.286  37.295  37.343  1.00  0.00     0.010 A 
ATOM     72  C   UNL A   1      44.204  35.086  37.101  1.00  0.00     0.010 A 
ATOM     73  C   UNL A   1      43.722  37.358  38.663  1.00  0.00     0.020 A 
ATOM     74  C   UNL A   1      44.599  35.116  38.448  1.00  0.00     0.020 A 
ATOM     75  C   UNL A   1      44.369  36.260  39.213  1.00  0.00     0.054 A 
BRANCH  75  76
ATOM     76  S   UNL A   1      44.811  36.339  40.965  1.00  0.00     0.124 S 
ATOM     77  O   UNL A   1      46.199  35.883  40.944  1.00  0.00    -0.237 OA
ATOM     78  O   UNL A   1      44.617  37.753  41.273  1.00  0.00    -0.237 OA
ATOM     79  O   UNL A   1      43.860  35.429  41.597  1.00  0.00    -0.744 OA
ENDBRANCH  75  76
ENDBRANCH  56  70
BRANCH  57  80
ATOM     80  C   UNL A   1      42.754  28.225  33.650  1.00  0.00    -0.014 A 
ATOM     81  C   UNL A   1      42.369  28.059  34.996  1.00  0.00     0.010 A 
ATOM     82  C   UNL A   1      43.469  27.171  33.045  1.00  0.00     0.010 A 
ATOM     83  C   UNL A   1      42.741  26.931  35.734  1.00  0.00     0.020 A 
ATOM     84  C   UNL A   1      43.853  26.034  33.782  1.00  0.00     0.020 A 
ATOM     85  C   UNL A   1      43.517  25.943  35.134  1.00  0.00     0.054 A 
BRANCH  85  86
ATOM     86  S   UNL A   1      44.152  24.607  36.187  1.00  0.00     0.124 S 
ATOM     87  O   UNL A   1      43.573  24.944  37.485  1.00  0.00    -0.237 OA
ATOM     88  O   UNL A   1      43.603  23.414  35.548  1.00  0.00    -0.237 OA
ATOM     89  O   UNL A   1      45.603  24.750  36.093  1.00  0.00    -0.744 OA
ENDBRANCH  85  86
ENDBRANCH  57  80
BRANCH  69  90
ATOM     90  C   UNL A   1      44.570  33.409  30.299  1.00  0.00    -0.014 A 
ATOM     91  C   UNL A   1      45.697  33.708  29.508  1.00  0.00     0.010 A 
ATOM     92  C   UNL A   1      43.327  33.249  29.658  1.00  0.00     0.010 A 
ATOM     93  C   UNL A   1      45.577  33.916  28.132  1.00  0.00     0.020 A 
ATOM     94  C   UNL A   1      43.206  33.424  28.272  1.00  0.00     0.020 A 
ATOM     95  C   UNL A   1      44.326  33.798  27.525  1.00  0.00     0.054 A 
BRANCH  95  96
ATOM     96  S   UNL A   1      44.176  34.217  25.766  1.00  0.00     0.124 S 
ATOM     97  O   UNL A   1      43.110  35.217  25.777  1.00  0.00    -0.237 OA
ATOM     98  O   UNL A   1      45.506  34.726  25.442  1.00  0.00    -0.237 OA
ATOM     99  O   UNL A   1      43.821  32.949  25.132  1.00  0.00    -0.744 OA
ENDBRANCH  95  96
ENDBRANCH  69  90
ENDBRANCH  43  44
ENDBRANCH  36  38
ENDBRANCH  35  36
ENDBRANCH  34  35
ENDBRANCH  33  34
ENDBRANCH  32  33
ENDBRANCH  31  32
ENDBRANCH  30  31
ENDBRANCH   1  30
TORSDOF 26
ENDMDL
