MODEL 1
REMARK VINA RESULT:      -9.3      0.000      0.000
REMARK SMILES N#Cc1cccnc1N1CC[NH+]([C@@H](C(=O)OCCOCCOCCOCCOC(=O)c2ccc(-c3c4nc(c(-c5ccc(S(=O)(=O)[O-])cc5)c5ccc([nH]5)c(-c5ccc(S(=O)(=O)[O-])cc5)c5nc(c(-c6ccc(S(=O)(=O)[O-])cc6)c6ccc3[nH]6)C=C5)C=C4)cc2)c2c[nH]c3cc(CO)ccc23)CC1
REMARK SMILES IDX 22 1 21 2 20 3 19 4 18 5 17 6 16 7 14 8 15 9 13 10 12 11
REMARK SMILES IDX 9 12 10 13 103 14 11 15 102 16 8 18 3 19 4 20 5 21 7 22 6 23
REMARK SMILES IDX 2 24 1 25 91 26 92 27 101 28 93 29 94 30 100 31 95 33 99 34
REMARK SMILES IDX 96 35 97 36 98 37 23 39 24 40 25 41 26 42 27 43 28 44 29 45
REMARK SMILES IDX 30 46 31 47 32 48 90 49 33 50 89 51 34 52 35 53 36 54 83 55
REMARK SMILES IDX 37 56 88 57 82 58 84 59 38 60 87 61 81 62 80 63 39 65 69 66
REMARK SMILES IDX 50 67 68 68 51 69 54 70 67 71 85 72 52 73 53 74 66 76 86 77
REMARK SMILES IDX 55 78 40 79 41 80 49 81 42 82 48 83 43 84 44 85 45 86 46 87
REMARK SMILES IDX 47 88 70 89 71 90 79 91 72 92 78 93 73 94 74 95 75 96 76 97
REMARK SMILES IDX 77 98 56 99 57 100 65 101 58 102 64 103 59 104 60 105 61 106
REMARK SMILES IDX 62 107 63 108
REMARK H PARENT 12 17 93 32 98 38 84 64 54 75
REMARK Flexibility Score: inf
ROOT
ATOM      1  O   UNL A   1      35.436  22.171  25.816  1.00  0.00    -0.377 OA
ENDROOT
BRANCH   1   2
ATOM      2  C   UNL A   1      34.578  21.071  25.716  1.00  0.00     0.188 C 
BRANCH   2   3
ATOM      3  C   UNL A   1      33.085  21.355  25.834  1.00  0.00     0.188 C 
BRANCH   3   4
ATOM      4  O   UNL A   1      32.567  22.429  25.070  1.00  0.00    -0.376 OA
BRANCH   4   5
ATOM      5  C   UNL A   1      31.168  22.685  25.167  1.00  0.00     0.202 C 
BRANCH   5   6
ATOM      6  C   UNL A   1      30.637  23.652  26.248  1.00  0.00     0.261 C 
BRANCH   6   7
ATOM      7  O   UNL A   1      31.531  24.733  26.632  1.00  0.00    -0.459 OA
BRANCH   7   8
ATOM      8  C   UNL A   1      31.214  26.005  26.273  1.00  0.00     0.370 C 
ATOM      9  O   UNL A   1      30.514  26.732  26.977  1.00  0.00    -0.245 OA
BRANCH   8  10
ATOM     10  C   UNL A   1      31.773  26.456  24.891  1.00  0.00     0.328 C 
BRANCH  10  11
ATOM     11  N   UNL A   1      33.245  26.887  24.828  1.00  0.00    -0.316 N 
ATOM     12  N   UNL A   1      33.593  29.471  26.236  1.00  0.00    -0.344 N 
ATOM     13  C   UNL A   1      33.014  29.310  24.921  1.00  0.00     0.179 C 
ATOM     14  C   UNL A   1      33.908  28.255  27.005  1.00  0.00     0.179 C 
ATOM     15  C   UNL A   1      33.600  28.139  24.174  1.00  0.00     0.285 C 
ATOM     16  C   UNL A   1      33.978  26.938  26.128  1.00  0.00     0.285 C 
ATOM     17  H   UNL A   1      33.531  26.106  24.238  1.00  0.00     0.349 HD
BRANCH  12  18
ATOM     18  C   UNL A   1      33.531  30.730  26.860  1.00  0.00     0.146 A 
ATOM     19  C   UNL A   1      34.931  31.196  27.718  1.00  0.00     0.095 A 
ATOM     20  C   UNL A   1      34.919  32.776  28.484  1.00  0.00     0.025 A 
ATOM     21  C   UNL A   1      33.311  34.001  28.303  1.00  0.00     0.022 A 
ATOM     22  N   UNL A   1      32.120  31.767  26.721  1.00  0.00    -0.238 NA
ATOM     23  C   UNL A   1      31.930  33.358  27.423  1.00  0.00     0.113 A 
BRANCH  19  24
ATOM     24  C   UNL A   1      36.146  30.460  27.659  1.00  0.00     0.103 C 
ATOM     25  N   UNL A   1      37.119  29.828  27.648  1.00  0.00    -0.192 NA
ENDBRANCH  19  24
ENDBRANCH  12  18
ENDBRANCH  10  11
BRANCH  10  26
ATOM     26  C   UNL A   1      30.750  26.672  23.622  1.00  0.00     0.046 A 
ATOM     27  C   UNL A   1      31.219  26.385  22.328  1.00  0.00     0.094 A 
ATOM     28  C   UNL A   1      29.748  27.679  23.198  1.00  0.00     0.009 A 
ATOM     29  N   UNL A   1      31.520  27.707  21.949  1.00  0.00    -0.361 N 
ATOM     30  C   UNL A   1      30.435  28.484  22.286  1.00  0.00     0.046 A 
ATOM     31  C   UNL A   1      28.342  27.928  23.222  1.00  0.00     0.011 A 
ATOM     32  H   UNL A   1      32.350  28.017  21.523  1.00  0.00     0.166 HD
ATOM     33  C   UNL A   1      29.997  29.764  21.894  1.00  0.00     0.032 A 
ATOM     34  C   UNL A   1      27.836  29.179  22.784  1.00  0.00     0.007 A 
ATOM     35  C   UNL A   1      28.688  30.151  22.249  1.00  0.00    -0.021 A 
BRANCH  35  36
ATOM     36  C   UNL A   1      28.223  31.585  22.071  1.00  0.00     0.191 C 
BRANCH  36  37
ATOM     37  O   UNL A   1      29.295  32.528  22.038  1.00  0.00    -0.392 OA
ATOM     38  H   UNL A   1      30.013  32.182  21.485  1.00  0.00     0.211 HD
ENDBRANCH  36  37
ENDBRANCH  35  36
ENDBRANCH  10  26
ENDBRANCH   8  10
ENDBRANCH   7   8
ENDBRANCH   6   7
ENDBRANCH   5   6
ENDBRANCH   4   5
ENDBRANCH   3   4
ENDBRANCH   2   3
ENDBRANCH   1   2
BRANCH   1  39
ATOM     39  C   UNL A   1      36.719  21.992  25.260  1.00  0.00     0.188 C 
BRANCH  39  40
ATOM     40  C   UNL A   1      37.836  22.979  25.688  1.00  0.00     0.188 C 
BRANCH  40  41
ATOM     41  O   UNL A   1      38.931  22.712  26.586  1.00  0.00    -0.376 OA
BRANCH  41  42
ATOM     42  C   UNL A   1      39.595  21.465  26.467  1.00  0.00     0.202 C 
BRANCH  42  43
ATOM     43  C   UNL A   1      41.051  21.552  25.937  1.00  0.00     0.261 C 
BRANCH  43  44
ATOM     44  O   UNL A   1      41.968  21.951  26.974  1.00  0.00    -0.460 OA
BRANCH  44  45
ATOM     45  C   UNL A   1      42.745  22.978  26.619  1.00  0.00     0.338 C 
ATOM     46  O   UNL A   1      43.844  22.863  26.085  1.00  0.00    -0.246 OA
BRANCH  45  47
ATOM     47  C   UNL A   1      42.104  24.398  26.906  1.00  0.00     0.060 A 
ATOM     48  C   UNL A   1      41.648  26.012  25.741  1.00  0.00     0.016 A 
ATOM     49  C   UNL A   1      42.829  24.720  28.514  1.00  0.00     0.016 A 
ATOM     50  C   UNL A   1      42.090  27.631  26.299  1.00  0.00     0.010 A 
ATOM     51  C   UNL A   1      43.135  26.373  28.973  1.00  0.00     0.010 A 
ATOM     52  C   UNL A   1      42.796  27.774  27.905  1.00  0.00    -0.014 A 
BRANCH  52  53
ATOM     53  C   UNL A   1      43.100  29.107  28.400  1.00  0.00     0.031 A 
ATOM     54  C   UNL A   1      44.492  29.601  28.224  1.00  0.00     0.074 A 
ATOM     55  C   UNL A   1      42.142  29.768  29.071  1.00  0.00     0.049 A 
ATOM     56  N   UNL A   1      45.115  30.478  28.949  1.00  0.00    -0.248 NA
ATOM     57  C   UNL A   1      45.348  28.923  27.229  1.00  0.00     0.031 C 
ATOM     58  C   UNL A   1      40.771  29.308  29.338  1.00  0.00     0.029 A 
ATOM     59  N   UNL A   1      42.169  31.001  29.644  1.00  0.00    -0.354 N 
ATOM     60  C   UNL A   1      46.441  30.364  28.568  1.00  0.00     0.074 A 
ATOM     61  C   UNL A   1      46.552  29.242  27.676  1.00  0.00     0.031 C 
ATOM     62  C   UNL A   1      40.050  30.302  29.862  1.00  0.00     0.029 A 
ATOM     63  C   UNL A   1      40.959  31.381  30.173  1.00  0.00     0.049 A 
ATOM     64  H   UNL A   1      42.975  31.565  29.677  1.00  0.00     0.167 HD
ATOM     65  C   UNL A   1      47.454  31.194  28.877  1.00  0.00     0.031 A 
ATOM     66  C   UNL A   1      40.652  32.459  30.903  1.00  0.00     0.031 A 
ATOM     67  C   UNL A   1      47.232  32.388  29.636  1.00  0.00     0.049 A 
ATOM     68  C   UNL A   1      41.794  33.369  31.222  1.00  0.00     0.074 A 
ATOM     69  C   UNL A   1      48.130  33.375  29.978  1.00  0.00     0.029 A 
ATOM     70  N   UNL A   1      45.987  32.776  30.117  1.00  0.00    -0.354 N 
ATOM     71  N   UNL A   1      43.058  33.252  30.878  1.00  0.00    -0.248 NA
ATOM     72  C   UNL A   1      41.481  34.548  32.023  1.00  0.00     0.031 C 
ATOM     73  C   UNL A   1      47.435  34.331  30.721  1.00  0.00     0.029 A 
ATOM     74  C   UNL A   1      46.091  33.982  30.769  1.00  0.00     0.049 A 
ATOM     75  H   UNL A   1      45.153  32.261  30.009  1.00  0.00     0.167 HD
ATOM     76  C   UNL A   1      43.691  34.368  31.393  1.00  0.00     0.074 A 
ATOM     77  C   UNL A   1      42.654  35.161  32.033  1.00  0.00     0.031 C 
ATOM     78  C   UNL A   1      45.002  34.715  31.364  1.00  0.00     0.031 A 
BRANCH  65  79
ATOM     79  C   UNL A   1      48.814  30.862  28.345  1.00  0.00    -0.014 A 
ATOM     80  C   UNL A   1      49.587  29.827  28.908  1.00  0.00     0.010 A 
ATOM     81  C   UNL A   1      49.331  31.593  27.264  1.00  0.00     0.010 A 
ATOM     82  C   UNL A   1      50.857  29.542  28.410  1.00  0.00     0.020 A 
ATOM     83  C   UNL A   1      50.585  31.283  26.735  1.00  0.00     0.020 A 
ATOM     84  C   UNL A   1      51.339  30.259  27.313  1.00  0.00     0.054 A 
BRANCH  84  85
ATOM     85  S   UNL A   1      52.938  29.780  26.611  1.00  0.00     0.124 S 
ATOM     86  O   UNL A   1      53.194  28.506  27.277  1.00  0.00    -0.237 OA
ATOM     87  O   UNL A   1      52.638  29.695  25.184  1.00  0.00    -0.237 OA
ATOM     88  O   UNL A   1      53.827  30.874  26.996  1.00  0.00    -0.744 OA
ENDBRANCH  84  85
ENDBRANCH  65  79
BRANCH  66  89
ATOM     89  C   UNL A   1      39.270  32.689  31.398  1.00  0.00    -0.014 A 
ATOM     90  C   UNL A   1      38.377  33.480  30.659  1.00  0.00     0.010 A 
ATOM     91  C   UNL A   1      38.835  32.131  32.618  1.00  0.00     0.010 A 
ATOM     92  C   UNL A   1      37.110  33.777  31.163  1.00  0.00     0.020 A 
ATOM     93  C   UNL A   1      37.550  32.379  33.100  1.00  0.00     0.020 A 
ATOM     94  C   UNL A   1      36.708  33.231  32.385  1.00  0.00     0.054 A 
BRANCH  94  95
ATOM     95  S   UNL A   1      35.075  33.665  33.036  1.00  0.00     0.124 S 
ATOM     96  O   UNL A   1      34.190  32.905  32.158  1.00  0.00    -0.237 OA
ATOM     97  O   UNL A   1      35.155  33.198  34.416  1.00  0.00    -0.237 OA
ATOM     98  O   UNL A   1      35.017  35.116  32.877  1.00  0.00    -0.744 OA
ENDBRANCH  94  95
ENDBRANCH  66  89
BRANCH  78  99
ATOM     99  C   UNL A   1      45.337  36.036  31.978  1.00  0.00    -0.014 A 
ATOM    100  C   UNL A   1      45.186  37.233  31.258  1.00  0.00     0.010 A 
ATOM    101  C   UNL A   1      45.796  36.067  33.306  1.00  0.00     0.010 A 
ATOM    102  C   UNL A   1      45.557  38.439  31.839  1.00  0.00     0.020 A 
ATOM    103  C   UNL A   1      46.109  37.278  33.909  1.00  0.00     0.020 A 
ATOM    104  C   UNL A   1      46.013  38.453  33.162  1.00  0.00     0.054 A 
BRANCH 104 105
ATOM    105  S   UNL A   1      46.466  40.039  33.899  1.00  0.00     0.124 S 
ATOM    106  O   UNL A   1      45.260  40.831  33.676  1.00  0.00    -0.237 OA
ATOM    107  O   UNL A   1      46.734  39.674  35.287  1.00  0.00    -0.237 OA
ATOM    108  O   UNL A   1      47.636  40.456  33.131  1.00  0.00    -0.744 OA
ENDBRANCH 104 105
ENDBRANCH  78  99
ENDBRANCH  52  53
ENDBRANCH  45  47
ENDBRANCH  44  45
ENDBRANCH  43  44
ENDBRANCH  42  43
ENDBRANCH  41  42
ENDBRANCH  40  41
ENDBRANCH  39  40
ENDBRANCH   1  39
TORSDOF 29
ENDMDL
MODEL 2
REMARK VINA RESULT:      -8.3      5.653      7.873
REMARK SMILES N#Cc1cccnc1N1CC[NH+]([C@@H](C(=O)OCCOCCOCCOCCOC(=O)c2ccc(-c3c4nc(c(-c5ccc(S(=O)(=O)[O-])cc5)c5ccc([nH]5)c(-c5ccc(S(=O)(=O)[O-])cc5)c5nc(c(-c6ccc(S(=O)(=O)[O-])cc6)c6ccc3[nH]6)C=C5)C=C4)cc2)c2c[nH]c3cc(CO)ccc23)CC1
REMARK SMILES IDX 22 1 21 2 20 3 19 4 18 5 17 6 16 7 14 8 15 9 13 10 12 11
REMARK SMILES IDX 9 12 10 13 103 14 11 15 102 16 8 18 3 19 4 20 5 21 7 22 6 23
REMARK SMILES IDX 2 24 1 25 91 26 92 27 101 28 93 29 94 30 100 31 95 33 99 34
REMARK SMILES IDX 96 35 97 36 98 37 23 39 24 40 25 41 26 42 27 43 28 44 29 45
REMARK SMILES IDX 30 46 31 47 32 48 90 49 33 50 89 51 34 52 35 53 36 54 83 55
REMARK SMILES IDX 37 56 88 57 82 58 84 59 38 60 87 61 81 62 80 63 39 65 69 66
REMARK SMILES IDX 50 67 68 68 51 69 54 70 67 71 85 72 52 73 53 74 66 76 86 77
REMARK SMILES IDX 55 78 40 79 41 80 49 81 42 82 48 83 43 84 44 85 45 86 46 87
REMARK SMILES IDX 47 88 70 89 71 90 79 91 72 92 78 93 73 94 74 95 75 96 76 97
REMARK SMILES IDX 77 98 56 99 57 100 65 101 58 102 64 103 59 104 60 105 61 106
REMARK SMILES IDX 62 107 63 108
REMARK H PARENT 12 17 93 32 98 38 84 64 54 75
REMARK Flexibility Score: inf
ROOT
ATOM      1  O   UNL A   1      38.780  22.359  25.778  1.00  0.00    -0.377 OA
ENDROOT
BRANCH   1   2
ATOM      2  C   UNL A   1      37.642  23.013  25.294  1.00  0.00     0.188 C 
BRANCH   2   3
ATOM      3  C   UNL A   1      36.552  23.330  26.311  1.00  0.00     0.188 C 
BRANCH   3   4
ATOM      4  O   UNL A   1      35.603  22.315  26.581  1.00  0.00    -0.376 OA
BRANCH   4   5
ATOM      5  C   UNL A   1      34.746  22.502  27.705  1.00  0.00     0.202 C 
BRANCH   5   6
ATOM      6  C   UNL A   1      33.343  21.856  27.717  1.00  0.00     0.261 C 
BRANCH   6   7
ATOM      7  O   UNL A   1      32.243  22.710  27.300  1.00  0.00    -0.459 OA
BRANCH   7   8
ATOM      8  C   UNL A   1      31.865  22.703  25.994  1.00  0.00     0.370 C 
ATOM      9  O   UNL A   1      30.686  22.618  25.651  1.00  0.00    -0.245 OA
BRANCH   8  10
ATOM     10  C   UNL A   1      33.037  22.772  24.971  1.00  0.00     0.328 C 
BRANCH  10  11
ATOM     11  N   UNL A   1      33.673  24.145  24.713  1.00  0.00    -0.316 N 
ATOM     12  N   UNL A   1      31.552  26.150  24.203  1.00  0.00    -0.344 N 
ATOM     13  C   UNL A   1      32.001  25.153  23.256  1.00  0.00     0.179 C 
ATOM     14  C   UNL A   1      32.079  26.085  25.576  1.00  0.00     0.179 C 
ATOM     15  C   UNL A   1      33.458  24.807  23.433  1.00  0.00     0.285 C 
ATOM     16  C   UNL A   1      33.390  25.208  25.722  1.00  0.00     0.285 C 
ATOM     17  H   UNL A   1      34.631  23.799  24.755  1.00  0.00     0.349 HD
BRANCH  12  18
ATOM     18  C   UNL A   1      30.414  26.919  23.896  1.00  0.00     0.146 A 
ATOM     19  C   UNL A   1      30.724  28.454  23.219  1.00  0.00     0.095 A 
ATOM     20  C   UNL A   1      29.337  29.439  22.783  1.00  0.00     0.025 A 
ATOM     21  C   UNL A   1      27.450  28.738  23.040  1.00  0.00     0.022 A 
ATOM     22  N   UNL A   1      28.786  26.311  24.152  1.00  0.00    -0.238 NA
ATOM     23  C   UNL A   1      27.297  27.153  23.789  1.00  0.00     0.113 A 
BRANCH  19  24
ATOM     24  C   UNL A   1      32.025  28.866  22.816  1.00  0.00     0.103 C 
ATOM     25  N   UNL A   1      33.077  29.246  22.510  1.00  0.00    -0.192 NA
ENDBRANCH  19  24
ENDBRANCH  12  18
ENDBRANCH  10  11
BRANCH  10  26
ATOM     26  C   UNL A   1      33.404  21.459  24.051  1.00  0.00     0.046 A 
ATOM     27  C   UNL A   1      32.692  21.258  22.856  1.00  0.00     0.094 A 
ATOM     28  C   UNL A   1      33.714  20.028  24.282  1.00  0.00     0.009 A 
ATOM     29  N   UNL A   1      31.777  20.308  23.350  1.00  0.00    -0.361 N 
ATOM     30  C   UNL A   1      32.502  19.372  24.052  1.00  0.00     0.046 A 
ATOM     31  C   UNL A   1      34.822  19.135  24.409  1.00  0.00     0.011 A 
ATOM     32  H   UNL A   1      30.802  20.313  23.218  1.00  0.00     0.166 HD
ATOM     33  C   UNL A   1      32.231  18.061  24.488  1.00  0.00     0.032 A 
ATOM     34  C   UNL A   1      34.606  17.785  24.789  1.00  0.00     0.007 A 
ATOM     35  C   UNL A   1      33.310  17.289  24.966  1.00  0.00    -0.021 A 
BRANCH  35  36
ATOM     36  C   UNL A   1      33.071  15.962  25.664  1.00  0.00     0.191 C 
BRANCH  36  37
ATOM     37  O   UNL A   1      34.020  14.956  25.308  1.00  0.00    -0.392 OA
ATOM     38  H   UNL A   1      34.902  15.223  25.610  1.00  0.00     0.211 HD
ENDBRANCH  36  37
ENDBRANCH  35  36
ENDBRANCH  10  26
ENDBRANCH   8  10
ENDBRANCH   7   8
ENDBRANCH   6   7
ENDBRANCH   5   6
ENDBRANCH   4   5
ENDBRANCH   3   4
ENDBRANCH   2   3
ENDBRANCH   1   2
BRANCH   1  39
ATOM     39  C   UNL A   1      39.417  22.977  26.873  1.00  0.00     0.188 C 
BRANCH  39  40
ATOM     40  C   UNL A   1      40.094  24.351  26.634  1.00  0.00     0.188 C 
BRANCH  40  41
ATOM     41  O   UNL A   1      40.280  25.405  27.600  1.00  0.00    -0.376 OA
BRANCH  41  42
ATOM     42  C   UNL A   1      41.606  25.708  28.001  1.00  0.00     0.202 C 
BRANCH  42  43
ATOM     43  C   UNL A   1      42.712  25.083  27.111  1.00  0.00     0.261 C 
BRANCH  43  44
ATOM     44  O   UNL A   1      43.853  24.677  27.892  1.00  0.00    -0.460 OA
BRANCH  44  45
ATOM     45  C   UNL A   1      44.759  25.648  28.039  1.00  0.00     0.338 C 
ATOM     46  O   UNL A   1      45.329  26.210  27.109  1.00  0.00    -0.246 OA
BRANCH  45  47
ATOM     47  C   UNL A   1      45.017  26.063  29.546  1.00  0.00     0.060 A 
ATOM     48  C   UNL A   1      44.325  25.385  31.344  1.00  0.00     0.016 A 
ATOM     49  C   UNL A   1      45.163  27.837  29.333  1.00  0.00     0.016 A 
ATOM     50  C   UNL A   1      43.788  26.555  32.557  1.00  0.00     0.010 A 
ATOM     51  C   UNL A   1      44.675  28.875  30.646  1.00  0.00     0.010 A 
ATOM     52  C   UNL A   1      44.000  28.263  32.191  1.00  0.00    -0.014 A 
BRANCH  52  53
ATOM     53  C   UNL A   1      43.624  29.231  33.210  1.00  0.00     0.031 A 
ATOM     54  C   UNL A   1      44.502  29.342  34.405  1.00  0.00     0.074 A 
ATOM     55  C   UNL A   1      42.464  29.892  33.059  1.00  0.00     0.049 A 
ATOM     56  N   UNL A   1      44.167  29.734  35.596  1.00  0.00    -0.248 NA
ATOM     57  C   UNL A   1      45.872  28.795  34.313  1.00  0.00     0.031 C 
ATOM     58  C   UNL A   1      41.520  29.778  31.937  1.00  0.00     0.029 A 
ATOM     59  N   UNL A   1      41.879  30.823  33.859  1.00  0.00    -0.354 N 
ATOM     60  C   UNL A   1      45.240  29.376  36.394  1.00  0.00     0.074 A 
ATOM     61  C   UNL A   1      46.151  28.605  35.593  1.00  0.00     0.031 C 
ATOM     62  C   UNL A   1      40.579  30.720  32.036  1.00  0.00     0.029 A 
ATOM     63  C   UNL A   1      40.723  31.344  33.330  1.00  0.00     0.049 A 
ATOM     64  H   UNL A   1      42.248  31.097  34.730  1.00  0.00     0.167 HD
ATOM     65  C   UNL A   1      45.470  29.745  37.667  1.00  0.00     0.031 A 
ATOM     66  C   UNL A   1      39.837  32.181  33.884  1.00  0.00     0.031 A 
ATOM     67  C   UNL A   1      44.597  30.653  38.347  1.00  0.00     0.049 A 
ATOM     68  C   UNL A   1      40.124  32.584  35.294  1.00  0.00     0.074 A 
ATOM     69  C   UNL A   1      44.719  31.188  39.611  1.00  0.00     0.029 A 
ATOM     70  N   UNL A   1      43.459  31.207  37.771  1.00  0.00    -0.354 N 
ATOM     71  N   UNL A   1      41.132  32.228  36.061  1.00  0.00    -0.248 NA
ATOM     72  C   UNL A   1      39.167  33.492  35.918  1.00  0.00     0.031 C 
ATOM     73  C   UNL A   1      43.617  32.020  39.820  1.00  0.00     0.029 A 
ATOM     74  C   UNL A   1      42.856  32.068  38.658  1.00  0.00     0.049 A 
ATOM     75  H   UNL A   1      43.132  31.010  36.863  1.00  0.00     0.167 HD
ATOM     76  C   UNL A   1      40.949  32.901  37.255  1.00  0.00     0.074 A 
ATOM     77  C   UNL A   1      39.755  33.713  37.082  1.00  0.00     0.031 C 
ATOM     78  C   UNL A   1      41.677  32.854  38.399  1.00  0.00     0.031 A 
BRANCH  65  79
ATOM     79  C   UNL A   1      46.709  29.226  38.330  1.00  0.00    -0.014 A 
ATOM     80  C   UNL A   1      46.747  27.940  38.904  1.00  0.00     0.010 A 
ATOM     81  C   UNL A   1      47.856  30.034  38.381  1.00  0.00     0.010 A 
ATOM     82  C   UNL A   1      47.904  27.479  39.531  1.00  0.00     0.020 A 
ATOM     83  C   UNL A   1      49.030  29.560  38.970  1.00  0.00     0.020 A 
ATOM     84  C   UNL A   1      49.044  28.285  39.541  1.00  0.00     0.054 A 
BRANCH  84  85
ATOM     85  S   UNL A   1      50.566  27.608  40.251  1.00  0.00     0.124 S 
ATOM     86  O   UNL A   1      50.933  28.636  41.222  1.00  0.00    -0.237 OA
ATOM     87  O   UNL A   1      50.107  26.343  40.820  1.00  0.00    -0.237 OA
ATOM     88  O   UNL A   1      51.460  27.487  39.103  1.00  0.00    -0.744 OA
ENDBRANCH  84  85
ENDBRANCH  65  79
BRANCH  66  89
ATOM     89  C   UNL A   1      38.627  32.625  33.144  1.00  0.00    -0.014 A 
ATOM     90  C   UNL A   1      37.448  31.866  33.200  1.00  0.00     0.010 A 
ATOM     91  C   UNL A   1      38.644  33.800  32.367  1.00  0.00     0.010 A 
ATOM     92  C   UNL A   1      36.338  32.226  32.434  1.00  0.00     0.020 A 
ATOM     93  C   UNL A   1      37.519  34.195  31.642  1.00  0.00     0.020 A 
ATOM     94  C   UNL A   1      36.385  33.383  31.653  1.00  0.00     0.054 A 
BRANCH  94  95
ATOM     95  S   UNL A   1      34.946  33.805  30.637  1.00  0.00     0.124 S 
ATOM     96  O   UNL A   1      34.248  32.525  30.560  1.00  0.00    -0.237 OA
ATOM     97  O   UNL A   1      34.292  34.838  31.435  1.00  0.00    -0.237 OA
ATOM     98  O   UNL A   1      35.536  34.272  29.385  1.00  0.00    -0.744 OA
ENDBRANCH  94  95
ENDBRANCH  66  89
BRANCH  78  99
ATOM     99  C   UNL A   1      41.223  33.766  39.494  1.00  0.00    -0.014 A 
ATOM    100  C   UNL A   1      41.694  35.086  39.583  1.00  0.00     0.010 A 
ATOM    101  C   UNL A   1      40.296  33.284  40.433  1.00  0.00     0.010 A 
ATOM    102  C   UNL A   1      41.294  35.891  40.643  1.00  0.00     0.020 A 
ATOM    103  C   UNL A   1      39.848  34.107  41.458  1.00  0.00     0.020 A 
ATOM    104  C   UNL A   1      40.371  35.396  41.571  1.00  0.00     0.054 A 
BRANCH 104 105
ATOM    105  S   UNL A   1      39.852  36.473  42.925  1.00  0.00     0.124 S 
ATOM    106  O   UNL A   1      38.553  35.907  43.280  1.00  0.00    -0.237 OA
ATOM    107  O   UNL A   1      40.915  36.276  43.907  1.00  0.00    -0.237 OA
ATOM    108  O   UNL A   1      39.808  37.799  42.316  1.00  0.00    -0.744 OA
ENDBRANCH 104 105
ENDBRANCH  78  99
ENDBRANCH  52  53
ENDBRANCH  45  47
ENDBRANCH  44  45
ENDBRANCH  43  44
ENDBRANCH  42  43
ENDBRANCH  41  42
ENDBRANCH  40  41
ENDBRANCH  39  40
ENDBRANCH   1  39
TORSDOF 29
ENDMDL
MODEL 3
REMARK VINA RESULT:      -7.8      4.779      7.858
REMARK SMILES N#Cc1cccnc1N1CC[NH+]([C@@H](C(=O)OCCOCCOCCOCCOC(=O)c2ccc(-c3c4nc(c(-c5ccc(S(=O)(=O)[O-])cc5)c5ccc([nH]5)c(-c5ccc(S(=O)(=O)[O-])cc5)c5nc(c(-c6ccc(S(=O)(=O)[O-])cc6)c6ccc3[nH]6)C=C5)C=C4)cc2)c2c[nH]c3cc(CO)ccc23)CC1
REMARK SMILES IDX 22 1 21 2 20 3 19 4 18 5 17 6 16 7 14 8 15 9 13 10 12 11
REMARK SMILES IDX 9 12 10 13 103 14 11 15 102 16 8 18 3 19 4 20 5 21 7 22 6 23
REMARK SMILES IDX 2 24 1 25 91 26 92 27 101 28 93 29 94 30 100 31 95 33 99 34
REMARK SMILES IDX 96 35 97 36 98 37 23 39 24 40 25 41 26 42 27 43 28 44 29 45
REMARK SMILES IDX 30 46 31 47 32 48 90 49 33 50 89 51 34 52 35 53 36 54 83 55
REMARK SMILES IDX 37 56 88 57 82 58 84 59 38 60 87 61 81 62 80 63 39 65 69 66
REMARK SMILES IDX 50 67 68 68 51 69 54 70 67 71 85 72 52 73 53 74 66 76 86 77
REMARK SMILES IDX 55 78 40 79 41 80 49 81 42 82 48 83 43 84 44 85 45 86 46 87
REMARK SMILES IDX 47 88 70 89 71 90 79 91 72 92 78 93 73 94 74 95 75 96 76 97
REMARK SMILES IDX 77 98 56 99 57 100 65 101 58 102 64 103 59 104 60 105 61 106
REMARK SMILES IDX 62 107 63 108
REMARK H PARENT 12 17 93 32 98 38 84 64 54 75
REMARK Flexibility Score: inf
ROOT
ATOM      1  O   UNL A   1      35.804  22.364  25.984  1.00  0.00    -0.377 OA
ENDROOT
BRANCH   1   2
ATOM      2  C   UNL A   1      35.173  21.136  25.762  1.00  0.00     0.188 C 
BRANCH   2   3
ATOM      3  C   UNL A   1      33.678  21.179  25.466  1.00  0.00     0.188 C 
BRANCH   3   4
ATOM      4  O   UNL A   1      33.171  22.353  24.860  1.00  0.00    -0.376 OA
BRANCH   4   5
ATOM      5  C   UNL A   1      31.782  22.629  25.027  1.00  0.00     0.202 C 
BRANCH   5   6
ATOM      6  C   UNL A   1      31.280  23.268  26.341  1.00  0.00     0.261 C 
BRANCH   6   7
ATOM      7  O   UNL A   1      31.821  24.578  26.662  1.00  0.00    -0.459 OA
BRANCH   7   8
ATOM      8  C   UNL A   1      31.184  25.684  26.194  1.00  0.00     0.370 C 
ATOM      9  O   UNL A   1      30.234  26.195  26.787  1.00  0.00    -0.245 OA
BRANCH   8  10
ATOM     10  C   UNL A   1      31.723  26.229  24.839  1.00  0.00     0.328 C 
BRANCH  10  11
ATOM     11  N   UNL A   1      33.188  26.683  24.789  1.00  0.00    -0.316 N 
ATOM     12  N   UNL A   1      33.466  29.310  26.133  1.00  0.00    -0.344 N 
ATOM     13  C   UNL A   1      32.914  29.104  24.812  1.00  0.00     0.179 C 
ATOM     14  C   UNL A   1      33.788  28.121  26.940  1.00  0.00     0.179 C 
ATOM     15  C   UNL A   1      33.533  27.923  24.108  1.00  0.00     0.285 C 
ATOM     16  C   UNL A   1      33.897  26.783  26.100  1.00  0.00     0.285 C 
ATOM     17  H   UNL A   1      33.499  25.892  24.226  1.00  0.00     0.349 HD
BRANCH  12  18
ATOM     18  C   UNL A   1      33.371  30.584  26.721  1.00  0.00     0.146 A 
ATOM     19  C   UNL A   1      34.749  31.100  27.586  1.00  0.00     0.095 A 
ATOM     20  C   UNL A   1      34.695  32.700  28.310  1.00  0.00     0.025 A 
ATOM     21  C   UNL A   1      33.067  33.888  28.071  1.00  0.00     0.022 A 
ATOM     22  N   UNL A   1      31.943  31.590  26.533  1.00  0.00    -0.238 NA
ATOM     23  C   UNL A   1      31.712  33.195  27.188  1.00  0.00     0.113 A 
BRANCH  19  24
ATOM     24  C   UNL A   1      35.978  30.386  27.566  1.00  0.00     0.103 C 
ATOM     25  N   UNL A   1      36.961  29.770  27.584  1.00  0.00    -0.192 NA
ENDBRANCH  19  24
ENDBRANCH  12  18
ENDBRANCH  10  11
BRANCH  10  26
ATOM     26  C   UNL A   1      30.686  26.508  23.594  1.00  0.00     0.046 A 
ATOM     27  C   UNL A   1      31.137  26.282  22.282  1.00  0.00     0.094 A 
ATOM     28  C   UNL A   1      29.682  27.538  23.232  1.00  0.00     0.009 A 
ATOM     29  N   UNL A   1      31.438  27.621  21.963  1.00  0.00    -0.361 N 
ATOM     30  C   UNL A   1      30.360  28.384  22.351  1.00  0.00     0.046 A 
ATOM     31  C   UNL A   1      28.277  27.789  23.285  1.00  0.00     0.011 A 
ATOM     32  H   UNL A   1      32.264  27.948  21.542  1.00  0.00     0.166 HD
ATOM     33  C   UNL A   1      29.923  29.682  22.026  1.00  0.00     0.032 A 
ATOM     34  C   UNL A   1      27.770  29.062  22.915  1.00  0.00     0.007 A 
ATOM     35  C   UNL A   1      28.620  30.055  22.417  1.00  0.00    -0.021 A 
BRANCH  35  36
ATOM     36  C   UNL A   1      28.158  31.498  22.313  1.00  0.00     0.191 C 
BRANCH  36  37
ATOM     37  O   UNL A   1      27.223  31.868  23.328  1.00  0.00    -0.392 OA
ATOM     38  H   UNL A   1      26.380  31.414  23.171  1.00  0.00     0.211 HD
ENDBRANCH  36  37
ENDBRANCH  35  36
ENDBRANCH  10  26
ENDBRANCH   8  10
ENDBRANCH   7   8
ENDBRANCH   6   7
ENDBRANCH   5   6
ENDBRANCH   4   5
ENDBRANCH   3   4
ENDBRANCH   2   3
ENDBRANCH   1   2
BRANCH   1  39
ATOM     39  C   UNL A   1      37.184  22.398  25.699  1.00  0.00     0.188 C 
BRANCH  39  40
ATOM     40  C   UNL A   1      37.969  23.682  26.074  1.00  0.00     0.188 C 
BRANCH  40  41
ATOM     41  O   UNL A   1      38.947  23.824  27.123  1.00  0.00    -0.376 OA
BRANCH  41  42
ATOM     42  C   UNL A   1      40.130  23.047  27.035  1.00  0.00     0.202 C 
BRANCH  42  43
ATOM     43  C   UNL A   1      41.438  23.869  26.895  1.00  0.00     0.261 C 
BRANCH  43  44
ATOM     44  O   UNL A   1      41.973  24.234  28.182  1.00  0.00    -0.460 OA
BRANCH  44  45
ATOM     45  C   UNL A   1      43.273  23.953  28.307  1.00  0.00     0.338 C 
ATOM     46  O   UNL A   1      43.715  22.880  28.705  1.00  0.00    -0.246 OA
BRANCH  45  47
ATOM     47  C   UNL A   1      44.231  25.128  27.847  1.00  0.00     0.060 A 
ATOM     48  C   UNL A   1      45.740  25.277  26.480  1.00  0.00     0.016 A 
ATOM     49  C   UNL A   1      44.467  25.941  29.428  1.00  0.00     0.016 A 
ATOM     50  C   UNL A   1      47.246  26.081  26.942  1.00  0.00     0.010 A 
ATOM     51  C   UNL A   1      45.971  26.772  29.720  1.00  0.00     0.010 A 
ATOM     52  C   UNL A   1      47.315  26.829  28.534  1.00  0.00    -0.014 A 
BRANCH  52  53
ATOM     53  C   UNL A   1      48.524  27.551  28.897  1.00  0.00     0.031 A 
ATOM     54  C   UNL A   1      49.556  26.811  29.671  1.00  0.00     0.074 A 
ATOM     55  C   UNL A   1      48.593  28.860  28.602  1.00  0.00     0.049 A 
ATOM     56  N   UNL A   1      50.436  27.307  30.486  1.00  0.00    -0.248 NA
ATOM     57  C   UNL A   1      49.498  25.335  29.671  1.00  0.00     0.031 C 
ATOM     58  C   UNL A   1      47.580  29.663  27.900  1.00  0.00     0.029 A 
ATOM     59  N   UNL A   1      49.585  29.758  28.840  1.00  0.00    -0.354 N 
ATOM     60  C   UNL A   1      50.942  26.209  31.160  1.00  0.00     0.074 A 
ATOM     61  C   UNL A   1      50.169  25.058  30.778  1.00  0.00     0.031 C 
ATOM     62  C   UNL A   1      48.072  30.872  27.619  1.00  0.00     0.029 A 
ATOM     63  C   UNL A   1      49.333  31.000  28.312  1.00  0.00     0.049 A 
ATOM     64  H   UNL A   1      50.404  29.540  29.343  1.00  0.00     0.167 HD
ATOM     65  C   UNL A   1      52.022  26.169  31.962  1.00  0.00     0.031 A 
ATOM     66  C   UNL A   1      50.022  32.140  28.451  1.00  0.00     0.031 A 
ATOM     67  C   UNL A   1      52.842  27.325  32.163  1.00  0.00     0.049 A 
ATOM     68  C   UNL A   1      51.223  32.063  29.337  1.00  0.00     0.074 A 
ATOM     69  C   UNL A   1      54.010  27.442  32.884  1.00  0.00     0.029 A 
ATOM     70  N   UNL A   1      52.592  28.560  31.574  1.00  0.00    -0.354 N 
ATOM     71  N   UNL A   1      51.693  31.025  29.995  1.00  0.00    -0.248 NA
ATOM     72  C   UNL A   1      51.985  33.296  29.507  1.00  0.00     0.031 C 
ATOM     73  C   UNL A   1      54.433  28.769  32.779  1.00  0.00     0.029 A 
ATOM     74  C   UNL A   1      53.576  29.454  31.926  1.00  0.00     0.049 A 
ATOM     75  H   UNL A   1      51.824  28.764  30.993  1.00  0.00     0.167 HD
ATOM     76  C   UNL A   1      52.835  31.474  30.633  1.00  0.00     0.074 A 
ATOM     77  C   UNL A   1      52.997  32.865  30.242  1.00  0.00     0.031 C 
ATOM     78  C   UNL A   1      53.673  30.820  31.476  1.00  0.00     0.031 A 
BRANCH  65  79
ATOM     79  C   UNL A   1      52.378  24.855  32.586  1.00  0.00    -0.014 A 
ATOM     80  C   UNL A   1      51.553  24.262  33.562  1.00  0.00     0.010 A 
ATOM     81  C   UNL A   1      53.554  24.198  32.192  1.00  0.00     0.010 A 
ATOM     82  C   UNL A   1      51.908  23.046  34.145  1.00  0.00     0.020 A 
ATOM     83  C   UNL A   1      53.892  22.960  32.742  1.00  0.00     0.020 A 
ATOM     84  C   UNL A   1      53.065  22.393  33.715  1.00  0.00     0.054 A 
BRANCH  84  85
ATOM     85  S   UNL A   1      53.430  20.757  34.399  1.00  0.00     0.124 S 
ATOM     86  O   UNL A   1      52.202  20.450  35.127  1.00  0.00    -0.237 OA
ATOM     87  O   UNL A   1      53.663  19.962  33.196  1.00  0.00    -0.237 OA
ATOM     88  O   UNL A   1      54.608  20.985  35.232  1.00  0.00    -0.744 OA
ENDBRANCH  84  85
ENDBRANCH  65  79
BRANCH  66  89
ATOM     89  C   UNL A   1      49.573  33.398  27.800  1.00  0.00    -0.014 A 
ATOM     90  C   UNL A   1      50.053  33.744  26.527  1.00  0.00     0.010 A 
ATOM     91  C   UNL A   1      48.675  34.269  28.449  1.00  0.00     0.010 A 
ATOM     92  C   UNL A   1      49.709  34.968  25.950  1.00  0.00     0.020 A 
ATOM     93  C   UNL A   1      48.285  35.468  27.853  1.00  0.00     0.020 A 
ATOM     94  C   UNL A   1      48.834  35.825  26.622  1.00  0.00     0.054 A 
BRANCH  94  95
ATOM     95  S   UNL A   1      48.438  37.425  25.870  1.00  0.00     0.124 S 
ATOM     96  O   UNL A   1      46.979  37.396  25.854  1.00  0.00    -0.237 OA
ATOM     97  O   UNL A   1      49.045  38.368  26.806  1.00  0.00    -0.237 OA
ATOM     98  O   UNL A   1      49.080  37.357  24.560  1.00  0.00    -0.744 OA
ENDBRANCH  94  95
ENDBRANCH  66  89
BRANCH  78  99
ATOM     99  C   UNL A   1      54.859  31.600  31.946  1.00  0.00    -0.014 A 
ATOM    100  C   UNL A   1      54.731  32.598  32.925  1.00  0.00     0.010 A 
ATOM    101  C   UNL A   1      56.120  31.305  31.400  1.00  0.00     0.010 A 
ATOM    102  C   UNL A   1      55.844  33.341  33.302  1.00  0.00     0.020 A 
ATOM    103  C   UNL A   1      57.244  32.006  31.820  1.00  0.00     0.020 A 
ATOM    104  C   UNL A   1      57.093  33.037  32.748  1.00  0.00     0.054 A 
BRANCH 104 105
ATOM    105  S   UNL A   1      58.525  34.004  33.273  1.00  0.00     0.124 S 
ATOM    106  O   UNL A   1      58.574  35.048  32.253  1.00  0.00    -0.237 OA
ATOM    107  O   UNL A   1      58.133  34.445  34.609  1.00  0.00    -0.237 OA
ATOM    108  O   UNL A   1      59.624  33.044  33.236  1.00  0.00    -0.744 OA
ENDBRANCH 104 105
ENDBRANCH  78  99
ENDBRANCH  52  53
ENDBRANCH  45  47
ENDBRANCH  44  45
ENDBRANCH  43  44
ENDBRANCH  42  43
ENDBRANCH  41  42
ENDBRANCH  40  41
ENDBRANCH  39  40
ENDBRANCH   1  39
TORSDOF 29
ENDMDL
