MODEL 1
REMARK VINA RESULT:      -9.3      0.000      0.000
REMARK SMILES C[C@@H]1[C@@H](C(=O)OCCOCCOCCOCCOC(=O)c2ccc(-c3c4nc(c(-c5ccc(S(=O)(=O)[O-])cc5)c5ccc([nH]5)c(-c5ccc(S(=O)(=O)[O-])cc5)c5nc(c(-c6ccc(S(=O)(=O)[O-])cc6)c6ccc3[nH]6)C=C5)C=C4)cc2)CCN1C(=O)Nc1nccs1
REMARK SMILES IDX 13 1 12 2 11 3 10 4 9 5 8 6 7 7 6 8 4 9 5 10 3 11 1 12 2 13
REMARK SMILES IDX 83 14 81 15 82 16 84 17 85 18 86 19 87 21 88 22 91 23 89 24
REMARK SMILES IDX 90 25 14 26 15 27 16 28 17 29 18 30 19 31 20 32 21 33 22 34
REMARK SMILES IDX 80 35 23 36 79 37 24 38 25 39 26 40 73 41 27 42 78 43 72 44
REMARK SMILES IDX 74 45 28 46 77 47 71 48 70 49 29 51 59 52 40 53 58 54 41 55
REMARK SMILES IDX 44 56 57 57 75 58 42 59 43 60 56 62 76 63 45 64 30 65 31 66
REMARK SMILES IDX 39 67 32 68 38 69 33 70 34 71 35 72 36 73 37 74 60 75 61 76
REMARK SMILES IDX 69 77 62 78 68 79 63 80 64 81 65 82 66 83 67 84 46 85 47 86
REMARK SMILES IDX 55 87 48 88 54 89 49 90 50 91 51 92 52 93 53 94
REMARK H PARENT 86 20 74 50 44 61
REMARK Flexibility Score: inf
ROOT
ATOM      1  C   UNL A   1      31.528  28.277  24.597  1.00  0.00     0.188 C 
ENDROOT
BRANCH   1   2
ATOM      2  O   UNL A   1      30.212  27.759  24.444  1.00  0.00    -0.377 OA
BRANCH   2   3
ATOM      3  C   UNL A   1      29.991  26.878  23.366  1.00  0.00     0.188 C 
BRANCH   3   4
ATOM      4  C   UNL A   1      31.156  26.830  22.362  1.00  0.00     0.188 C 
BRANCH   4   5
ATOM      5  O   UNL A   1      31.764  25.606  21.986  1.00  0.00    -0.376 OA
BRANCH   5   6
ATOM      6  C   UNL A   1      33.070  25.205  22.377  1.00  0.00     0.202 C 
BRANCH   6   7
ATOM      7  C   UNL A   1      33.718  25.408  23.758  1.00  0.00     0.261 C 
BRANCH   7   8
ATOM      8  O   UNL A   1      34.360  24.285  24.346  1.00  0.00    -0.463 OA
BRANCH   8   9
ATOM      9  C   UNL A   1      34.161  24.161  25.678  1.00  0.00     0.311 C 
ATOM     10  O   UNL A   1      33.334  24.801  26.316  1.00  0.00    -0.252 OA
BRANCH   9  11
ATOM     11  C   UNL A   1      35.038  23.052  26.234  1.00  0.00     0.123 C 
ATOM     12  C   UNL A   1      36.282  20.995  25.411  1.00  0.00     0.032 C 
ATOM     13  C   UNL A   1      35.058  21.899  25.229  1.00  0.00     0.098 C 
ATOM     14  N   UNL A   1      33.816  21.183  25.530  1.00  0.00    -0.321 N 
ATOM     15  C   UNL A   1      34.433  22.431  27.477  1.00  0.00     0.039 C 
ATOM     16  C   UNL A   1      33.386  21.486  26.898  1.00  0.00     0.122 C 
BRANCH  14  17
ATOM     17  C   UNL A   1      32.858  20.725  24.664  1.00  0.00     0.323 C 
ATOM     18  O   UNL A   1      31.952  21.478  24.278  1.00  0.00    -0.248 OA
ATOM     19  N   UNL A   1      32.916  19.522  24.054  1.00  0.00    -0.283 N 
ATOM     20  H   UNL A   1      32.450  19.492  23.189  1.00  0.00     0.174 HD
BRANCH  19  21
ATOM     21  C   UNL A   1      33.495  18.344  24.407  1.00  0.00     0.190 A 
ATOM     22  N   UNL A   1      34.598  17.777  23.987  1.00  0.00    -0.228 NA
ATOM     23  S   UNL A   1      32.634  17.494  25.618  1.00  0.00    -0.105 S 
ATOM     24  C   UNL A   1      34.735  16.537  24.578  1.00  0.00     0.125 A 
ATOM     25  C   UNL A   1      33.741  16.191  25.468  1.00  0.00     0.088 A 
ENDBRANCH  19  21
ENDBRANCH  14  17
ENDBRANCH   9  11
ENDBRANCH   8   9
ENDBRANCH   7   8
ENDBRANCH   6   7
ENDBRANCH   5   6
ENDBRANCH   4   5
ENDBRANCH   3   4
ENDBRANCH   2   3
ENDBRANCH   1   2
BRANCH   1  26
ATOM     26  C   UNL A   1      31.724  29.754  25.017  1.00  0.00     0.188 C 
BRANCH  26  27
ATOM     27  O   UNL A   1      32.886  29.999  25.799  1.00  0.00    -0.376 OA
BRANCH  27  28
ATOM     28  C   UNL A   1      32.717  30.472  27.125  1.00  0.00     0.202 C 
BRANCH  28  29
ATOM     29  C   UNL A   1      33.827  31.375  27.686  1.00  0.00     0.261 C 
BRANCH  29  30
ATOM     30  O   UNL A   1      33.774  32.755  27.298  1.00  0.00    -0.460 OA
BRANCH  30  31
ATOM     31  C   UNL A   1      33.635  33.670  28.279  1.00  0.00     0.338 C 
ATOM     32  O   UNL A   1      32.684  34.415  28.455  1.00  0.00    -0.246 OA
BRANCH  31  33
ATOM     33  C   UNL A   1      34.743  33.479  29.240  1.00  0.00     0.060 A 
ATOM     34  C   UNL A   1      36.023  33.937  28.898  1.00  0.00     0.016 A 
ATOM     35  C   UNL A   1      34.519  32.860  30.471  1.00  0.00     0.016 A 
ATOM     36  C   UNL A   1      37.092  33.738  29.771  1.00  0.00     0.010 A 
ATOM     37  C   UNL A   1      35.595  32.641  31.335  1.00  0.00     0.010 A 
ATOM     38  C   UNL A   1      36.893  33.045  30.972  1.00  0.00    -0.014 A 
BRANCH  38  39
ATOM     39  C   UNL A   1      38.064  32.556  31.741  1.00  0.00     0.031 A 
ATOM     40  C   UNL A   1      38.916  31.477  31.127  1.00  0.00     0.074 A 
ATOM     41  C   UNL A   1      38.381  33.067  32.944  1.00  0.00     0.049 A 
ATOM     42  N   UNL A   1      39.957  30.860  31.620  1.00  0.00    -0.248 NA
ATOM     43  C   UNL A   1      38.539  31.035  29.773  1.00  0.00     0.031 C 
ATOM     44  C   UNL A   1      37.668  34.148  33.622  1.00  0.00     0.029 A 
ATOM     45  N   UNL A   1      39.390  32.733  33.813  1.00  0.00    -0.354 N 
ATOM     46  C   UNL A   1      40.353  29.951  30.646  1.00  0.00     0.074 A 
ATOM     47  C   UNL A   1      39.422  30.075  29.546  1.00  0.00     0.031 C 
ATOM     48  C   UNL A   1      38.258  34.384  34.807  1.00  0.00     0.029 A 
ATOM     49  C   UNL A   1      39.366  33.445  34.988  1.00  0.00     0.049 A 
ATOM     50  H   UNL A   1      40.069  32.048  33.612  1.00  0.00     0.167 HD
ATOM     51  C   UNL A   1      41.400  29.092  30.662  1.00  0.00     0.031 A 
ATOM     52  C   UNL A   1      40.133  33.335  36.091  1.00  0.00     0.031 A 
ATOM     53  C   UNL A   1      42.313  28.960  31.765  1.00  0.00     0.049 A 
ATOM     54  C   UNL A   1      41.240  32.311  36.122  1.00  0.00     0.074 A 
ATOM     55  C   UNL A   1      43.412  28.126  31.875  1.00  0.00     0.029 A 
ATOM     56  N   UNL A   1      42.229  29.670  32.953  1.00  0.00    -0.354 N 
ATOM     57  N   UNL A   1      41.617  31.474  35.184  1.00  0.00    -0.248 NA
ATOM     58  C   UNL A   1      42.031  32.224  37.358  1.00  0.00     0.031 C 
ATOM     59  C   UNL A   1      43.952  28.284  33.154  1.00  0.00     0.029 A 
ATOM     60  C   UNL A   1      43.237  29.272  33.813  1.00  0.00     0.049 A 
ATOM     61  H   UNL A   1      41.552  30.356  33.154  1.00  0.00     0.167 HD
ATOM     62  C   UNL A   1      42.710  30.785  35.705  1.00  0.00     0.074 A 
ATOM     63  C   UNL A   1      42.940  31.314  37.034  1.00  0.00     0.031 C 
ATOM     64  C   UNL A   1      43.457  29.808  35.134  1.00  0.00     0.031 A 
BRANCH  51  65
ATOM     65  C   UNL A   1      41.586  28.199  29.464  1.00  0.00    -0.014 A 
ATOM     66  C   UNL A   1      42.651  28.391  28.564  1.00  0.00     0.010 A 
ATOM     67  C   UNL A   1      40.702  27.124  29.255  1.00  0.00     0.010 A 
ATOM     68  C   UNL A   1      42.805  27.549  27.459  1.00  0.00     0.020 A 
ATOM     69  C   UNL A   1      40.870  26.261  28.170  1.00  0.00     0.020 A 
ATOM     70  C   UNL A   1      41.913  26.490  27.269  1.00  0.00     0.054 A 
BRANCH  70  71
ATOM     71  S   UNL A   1      42.154  25.397  25.842  1.00  0.00     0.124 S 
ATOM     72  O   UNL A   1      41.015  25.751  24.996  1.00  0.00    -0.237 OA
ATOM     73  O   UNL A   1      43.461  25.811  25.340  1.00  0.00    -0.237 OA
ATOM     74  O   UNL A   1      42.105  24.056  26.418  1.00  0.00    -0.744 OA
ENDBRANCH  70  71
ENDBRANCH  51  65
BRANCH  52  75
ATOM     75  C   UNL A   1      39.870  34.203  37.275  1.00  0.00    -0.014 A 
ATOM     76  C   UNL A   1      39.105  33.735  38.357  1.00  0.00     0.010 A 
ATOM     77  C   UNL A   1      40.379  35.515  37.318  1.00  0.00     0.010 A 
ATOM     78  C   UNL A   1      38.838  34.566  39.450  1.00  0.00     0.020 A 
ATOM     79  C   UNL A   1      40.142  36.338  38.423  1.00  0.00     0.020 A 
ATOM     80  C   UNL A   1      39.362  35.861  39.478  1.00  0.00     0.054 A 
BRANCH  80  81
ATOM     81  S   UNL A   1      39.044  36.903  40.930  1.00  0.00     0.124 S 
ATOM     82  O   UNL A   1      38.149  36.062  41.717  1.00  0.00    -0.237 OA
ATOM     83  O   UNL A   1      40.385  37.090  41.478  1.00  0.00    -0.237 OA
ATOM     84  O   UNL A   1      38.438  38.104  40.361  1.00  0.00    -0.744 OA
ENDBRANCH  80  81
ENDBRANCH  52  75
BRANCH  64  85
ATOM     85  C   UNL A   1      44.628  29.271  35.919  1.00  0.00    -0.014 A 
ATOM     86  C   UNL A   1      45.843  29.975  36.004  1.00  0.00     0.010 A 
ATOM     87  C   UNL A   1      44.485  28.067  36.635  1.00  0.00     0.010 A 
ATOM     88  C   UNL A   1      46.903  29.466  36.761  1.00  0.00     0.020 A 
ATOM     89  C   UNL A   1      45.529  27.574  37.419  1.00  0.00     0.020 A 
ATOM     90  C   UNL A   1      46.739  28.269  37.466  1.00  0.00     0.054 A 
BRANCH  90  91
ATOM     91  S   UNL A   1      48.115  27.654  38.475  1.00  0.00     0.124 S 
ATOM     92  O   UNL A   1      49.276  28.153  37.742  1.00  0.00    -0.237 OA
ATOM     93  O   UNL A   1      47.869  28.286  39.768  1.00  0.00    -0.237 OA
ATOM     94  O   UNL A   1      47.942  26.204  38.452  1.00  0.00    -0.744 OA
ENDBRANCH  90  91
ENDBRANCH  64  85
ENDBRANCH  38  39
ENDBRANCH  31  33
ENDBRANCH  30  31
ENDBRANCH  29  30
ENDBRANCH  28  29
ENDBRANCH  27  28
ENDBRANCH  26  27
ENDBRANCH   1  26
TORSDOF 25
ENDMDL
MODEL 2
REMARK VINA RESULT:      -8.6      1.721      2.629
REMARK SMILES C[C@@H]1[C@@H](C(=O)OCCOCCOCCOCCOC(=O)c2ccc(-c3c4nc(c(-c5ccc(S(=O)(=O)[O-])cc5)c5ccc([nH]5)c(-c5ccc(S(=O)(=O)[O-])cc5)c5nc(c(-c6ccc(S(=O)(=O)[O-])cc6)c6ccc3[nH]6)C=C5)C=C4)cc2)CCN1C(=O)Nc1nccs1
REMARK SMILES IDX 13 1 12 2 11 3 10 4 9 5 8 6 7 7 6 8 4 9 5 10 3 11 1 12 2 13
REMARK SMILES IDX 83 14 81 15 82 16 84 17 85 18 86 19 87 21 88 22 91 23 89 24
REMARK SMILES IDX 90 25 14 26 15 27 16 28 17 29 18 30 19 31 20 32 21 33 22 34
REMARK SMILES IDX 80 35 23 36 79 37 24 38 25 39 26 40 73 41 27 42 78 43 72 44
REMARK SMILES IDX 74 45 28 46 77 47 71 48 70 49 29 51 59 52 40 53 58 54 41 55
REMARK SMILES IDX 44 56 57 57 75 58 42 59 43 60 56 62 76 63 45 64 30 65 31 66
REMARK SMILES IDX 39 67 32 68 38 69 33 70 34 71 35 72 36 73 37 74 60 75 61 76
REMARK SMILES IDX 69 77 62 78 68 79 63 80 64 81 65 82 66 83 67 84 46 85 47 86
REMARK SMILES IDX 55 87 48 88 54 89 49 90 50 91 51 92 52 93 53 94
REMARK H PARENT 86 20 74 50 44 61
REMARK Flexibility Score: inf
ROOT
ATOM      1  C   UNL A   1      31.278  29.268  24.992  1.00  0.00     0.188 C 
ENDROOT
BRANCH   1   2
ATOM      2  O   UNL A   1      30.335  30.062  24.281  1.00  0.00    -0.377 OA
BRANCH   2   3
ATOM      3  C   UNL A   1      29.997  29.643  22.978  1.00  0.00     0.188 C 
BRANCH   3   4
ATOM      4  C   UNL A   1      31.006  28.656  22.368  1.00  0.00     0.188 C 
BRANCH   4   5
ATOM      5  O   UNL A   1      30.760  27.260  22.342  1.00  0.00    -0.376 OA
BRANCH   5   6
ATOM      6  C   UNL A   1      31.716  26.282  21.957  1.00  0.00     0.202 C 
BRANCH   6   7
ATOM      7  C   UNL A   1      33.242  26.371  22.135  1.00  0.00     0.261 C 
BRANCH   7   8
ATOM      8  O   UNL A   1      33.969  25.149  22.119  1.00  0.00    -0.463 OA
BRANCH   8   9
ATOM      9  C   UNL A   1      34.145  24.588  23.337  1.00  0.00     0.311 C 
ATOM     10  O   UNL A   1      34.402  25.214  24.357  1.00  0.00    -0.252 OA
BRANCH   9  11
ATOM     11  C   UNL A   1      33.882  23.093  23.262  1.00  0.00     0.123 C 
ATOM     12  C   UNL A   1      32.278  21.377  24.231  1.00  0.00     0.032 C 
ATOM     13  C   UNL A   1      33.033  22.689  24.469  1.00  0.00     0.098 C 
ATOM     14  N   UNL A   1      34.028  22.548  25.535  1.00  0.00    -0.321 N 
ATOM     15  C   UNL A   1      35.157  22.293  23.440  1.00  0.00     0.039 C 
ATOM     16  C   UNL A   1      35.352  22.312  24.951  1.00  0.00     0.122 C 
BRANCH  14  17
ATOM     17  C   UNL A   1      33.990  23.035  26.815  1.00  0.00     0.323 C 
ATOM     18  O   UNL A   1      34.873  22.725  27.627  1.00  0.00    -0.248 OA
ATOM     19  N   UNL A   1      33.123  23.984  27.228  1.00  0.00    -0.283 N 
ATOM     20  H   UNL A   1      33.457  24.529  27.975  1.00  0.00     0.174 HD
BRANCH  19  21
ATOM     21  C   UNL A   1      31.877  24.330  26.809  1.00  0.00     0.190 A 
ATOM     22  N   UNL A   1      30.743  23.680  26.878  1.00  0.00    -0.228 NA
ATOM     23  S   UNL A   1      31.802  25.886  26.098  1.00  0.00    -0.105 S 
ATOM     24  C   UNL A   1      29.755  24.402  26.241  1.00  0.00     0.125 A 
ATOM     25  C   UNL A   1      30.151  25.615  25.718  1.00  0.00     0.088 A 
ENDBRANCH  19  21
ENDBRANCH  14  17
ENDBRANCH   9  11
ENDBRANCH   8   9
ENDBRANCH   7   8
ENDBRANCH   6   7
ENDBRANCH   5   6
ENDBRANCH   4   5
ENDBRANCH   3   4
ENDBRANCH   2   3
ENDBRANCH   1   2
BRANCH   1  26
ATOM     26  C   UNL A   1      32.615  29.897  25.452  1.00  0.00     0.188 C 
BRANCH  26  27
ATOM     27  O   UNL A   1      32.502  30.789  26.554  1.00  0.00    -0.376 OA
BRANCH  27  28
ATOM     28  C   UNL A   1      33.479  30.715  27.580  1.00  0.00     0.202 C 
BRANCH  28  29
ATOM     29  C   UNL A   1      34.323  31.977  27.826  1.00  0.00     0.261 C 
BRANCH  29  30
ATOM     30  O   UNL A   1      33.679  33.229  27.549  1.00  0.00    -0.460 OA
BRANCH  30  31
ATOM     31  C   UNL A   1      33.571  34.109  28.566  1.00  0.00     0.338 C 
ATOM     32  O   UNL A   1      32.647  34.881  28.770  1.00  0.00    -0.246 OA
BRANCH  31  33
ATOM     33  C   UNL A   1      34.668  33.839  29.520  1.00  0.00     0.060 A 
ATOM     34  C   UNL A   1      35.976  34.198  29.167  1.00  0.00     0.016 A 
ATOM     35  C   UNL A   1      34.407  33.245  30.756  1.00  0.00     0.016 A 
ATOM     36  C   UNL A   1      37.034  33.923  30.034  1.00  0.00     0.010 A 
ATOM     37  C   UNL A   1      35.470  32.949  31.613  1.00  0.00     0.010 A 
ATOM     38  C   UNL A   1      36.791  33.252  31.240  1.00  0.00    -0.014 A 
BRANCH  38  39
ATOM     39  C   UNL A   1      37.928  32.680  32.004  1.00  0.00     0.031 A 
ATOM     40  C   UNL A   1      38.659  31.504  31.413  1.00  0.00     0.074 A 
ATOM     41  C   UNL A   1      38.319  33.199  33.181  1.00  0.00     0.049 A 
ATOM     42  N   UNL A   1      39.647  30.807  31.909  1.00  0.00    -0.248 NA
ATOM     43  C   UNL A   1      38.212  31.054  30.084  1.00  0.00     0.031 C 
ATOM     44  C   UNL A   1      37.727  34.367  33.832  1.00  0.00     0.029 A 
ATOM     45  N   UNL A   1      39.311  32.801  34.042  1.00  0.00    -0.354 N 
ATOM     46  C   UNL A   1      39.933  29.831  30.961  1.00  0.00     0.074 A 
ATOM     47  C   UNL A   1      38.993  30.006  29.875  1.00  0.00     0.031 C 
ATOM     48  C   UNL A   1      38.364  34.585  34.996  1.00  0.00     0.029 A 
ATOM     49  C   UNL A   1      39.382  33.552  35.191  1.00  0.00     0.049 A 
ATOM     50  H   UNL A   1      39.917  32.047  33.853  1.00  0.00     0.167 HD
ATOM     51  C   UNL A   1      40.893  28.877  30.987  1.00  0.00     0.031 A 
ATOM     52  C   UNL A   1      40.159  33.407  36.282  1.00  0.00     0.031 A 
ATOM     53  C   UNL A   1      41.815  28.696  32.077  1.00  0.00     0.049 A 
ATOM     54  C   UNL A   1      41.164  32.283  36.329  1.00  0.00     0.074 A 
ATOM     55  C   UNL A   1      42.831  27.765  32.196  1.00  0.00     0.029 A 
ATOM     56  N   UNL A   1      41.825  29.451  33.240  1.00  0.00    -0.354 N 
ATOM     57  N   UNL A   1      41.439  31.382  35.415  1.00  0.00    -0.248 NA
ATOM     58  C   UNL A   1      41.971  32.162  37.552  1.00  0.00     0.031 C 
ATOM     59  C   UNL A   1      43.413  27.914  33.458  1.00  0.00     0.029 A 
ATOM     60  C   UNL A   1      42.810  28.988  34.095  1.00  0.00     0.049 A 
ATOM     61  H   UNL A   1      41.221  30.206  33.429  1.00  0.00     0.167 HD
ATOM     62  C   UNL A   1      42.473  30.609  35.940  1.00  0.00     0.074 A 
ATOM     63  C   UNL A   1      42.782  31.159  37.243  1.00  0.00     0.031 C 
ATOM     64  C   UNL A   1      43.110  29.546  35.390  1.00  0.00     0.031 A 
BRANCH  51  65
ATOM     65  C   UNL A   1      40.967  27.929  29.820  1.00  0.00    -0.014 A 
ATOM     66  C   UNL A   1      42.053  27.949  28.925  1.00  0.00     0.010 A 
ATOM     67  C   UNL A   1      39.948  26.975  29.635  1.00  0.00     0.010 A 
ATOM     68  C   UNL A   1      42.100  27.059  27.848  1.00  0.00     0.020 A 
ATOM     69  C   UNL A   1      40.007  26.064  28.578  1.00  0.00     0.020 A 
ATOM     70  C   UNL A   1      41.076  26.122  27.682  1.00  0.00     0.054 A 
BRANCH  70  71
ATOM     71  S   UNL A   1      41.179  24.963  26.292  1.00  0.00     0.124 S 
ATOM     72  O   UNL A   1      39.895  24.269  26.383  1.00  0.00    -0.237 OA
ATOM     73  O   UNL A   1      41.330  25.853  25.144  1.00  0.00    -0.237 OA
ATOM     74  O   UNL A   1      42.349  24.146  26.604  1.00  0.00    -0.744 OA
ENDBRANCH  70  71
ENDBRANCH  51  65
BRANCH  52  75
ATOM     75  C   UNL A   1      40.007  34.336  37.438  1.00  0.00    -0.014 A 
ATOM     76  C   UNL A   1      40.794  35.496  37.539  1.00  0.00     0.010 A 
ATOM     77  C   UNL A   1      39.075  34.054  38.455  1.00  0.00     0.010 A 
ATOM     78  C   UNL A   1      40.667  36.347  38.642  1.00  0.00     0.020 A 
ATOM     79  C   UNL A   1      38.922  34.919  39.543  1.00  0.00     0.020 A 
ATOM     80  C   UNL A   1      39.728  36.055  39.635  1.00  0.00     0.054 A 
BRANCH  80  81
ATOM     81  S   UNL A   1      39.546  37.201  41.031  1.00  0.00     0.124 S 
ATOM     82  O   UNL A   1      38.569  38.155  40.515  1.00  0.00    -0.237 OA
ATOM     83  O   UNL A   1      39.071  36.321  42.096  1.00  0.00    -0.237 OA
ATOM     84  O   UNL A   1      40.896  37.725  41.220  1.00  0.00    -0.744 OA
ENDBRANCH  80  81
ENDBRANCH  52  75
BRANCH  64  85
ATOM     85  C   UNL A   1      44.242  28.926  36.172  1.00  0.00    -0.014 A 
ATOM     86  C   UNL A   1      45.544  29.457  36.129  1.00  0.00     0.010 A 
ATOM     87  C   UNL A   1      43.980  27.828  37.013  1.00  0.00     0.010 A 
ATOM     88  C   UNL A   1      46.568  28.878  36.885  1.00  0.00     0.020 A 
ATOM     89  C   UNL A   1      44.993  27.269  37.795  1.00  0.00     0.020 A 
ATOM     90  C   UNL A   1      46.285  27.789  37.715  1.00  0.00     0.054 A 
BRANCH  90  91
ATOM     91  S   UNL A   1      47.623  27.085  38.717  1.00  0.00     0.124 S 
ATOM     92  O   UNL A   1      46.901  26.145  39.571  1.00  0.00    -0.237 OA
ATOM     93  O   UNL A   1      48.491  26.479  37.711  1.00  0.00    -0.237 OA
ATOM     94  O   UNL A   1      48.188  28.242  39.406  1.00  0.00    -0.744 OA
ENDBRANCH  90  91
ENDBRANCH  64  85
ENDBRANCH  38  39
ENDBRANCH  31  33
ENDBRANCH  30  31
ENDBRANCH  29  30
ENDBRANCH  28  29
ENDBRANCH  27  28
ENDBRANCH  26  27
ENDBRANCH   1  26
TORSDOF 25
ENDMDL
MODEL 3
REMARK VINA RESULT:      -8.3      6.792     10.901
REMARK SMILES C[C@@H]1[C@@H](C(=O)OCCOCCOCCOCCOC(=O)c2ccc(-c3c4nc(c(-c5ccc(S(=O)(=O)[O-])cc5)c5ccc([nH]5)c(-c5ccc(S(=O)(=O)[O-])cc5)c5nc(c(-c6ccc(S(=O)(=O)[O-])cc6)c6ccc3[nH]6)C=C5)C=C4)cc2)CCN1C(=O)Nc1nccs1
REMARK SMILES IDX 13 1 12 2 11 3 10 4 9 5 8 6 7 7 6 8 4 9 5 10 3 11 1 12 2 13
REMARK SMILES IDX 83 14 81 15 82 16 84 17 85 18 86 19 87 21 88 22 91 23 89 24
REMARK SMILES IDX 90 25 14 26 15 27 16 28 17 29 18 30 19 31 20 32 21 33 22 34
REMARK SMILES IDX 80 35 23 36 79 37 24 38 25 39 26 40 73 41 27 42 78 43 72 44
REMARK SMILES IDX 74 45 28 46 77 47 71 48 70 49 29 51 59 52 40 53 58 54 41 55
REMARK SMILES IDX 44 56 57 57 75 58 42 59 43 60 56 62 76 63 45 64 30 65 31 66
REMARK SMILES IDX 39 67 32 68 38 69 33 70 34 71 35 72 36 73 37 74 60 75 61 76
REMARK SMILES IDX 69 77 62 78 68 79 63 80 64 81 65 82 66 83 67 84 46 85 47 86
REMARK SMILES IDX 55 87 48 88 54 89 49 90 50 91 51 92 52 93 53 94
REMARK H PARENT 86 20 74 50 44 61
REMARK Flexibility Score: inf
ROOT
ATOM      1  C   UNL A   1      40.878  24.176  26.933  1.00  0.00     0.188 C 
ENDROOT
BRANCH   1   2
ATOM      2  O   UNL A   1      40.554  23.068  27.764  1.00  0.00    -0.377 OA
BRANCH   2   3
ATOM      3  C   UNL A   1      40.609  21.787  27.177  1.00  0.00     0.188 C 
BRANCH   3   4
ATOM      4  C   UNL A   1      39.731  21.648  25.922  1.00  0.00     0.188 C 
BRANCH   4   5
ATOM      5  O   UNL A   1      38.321  21.534  26.009  1.00  0.00    -0.376 OA
BRANCH   5   6
ATOM      6  C   UNL A   1      37.412  22.599  25.765  1.00  0.00     0.202 C 
BRANCH   6   7
ATOM      7  C   UNL A   1      36.470  22.744  24.557  1.00  0.00     0.261 C 
BRANCH   7   8
ATOM      8  O   UNL A   1      35.080  22.862  24.828  1.00  0.00    -0.463 OA
BRANCH   8   9
ATOM      9  C   UNL A   1      34.320  23.132  23.742  1.00  0.00     0.311 C 
ATOM     10  O   UNL A   1      34.732  23.121  22.589  1.00  0.00    -0.252 OA
BRANCH   9  11
ATOM     11  C   UNL A   1      32.875  23.350  24.160  1.00  0.00     0.123 C 
ATOM     12  C   UNL A   1      30.619  23.820  23.090  1.00  0.00     0.032 C 
ATOM     13  C   UNL A   1      32.135  24.032  23.008  1.00  0.00     0.098 C 
ATOM     14  N   UNL A   1      32.488  25.442  23.184  1.00  0.00    -0.321 N 
ATOM     15  C   UNL A   1      32.767  24.348  25.294  1.00  0.00     0.039 C 
ATOM     16  C   UNL A   1      32.892  25.684  24.572  1.00  0.00     0.122 C 
BRANCH  14  17
ATOM     17  C   UNL A   1      32.915  26.344  22.244  1.00  0.00     0.323 C 
ATOM     18  O   UNL A   1      33.973  26.150  21.628  1.00  0.00    -0.248 OA
ATOM     19  N   UNL A   1      32.168  27.381  21.810  1.00  0.00    -0.283 N 
ATOM     20  H   UNL A   1      32.380  27.667  20.894  1.00  0.00     0.174 HD
BRANCH  19  21
ATOM     21  C   UNL A   1      31.180  28.106  22.397  1.00  0.00     0.190 A 
ATOM     22  N   UNL A   1      29.906  28.200  22.110  1.00  0.00    -0.228 NA
ATOM     23  S   UNL A   1      31.709  29.019  23.746  1.00  0.00    -0.105 S 
ATOM     24  C   UNL A   1      29.312  29.131  22.938  1.00  0.00     0.125 A 
ATOM     25  C   UNL A   1      30.144  29.712  23.870  1.00  0.00     0.088 A 
ENDBRANCH  19  21
ENDBRANCH  14  17
ENDBRANCH   9  11
ENDBRANCH   8   9
ENDBRANCH   7   8
ENDBRANCH   6   7
ENDBRANCH   5   6
ENDBRANCH   4   5
ENDBRANCH   3   4
ENDBRANCH   2   3
ENDBRANCH   1   2
BRANCH   1  26
ATOM     26  C   UNL A   1      42.060  25.099  27.315  1.00  0.00     0.188 C 
BRANCH  26  27
ATOM     27  O   UNL A   1      43.281  24.419  27.581  1.00  0.00    -0.376 OA
BRANCH  27  28
ATOM     28  C   UNL A   1      43.836  23.609  26.558  1.00  0.00     0.202 C 
BRANCH  28  29
ATOM     29  C   UNL A   1      45.122  22.841  26.902  1.00  0.00     0.261 C 
BRANCH  29  30
ATOM     30  O   UNL A   1      46.306  23.635  27.067  1.00  0.00    -0.460 OA
BRANCH  30  31
ATOM     31  C   UNL A   1      46.730  24.342  25.999  1.00  0.00     0.338 C 
ATOM     32  O   UNL A   1      46.984  23.906  24.887  1.00  0.00    -0.246 OA
BRANCH  31  33
ATOM     33  C   UNL A   1      46.640  25.778  26.338  1.00  0.00     0.060 A 
ATOM     34  C   UNL A   1      47.004  26.194  27.626  1.00  0.00     0.016 A 
ATOM     35  C   UNL A   1      46.206  26.708  25.390  1.00  0.00     0.016 A 
ATOM     36  C   UNL A   1      46.895  27.539  27.982  1.00  0.00     0.010 A 
ATOM     37  C   UNL A   1      46.075  28.050  25.756  1.00  0.00     0.010 A 
ATOM     38  C   UNL A   1      46.382  28.465  27.065  1.00  0.00    -0.014 A 
BRANCH  38  39
ATOM     39  C   UNL A   1      45.968  29.811  27.532  1.00  0.00     0.031 A 
ATOM     40  C   UNL A   1      46.896  30.968  27.274  1.00  0.00     0.074 A 
ATOM     41  C   UNL A   1      44.791  30.011  28.151  1.00  0.00     0.049 A 
ATOM     42  N   UNL A   1      46.778  32.221  27.625  1.00  0.00    -0.248 NA
ATOM     43  C   UNL A   1      48.125  30.667  26.520  1.00  0.00     0.031 C 
ATOM     44  C   UNL A   1      43.784  28.985  28.413  1.00  0.00     0.029 A 
ATOM     45  N   UNL A   1      44.249  31.158  28.678  1.00  0.00    -0.354 N 
ATOM     46  C   UNL A   1      47.918  32.856  27.146  1.00  0.00     0.074 A 
ATOM     47  C   UNL A   1      48.731  31.844  26.507  1.00  0.00     0.031 C 
ATOM     48  C   UNL A   1      42.747  29.547  29.060  1.00  0.00     0.029 A 
ATOM     49  C   UNL A   1      43.034  30.963  29.291  1.00  0.00     0.049 A 
ATOM     50  H   UNL A   1      44.689  32.037  28.621  1.00  0.00     0.167 HD
ATOM     51  C   UNL A   1      48.258  34.164  27.225  1.00  0.00     0.031 A 
ATOM     52  C   UNL A   1      42.257  31.822  29.980  1.00  0.00     0.031 A 
ATOM     53  C   UNL A   1      47.454  35.164  27.876  1.00  0.00     0.049 A 
ATOM     54  C   UNL A   1      42.697  33.257  30.132  1.00  0.00     0.074 A 
ATOM     55  C   UNL A   1      47.706  36.519  28.002  1.00  0.00     0.029 A 
ATOM     56  N   UNL A   1      46.252  34.918  28.521  1.00  0.00    -0.354 N 
ATOM     57  N   UNL A   1      43.766  33.848  29.653  1.00  0.00    -0.248 NA
ATOM     58  C   UNL A   1      41.818  34.143  30.909  1.00  0.00     0.031 C 
ATOM     59  C   UNL A   1      46.689  37.080  28.779  1.00  0.00     0.029 A 
ATOM     60  C   UNL A   1      45.764  36.090  29.072  1.00  0.00     0.049 A 
ATOM     61  H   UNL A   1      45.810  34.040  28.576  1.00  0.00     0.167 HD
ATOM     62  C   UNL A   1      43.671  35.182  30.044  1.00  0.00     0.074 A 
ATOM     63  C   UNL A   1      42.433  35.311  30.785  1.00  0.00     0.031 C 
ATOM     64  C   UNL A   1      44.528  36.206  29.806  1.00  0.00     0.031 A 
BRANCH  51  65
ATOM     65  C   UNL A   1      49.576  34.580  26.627  1.00  0.00    -0.014 A 
ATOM     66  C   UNL A   1      50.767  34.540  27.377  1.00  0.00     0.010 A 
ATOM     67  C   UNL A   1      49.631  34.982  25.279  1.00  0.00     0.010 A 
ATOM     68  C   UNL A   1      51.979  34.930  26.800  1.00  0.00     0.020 A 
ATOM     69  C   UNL A   1      50.845  35.342  24.691  1.00  0.00     0.020 A 
ATOM     70  C   UNL A   1      52.010  35.329  25.461  1.00  0.00     0.054 A 
BRANCH  70  71
ATOM     71  S   UNL A   1      53.602  35.803  24.733  1.00  0.00     0.124 S 
ATOM     72  O   UNL A   1      53.903  34.648  23.890  1.00  0.00    -0.237 OA
ATOM     73  O   UNL A   1      53.273  37.033  24.019  1.00  0.00    -0.237 OA
ATOM     74  O   UNL A   1      54.478  35.971  25.890  1.00  0.00    -0.744 OA
ENDBRANCH  70  71
ENDBRANCH  51  65
BRANCH  52  75
ATOM     75  C   UNL A   1      40.988  31.348  30.604  1.00  0.00    -0.014 A 
ATOM     76  C   UNL A   1      39.775  31.395  29.896  1.00  0.00     0.010 A 
ATOM     77  C   UNL A   1      40.989  30.855  31.923  1.00  0.00     0.010 A 
ATOM     78  C   UNL A   1      38.584  30.977  30.499  1.00  0.00     0.020 A 
ATOM     79  C   UNL A   1      39.807  30.405  32.518  1.00  0.00     0.020 A 
ATOM     80  C   UNL A   1      38.608  30.480  31.805  1.00  0.00     0.054 A 
BRANCH  80  81
ATOM     81  S   UNL A   1      37.059  29.896  32.548  1.00  0.00     0.124 S 
ATOM     82  O   UNL A   1      36.821  30.899  33.582  1.00  0.00    -0.237 OA
ATOM     83  O   UNL A   1      36.140  29.924  31.414  1.00  0.00    -0.237 OA
ATOM     84  O   UNL A   1      37.397  28.561  33.036  1.00  0.00    -0.744 OA
ENDBRANCH  80  81
ENDBRANCH  52  75
BRANCH  64  85
ATOM     85  C   UNL A   1      44.142  37.575  30.310  1.00  0.00    -0.014 A 
ATOM     86  C   UNL A   1      44.511  38.019  31.592  1.00  0.00     0.010 A 
ATOM     87  C   UNL A   1      43.447  38.453  29.457  1.00  0.00     0.010 A 
ATOM     88  C   UNL A   1      44.163  39.303  32.023  1.00  0.00     0.020 A 
ATOM     89  C   UNL A   1      43.127  39.748  29.872  1.00  0.00     0.020 A 
ATOM     90  C   UNL A   1      43.474  40.160  31.159  1.00  0.00     0.054 A 
BRANCH  90  91
ATOM     91  S   UNL A   1      43.072  41.835  31.728  1.00  0.00     0.124 S 
ATOM     92  O   UNL A   1      42.157  41.569  32.834  1.00  0.00    -0.237 OA
ATOM     93  O   UNL A   1      44.379  42.365  32.107  1.00  0.00    -0.237 OA
ATOM     94  O   UNL A   1      42.466  42.464  30.557  1.00  0.00    -0.744 OA
ENDBRANCH  90  91
ENDBRANCH  64  85
ENDBRANCH  38  39
ENDBRANCH  31  33
ENDBRANCH  30  31
ENDBRANCH  29  30
ENDBRANCH  28  29
ENDBRANCH  27  28
ENDBRANCH  26  27
ENDBRANCH   1  26
TORSDOF 25
ENDMDL
