MODEL 1
REMARK VINA RESULT:      -7.7      0.000      0.000
REMARK SMILES O=C(OCCOCCOCCOCCOC(=O)[C@H]1c2[nH]cnc2CC[N@@H+]1Cc1ccoc1)c1ccc(-c2c3nc(c(-c4ccc(S(=O)(=O)[O-])cc4)c4ccc([nH]4)c(-c4ccc(S(=O)(=O)[O-])cc4)c4nc(c(-c5ccc(S(=O)(=O)[O-])cc5)c5ccc2[nH]5)C=C4)C=C3)cc1
REMARK SMILES IDX 8 1 7 2 6 3 5 4 4 5 3 6 2 7 1 8 33 9 34 10 92 11 35 12 91 13
REMARK SMILES IDX 36 14 37 15 38 16 85 17 39 18 90 19 84 20 86 21 40 22 89 23
REMARK SMILES IDX 83 24 82 25 41 27 71 28 52 29 70 30 53 31 56 32 69 33 87 34
REMARK SMILES IDX 54 35 55 36 68 38 88 39 57 40 42 41 43 42 51 43 44 44 50 45
REMARK SMILES IDX 45 46 46 47 47 48 48 49 49 50 72 51 73 52 81 53 74 54 80 55
REMARK SMILES IDX 75 56 76 57 77 58 78 59 79 60 58 61 59 62 67 63 60 64 66 65
REMARK SMILES IDX 61 66 62 67 63 68 64 69 65 70 9 71 10 72 11 73 12 74 13 75
REMARK SMILES IDX 14 76 15 77 16 78 17 79 18 80 19 81 26 82 20 83 23 84 25 85
REMARK SMILES IDX 21 87 22 89 24 90 27 91 28 92 29 93 32 94 30 95 31 96
REMARK H PARENT 86 26 56 37 26 86 20 88
REMARK Flexibility Score: inf
ROOT
ATOM      1  C   UNL A   1      35.053  32.570  31.681  1.00  0.00     0.188 C 
ENDROOT
BRANCH   1   2
ATOM      2  C   UNL A   1      35.924  33.211  30.608  1.00  0.00     0.188 C 
BRANCH   2   3
ATOM      3  O   UNL A   1      35.268  33.597  29.386  1.00  0.00    -0.376 OA
BRANCH   3   4
ATOM      4  C   UNL A   1      35.569  32.804  28.225  1.00  0.00     0.202 C 
BRANCH   4   5
ATOM      5  C   UNL A   1      35.062  31.361  28.159  1.00  0.00     0.261 C 
BRANCH   5   6
ATOM      6  O   UNL A   1      35.761  30.448  29.004  1.00  0.00    -0.460 OA
BRANCH   6   7
ATOM      7  C   UNL A   1      37.042  30.076  28.854  1.00  0.00     0.338 C 
ATOM      8  O   UNL A   1      37.511  30.014  27.708  1.00  0.00    -0.246 OA
BRANCH   7   9
ATOM      9  C   UNL A   1      37.942  29.780  30.001  1.00  0.00     0.060 A 
ATOM     10  C   UNL A   1      38.811  30.684  30.619  1.00  0.00     0.016 A 
ATOM     11  C   UNL A   1      37.931  28.436  30.426  1.00  0.00     0.016 A 
ATOM     12  C   UNL A   1      39.880  30.209  31.330  1.00  0.00     0.010 A 
ATOM     13  C   UNL A   1      38.954  27.957  31.197  1.00  0.00     0.010 A 
ATOM     14  C   UNL A   1      39.996  28.836  31.444  1.00  0.00    -0.014 A 
BRANCH  14  15
ATOM     15  C   UNL A   1      41.333  28.321  31.588  1.00  0.00     0.031 A 
ATOM     16  C   UNL A   1      41.796  28.303  32.988  1.00  0.00     0.074 A 
ATOM     17  C   UNL A   1      41.940  27.900  30.457  1.00  0.00     0.049 A 
ATOM     18  N   UNL A   1      42.819  28.896  33.505  1.00  0.00    -0.248 NA
ATOM     19  C   UNL A   1      40.877  27.714  33.982  1.00  0.00     0.031 C 
ATOM     20  C   UNL A   1      41.355  27.758  29.110  1.00  0.00     0.029 A 
ATOM     21  N   UNL A   1      43.160  27.348  30.287  1.00  0.00    -0.354 N 
ATOM     22  C   UNL A   1      42.806  28.534  34.848  1.00  0.00     0.074 A 
ATOM     23  C   UNL A   1      41.491  28.017  35.123  1.00  0.00     0.031 C 
ATOM     24  C   UNL A   1      42.083  26.869  28.400  1.00  0.00     0.029 A 
ATOM     25  C   UNL A   1      43.245  26.504  29.186  1.00  0.00     0.049 A 
ATOM     26  H   UNL A   1      43.919  27.528  30.887  1.00  0.00     0.167 HD
ATOM     27  C   UNL A   1      43.964  28.365  35.542  1.00  0.00     0.031 A 
ATOM     28  C   UNL A   1      44.127  25.483  29.031  1.00  0.00     0.031 A 
ATOM     29  C   UNL A   1      45.059  29.064  34.924  1.00  0.00     0.049 A 
ATOM     30  C   UNL A   1      45.211  25.712  30.030  1.00  0.00     0.074 A 
ATOM     31  C   UNL A   1      45.308  30.392  34.644  1.00  0.00     0.029 A 
ATOM     32  N   UNL A   1      45.897  28.335  34.110  1.00  0.00    -0.354 N 
ATOM     33  N   UNL A   1      45.998  26.756  30.001  1.00  0.00    -0.248 NA
ATOM     34  C   UNL A   1      45.067  25.085  31.338  1.00  0.00     0.031 C 
ATOM     35  C   UNL A   1      45.925  30.388  33.360  1.00  0.00     0.029 A 
ATOM     36  C   UNL A   1      46.098  29.059  32.959  1.00  0.00     0.049 A 
ATOM     37  H   UNL A   1      46.284  27.453  34.315  1.00  0.00     0.167 HD
ATOM     38  C   UNL A   1      46.115  27.164  31.325  1.00  0.00     0.074 A 
ATOM     39  C   UNL A   1      45.582  26.049  32.111  1.00  0.00     0.031 C 
ATOM     40  C   UNL A   1      46.335  28.475  31.653  1.00  0.00     0.031 A 
BRANCH  27  41
ATOM     41  C   UNL A   1      44.155  27.207  36.488  1.00  0.00    -0.014 A 
ATOM     42  C   UNL A   1      44.627  27.460  37.788  1.00  0.00     0.010 A 
ATOM     43  C   UNL A   1      44.161  25.862  36.054  1.00  0.00     0.010 A 
ATOM     44  C   UNL A   1      45.148  26.427  38.579  1.00  0.00     0.020 A 
ATOM     45  C   UNL A   1      44.637  24.821  36.848  1.00  0.00     0.020 A 
ATOM     46  C   UNL A   1      45.166  25.118  38.093  1.00  0.00     0.054 A 
BRANCH  46  47
ATOM     47  S   UNL A   1      45.963  23.816  39.060  1.00  0.00     0.124 S 
ATOM     48  O   UNL A   1      45.773  22.650  38.204  1.00  0.00    -0.237 OA
ATOM     49  O   UNL A   1      47.334  24.310  39.167  1.00  0.00    -0.237 OA
ATOM     50  O   UNL A   1      45.210  23.807  40.311  1.00  0.00    -0.744 OA
ENDBRANCH  46  47
ENDBRANCH  27  41
BRANCH  28  51
ATOM     51  C   UNL A   1      43.811  24.155  28.431  1.00  0.00    -0.014 A 
ATOM     52  C   UNL A   1      43.110  23.167  29.144  1.00  0.00     0.010 A 
ATOM     53  C   UNL A   1      43.999  23.937  27.046  1.00  0.00     0.010 A 
ATOM     54  C   UNL A   1      42.589  22.030  28.492  1.00  0.00     0.020 A 
ATOM     55  C   UNL A   1      43.494  22.808  26.392  1.00  0.00     0.020 A 
ATOM     56  C   UNL A   1      42.772  21.866  27.116  1.00  0.00     0.054 A 
BRANCH  56  57
ATOM     57  S   UNL A   1      41.969  20.480  26.254  1.00  0.00     0.124 S 
ATOM     58  O   UNL A   1      40.714  21.076  25.805  1.00  0.00    -0.237 OA
ATOM     59  O   UNL A   1      42.929  20.163  25.201  1.00  0.00    -0.237 OA
ATOM     60  O   UNL A   1      41.833  19.460  27.292  1.00  0.00    -0.744 OA
ENDBRANCH  56  57
ENDBRANCH  28  51
BRANCH  40  61
ATOM     61  C   UNL A   1      46.628  29.459  30.535  1.00  0.00    -0.014 A 
ATOM     62  C   UNL A   1      47.900  29.612  29.942  1.00  0.00     0.010 A 
ATOM     63  C   UNL A   1      45.535  30.103  29.934  1.00  0.00     0.010 A 
ATOM     64  C   UNL A   1      48.072  30.401  28.792  1.00  0.00     0.020 A 
ATOM     65  C   UNL A   1      45.696  30.877  28.779  1.00  0.00     0.020 A 
ATOM     66  C   UNL A   1      46.964  31.029  28.216  1.00  0.00     0.054 A 
BRANCH  66  67
ATOM     67  S   UNL A   1      47.174  31.998  26.695  1.00  0.00     0.124 S 
ATOM     68  O   UNL A   1      48.623  32.000  26.516  1.00  0.00    -0.237 OA
ATOM     69  O   UNL A   1      46.419  31.227  25.709  1.00  0.00    -0.237 OA
ATOM     70  O   UNL A   1      46.591  33.298  27.027  1.00  0.00    -0.744 OA
ENDBRANCH  66  67
ENDBRANCH  40  61
ENDBRANCH  14  15
ENDBRANCH   7   9
ENDBRANCH   6   7
ENDBRANCH   5   6
ENDBRANCH   4   5
ENDBRANCH   3   4
ENDBRANCH   2   3
ENDBRANCH   1   2
BRANCH   1  71
ATOM     71  O   UNL A   1      33.896  33.348  31.918  1.00  0.00    -0.377 OA
BRANCH  71  72
ATOM     72  C   UNL A   1      34.118  34.283  32.944  1.00  0.00     0.188 C 
BRANCH  72  73
ATOM     73  C   UNL A   1      35.242  33.968  33.963  1.00  0.00     0.188 C 
BRANCH  73  74
ATOM     74  O   UNL A   1      36.325  34.861  34.114  1.00  0.00    -0.376 OA
BRANCH  74  75
ATOM     75  C   UNL A   1      37.601  34.426  33.694  1.00  0.00     0.202 C 
BRANCH  75  76
ATOM     76  C   UNL A   1      38.777  34.539  34.684  1.00  0.00     0.261 C 
BRANCH  76  77
ATOM     77  O   UNL A   1      38.484  34.222  36.069  1.00  0.00    -0.459 OA
BRANCH  77  78
ATOM     78  C   UNL A   1      39.194  33.190  36.629  1.00  0.00     0.371 C 
ATOM     79  O   UNL A   1      39.232  32.069  36.128  1.00  0.00    -0.245 OA
BRANCH  78  80
ATOM     80  C   UNL A   1      39.918  33.591  38.005  1.00  0.00     0.345 C 
ATOM     81  C   UNL A   1      41.105  34.358  37.496  1.00  0.00     0.108 A 
ATOM     82  N   UNL A   1      38.992  34.437  38.882  1.00  0.00    -0.314 N 
ATOM     83  N   UNL A   1      41.934  33.987  36.464  1.00  0.00    -0.343 N 
ATOM     84  C   UNL A   1      41.351  35.692  37.679  1.00  0.00     0.074 A 
ATOM     85  C   UNL A   1      39.143  35.907  38.737  1.00  0.00     0.270 C 
ATOM     86  H   UNL A   1      38.134  34.141  38.417  1.00  0.00     0.349 HD
ATOM     87  C   UNL A   1      42.465  35.145  35.957  1.00  0.00     0.197 A 
ATOM     88  H   UNL A   1      42.111  33.071  36.150  1.00  0.00     0.167 HD
ATOM     89  N   UNL A   1      42.207  36.178  36.730  1.00  0.00    -0.241 NA
ATOM     90  C   UNL A   1      40.562  36.504  38.613  1.00  0.00     0.120 C 
BRANCH  82  91
ATOM     91  C   UNL A   1      38.692  34.048  40.283  1.00  0.00     0.303 C 
BRANCH  91  92
ATOM     92  C   UNL A   1      37.526  33.023  40.363  1.00  0.00     0.044 A 
ATOM     93  C   UNL A   1      36.585  32.563  39.378  1.00  0.00     0.051 A 
ATOM     94  C   UNL A   1      37.195  32.230  41.454  1.00  0.00     0.204 A 
ATOM     95  C   UNL A   1      35.674  31.733  39.982  1.00  0.00     0.195 A 
ATOM     96  O   UNL A   1      36.064  31.503  41.250  1.00  0.00    -0.472 OA
ENDBRANCH  91  92
ENDBRANCH  82  91
ENDBRANCH  78  80
ENDBRANCH  77  78
ENDBRANCH  76  77
ENDBRANCH  75  76
ENDBRANCH  74  75
ENDBRANCH  73  74
ENDBRANCH  72  73
ENDBRANCH  71  72
ENDBRANCH   1  71
TORSDOF 25
ENDMDL
MODEL 2
REMARK VINA RESULT:      -7.5      5.654     12.100
REMARK SMILES O=C(OCCOCCOCCOCCOC(=O)[C@H]1c2[nH]cnc2CC[N@@H+]1Cc1ccoc1)c1ccc(-c2c3nc(c(-c4ccc(S(=O)(=O)[O-])cc4)c4ccc([nH]4)c(-c4ccc(S(=O)(=O)[O-])cc4)c4nc(c(-c5ccc(S(=O)(=O)[O-])cc5)c5ccc2[nH]5)C=C4)C=C3)cc1
REMARK SMILES IDX 8 1 7 2 6 3 5 4 4 5 3 6 2 7 1 8 33 9 34 10 92 11 35 12 91 13
REMARK SMILES IDX 36 14 37 15 38 16 85 17 39 18 90 19 84 20 86 21 40 22 89 23
REMARK SMILES IDX 83 24 82 25 41 27 71 28 52 29 70 30 53 31 56 32 69 33 87 34
REMARK SMILES IDX 54 35 55 36 68 38 88 39 57 40 42 41 43 42 51 43 44 44 50 45
REMARK SMILES IDX 45 46 46 47 47 48 48 49 49 50 72 51 73 52 81 53 74 54 80 55
REMARK SMILES IDX 75 56 76 57 77 58 78 59 79 60 58 61 59 62 67 63 60 64 66 65
REMARK SMILES IDX 61 66 62 67 63 68 64 69 65 70 9 71 10 72 11 73 12 74 13 75
REMARK SMILES IDX 14 76 15 77 16 78 17 79 18 80 19 81 26 82 20 83 23 84 25 85
REMARK SMILES IDX 21 87 22 89 24 90 27 91 28 92 29 93 32 94 30 95 31 96
REMARK H PARENT 86 26 56 37 26 86 20 88
REMARK Flexibility Score: inf
ROOT
ATOM      1  C   UNL A   1      33.559  28.923  27.367  1.00  0.00     0.188 C 
ENDROOT
BRANCH   1   2
ATOM      2  C   UNL A   1      34.448  30.156  27.268  1.00  0.00     0.188 C 
BRANCH   2   3
ATOM      3  O   UNL A   1      33.954  31.361  27.881  1.00  0.00    -0.376 OA
BRANCH   3   4
ATOM      4  C   UNL A   1      34.824  31.989  28.838  1.00  0.00     0.202 C 
BRANCH   4   5
ATOM      5  C   UNL A   1      35.107  33.488  28.712  1.00  0.00     0.261 C 
BRANCH   5   6
ATOM      6  O   UNL A   1      36.159  33.965  29.549  1.00  0.00    -0.460 OA
BRANCH   6   7
ATOM      7  C   UNL A   1      37.019  33.193  30.232  1.00  0.00     0.338 C 
ATOM      8  O   UNL A   1      37.789  32.457  29.598  1.00  0.00    -0.246 OA
BRANCH   7   9
ATOM      9  C   UNL A   1      37.124  33.211  31.716  1.00  0.00     0.060 A 
ATOM     10  C   UNL A   1      36.940  34.325  32.540  1.00  0.00     0.016 A 
ATOM     11  C   UNL A   1      37.511  31.984  32.294  1.00  0.00     0.016 A 
ATOM     12  C   UNL A   1      37.489  34.332  33.794  1.00  0.00     0.010 A 
ATOM     13  C   UNL A   1      37.997  31.957  33.572  1.00  0.00     0.010 A 
ATOM     14  C   UNL A   1      38.151  33.186  34.194  1.00  0.00    -0.014 A 
BRANCH  14  15
ATOM     15  C   UNL A   1      39.221  33.367  35.141  1.00  0.00     0.031 A 
ATOM     16  C   UNL A   1      38.745  33.473  36.533  1.00  0.00     0.074 A 
ATOM     17  C   UNL A   1      40.474  33.372  34.638  1.00  0.00     0.049 A 
ATOM     18  N   UNL A   1      38.906  34.446  37.366  1.00  0.00    -0.248 NA
ATOM     19  C   UNL A   1      37.788  32.445  36.986  1.00  0.00     0.031 C 
ATOM     20  C   UNL A   1      40.902  33.063  33.260  1.00  0.00     0.029 A 
ATOM     21  N   UNL A   1      41.658  33.488  35.275  1.00  0.00    -0.354 N 
ATOM     22  C   UNL A   1      38.281  34.026  38.535  1.00  0.00     0.074 A 
ATOM     23  C   UNL A   1      37.429  32.923  38.175  1.00  0.00     0.031 C 
ATOM     24  C   UNL A   1      42.199  32.687  33.271  1.00  0.00     0.029 A 
ATOM     25  C   UNL A   1      42.713  32.869  34.614  1.00  0.00     0.049 A 
ATOM     26  H   UNL A   1      41.765  33.966  36.129  1.00  0.00     0.167 HD
ATOM     27  C   UNL A   1      38.760  34.386  39.756  1.00  0.00     0.031 A 
ATOM     28  C   UNL A   1      43.855  32.412  35.188  1.00  0.00     0.031 A 
ATOM     29  C   UNL A   1      39.578  35.566  39.679  1.00  0.00     0.049 A 
ATOM     30  C   UNL A   1      43.937  33.061  36.529  1.00  0.00     0.074 A 
ATOM     31  C   UNL A   1      39.342  36.867  39.283  1.00  0.00     0.029 A 
ATOM     32  N   UNL A   1      40.943  35.390  39.628  1.00  0.00    -0.354 N 
ATOM     33  N   UNL A   1      44.053  34.353  36.689  1.00  0.00    -0.248 NA
ATOM     34  C   UNL A   1      43.355  32.350  37.661  1.00  0.00     0.031 C 
ATOM     35  C   UNL A   1      40.511  37.252  38.567  1.00  0.00     0.029 A 
ATOM     36  C   UNL A   1      41.432  36.202  38.633  1.00  0.00     0.049 A 
ATOM     37  H   UNL A   1      41.473  34.790  40.201  1.00  0.00     0.167 HD
ATOM     38  C   UNL A   1      43.198  34.671  37.738  1.00  0.00     0.074 A 
ATOM     39  C   UNL A   1      42.855  33.384  38.347  1.00  0.00     0.031 C 
ATOM     40  C   UNL A   1      42.599  35.899  37.827  1.00  0.00     0.031 A 
BRANCH  27  41
ATOM     41  C   UNL A   1      38.847  33.397  40.892  1.00  0.00    -0.014 A 
ATOM     42  C   UNL A   1      38.116  33.643  42.067  1.00  0.00     0.010 A 
ATOM     43  C   UNL A   1      39.839  32.392  40.953  1.00  0.00     0.010 A 
ATOM     44  C   UNL A   1      38.418  32.969  43.258  1.00  0.00     0.020 A 
ATOM     45  C   UNL A   1      40.119  31.686  42.120  1.00  0.00     0.020 A 
ATOM     46  C   UNL A   1      39.431  32.009  43.278  1.00  0.00     0.054 A 
BRANCH  46  47
ATOM     47  S   UNL A   1      39.908  31.245  44.844  1.00  0.00     0.124 S 
ATOM     48  O   UNL A   1      40.037  29.841  44.465  1.00  0.00    -0.237 OA
ATOM     49  O   UNL A   1      41.156  31.937  45.155  1.00  0.00    -0.237 OA
ATOM     50  O   UNL A   1      38.791  31.555  45.732  1.00  0.00    -0.744 OA
ENDBRANCH  46  47
ENDBRANCH  27  41
BRANCH  28  51
ATOM     51  C   UNL A   1      44.551  31.142  34.831  1.00  0.00    -0.014 A 
ATOM     52  C   UNL A   1      45.953  31.040  34.832  1.00  0.00     0.010 A 
ATOM     53  C   UNL A   1      43.818  29.939  34.711  1.00  0.00     0.010 A 
ATOM     54  C   UNL A   1      46.591  29.784  34.752  1.00  0.00     0.020 A 
ATOM     55  C   UNL A   1      44.443  28.689  34.623  1.00  0.00     0.020 A 
ATOM     56  C   UNL A   1      45.829  28.615  34.664  1.00  0.00     0.054 A 
BRANCH  56  57
ATOM     57  S   UNL A   1      46.650  26.992  34.718  1.00  0.00     0.124 S 
ATOM     58  O   UNL A   1      45.771  26.169  33.893  1.00  0.00    -0.237 OA
ATOM     59  O   UNL A   1      47.963  27.282  34.148  1.00  0.00    -0.237 OA
ATOM     60  O   UNL A   1      46.657  26.655  36.141  1.00  0.00    -0.744 OA
ENDBRANCH  56  57
ENDBRANCH  28  51
BRANCH  40  61
ATOM     61  C   UNL A   1      43.024  36.980  36.849  1.00  0.00    -0.014 A 
ATOM     62  C   UNL A   1      44.009  37.950  37.136  1.00  0.00     0.010 A 
ATOM     63  C   UNL A   1      42.552  36.885  35.531  1.00  0.00     0.010 A 
ATOM     64  C   UNL A   1      44.492  38.808  36.133  1.00  0.00     0.020 A 
ATOM     65  C   UNL A   1      43.040  37.725  34.524  1.00  0.00     0.020 A 
ATOM     66  C   UNL A   1      44.002  38.688  34.830  1.00  0.00     0.054 A 
BRANCH  66  67
ATOM     67  S   UNL A   1      44.670  39.755  33.521  1.00  0.00     0.124 S 
ATOM     68  O   UNL A   1      44.730  38.853  32.374  1.00  0.00    -0.237 OA
ATOM     69  O   UNL A   1      43.675  40.822  33.431  1.00  0.00    -0.237 OA
ATOM     70  O   UNL A   1      45.969  40.176  34.043  1.00  0.00    -0.744 OA
ENDBRANCH  66  67
ENDBRANCH  40  61
ENDBRANCH  14  15
ENDBRANCH   7   9
ENDBRANCH   6   7
ENDBRANCH   5   6
ENDBRANCH   4   5
ENDBRANCH   3   4
ENDBRANCH   2   3
ENDBRANCH   1   2
BRANCH   1  71
ATOM     71  O   UNL A   1      32.608  28.905  26.321  1.00  0.00    -0.377 OA
BRANCH  71  72
ATOM     72  C   UNL A   1      32.369  27.592  25.879  1.00  0.00     0.188 C 
BRANCH  72  73
ATOM     73  C   UNL A   1      30.914  27.225  25.490  1.00  0.00     0.188 C 
BRANCH  73  74
ATOM     74  O   UNL A   1      30.269  26.141  26.126  1.00  0.00    -0.376 OA
BRANCH  74  75
ATOM     75  C   UNL A   1      30.598  24.837  25.699  1.00  0.00     0.202 C 
BRANCH  75  76
ATOM     76  C   UNL A   1      30.258  23.654  26.625  1.00  0.00     0.261 C 
BRANCH  76  77
ATOM     77  O   UNL A   1      30.897  22.389  26.314  1.00  0.00    -0.459 OA
BRANCH  77  78
ATOM     78  C   UNL A   1      32.268  22.386  26.269  1.00  0.00     0.371 C 
ATOM     79  O   UNL A   1      32.959  22.711  27.231  1.00  0.00    -0.245 OA
BRANCH  78  80
ATOM     80  C   UNL A   1      32.855  21.961  24.835  1.00  0.00     0.345 C 
ATOM     81  C   UNL A   1      33.920  23.001  24.637  1.00  0.00     0.108 A 
ATOM     82  N   UNL A   1      33.412  20.536  24.875  1.00  0.00    -0.314 N 
ATOM     83  N   UNL A   1      33.792  24.352  24.861  1.00  0.00    -0.343 N 
ATOM     84  C   UNL A   1      35.269  22.783  24.581  1.00  0.00     0.074 A 
ATOM     85  C   UNL A   1      34.866  20.427  25.154  1.00  0.00     0.270 C 
ATOM     86  H   UNL A   1      32.890  20.259  25.706  1.00  0.00     0.349 HD
ATOM     87  C   UNL A   1      35.052  24.821  25.130  1.00  0.00     0.197 A 
ATOM     88  H   UNL A   1      32.960  24.878  24.833  1.00  0.00     0.167 HD
ATOM     89  N   UNL A   1      35.973  23.917  24.875  1.00  0.00    -0.241 NA
ATOM     90  C   UNL A   1      35.832  21.431  24.487  1.00  0.00     0.120 C 
BRANCH  82  91
ATOM     91  C   UNL A   1      32.956  19.505  23.909  1.00  0.00     0.303 C 
BRANCH  91  92
ATOM     92  C   UNL A   1      33.142  18.065  24.467  1.00  0.00     0.044 A 
ATOM     93  C   UNL A   1      33.943  16.959  24.018  1.00  0.00     0.051 A 
ATOM     94  C   UNL A   1      32.600  17.556  25.640  1.00  0.00     0.204 A 
ATOM     95  C   UNL A   1      33.666  15.861  24.794  1.00  0.00     0.195 A 
ATOM     96  O   UNL A   1      32.864  16.233  25.810  1.00  0.00    -0.472 OA
ENDBRANCH  91  92
ENDBRANCH  82  91
ENDBRANCH  78  80
ENDBRANCH  77  78
ENDBRANCH  76  77
ENDBRANCH  75  76
ENDBRANCH  74  75
ENDBRANCH  73  74
ENDBRANCH  72  73
ENDBRANCH  71  72
ENDBRANCH   1  71
TORSDOF 25
ENDMDL
MODEL 3
REMARK VINA RESULT:      -7.5      5.776     13.386
REMARK SMILES O=C(OCCOCCOCCOCCOC(=O)[C@H]1c2[nH]cnc2CC[N@@H+]1Cc1ccoc1)c1ccc(-c2c3nc(c(-c4ccc(S(=O)(=O)[O-])cc4)c4ccc([nH]4)c(-c4ccc(S(=O)(=O)[O-])cc4)c4nc(c(-c5ccc(S(=O)(=O)[O-])cc5)c5ccc2[nH]5)C=C4)C=C3)cc1
REMARK SMILES IDX 8 1 7 2 6 3 5 4 4 5 3 6 2 7 1 8 33 9 34 10 92 11 35 12 91 13
REMARK SMILES IDX 36 14 37 15 38 16 85 17 39 18 90 19 84 20 86 21 40 22 89 23
REMARK SMILES IDX 83 24 82 25 41 27 71 28 52 29 70 30 53 31 56 32 69 33 87 34
REMARK SMILES IDX 54 35 55 36 68 38 88 39 57 40 42 41 43 42 51 43 44 44 50 45
REMARK SMILES IDX 45 46 46 47 47 48 48 49 49 50 72 51 73 52 81 53 74 54 80 55
REMARK SMILES IDX 75 56 76 57 77 58 78 59 79 60 58 61 59 62 67 63 60 64 66 65
REMARK SMILES IDX 61 66 62 67 63 68 64 69 65 70 9 71 10 72 11 73 12 74 13 75
REMARK SMILES IDX 14 76 15 77 16 78 17 79 18 80 19 81 26 82 20 83 23 84 25 85
REMARK SMILES IDX 21 87 22 89 24 90 27 91 28 92 29 93 32 94 30 95 31 96
REMARK H PARENT 86 26 56 37 26 86 20 88
REMARK Flexibility Score: inf
ROOT
ATOM      1  C   UNL A   1      33.099  28.788  27.302  1.00  0.00     0.188 C 
ENDROOT
BRANCH   1   2
ATOM      2  C   UNL A   1      33.939  30.032  27.041  1.00  0.00     0.188 C 
BRANCH   2   3
ATOM      3  O   UNL A   1      33.232  31.283  26.956  1.00  0.00    -0.376 OA
BRANCH   3   4
ATOM      4  C   UNL A   1      33.467  32.219  28.022  1.00  0.00     0.202 C 
BRANCH   4   5
ATOM      5  C   UNL A   1      34.636  31.974  28.980  1.00  0.00     0.261 C 
BRANCH   5   6
ATOM      6  O   UNL A   1      34.361  32.291  30.344  1.00  0.00    -0.460 OA
BRANCH   6   7
ATOM      7  C   UNL A   1      35.285  32.570  31.277  1.00  0.00     0.338 C 
ATOM      8  O   UNL A   1      34.922  32.676  32.458  1.00  0.00    -0.246 OA
BRANCH   7   9
ATOM      9  C   UNL A   1      36.733  32.714  30.969  1.00  0.00     0.060 A 
ATOM     10  C   UNL A   1      37.584  31.697  30.523  1.00  0.00     0.016 A 
ATOM     11  C   UNL A   1      37.266  33.993  31.227  1.00  0.00     0.016 A 
ATOM     12  C   UNL A   1      38.935  31.824  30.706  1.00  0.00     0.010 A 
ATOM     13  C   UNL A   1      38.619  34.156  31.344  1.00  0.00     0.010 A 
ATOM     14  C   UNL A   1      39.382  33.002  31.274  1.00  0.00    -0.014 A 
BRANCH  14  15
ATOM     15  C   UNL A   1      40.602  32.918  32.034  1.00  0.00     0.031 A 
ATOM     16  C   UNL A   1      41.809  33.129  31.212  1.00  0.00     0.074 A 
ATOM     17  C   UNL A   1      40.470  32.704  33.361  1.00  0.00     0.049 A 
ATOM     18  N   UNL A   1      42.804  32.329  31.022  1.00  0.00    -0.248 NA
ATOM     19  C   UNL A   1      41.804  34.306  30.321  1.00  0.00     0.031 C 
ATOM     20  C   UNL A   1      39.232  32.697  34.162  1.00  0.00     0.029 A 
ATOM     21  N   UNL A   1      41.418  32.613  34.318  1.00  0.00    -0.354 N 
ATOM     22  C   UNL A   1      43.670  33.024  30.185  1.00  0.00     0.074 A 
ATOM     23  C   UNL A   1      42.912  34.105  29.612  1.00  0.00     0.031 C 
ATOM     24  C   UNL A   1      39.534  32.953  35.453  1.00  0.00     0.029 A 
ATOM     25  C   UNL A   1      40.978  32.994  35.581  1.00  0.00     0.049 A 
ATOM     26  H   UNL A   1      42.335  32.304  34.139  1.00  0.00     0.167 HD
ATOM     27  C   UNL A   1      45.018  32.872  30.286  1.00  0.00     0.031 A 
ATOM     28  C   UNL A   1      41.759  33.454  36.592  1.00  0.00     0.031 A 
ATOM     29  C   UNL A   1      45.366  31.632  30.927  1.00  0.00     0.049 A 
ATOM     30  C   UNL A   1      43.159  33.076  36.242  1.00  0.00     0.074 A 
ATOM     31  C   UNL A   1      45.142  30.304  30.623  1.00  0.00     0.029 A 
ATOM     32  N   UNL A   1      45.661  31.674  32.271  1.00  0.00    -0.354 N 
ATOM     33  N   UNL A   1      43.558  31.836  36.136  1.00  0.00    -0.248 NA
ATOM     34  C   UNL A   1      43.953  34.044  35.495  1.00  0.00     0.031 C 
ATOM     35  C   UNL A   1      44.848  29.685  31.871  1.00  0.00     0.029 A 
ATOM     36  C   UNL A   1      44.989  30.642  32.881  1.00  0.00     0.049 A 
ATOM     37  H   UNL A   1      46.250  32.326  32.717  1.00  0.00     0.167 HD
ATOM     38  C   UNL A   1      44.370  31.807  35.008  1.00  0.00     0.074 A 
ATOM     39  C   UNL A   1      44.639  33.213  34.701  1.00  0.00     0.031 C 
ATOM     40  C   UNL A   1      44.494  30.678  34.244  1.00  0.00     0.031 A 
BRANCH  27  41
ATOM     41  C   UNL A   1      45.953  34.053  30.217  1.00  0.00    -0.014 A 
ATOM     42  C   UNL A   1      46.154  34.831  31.370  1.00  0.00     0.010 A 
ATOM     43  C   UNL A   1      46.413  34.590  28.993  1.00  0.00     0.010 A 
ATOM     44  C   UNL A   1      46.717  36.112  31.286  1.00  0.00     0.020 A 
ATOM     45  C   UNL A   1      47.012  35.843  28.903  1.00  0.00     0.020 A 
ATOM     46  C   UNL A   1      47.124  36.614  30.048  1.00  0.00     0.054 A 
BRANCH  46  47
ATOM     47  S   UNL A   1      47.720  38.316  29.927  1.00  0.00     0.124 S 
ATOM     48  O   UNL A   1      48.463  38.461  31.174  1.00  0.00    -0.237 OA
ATOM     49  O   UNL A   1      48.523  38.273  28.708  1.00  0.00    -0.237 OA
ATOM     50  O   UNL A   1      46.493  39.103  29.832  1.00  0.00    -0.744 OA
ENDBRANCH  46  47
ENDBRANCH  27  41
BRANCH  28  51
ATOM     51  C   UNL A   1      41.400  34.562  37.523  1.00  0.00    -0.014 A 
ATOM     52  C   UNL A   1      40.887  35.785  37.055  1.00  0.00     0.010 A 
ATOM     53  C   UNL A   1      41.342  34.331  38.916  1.00  0.00     0.010 A 
ATOM     54  C   UNL A   1      40.309  36.718  37.941  1.00  0.00     0.020 A 
ATOM     55  C   UNL A   1      40.778  35.254  39.804  1.00  0.00     0.020 A 
ATOM     56  C   UNL A   1      40.244  36.438  39.310  1.00  0.00     0.054 A 
BRANCH  56  57
ATOM     57  S   UNL A   1      39.362  37.571  40.426  1.00  0.00     0.124 S 
ATOM     58  O   UNL A   1      38.677  36.650  41.329  1.00  0.00    -0.237 OA
ATOM     59  O   UNL A   1      40.450  38.344  41.018  1.00  0.00    -0.237 OA
ATOM     60  O   UNL A   1      38.485  38.325  39.531  1.00  0.00    -0.744 OA
ENDBRANCH  56  57
ENDBRANCH  28  51
BRANCH  40  61
ATOM     61  C   UNL A   1      43.864  29.393  34.749  1.00  0.00    -0.014 A 
ATOM     62  C   UNL A   1      44.532  28.470  35.584  1.00  0.00     0.010 A 
ATOM     63  C   UNL A   1      42.488  29.215  34.535  1.00  0.00     0.010 A 
ATOM     64  C   UNL A   1      43.844  27.394  36.170  1.00  0.00     0.020 A 
ATOM     65  C   UNL A   1      41.793  28.156  35.128  1.00  0.00     0.020 A 
ATOM     66  C   UNL A   1      42.474  27.245  35.937  1.00  0.00     0.054 A 
BRANCH  66  67
ATOM     67  S   UNL A   1      41.571  25.891  36.743  1.00  0.00     0.124 S 
ATOM     68  O   UNL A   1      42.648  25.046  37.249  1.00  0.00    -0.237 OA
ATOM     69  O   UNL A   1      40.783  26.584  37.761  1.00  0.00    -0.237 OA
ATOM     70  O   UNL A   1      40.783  25.305  35.659  1.00  0.00    -0.744 OA
ENDBRANCH  66  67
ENDBRANCH  40  61
ENDBRANCH  14  15
ENDBRANCH   7   9
ENDBRANCH   6   7
ENDBRANCH   5   6
ENDBRANCH   4   5
ENDBRANCH   3   4
ENDBRANCH   2   3
ENDBRANCH   1   2
BRANCH   1  71
ATOM     71  O   UNL A   1      32.163  28.587  26.262  1.00  0.00    -0.377 OA
BRANCH  71  72
ATOM     72  C   UNL A   1      31.945  27.218  26.036  1.00  0.00     0.188 C 
BRANCH  72  73
ATOM     73  C   UNL A   1      30.475  26.728  25.988  1.00  0.00     0.188 C 
BRANCH  73  74
ATOM     74  O   UNL A   1      30.125  25.496  26.582  1.00  0.00    -0.376 OA
BRANCH  74  75
ATOM     75  C   UNL A   1      30.695  24.321  26.047  1.00  0.00     0.202 C 
BRANCH  75  76
ATOM     76  C   UNL A   1      30.224  22.961  26.598  1.00  0.00     0.261 C 
BRANCH  76  77
ATOM     77  O   UNL A   1      31.099  21.831  26.353  1.00  0.00    -0.459 OA
BRANCH  77  78
ATOM     78  C   UNL A   1      32.442  22.100  26.257  1.00  0.00     0.371 C 
ATOM     79  O   UNL A   1      33.088  22.564  27.193  1.00  0.00    -0.245 OA
BRANCH  78  80
ATOM     80  C   UNL A   1      33.050  21.787  24.804  1.00  0.00     0.345 C 
ATOM     81  C   UNL A   1      34.097  22.858  24.690  1.00  0.00     0.108 A 
ATOM     82  N   UNL A   1      33.633  20.373  24.750  1.00  0.00    -0.314 N 
ATOM     83  N   UNL A   1      33.941  24.187  25.007  1.00  0.00    -0.343 N 
ATOM     84  C   UNL A   1      35.450  22.669  24.634  1.00  0.00     0.074 A 
ATOM     85  C   UNL A   1      35.086  20.271  25.036  1.00  0.00     0.270 C 
ATOM     86  H   UNL A   1      33.108  20.029  25.553  1.00  0.00     0.349 HD
ATOM     87  C   UNL A   1      35.189  24.659  25.322  1.00  0.00     0.197 A 
ATOM     88  H   UNL A   1      33.100  24.699  25.007  1.00  0.00     0.167 HD
ATOM     89  N   UNL A   1      36.130  23.793  25.014  1.00  0.00    -0.241 NA
ATOM     90  C   UNL A   1      36.039  21.337  24.451  1.00  0.00     0.120 C 
BRANCH  82  91
ATOM     91  C   UNL A   1      33.205  19.404  23.709  1.00  0.00     0.303 C 
BRANCH  91  92
ATOM     92  C   UNL A   1      33.144  17.952  24.260  1.00  0.00     0.044 A 
ATOM     93  C   UNL A   1      32.584  17.407  25.467  1.00  0.00     0.051 A 
ATOM     94  C   UNL A   1      33.573  16.802  23.610  1.00  0.00     0.204 A 
ATOM     95  C   UNL A   1      32.895  16.072  25.542  1.00  0.00     0.195 A 
ATOM     96  O   UNL A   1      33.476  15.691  24.389  1.00  0.00    -0.472 OA
ENDBRANCH  91  92
ENDBRANCH  82  91
ENDBRANCH  78  80
ENDBRANCH  77  78
ENDBRANCH  76  77
ENDBRANCH  75  76
ENDBRANCH  74  75
ENDBRANCH  73  74
ENDBRANCH  72  73
ENDBRANCH  71  72
ENDBRANCH   1  71
TORSDOF 25
ENDMDL
