MODEL 1
REMARK VINA RESULT:      -9.3      0.000      0.000
REMARK SMILES Cc1cccc(NC(=O)CSc2nnc(CCC(=O)OCCOCCOCCOCCOC(=O)c3ccc(-c4c5nc(c(-c6ccc(S(=O)(=O)[O-])cc6)c6ccc([nH]6)c(-c6ccc(S(=O)(=O)[O-])cc6)c6nc(c(-c7ccc(S(=O)(=O)[O-])cc7)c7ccc4[nH]7)C=C6)C=C5)cc3)c(O)n2)c1
REMARK SMILES IDX 24 1 23 2 22 3 21 4 20 5 18 6 19 7 17 8 16 9 15 10 12 11
REMARK SMILES IDX 13 12 97 13 14 14 95 15 11 16 10 17 8 18 7 19 9 21 6 22 1 23
REMARK SMILES IDX 2 24 3 25 98 26 4 27 5 28 96 29 25 31 26 32 27 33 28 34
REMARK SMILES IDX 29 35 30 36 31 37 32 38 33 39 34 40 35 41 36 42 94 43 37 44
REMARK SMILES IDX 93 45 38 46 39 47 40 48 87 49 41 50 92 51 86 52 88 53 42 54
REMARK SMILES IDX 91 55 85 56 84 57 43 59 73 60 54 61 72 62 55 63 58 64 71 65
REMARK SMILES IDX 89 66 56 67 57 68 70 70 90 71 59 72 44 73 45 74 53 75 46 76
REMARK SMILES IDX 52 77 47 78 48 79 49 80 50 81 51 82 74 83 75 84 83 85 76 86
REMARK SMILES IDX 82 87 77 88 78 89 79 90 80 91 81 92 60 93 61 94 69 95 62 96
REMARK SMILES IDX 68 97 63 98 64 99 65 100 66 101 67 102
REMARK H PARENT 7 20 96 30 88 58 58 69
REMARK Flexibility Score: inf
ROOT
ATOM      1  C   UNL A   1      34.218  35.329  33.239  1.00  0.00     0.188 C 
ENDROOT
BRANCH   1   2
ATOM      2  O   UNL A   1      33.797  34.320  31.926  1.00  0.00    -0.376 OA
BRANCH   2   3
ATOM      3  C   UNL A   1      34.849  33.243  30.941  1.00  0.00     0.202 C 
BRANCH   3   4
ATOM      4  C   UNL A   1      35.221  33.165  29.117  1.00  0.00     0.261 C 
BRANCH   4   5
ATOM      5  O   UNL A   1      34.084  32.711  27.738  1.00  0.00    -0.463 OA
BRANCH   5   6
ATOM      6  C   UNL A   1      32.594  32.671  27.256  1.00  0.00     0.306 C 
ATOM      7  O   UNL A   1      31.885  33.683  27.352  1.00  0.00    -0.252 OA
BRANCH   6   8
ATOM      8  C   UNL A   1      31.716  31.231  26.740  1.00  0.00     0.129 C 
BRANCH   8   9
ATOM      9  C   UNL A   1      32.162  29.882  25.873  1.00  0.00     0.076 C 
BRANCH   9  10
ATOM     10  C   UNL A   1      31.396  28.540  25.667  1.00  0.00     0.126 A 
ATOM     11  C   UNL A   1      30.463  25.956  25.113  1.00  0.00     0.212 A 
ATOM     12  N   UNL A   1      30.385  26.916  24.182  1.00  0.00    -0.123 NA
ATOM     13  N   UNL A   1      30.667  26.300  26.393  1.00  0.00    -0.184 NA
ATOM     14  N   UNL A   1      30.821  28.247  24.485  1.00  0.00    -0.147 NA
ATOM     15  C   UNL A   1      31.142  27.562  26.611  1.00  0.00     0.237 A 
BRANCH  11  16
ATOM     16  S   UNL A   1      31.259  24.376  24.734  1.00  0.00    -0.074 SA
BRANCH  16  17
ATOM     17  C   UNL A   1      32.604  24.063  25.947  1.00  0.00     0.178 C 
BRANCH  17  18
ATOM     18  C   UNL A   1      32.088  22.987  26.903  1.00  0.00     0.234 C 
ATOM     19  N   UNL A   1      32.759  21.809  27.111  1.00  0.00    -0.325 N 
ATOM     20  H   UNL A   1      32.513  21.369  27.958  1.00  0.00     0.169 HD
ATOM     21  O   UNL A   1      31.101  23.211  27.618  1.00  0.00    -0.274 OA
BRANCH  19  22
ATOM     22  C   UNL A   1      33.722  21.094  26.376  1.00  0.00     0.041 A 
ATOM     23  C   UNL A   1      33.614  18.084  24.010  1.00  0.00     0.044 C 
ATOM     24  C   UNL A   1      34.114  19.270  24.783  1.00  0.00    -0.049 A 
ATOM     25  C   UNL A   1      35.444  19.675  24.664  1.00  0.00     0.003 A 
ATOM     26  C   UNL A   1      33.256  20.006  25.616  1.00  0.00     0.029 A 
ATOM     27  C   UNL A   1      35.911  20.769  25.398  1.00  0.00     0.002 A 
ATOM     28  C   UNL A   1      35.059  21.466  26.267  1.00  0.00     0.026 A 
ENDBRANCH  19  22
ENDBRANCH  17  18
ENDBRANCH  16  17
ENDBRANCH  11  16
BRANCH  15  29
ATOM     29  O   UNL A   1      31.281  27.772  27.942  1.00  0.00    -0.492 OA
ATOM     30  H   UNL A   1      31.638  28.580  28.253  1.00  0.00     0.295 HD
ENDBRANCH  15  29
ENDBRANCH   9  10
ENDBRANCH   8   9
ENDBRANCH   6   8
ENDBRANCH   5   6
ENDBRANCH   4   5
ENDBRANCH   3   4
ENDBRANCH   2   3
ENDBRANCH   1   2
BRANCH   1  31
ATOM     31  C   UNL A   1      35.067  34.820  34.388  1.00  0.00     0.188 C 
BRANCH  31  32
ATOM     32  O   UNL A   1      35.245  33.432  34.410  1.00  0.00    -0.377 OA
BRANCH  32  33
ATOM     33  C   UNL A   1      36.589  33.072  34.266  1.00  0.00     0.188 C 
BRANCH  33  34
ATOM     34  C   UNL A   1      37.257  33.098  35.628  1.00  0.00     0.188 C 
BRANCH  34  35
ATOM     35  O   UNL A   1      37.602  31.827  36.123  1.00  0.00    -0.376 OA
BRANCH  35  36
ATOM     36  C   UNL A   1      38.999  31.547  35.984  1.00  0.00     0.202 C 
BRANCH  36  37
ATOM     37  C   UNL A   1      40.014  32.042  37.117  1.00  0.00     0.261 C 
BRANCH  37  38
ATOM     38  O   UNL A   1      41.371  31.408  37.030  1.00  0.00    -0.460 OA
BRANCH  38  39
ATOM     39  C   UNL A   1      42.513  32.067  36.585  1.00  0.00     0.338 C 
ATOM     40  O   UNL A   1      42.996  33.031  37.125  1.00  0.00    -0.246 OA
BRANCH  39  41
ATOM     41  C   UNL A   1      43.128  31.416  35.313  1.00  0.00     0.060 A 
ATOM     42  C   UNL A   1      44.316  30.709  35.322  1.00  0.00     0.016 A 
ATOM     43  C   UNL A   1      42.619  31.569  34.026  1.00  0.00     0.016 A 
ATOM     44  C   UNL A   1      45.040  30.549  34.095  1.00  0.00     0.010 A 
ATOM     45  C   UNL A   1      43.512  31.706  32.901  1.00  0.00     0.010 A 
ATOM     46  C   UNL A   1      44.886  31.471  33.028  1.00  0.00    -0.014 A 
BRANCH  46  47
ATOM     47  C   UNL A   1      46.196  32.172  31.977  1.00  0.00     0.031 A 
ATOM     48  C   UNL A   1      46.189  33.614  32.850  1.00  0.00     0.074 A 
ATOM     49  C   UNL A   1      46.754  31.805  30.395  1.00  0.00     0.049 A 
ATOM     50  N   UNL A   1      45.617  34.719  32.442  1.00  0.00    -0.248 NA
ATOM     51  C   UNL A   1      46.580  33.759  34.261  1.00  0.00     0.031 C 
ATOM     52  C   UNL A   1      47.411  32.557  29.073  1.00  0.00     0.029 A 
ATOM     53  N   UNL A   1      46.506  30.621  29.420  1.00  0.00    -0.354 N 
ATOM     54  C   UNL A   1      46.046  35.724  33.229  1.00  0.00     0.074 A 
ATOM     55  C   UNL A   1      46.320  35.059  34.485  1.00  0.00     0.031 C 
ATOM     56  C   UNL A   1      47.358  31.946  27.887  1.00  0.00     0.029 A 
ATOM     57  C   UNL A   1      46.402  30.932  28.056  1.00  0.00     0.049 A 
ATOM     58  H   UNL A   1      46.427  29.695  29.745  1.00  0.00     0.167 HD
ATOM     59  C   UNL A   1      46.474  36.915  32.703  1.00  0.00     0.031 A 
ATOM     60  C   UNL A   1      45.252  30.876  27.307  1.00  0.00     0.031 A 
ATOM     61  C   UNL A   1      46.692  36.876  31.205  1.00  0.00     0.049 A 
ATOM     62  C   UNL A   1      44.919  32.413  26.976  1.00  0.00     0.074 A 
ATOM     63  C   UNL A   1      47.866  36.866  30.458  1.00  0.00     0.029 A 
ATOM     64  N   UNL A   1      45.686  36.521  30.263  1.00  0.00    -0.354 N 
ATOM     65  N   UNL A   1      45.251  33.435  27.753  1.00  0.00    -0.248 NA
ATOM     66  C   UNL A   1      44.477  32.929  25.689  1.00  0.00     0.031 C 
ATOM     67  C   UNL A   1      47.585  36.407  29.126  1.00  0.00     0.029 A 
ATOM     68  C   UNL A   1      46.217  36.142  28.993  1.00  0.00     0.049 A 
ATOM     69  H   UNL A   1      44.723  36.534  30.465  1.00  0.00     0.167 HD
ATOM     70  C   UNL A   1      45.111  34.679  27.166  1.00  0.00     0.074 A 
ATOM     71  C   UNL A   1      44.638  34.267  25.835  1.00  0.00     0.031 C 
ATOM     72  C   UNL A   1      45.373  35.929  27.750  1.00  0.00     0.031 A 
BRANCH  59  73
ATOM     73  C   UNL A   1      47.102  37.885  33.709  1.00  0.00    -0.014 A 
ATOM     74  C   UNL A   1      48.475  37.916  34.006  1.00  0.00     0.010 A 
ATOM     75  C   UNL A   1      46.290  38.778  34.458  1.00  0.00     0.010 A 
ATOM     76  C   UNL A   1      48.986  38.705  35.062  1.00  0.00     0.020 A 
ATOM     77  C   UNL A   1      46.773  39.516  35.551  1.00  0.00     0.020 A 
ATOM     78  C   UNL A   1      48.128  39.477  35.849  1.00  0.00     0.054 A 
BRANCH  78  79
ATOM     79  S   UNL A   1      48.789  40.439  37.244  1.00  0.00     0.124 S 
ATOM     80  O   UNL A   1      49.046  41.746  36.645  1.00  0.00    -0.237 OA
ATOM     81  O   UNL A   1      47.689  40.390  38.202  1.00  0.00    -0.237 OA
ATOM     82  O   UNL A   1      49.988  39.702  37.640  1.00  0.00    -0.744 OA
ENDBRANCH  78  79
ENDBRANCH  59  73
BRANCH  60  83
ATOM     83  C   UNL A   1      44.399  29.624  27.663  1.00  0.00    -0.014 A 
ATOM     84  C   UNL A   1      43.178  29.904  28.339  1.00  0.00     0.010 A 
ATOM     85  C   UNL A   1      44.461  28.319  27.131  1.00  0.00     0.010 A 
ATOM     86  C   UNL A   1      42.062  29.054  28.384  1.00  0.00     0.020 A 
ATOM     87  C   UNL A   1      43.326  27.438  27.151  1.00  0.00     0.020 A 
ATOM     88  C   UNL A   1      42.130  27.820  27.770  1.00  0.00     0.054 A 
BRANCH  88  89
ATOM     89  S   UNL A   1      40.613  26.805  27.746  1.00  0.00     0.124 S 
ATOM     90  O   UNL A   1      39.608  27.756  28.217  1.00  0.00    -0.237 OA
ATOM     91  O   UNL A   1      40.486  26.420  26.339  1.00  0.00    -0.237 OA
ATOM     92  O   UNL A   1      40.917  25.712  28.655  1.00  0.00    -0.744 OA
ENDBRANCH  88  89
ENDBRANCH  60  83
BRANCH  72  93
ATOM     93  C   UNL A   1      44.898  37.261  27.147  1.00  0.00    -0.014 A 
ATOM     94  C   UNL A   1      43.592  37.752  27.239  1.00  0.00     0.010 A 
ATOM     95  C   UNL A   1      45.858  38.161  26.598  1.00  0.00     0.010 A 
ATOM     96  C   UNL A   1      43.254  39.034  26.784  1.00  0.00     0.020 A 
ATOM     97  C   UNL A   1      45.551  39.462  26.200  1.00  0.00     0.020 A 
ATOM     98  C   UNL A   1      44.237  39.886  26.280  1.00  0.00     0.054 A 
BRANCH  98  99
ATOM     99  S   UNL A   1      43.791  41.571  25.809  1.00  0.00     0.124 S 
ATOM    100  O   UNL A   1      44.542  41.740  24.568  1.00  0.00    -0.237 OA
ATOM    101  O   UNL A   1      42.340  41.484  25.658  1.00  0.00    -0.237 OA
ATOM    102  O   UNL A   1      44.247  42.380  26.936  1.00  0.00    -0.744 OA
ENDBRANCH  98  99
ENDBRANCH  72  93
ENDBRANCH  46  47
ENDBRANCH  39  41
ENDBRANCH  38  39
ENDBRANCH  37  38
ENDBRANCH  36  37
ENDBRANCH  35  36
ENDBRANCH  34  35
ENDBRANCH  33  34
ENDBRANCH  32  33
ENDBRANCH  31  32
ENDBRANCH   1  31
TORSDOF 30
ENDMDL
MODEL 2
REMARK VINA RESULT:      -9.1      6.624     11.821
REMARK SMILES Cc1cccc(NC(=O)CSc2nnc(CCC(=O)OCCOCCOCCOCCOC(=O)c3ccc(-c4c5nc(c(-c6ccc(S(=O)(=O)[O-])cc6)c6ccc([nH]6)c(-c6ccc(S(=O)(=O)[O-])cc6)c6nc(c(-c7ccc(S(=O)(=O)[O-])cc7)c7ccc4[nH]7)C=C6)C=C5)cc3)c(O)n2)c1
REMARK SMILES IDX 24 1 23 2 22 3 21 4 20 5 18 6 19 7 17 8 16 9 15 10 12 11
REMARK SMILES IDX 13 12 97 13 14 14 95 15 11 16 10 17 8 18 7 19 9 21 6 22 1 23
REMARK SMILES IDX 2 24 3 25 98 26 4 27 5 28 96 29 25 31 26 32 27 33 28 34
REMARK SMILES IDX 29 35 30 36 31 37 32 38 33 39 34 40 35 41 36 42 94 43 37 44
REMARK SMILES IDX 93 45 38 46 39 47 40 48 87 49 41 50 92 51 86 52 88 53 42 54
REMARK SMILES IDX 91 55 85 56 84 57 43 59 73 60 54 61 72 62 55 63 58 64 71 65
REMARK SMILES IDX 89 66 56 67 57 68 70 70 90 71 59 72 44 73 45 74 53 75 46 76
REMARK SMILES IDX 52 77 47 78 48 79 49 80 50 81 51 82 74 83 75 84 83 85 76 86
REMARK SMILES IDX 82 87 77 88 78 89 79 90 80 91 81 92 60 93 61 94 69 95 62 96
REMARK SMILES IDX 68 97 63 98 64 99 65 100 66 101 67 102
REMARK H PARENT 7 20 96 30 88 58 58 69
REMARK Flexibility Score: inf
ROOT
ATOM      1  C   UNL A   1      33.647  33.120  28.048  1.00  0.00     0.188 C 
ENDROOT
BRANCH   1   2
ATOM      2  O   UNL A   1      33.910  31.437  28.186  1.00  0.00    -0.376 OA
BRANCH   2   3
ATOM      3  C   UNL A   1      35.462  30.541  28.332  1.00  0.00     0.202 C 
BRANCH   3   4
ATOM      4  C   UNL A   1      36.306  29.701  29.766  1.00  0.00     0.261 C 
BRANCH   4   5
ATOM      5  O   UNL A   1      37.996  28.965  29.825  1.00  0.00    -0.463 OA
BRANCH   5   6
ATOM      6  C   UNL A   1      39.012  28.011  29.109  1.00  0.00     0.306 C 
ATOM      7  O   UNL A   1      39.209  26.871  29.553  1.00  0.00    -0.252 OA
BRANCH   6   8
ATOM      8  C   UNL A   1      40.095  28.460  27.792  1.00  0.00     0.129 C 
BRANCH   8   9
ATOM      9  C   UNL A   1      41.034  27.572  26.744  1.00  0.00     0.076 C 
BRANCH   9  10
ATOM     10  C   UNL A   1      42.586  27.527  26.600  1.00  0.00     0.126 A 
ATOM     11  C   UNL A   1      45.328  26.958  26.478  1.00  0.00     0.212 A 
ATOM     12  N   UNL A   1      44.777  27.386  27.621  1.00  0.00    -0.123 NA
ATOM     13  N   UNL A   1      44.657  27.119  25.327  1.00  0.00    -0.184 NA
ATOM     14  N   UNL A   1      43.385  27.721  27.667  1.00  0.00    -0.147 NA
ATOM     15  C   UNL A   1      43.319  27.374  25.438  1.00  0.00     0.237 A 
BRANCH  11  16
ATOM     16  S   UNL A   1      46.304  25.435  26.447  1.00  0.00    -0.074 SA
BRANCH  16  17
ATOM     17  C   UNL A   1      45.818  24.369  27.863  1.00  0.00     0.178 C 
BRANCH  17  18
ATOM     18  C   UNL A   1      44.290  24.391  27.922  1.00  0.00     0.234 C 
ATOM     19  N   UNL A   1      43.605  24.901  28.994  1.00  0.00    -0.325 N 
ATOM     20  H   UNL A   1      42.678  25.153  28.776  1.00  0.00     0.169 HD
ATOM     21  O   UNL A   1      43.625  24.058  26.932  1.00  0.00    -0.274 OA
BRANCH  19  22
ATOM     22  C   UNL A   1      43.941  25.143  30.339  1.00  0.00     0.041 A 
ATOM     23  C   UNL A   1      44.638  22.922  33.381  1.00  0.00     0.044 C 
ATOM     24  C   UNL A   1      44.513  24.131  32.499  1.00  0.00    -0.049 A 
ATOM     25  C   UNL A   1      44.829  25.397  32.995  1.00  0.00     0.003 A 
ATOM     26  C   UNL A   1      44.101  24.014  31.163  1.00  0.00     0.029 A 
ATOM     27  C   UNL A   1      44.694  26.523  32.179  1.00  0.00     0.002 A 
ATOM     28  C   UNL A   1      44.233  26.401  30.859  1.00  0.00     0.026 A 
ENDBRANCH  19  22
ENDBRANCH  17  18
ENDBRANCH  16  17
ENDBRANCH  11  16
BRANCH  15  29
ATOM     29  O   UNL A   1      42.783  27.532  24.205  1.00  0.00    -0.492 OA
ATOM     30  H   UNL A   1      41.858  27.645  24.108  1.00  0.00     0.295 HD
ENDBRANCH  15  29
ENDBRANCH   9  10
ENDBRANCH   8   9
ENDBRANCH   6   8
ENDBRANCH   5   6
ENDBRANCH   4   5
ENDBRANCH   3   4
ENDBRANCH   2   3
ENDBRANCH   1   2
BRANCH   1  31
ATOM     31  C   UNL A   1      34.488  34.119  28.819  1.00  0.00     0.188 C 
BRANCH  31  32
ATOM     32  O   UNL A   1      34.332  34.060  30.209  1.00  0.00    -0.377 OA
BRANCH  32  33
ATOM     33  C   UNL A   1      35.401  33.405  30.830  1.00  0.00     0.188 C 
BRANCH  33  34
ATOM     34  C   UNL A   1      35.779  34.161  32.090  1.00  0.00     0.188 C 
BRANCH  34  35
ATOM     35  O   UNL A   1      36.780  33.535  32.857  1.00  0.00    -0.376 OA
BRANCH  35  36
ATOM     36  C   UNL A   1      37.455  32.500  32.134  1.00  0.00     0.202 C 
BRANCH  36  37
ATOM     37  C   UNL A   1      38.454  32.894  30.949  1.00  0.00     0.261 C 
BRANCH  37  38
ATOM     38  O   UNL A   1      39.314  31.758  30.481  1.00  0.00    -0.460 OA
BRANCH  38  39
ATOM     39  C   UNL A   1      40.291  31.147  31.261  1.00  0.00     0.338 C 
ATOM     40  O   UNL A   1      40.094  30.679  32.355  1.00  0.00    -0.246 OA
BRANCH  39  41
ATOM     41  C   UNL A   1      41.681  31.107  30.565  1.00  0.00     0.060 A 
ATOM     42  C   UNL A   1      42.378  29.936  30.328  1.00  0.00     0.016 A 
ATOM     43  C   UNL A   1      42.418  32.235  30.214  1.00  0.00     0.016 A 
ATOM     44  C   UNL A   1      43.795  29.998  30.126  1.00  0.00     0.010 A 
ATOM     45  C   UNL A   1      43.854  32.243  30.363  1.00  0.00     0.010 A 
ATOM     46  C   UNL A   1      44.564  31.070  30.647  1.00  0.00    -0.014 A 
BRANCH  46  47
ATOM     47  C   UNL A   1      46.184  30.971  31.468  1.00  0.00     0.031 A 
ATOM     48  C   UNL A   1      46.852  30.150  30.155  1.00  0.00     0.074 A 
ATOM     49  C   UNL A   1      46.677  31.079  33.109  1.00  0.00     0.049 A 
ATOM     50  N   UNL A   1      47.067  28.859  30.126  1.00  0.00    -0.248 NA
ATOM     51  C   UNL A   1      47.034  30.706  28.805  1.00  0.00     0.031 C 
ATOM     52  C   UNL A   1      47.837  30.479  34.130  1.00  0.00     0.029 A 
ATOM     53  N   UNL A   1      45.963  31.525  34.414  1.00  0.00    -0.354 N 
ATOM     54  C   UNL A   1      47.859  28.594  29.069  1.00  0.00     0.074 A 
ATOM     55  C   UNL A   1      47.515  29.644  28.135  1.00  0.00     0.031 C 
ATOM     56  C   UNL A   1      47.634  30.541  35.448  1.00  0.00     0.029 A 
ATOM     57  C   UNL A   1      46.262  30.806  35.581  1.00  0.00     0.049 A 
ATOM     58  H   UNL A   1      45.330  32.279  34.422  1.00  0.00     0.167 HD
ATOM     59  C   UNL A   1      48.954  27.778  29.179  1.00  0.00     0.031 A 
ATOM     60  C   UNL A   1      45.410  29.951  36.237  1.00  0.00     0.031 A 
ATOM     61  C   UNL A   1      49.341  27.468  30.610  1.00  0.00     0.049 A 
ATOM     62  C   UNL A   1      46.051  28.496  36.001  1.00  0.00     0.074 A 
ATOM     63  C   UNL A   1      50.406  27.921  31.382  1.00  0.00     0.029 A 
ATOM     64  N   UNL A   1      48.469  26.862  31.557  1.00  0.00    -0.354 N 
ATOM     65  N   UNL A   1      46.773  28.158  34.943  1.00  0.00    -0.248 NA
ATOM     66  C   UNL A   1      46.178  27.451  37.006  1.00  0.00     0.031 C 
ATOM     67  C   UNL A   1      50.125  27.691  32.772  1.00  0.00     0.029 A 
ATOM     68  C   UNL A   1      48.884  27.059  32.908  1.00  0.00     0.049 A 
ATOM     69  H   UNL A   1      47.660  26.358  31.307  1.00  0.00     0.167 HD
ATOM     70  C   UNL A   1      47.446  26.956  35.059  1.00  0.00     0.074 A 
ATOM     71  C   UNL A   1      47.036  26.580  36.420  1.00  0.00     0.031 C 
ATOM     72  C   UNL A   1      48.270  26.346  34.098  1.00  0.00     0.031 A 
BRANCH  59  73
ATOM     73  C   UNL A   1      49.854  27.723  27.940  1.00  0.00    -0.014 A 
ATOM     74  C   UNL A   1      49.713  26.770  26.919  1.00  0.00     0.010 A 
ATOM     75  C   UNL A   1      50.946  28.620  27.798  1.00  0.00     0.010 A 
ATOM     76  C   UNL A   1      50.668  26.647  25.883  1.00  0.00     0.020 A 
ATOM     77  C   UNL A   1      51.936  28.469  26.814  1.00  0.00     0.020 A 
ATOM     78  C   UNL A   1      51.791  27.477  25.853  1.00  0.00     0.054 A 
BRANCH  78  79
ATOM     79  S   UNL A   1      53.044  27.269  24.553  1.00  0.00     0.124 S 
ATOM     80  O   UNL A   1      54.246  27.829  25.166  1.00  0.00    -0.237 OA
ATOM     81  O   UNL A   1      53.052  25.822  24.359  1.00  0.00    -0.237 OA
ATOM     82  O   UNL A   1      52.515  28.040  23.430  1.00  0.00    -0.744 OA
ENDBRANCH  78  79
ENDBRANCH  59  73
BRANCH  60  83
ATOM     83  C   UNL A   1      43.959  30.513  36.282  1.00  0.00    -0.014 A 
ATOM     84  C   UNL A   1      43.862  31.896  36.601  1.00  0.00     0.010 A 
ATOM     85  C   UNL A   1      42.777  29.978  35.729  1.00  0.00     0.010 A 
ATOM     86  C   UNL A   1      42.772  32.726  36.293  1.00  0.00     0.020 A 
ATOM     87  C   UNL A   1      41.656  30.811  35.390  1.00  0.00     0.020 A 
ATOM     88  C   UNL A   1      41.670  32.184  35.665  1.00  0.00     0.054 A 
BRANCH  88  89
ATOM     89  S   UNL A   1      40.334  33.325  35.172  1.00  0.00     0.124 S 
ATOM     90  O   UNL A   1      39.164  32.450  35.207  1.00  0.00    -0.237 OA
ATOM     91  O   UNL A   1      40.366  34.353  36.214  1.00  0.00    -0.237 OA
ATOM     92  O   UNL A   1      40.740  33.779  33.851  1.00  0.00    -0.744 OA
ENDBRANCH  88  89
ENDBRANCH  60  83
BRANCH  72  93
ATOM     93  C   UNL A   1      48.722  24.878  34.180  1.00  0.00    -0.014 A 
ATOM     94  C   UNL A   1      47.890  23.812  34.535  1.00  0.00     0.010 A 
ATOM     95  C   UNL A   1      50.019  24.520  33.709  1.00  0.00     0.010 A 
ATOM     96  C   UNL A   1      48.328  22.482  34.461  1.00  0.00     0.020 A 
ATOM     97  C   UNL A   1      50.447  23.200  33.571  1.00  0.00     0.020 A 
ATOM     98  C   UNL A   1      49.598  22.183  33.968  1.00  0.00     0.054 A 
BRANCH  98  99
ATOM     99  S   UNL A   1      50.090  20.457  33.778  1.00  0.00     0.124 S 
ATOM    100  O   UNL A   1      50.124  20.003  35.165  1.00  0.00    -0.237 OA
ATOM    101  O   UNL A   1      49.008  19.907  32.963  1.00  0.00    -0.237 OA
ATOM    102  O   UNL A   1      51.386  20.535  33.109  1.00  0.00    -0.744 OA
ENDBRANCH  98  99
ENDBRANCH  72  93
ENDBRANCH  46  47
ENDBRANCH  39  41
ENDBRANCH  38  39
ENDBRANCH  37  38
ENDBRANCH  36  37
ENDBRANCH  35  36
ENDBRANCH  34  35
ENDBRANCH  33  34
ENDBRANCH  32  33
ENDBRANCH  31  32
ENDBRANCH   1  31
TORSDOF 30
ENDMDL
MODEL 3
REMARK VINA RESULT:      -9.1      4.724     10.138
REMARK SMILES Cc1cccc(NC(=O)CSc2nnc(CCC(=O)OCCOCCOCCOCCOC(=O)c3ccc(-c4c5nc(c(-c6ccc(S(=O)(=O)[O-])cc6)c6ccc([nH]6)c(-c6ccc(S(=O)(=O)[O-])cc6)c6nc(c(-c7ccc(S(=O)(=O)[O-])cc7)c7ccc4[nH]7)C=C6)C=C5)cc3)c(O)n2)c1
REMARK SMILES IDX 24 1 23 2 22 3 21 4 20 5 18 6 19 7 17 8 16 9 15 10 12 11
REMARK SMILES IDX 13 12 97 13 14 14 95 15 11 16 10 17 8 18 7 19 9 21 6 22 1 23
REMARK SMILES IDX 2 24 3 25 98 26 4 27 5 28 96 29 25 31 26 32 27 33 28 34
REMARK SMILES IDX 29 35 30 36 31 37 32 38 33 39 34 40 35 41 36 42 94 43 37 44
REMARK SMILES IDX 93 45 38 46 39 47 40 48 87 49 41 50 92 51 86 52 88 53 42 54
REMARK SMILES IDX 91 55 85 56 84 57 43 59 73 60 54 61 72 62 55 63 58 64 71 65
REMARK SMILES IDX 89 66 56 67 57 68 70 70 90 71 59 72 44 73 45 74 53 75 46 76
REMARK SMILES IDX 52 77 47 78 48 79 49 80 50 81 51 82 74 83 75 84 83 85 76 86
REMARK SMILES IDX 82 87 77 88 78 89 79 90 80 91 81 92 60 93 61 94 69 95 62 96
REMARK SMILES IDX 68 97 63 98 64 99 65 100 66 101 67 102
REMARK H PARENT 7 20 96 30 88 58 58 69
REMARK Flexibility Score: inf
ROOT
ATOM      1  C   UNL A   1      33.463  24.465  25.789  1.00  0.00     0.188 C 
ENDROOT
BRANCH   1   2
ATOM      2  O   UNL A   1      34.030  23.200  24.791  1.00  0.00    -0.376 OA
BRANCH   2   3
ATOM      3  C   UNL A   1      34.935  21.714  25.249  1.00  0.00     0.202 C 
BRANCH   3   4
ATOM      4  C   UNL A   1      36.720  21.213  25.056  1.00  0.00     0.261 C 
BRANCH   4   5
ATOM      5  O   UNL A   1      38.229  22.149  25.555  1.00  0.00    -0.463 OA
BRANCH   5   6
ATOM      6  C   UNL A   1      39.541  22.117  26.409  1.00  0.00     0.306 C 
ATOM      7  O   UNL A   1      39.703  22.936  27.325  1.00  0.00    -0.252 OA
BRANCH   6   8
ATOM      8  C   UNL A   1      40.960  21.123  26.082  1.00  0.00     0.129 C 
BRANCH   8   9
ATOM      9  C   UNL A   1      42.595  21.392  26.242  1.00  0.00     0.076 C 
BRANCH   9  10
ATOM     10  C   UNL A   1      43.415  22.692  25.979  1.00  0.00     0.126 A 
ATOM     11  C   UNL A   1      45.275  24.772  25.720  1.00  0.00     0.212 A 
ATOM     12  N   UNL A   1      44.523  24.671  26.824  1.00  0.00    -0.123 NA
ATOM     13  N   UNL A   1      44.913  24.098  24.618  1.00  0.00    -0.184 NA
ATOM     14  N   UNL A   1      43.541  23.634  26.932  1.00  0.00    -0.147 NA
ATOM     15  C   UNL A   1      44.020  23.080  24.798  1.00  0.00     0.237 A 
BRANCH  11  16
ATOM     16  S   UNL A   1      47.076  24.883  25.846  1.00  0.00    -0.074 SA
BRANCH  16  17
ATOM     17  C   UNL A   1      47.775  25.359  24.214  1.00  0.00     0.178 C 
BRANCH  17  18
ATOM     18  C   UNL A   1      47.895  26.883  24.218  1.00  0.00     0.234 C 
ATOM     19  N   UNL A   1      49.016  27.529  24.674  1.00  0.00    -0.325 N 
ATOM     20  H   UNL A   1      49.100  28.447  24.329  1.00  0.00     0.169 HD
ATOM     21  O   UNL A   1      47.020  27.578  23.684  1.00  0.00    -0.274 OA
BRANCH  19  22
ATOM     22  C   UNL A   1      50.071  27.161  25.529  1.00  0.00     0.041 A 
ATOM     23  C   UNL A   1      51.479  28.537  28.815  1.00  0.00     0.044 C 
ATOM     24  C   UNL A   1      51.244  27.647  27.628  1.00  0.00    -0.049 A 
ATOM     25  C   UNL A   1      51.979  26.470  27.477  1.00  0.00     0.003 A 
ATOM     26  C   UNL A   1      50.273  27.965  26.666  1.00  0.00     0.029 A 
ATOM     27  C   UNL A   1      51.771  25.654  26.363  1.00  0.00     0.002 A 
ATOM     28  C   UNL A   1      50.833  26.006  25.380  1.00  0.00     0.026 A 
ENDBRANCH  19  22
ENDBRANCH  17  18
ENDBRANCH  16  17
ENDBRANCH  11  16
BRANCH  15  29
ATOM     29  O   UNL A   1      43.736  22.507  23.604  1.00  0.00    -0.492 OA
ATOM     30  H   UNL A   1      44.239  22.731  22.847  1.00  0.00     0.295 HD
ENDBRANCH  15  29
ENDBRANCH   9  10
ENDBRANCH   8   9
ENDBRANCH   6   8
ENDBRANCH   5   6
ENDBRANCH   4   5
ENDBRANCH   3   4
ENDBRANCH   2   3
ENDBRANCH   1   2
BRANCH   1  31
ATOM     31  C   UNL A   1      34.014  25.873  25.673  1.00  0.00     0.188 C 
BRANCH  31  32
ATOM     32  O   UNL A   1      33.202  26.863  26.239  1.00  0.00    -0.377 OA
BRANCH  32  33
ATOM     33  C   UNL A   1      33.693  28.150  25.990  1.00  0.00     0.188 C 
BRANCH  33  34
ATOM     34  C   UNL A   1      34.236  28.730  27.282  1.00  0.00     0.188 C 
BRANCH  34  35
ATOM     35  O   UNL A   1      34.757  30.031  27.154  1.00  0.00    -0.376 OA
BRANCH  35  36
ATOM     36  C   UNL A   1      36.138  30.106  27.526  1.00  0.00     0.202 C 
BRANCH  36  37
ATOM     37  C   UNL A   1      36.571  31.046  28.746  1.00  0.00     0.261 C 
BRANCH  37  38
ATOM     38  O   UNL A   1      37.895  30.680  29.349  1.00  0.00    -0.460 OA
BRANCH  38  39
ATOM     39  C   UNL A   1      38.062  29.715  30.336  1.00  0.00     0.338 C 
ATOM     40  O   UNL A   1      37.975  28.527  30.148  1.00  0.00    -0.246 OA
BRANCH  39  41
ATOM     41  C   UNL A   1      38.397  30.326  31.727  1.00  0.00     0.060 A 
ATOM     42  C   UNL A   1      38.353  31.683  31.990  1.00  0.00     0.016 A 
ATOM     43  C   UNL A   1      38.881  29.599  32.810  1.00  0.00     0.016 A 
ATOM     44  C   UNL A   1      39.097  32.202  33.099  1.00  0.00     0.010 A 
ATOM     45  C   UNL A   1      39.883  30.166  33.680  1.00  0.00     0.010 A 
ATOM     46  C   UNL A   1      40.235  31.519  33.603  1.00  0.00    -0.014 A 
BRANCH  46  47
ATOM     47  C   UNL A   1      41.823  32.245  34.113  1.00  0.00     0.031 A 
ATOM     48  C   UNL A   1      41.078  33.128  35.341  1.00  0.00     0.074 A 
ATOM     49  C   UNL A   1      43.327  32.459  33.312  1.00  0.00     0.049 A 
ATOM     50  N   UNL A   1      40.803  34.406  35.267  1.00  0.00    -0.248 NA
ATOM     51  C   UNL A   1      40.414  32.554  36.522  1.00  0.00     0.031 C 
ATOM     52  C   UNL A   1      44.607  33.511  33.273  1.00  0.00     0.029 A 
ATOM     53  N   UNL A   1      43.922  31.910  31.987  1.00  0.00    -0.354 N 
ATOM     54  C   UNL A   1      40.487  34.835  36.504  1.00  0.00     0.074 A 
ATOM     55  C   UNL A   1      39.929  33.653  37.125  1.00  0.00     0.031 C 
ATOM     56  C   UNL A   1      45.423  33.498  32.217  1.00  0.00     0.029 A 
ATOM     57  C   UNL A   1      44.716  32.787  31.234  1.00  0.00     0.049 A 
ATOM     58  H   UNL A   1      43.750  30.986  31.690  1.00  0.00     0.167 HD
ATOM     59  C   UNL A   1      41.020  35.986  37.023  1.00  0.00     0.031 A 
ATOM     60  C   UNL A   1      44.370  33.348  30.029  1.00  0.00     0.031 A 
ATOM     61  C   UNL A   1      42.180  36.535  36.220  1.00  0.00     0.049 A 
ATOM     62  C   UNL A   1      44.173  34.909  30.361  1.00  0.00     0.074 A 
ATOM     63  C   UNL A   1      43.546  36.548  36.488  1.00  0.00     0.029 A 
ATOM     64  N   UNL A   1      42.102  36.882  34.842  1.00  0.00    -0.354 N 
ATOM     65  N   UNL A   1      43.790  35.381  31.538  1.00  0.00    -0.248 NA
ATOM     66  C   UNL A   1      44.643  36.016  29.543  1.00  0.00     0.031 C 
ATOM     67  C   UNL A   1      44.273  36.788  35.273  1.00  0.00     0.029 A 
ATOM     68  C   UNL A   1      43.380  36.960  34.210  1.00  0.00     0.049 A 
ATOM     69  H   UNL A   1      41.254  37.050  34.371  1.00  0.00     0.167 HD
ATOM     70  C   UNL A   1      43.938  36.747  31.690  1.00  0.00     0.074 A 
ATOM     71  C   UNL A   1      44.517  37.076  30.380  1.00  0.00     0.031 C 
ATOM     72  C   UNL A   1      43.605  37.518  32.817  1.00  0.00     0.031 A 
BRANCH  59  73
ATOM     73  C   UNL A   1      40.709  36.240  38.501  1.00  0.00    -0.014 A 
ATOM     74  C   UNL A   1      39.788  37.202  38.948  1.00  0.00     0.010 A 
ATOM     75  C   UNL A   1      41.409  35.539  39.519  1.00  0.00     0.010 A 
ATOM     76  C   UNL A   1      39.659  37.523  40.319  1.00  0.00     0.020 A 
ATOM     77  C   UNL A   1      41.340  35.891  40.876  1.00  0.00     0.020 A 
ATOM     78  C   UNL A   1      40.458  36.888  41.273  1.00  0.00     0.054 A 
BRANCH  78  79
ATOM     79  S   UNL A   1      40.328  37.353  43.026  1.00  0.00     0.124 S 
ATOM     80  O   UNL A   1      39.511  38.565  42.981  1.00  0.00    -0.237 OA
ATOM     81  O   UNL A   1      39.683  36.182  43.611  1.00  0.00    -0.237 OA
ATOM     82  O   UNL A   1      41.715  37.566  43.436  1.00  0.00    -0.744 OA
ENDBRANCH  78  79
ENDBRANCH  59  73
BRANCH  60  83
ATOM     83  C   UNL A   1      43.641  32.324  29.111  1.00  0.00    -0.014 A 
ATOM     84  C   UNL A   1      44.217  32.161  27.820  1.00  0.00     0.010 A 
ATOM     85  C   UNL A   1      42.737  31.298  29.458  1.00  0.00     0.010 A 
ATOM     86  C   UNL A   1      44.044  31.043  26.990  1.00  0.00     0.020 A 
ATOM     87  C   UNL A   1      42.557  30.137  28.632  1.00  0.00     0.020 A 
ATOM     88  C   UNL A   1      43.224  30.014  27.407  1.00  0.00     0.054 A 
BRANCH  88  89
ATOM     89  S   UNL A   1      43.132  28.528  26.352  1.00  0.00     0.124 S 
ATOM     90  O   UNL A   1      42.202  28.957  25.310  1.00  0.00    -0.237 OA
ATOM     91  O   UNL A   1      44.515  28.344  25.907  1.00  0.00    -0.237 OA
ATOM     92  O   UNL A   1      42.637  27.498  27.252  1.00  0.00    -0.744 OA
ENDBRANCH  88  89
ENDBRANCH  60  83
BRANCH  72  93
ATOM     93  C   UNL A   1      43.506  39.052  32.794  1.00  0.00    -0.014 A 
ATOM     94  C   UNL A   1      43.836  39.884  33.869  1.00  0.00     0.010 A 
ATOM     95  C   UNL A   1      43.226  39.715  31.563  1.00  0.00     0.010 A 
ATOM     96  C   UNL A   1      43.852  41.280  33.739  1.00  0.00     0.020 A 
ATOM     97  C   UNL A   1      43.299  41.098  31.403  1.00  0.00     0.020 A 
ATOM     98  C   UNL A   1      43.596  41.878  32.505  1.00  0.00     0.054 A 
BRANCH  98  99
ATOM     99  S   UNL A   1      43.736  43.671  32.344  1.00  0.00     0.124 S 
ATOM    100  O   UNL A   1      42.653  43.971  31.413  1.00  0.00    -0.237 OA
ATOM    101  O   UNL A   1      43.530  44.129  33.717  1.00  0.00    -0.237 OA
ATOM    102  O   UNL A   1      45.086  43.870  31.824  1.00  0.00    -0.744 OA
ENDBRANCH  98  99
ENDBRANCH  72  93
ENDBRANCH  46  47
ENDBRANCH  39  41
ENDBRANCH  38  39
ENDBRANCH  37  38
ENDBRANCH  36  37
ENDBRANCH  35  36
ENDBRANCH  34  35
ENDBRANCH  33  34
ENDBRANCH  32  33
ENDBRANCH  31  32
ENDBRANCH   1  31
TORSDOF 30
ENDMDL
