MODEL 1
REMARK VINA RESULT:     -10.1      0.000      0.000
REMARK SMILES CC1(C)[C@@](C)(C(=O)Nc2ccc(Cl)cc2Cl)CC[C@]1(C)C(=O)OCCOCCOCCOCCOC(=O)c1ccc(-c2c3nc(c(-c4ccc(S(=O)(=O)[O-])cc4)c4ccc([nH]4)c(-c4ccc(S(=O)(=O)[O-])cc4)c4nc(c(-c5ccc(S(=O)(=O)[O-])cc5)c5ccc2[nH]5)C=C4)C=C3)cc1
REMARK SMILES IDX 30 1 29 2 28 3 27 4 26 5 25 6 24 7 23 8 21 9 22 10 19 11
REMARK SMILES IDX 1 12 2 13 3 14 4 15 5 16 17 17 18 18 20 19 6 20 7 21 8 22
REMARK SMILES IDX 9 24 10 25 15 26 11 27 14 28 16 29 12 30 13 31 31 32 32 33
REMARK SMILES IDX 33 34 34 35 35 36 36 37 37 38 38 39 39 40 97 41 40 42 96 43
REMARK SMILES IDX 41 44 42 45 43 46 90 47 44 48 95 49 89 50 91 51 45 52 94 53
REMARK SMILES IDX 88 54 87 55 46 57 76 58 57 59 75 60 58 61 61 62 74 63 92 64
REMARK SMILES IDX 59 65 60 66 73 68 93 69 62 70 47 71 48 72 56 73 49 74 55 75
REMARK SMILES IDX 50 76 51 77 52 78 53 79 54 80 77 81 78 82 86 83 79 84 85 85
REMARK SMILES IDX 80 86 81 87 82 88 83 89 84 90 63 91 64 92 72 93 65 94 71 95
REMARK SMILES IDX 66 96 67 97 68 98 69 99 70 100
REMARK H PARENT 8 23 91 56 61 67
REMARK Flexibility Score: inf
ROOT
ATOM      1  C   UNL A   1      36.379  21.188  25.242  1.00  0.00     0.188 C 
ENDROOT
BRANCH   1   2
ATOM      2  O   UNL A   1      35.514  22.203  25.729  1.00  0.00    -0.377 OA
BRANCH   2   3
ATOM      3  C   UNL A   1      34.808  22.072  26.944  1.00  0.00     0.188 C 
BRANCH   3   4
ATOM      4  C   UNL A   1      33.554  21.215  26.783  1.00  0.00     0.188 C 
BRANCH   4   5
ATOM      5  O   UNL A   1      32.604  21.642  25.819  1.00  0.00    -0.376 OA
BRANCH   5   6
ATOM      6  C   UNL A   1      32.293  20.763  24.734  1.00  0.00     0.202 C 
BRANCH   6   7
ATOM      7  C   UNL A   1      32.508  21.207  23.269  1.00  0.00     0.261 C 
BRANCH   7   8
ATOM      8  O   UNL A   1      31.891  22.454  22.844  1.00  0.00    -0.463 OA
BRANCH   8   9
ATOM      9  C   UNL A   1      32.717  23.517  22.696  1.00  0.00     0.312 C 
ATOM     10  O   UNL A   1      33.898  23.398  22.368  1.00  0.00    -0.252 OA
BRANCH   9  11
ATOM     11  C   UNL A   1      32.130  24.923  23.006  1.00  0.00     0.071 C 
ATOM     12  C   UNL A   1      33.914  26.573  23.690  1.00  0.00     0.013 C 
ATOM     13  C   UNL A   1      32.649  25.839  24.215  1.00  0.00    -0.005 C 
ATOM     14  C   UNL A   1      33.099  25.067  25.457  1.00  0.00     0.013 C 
ATOM     15  C   UNL A   1      31.363  26.713  24.671  1.00  0.00     0.053 C 
ATOM     16  C   UNL A   1      31.008  26.933  26.184  1.00  0.00     0.022 C 
ATOM     17  C   UNL A   1      30.171  25.777  24.256  1.00  0.00     0.018 C 
ATOM     18  C   UNL A   1      30.641  24.703  23.301  1.00  0.00     0.020 C 
ATOM     19  C   UNL A   1      32.231  25.646  21.632  1.00  0.00     0.024 C 
BRANCH  15  20
ATOM     20  C   UNL A   1      31.238  28.107  24.000  1.00  0.00     0.230 C 
ATOM     21  O   UNL A   1      30.573  28.232  22.962  1.00  0.00    -0.274 OA
ATOM     22  N   UNL A   1      31.749  29.273  24.510  1.00  0.00    -0.324 N 
ATOM     23  H   UNL A   1      31.408  30.058  24.024  1.00  0.00     0.170 HD
BRANCH  22  24
ATOM     24  C   UNL A   1      32.637  29.655  25.548  1.00  0.00     0.060 A 
ATOM     25  C   UNL A   1      33.809  28.976  25.851  1.00  0.00     0.029 A 
ATOM     26  C   UNL A   1      32.370  30.802  26.317  1.00  0.00     0.066 A 
ATOM     27  C   UNL A   1      34.711  29.394  26.828  1.00  0.00     0.023 A 
ATOM     28  C   UNL A   1      33.248  31.224  27.330  1.00  0.00     0.043 A 
ATOM     29  Cl  UNL A   1      30.914  31.708  26.083  1.00  0.00    -0.082 Cl
ATOM     30  C   UNL A   1      34.424  30.521  27.570  1.00  0.00     0.042 A 
ATOM     31  Cl  UNL A   1      35.516  31.022  28.797  1.00  0.00    -0.084 Cl
ENDBRANCH  22  24
ENDBRANCH  15  20
ENDBRANCH   9  11
ENDBRANCH   8   9
ENDBRANCH   7   8
ENDBRANCH   6   7
ENDBRANCH   5   6
ENDBRANCH   4   5
ENDBRANCH   3   4
ENDBRANCH   2   3
ENDBRANCH   1   2
BRANCH   1  32
ATOM     32  C   UNL A   1      37.876  21.440  25.329  1.00  0.00     0.188 C 
BRANCH  32  33
ATOM     33  O   UNL A   1      38.289  22.594  26.067  1.00  0.00    -0.376 OA
BRANCH  33  34
ATOM     34  C   UNL A   1      39.640  22.674  26.517  1.00  0.00     0.202 C 
BRANCH  34  35
ATOM     35  C   UNL A   1      39.943  23.827  27.474  1.00  0.00     0.261 C 
BRANCH  35  36
ATOM     36  O   UNL A   1      39.312  25.052  27.068  1.00  0.00    -0.460 OA
BRANCH  36  37
ATOM     37  C   UNL A   1      40.138  26.113  26.935  1.00  0.00     0.338 C 
ATOM     38  O   UNL A   1      40.819  26.408  25.960  1.00  0.00    -0.246 OA
BRANCH  37  39
ATOM     39  C   UNL A   1      40.002  26.981  28.112  1.00  0.00     0.060 A 
ATOM     40  C   UNL A   1      40.817  28.116  28.216  1.00  0.00     0.016 A 
ATOM     41  C   UNL A   1      39.133  26.627  29.146  1.00  0.00     0.016 A 
ATOM     42  C   UNL A   1      40.792  28.884  29.377  1.00  0.00     0.010 A 
ATOM     43  C   UNL A   1      39.117  27.392  30.312  1.00  0.00     0.010 A 
ATOM     44  C   UNL A   1      39.970  28.502  30.444  1.00  0.00    -0.014 A 
BRANCH  44  45
ATOM     45  C   UNL A   1      40.100  29.159  31.762  1.00  0.00     0.031 A 
ATOM     46  C   UNL A   1      39.112  30.229  32.134  1.00  0.00     0.074 A 
ATOM     47  C   UNL A   1      41.100  28.825  32.596  1.00  0.00     0.049 A 
ATOM     48  N   UNL A   1      39.107  31.026  33.169  1.00  0.00    -0.248 NA
ATOM     49  C   UNL A   1      37.984  30.431  31.210  1.00  0.00     0.031 C 
ATOM     50  C   UNL A   1      42.081  27.766  32.360  1.00  0.00     0.029 A 
ATOM     51  N   UNL A   1      41.465  29.361  33.805  1.00  0.00    -0.354 N 
ATOM     52  C   UNL A   1      37.989  31.838  33.013  1.00  0.00     0.074 A 
ATOM     53  C   UNL A   1      37.354  31.452  31.772  1.00  0.00     0.031 C 
ATOM     54  C   UNL A   1      42.951  27.744  33.383  1.00  0.00     0.029 A 
ATOM     55  C   UNL A   1      42.616  28.815  34.319  1.00  0.00     0.049 A 
ATOM     56  H   UNL A   1      40.953  30.068  34.259  1.00  0.00     0.167 HD
ATOM     57  C   UNL A   1      37.538  32.817  33.831  1.00  0.00     0.031 A 
ATOM     58  C   UNL A   1      43.336  29.167  35.403  1.00  0.00     0.031 A 
ATOM     59  C   UNL A   1      38.192  33.201  35.053  1.00  0.00     0.049 A 
ATOM     60  C   UNL A   1      42.863  30.319  36.251  1.00  0.00     0.074 A 
ATOM     61  C   UNL A   1      37.811  34.168  35.965  1.00  0.00     0.029 A 
ATOM     62  N   UNL A   1      39.370  32.643  35.528  1.00  0.00    -0.354 N 
ATOM     63  N   UNL A   1      41.793  31.065  36.106  1.00  0.00    -0.248 NA
ATOM     64  C   UNL A   1      43.694  30.676  37.409  1.00  0.00     0.031 C 
ATOM     65  C   UNL A   1      38.796  34.243  36.956  1.00  0.00     0.029 A 
ATOM     66  C   UNL A   1      39.751  33.270  36.701  1.00  0.00     0.049 A 
ATOM     67  H   UNL A   1      39.863  31.909  35.094  1.00  0.00     0.167 HD
ATOM     68  C   UNL A   1      41.807  31.961  37.171  1.00  0.00     0.074 A 
ATOM     69  C   UNL A   1      42.984  31.652  37.958  1.00  0.00     0.031 C 
ATOM     70  C   UNL A   1      40.928  32.948  37.471  1.00  0.00     0.031 A 
BRANCH  57  71
ATOM     71  C   UNL A   1      36.303  33.569  33.407  1.00  0.00    -0.014 A 
ATOM     72  C   UNL A   1      35.015  33.118  33.747  1.00  0.00     0.010 A 
ATOM     73  C   UNL A   1      36.436  34.771  32.687  1.00  0.00     0.010 A 
ATOM     74  C   UNL A   1      33.884  33.834  33.344  1.00  0.00     0.020 A 
ATOM     75  C   UNL A   1      35.309  35.506  32.309  1.00  0.00     0.020 A 
ATOM     76  C   UNL A   1      34.039  35.024  32.627  1.00  0.00     0.054 A 
BRANCH  76  77
ATOM     77  S   UNL A   1      32.554  35.944  32.140  1.00  0.00     0.124 S 
ATOM     78  O   UNL A   1      31.487  35.071  32.621  1.00  0.00    -0.237 OA
ATOM     79  O   UNL A   1      32.709  37.204  32.864  1.00  0.00    -0.237 OA
ATOM     80  O   UNL A   1      32.668  36.045  30.687  1.00  0.00    -0.744 OA
ENDBRANCH  76  77
ENDBRANCH  57  71
BRANCH  58  81
ATOM     81  C   UNL A   1      44.594  28.440  35.727  1.00  0.00    -0.014 A 
ATOM     82  C   UNL A   1      45.825  28.871  35.203  1.00  0.00     0.010 A 
ATOM     83  C   UNL A   1      44.567  27.312  36.569  1.00  0.00     0.010 A 
ATOM     84  C   UNL A   1      47.003  28.180  35.504  1.00  0.00     0.020 A 
ATOM     85  C   UNL A   1      45.746  26.638  36.897  1.00  0.00     0.020 A 
ATOM     86  C   UNL A   1      46.957  27.071  36.354  1.00  0.00     0.054 A 
BRANCH  86  87
ATOM     87  S   UNL A   1      48.507  26.226  36.772  1.00  0.00     0.124 S 
ATOM     88  O   UNL A   1      48.312  24.915  36.163  1.00  0.00    -0.237 OA
ATOM     89  O   UNL A   1      49.509  27.080  36.137  1.00  0.00    -0.237 OA
ATOM     90  O   UNL A   1      48.521  26.244  38.234  1.00  0.00    -0.744 OA
ENDBRANCH  86  87
ENDBRANCH  58  81
BRANCH  70  91
ATOM     91  C   UNL A   1      41.178  33.749  38.723  1.00  0.00    -0.014 A 
ATOM     92  C   UNL A   1      40.702  33.318  39.973  1.00  0.00     0.010 A 
ATOM     93  C   UNL A   1      41.967  34.913  38.654  1.00  0.00     0.010 A 
ATOM     94  C   UNL A   1      40.990  34.050  41.128  1.00  0.00     0.020 A 
ATOM     95  C   UNL A   1      42.284  35.628  39.810  1.00  0.00     0.020 A 
ATOM     96  C   UNL A   1      41.785  35.197  41.040  1.00  0.00     0.054 A 
BRANCH  96  97
ATOM     97  S   UNL A   1      42.194  36.092  42.563  1.00  0.00     0.124 S 
ATOM     98  O   UNL A   1      43.648  35.967  42.609  1.00  0.00    -0.237 OA
ATOM     99  O   UNL A   1      41.686  37.434  42.290  1.00  0.00    -0.237 OA
ATOM    100  O   UNL A   1      41.472  35.359  43.601  1.00  0.00    -0.744 OA
ENDBRANCH  96  97
ENDBRANCH  70  91
ENDBRANCH  44  45
ENDBRANCH  37  39
ENDBRANCH  36  37
ENDBRANCH  35  36
ENDBRANCH  34  35
ENDBRANCH  33  34
ENDBRANCH  32  33
ENDBRANCH   1  32
TORSDOF 25
ENDMDL
MODEL 2
REMARK VINA RESULT:      -9.9      0.743      7.768
REMARK SMILES CC1(C)[C@@](C)(C(=O)Nc2ccc(Cl)cc2Cl)CC[C@]1(C)C(=O)OCCOCCOCCOCCOC(=O)c1ccc(-c2c3nc(c(-c4ccc(S(=O)(=O)[O-])cc4)c4ccc([nH]4)c(-c4ccc(S(=O)(=O)[O-])cc4)c4nc(c(-c5ccc(S(=O)(=O)[O-])cc5)c5ccc2[nH]5)C=C4)C=C3)cc1
REMARK SMILES IDX 30 1 29 2 28 3 27 4 26 5 25 6 24 7 23 8 21 9 22 10 19 11
REMARK SMILES IDX 1 12 2 13 3 14 4 15 5 16 17 17 18 18 20 19 6 20 7 21 8 22
REMARK SMILES IDX 9 24 10 25 15 26 11 27 14 28 16 29 12 30 13 31 31 32 32 33
REMARK SMILES IDX 33 34 34 35 35 36 36 37 37 38 38 39 39 40 97 41 40 42 96 43
REMARK SMILES IDX 41 44 42 45 43 46 90 47 44 48 95 49 89 50 91 51 45 52 94 53
REMARK SMILES IDX 88 54 87 55 46 57 76 58 57 59 75 60 58 61 61 62 74 63 92 64
REMARK SMILES IDX 59 65 60 66 73 68 93 69 62 70 47 71 48 72 56 73 49 74 55 75
REMARK SMILES IDX 50 76 51 77 52 78 53 79 54 80 77 81 78 82 86 83 79 84 85 85
REMARK SMILES IDX 80 86 81 87 82 88 83 89 84 90 63 91 64 92 72 93 65 94 71 95
REMARK SMILES IDX 66 96 67 97 68 98 69 99 70 100
REMARK H PARENT 8 23 91 56 61 67
REMARK Flexibility Score: inf
ROOT
ATOM      1  C   UNL A   1      36.777  21.448  24.596  1.00  0.00     0.188 C 
ENDROOT
BRANCH   1   2
ATOM      2  O   UNL A   1      35.951  20.508  25.266  1.00  0.00    -0.377 OA
BRANCH   2   3
ATOM      3  C   UNL A   1      35.783  19.186  24.801  1.00  0.00     0.188 C 
BRANCH   3   4
ATOM      4  C   UNL A   1      34.312  18.856  24.549  1.00  0.00     0.188 C 
BRANCH   4   5
ATOM      5  O   UNL A   1      33.359  19.491  25.387  1.00  0.00    -0.376 OA
BRANCH   5   6
ATOM      6  C   UNL A   1      32.440  20.414  24.795  1.00  0.00     0.202 C 
BRANCH   6   7
ATOM      7  C   UNL A   1      32.853  21.269  23.575  1.00  0.00     0.261 C 
BRANCH   7   8
ATOM      8  O   UNL A   1      32.040  22.435  23.263  1.00  0.00    -0.463 OA
BRANCH   8   9
ATOM      9  C   UNL A   1      32.685  23.488  22.708  1.00  0.00     0.312 C 
ATOM     10  O   UNL A   1      33.720  23.362  22.051  1.00  0.00    -0.252 OA
BRANCH   9  11
ATOM     11  C   UNL A   1      32.094  24.903  22.968  1.00  0.00     0.071 C 
ATOM     12  C   UNL A   1      33.856  26.555  23.703  1.00  0.00     0.013 C 
ATOM     13  C   UNL A   1      32.565  25.836  24.184  1.00  0.00    -0.005 C 
ATOM     14  C   UNL A   1      32.954  25.082  25.457  1.00  0.00     0.013 C 
ATOM     15  C   UNL A   1      31.265  26.724  24.568  1.00  0.00     0.053 C 
ATOM     16  C   UNL A   1      30.844  26.971  26.059  1.00  0.00     0.022 C 
ATOM     17  C   UNL A   1      30.086  25.788  24.116  1.00  0.00     0.018 C 
ATOM     18  C   UNL A   1      30.592  24.696  23.201  1.00  0.00     0.020 C 
ATOM     19  C   UNL A   1      32.259  25.602  21.588  1.00  0.00     0.024 C 
BRANCH  15  20
ATOM     20  C   UNL A   1      31.177  28.108  23.869  1.00  0.00     0.230 C 
ATOM     21  O   UNL A   1      30.557  28.220  22.802  1.00  0.00    -0.274 OA
ATOM     22  N   UNL A   1      31.676  29.278  24.380  1.00  0.00    -0.324 N 
ATOM     23  H   UNL A   1      31.361  30.058  23.868  1.00  0.00     0.170 HD
BRANCH  22  24
ATOM     24  C   UNL A   1      32.523  29.672  25.448  1.00  0.00     0.060 A 
ATOM     25  C   UNL A   1      33.689  29.005  25.796  1.00  0.00     0.029 A 
ATOM     26  C   UNL A   1      32.218  30.820  26.202  1.00  0.00     0.066 A 
ATOM     27  C   UNL A   1      34.552  29.434  26.802  1.00  0.00     0.023 A 
ATOM     28  C   UNL A   1      33.056  31.254  27.244  1.00  0.00     0.043 A 
ATOM     29  Cl  UNL A   1      30.765  31.713  25.912  1.00  0.00    -0.082 Cl
ATOM     30  C   UNL A   1      34.229  30.562  27.529  1.00  0.00     0.042 A 
ATOM     31  Cl  UNL A   1      35.271  31.077  28.792  1.00  0.00    -0.084 Cl
ENDBRANCH  22  24
ENDBRANCH  15  20
ENDBRANCH   9  11
ENDBRANCH   8   9
ENDBRANCH   7   8
ENDBRANCH   6   7
ENDBRANCH   5   6
ENDBRANCH   4   5
ENDBRANCH   3   4
ENDBRANCH   2   3
ENDBRANCH   1   2
BRANCH   1  32
ATOM     32  C   UNL A   1      37.755  22.251  25.441  1.00  0.00     0.188 C 
BRANCH  32  33
ATOM     33  O   UNL A   1      38.927  21.564  25.889  1.00  0.00    -0.376 OA
BRANCH  33  34
ATOM     34  C   UNL A   1      39.918  22.295  26.609  1.00  0.00     0.202 C 
BRANCH  34  35
ATOM     35  C   UNL A   1      39.424  23.573  27.287  1.00  0.00     0.261 C 
BRANCH  35  36
ATOM     36  O   UNL A   1      40.506  24.438  27.670  1.00  0.00    -0.460 OA
BRANCH  36  37
ATOM     37  C   UNL A   1      40.524  25.645  27.063  1.00  0.00     0.338 C 
ATOM     38  O   UNL A   1      40.550  25.872  25.860  1.00  0.00    -0.246 OA
BRANCH  37  39
ATOM     39  C   UNL A   1      40.362  26.697  28.076  1.00  0.00     0.060 A 
ATOM     40  C   UNL A   1      41.181  27.833  28.011  1.00  0.00     0.016 A 
ATOM     41  C   UNL A   1      39.465  26.521  29.131  1.00  0.00     0.016 A 
ATOM     42  C   UNL A   1      41.129  28.783  29.027  1.00  0.00     0.010 A 
ATOM     43  C   UNL A   1      39.424  27.469  30.152  1.00  0.00     0.010 A 
ATOM     44  C   UNL A   1      40.278  28.585  30.121  1.00  0.00    -0.014 A 
BRANCH  44  45
ATOM     45  C   UNL A   1      40.378  29.451  31.314  1.00  0.00     0.031 A 
ATOM     46  C   UNL A   1      41.496  29.208  32.289  1.00  0.00     0.074 A 
ATOM     47  C   UNL A   1      39.470  30.416  31.536  1.00  0.00     0.049 A 
ATOM     48  N   UNL A   1      41.706  29.749  33.459  1.00  0.00    -0.248 NA
ATOM     49  C   UNL A   1      42.508  28.214  31.893  1.00  0.00     0.031 C 
ATOM     50  C   UNL A   1      38.377  30.774  30.632  1.00  0.00     0.029 A 
ATOM     51  N   UNL A   1      39.313  31.260  32.606  1.00  0.00    -0.354 N 
ATOM     52  C   UNL A   1      42.860  29.150  33.950  1.00  0.00     0.074 A 
ATOM     53  C   UNL A   1      43.293  28.188  32.961  1.00  0.00     0.031 C 
ATOM     54  C   UNL A   1      37.649  31.752  31.195  1.00  0.00     0.029 A 
ATOM     55  C   UNL A   1      38.195  32.054  32.517  1.00  0.00     0.049 A 
ATOM     56  H   UNL A   1      39.940  31.293  33.364  1.00  0.00     0.167 HD
ATOM     57  C   UNL A   1      43.498  29.381  35.121  1.00  0.00     0.031 A 
ATOM     58  C   UNL A   1      37.655  32.900  33.417  1.00  0.00     0.031 A 
ATOM     59  C   UNL A   1      43.044  30.330  36.103  1.00  0.00     0.049 A 
ATOM     60  C   UNL A   1      38.333  33.076  34.751  1.00  0.00     0.074 A 
ATOM     61  C   UNL A   1      43.623  30.655  37.316  1.00  0.00     0.029 A 
ATOM     62  N   UNL A   1      41.893  31.096  35.989  1.00  0.00    -0.354 N 
ATOM     63  N   UNL A   1      39.437  32.520  35.195  1.00  0.00    -0.248 NA
ATOM     64  C   UNL A   1      37.694  33.992  35.704  1.00  0.00     0.031 C 
ATOM     65  C   UNL A   1      42.785  31.568  37.966  1.00  0.00     0.029 A 
ATOM     66  C   UNL A   1      41.724  31.867  37.126  1.00  0.00     0.049 A 
ATOM     67  H   UNL A   1      41.286  31.092  35.214  1.00  0.00     0.167 HD
ATOM     68  C   UNL A   1      39.639  33.044  36.469  1.00  0.00     0.074 A 
ATOM     69  C   UNL A   1      38.552  33.969  36.715  1.00  0.00     0.031 C 
ATOM     70  C   UNL A   1      40.633  32.783  37.353  1.00  0.00     0.031 A 
BRANCH  57  71
ATOM     71  C   UNL A   1      44.729  28.566  35.421  1.00  0.00    -0.014 A 
ATOM     72  C   UNL A   1      46.016  29.034  35.102  1.00  0.00     0.010 A 
ATOM     73  C   UNL A   1      44.596  27.324  36.070  1.00  0.00     0.010 A 
ATOM     74  C   UNL A   1      47.143  28.260  35.392  1.00  0.00     0.020 A 
ATOM     75  C   UNL A   1      45.722  26.560  36.390  1.00  0.00     0.020 A 
ATOM     76  C   UNL A   1      46.989  27.027  36.035  1.00  0.00     0.054 A 
BRANCH  76  77
ATOM     77  S   UNL A   1      48.471  26.056  36.421  1.00  0.00     0.124 S 
ATOM     78  O   UNL A   1      48.061  24.711  36.029  1.00  0.00    -0.237 OA
ATOM     79  O   UNL A   1      49.487  26.675  35.573  1.00  0.00    -0.237 OA
ATOM     80  O   UNL A   1      48.654  26.258  37.856  1.00  0.00    -0.744 OA
ENDBRANCH  76  77
ENDBRANCH  57  71
BRANCH  58  81
ATOM     81  C   UNL A   1      36.391  33.618  33.097  1.00  0.00    -0.014 A 
ATOM     82  C   UNL A   1      35.148  32.980  33.249  1.00  0.00     0.010 A 
ATOM     83  C   UNL A   1      36.425  34.949  32.642  1.00  0.00     0.010 A 
ATOM     84  C   UNL A   1      33.963  33.656  32.940  1.00  0.00     0.020 A 
ATOM     85  C   UNL A   1      35.242  35.638  32.362  1.00  0.00     0.020 A 
ATOM     86  C   UNL A   1      34.018  34.982  32.503  1.00  0.00     0.054 A 
BRANCH  86  87
ATOM     87  S   UNL A   1      32.464  35.854  32.161  1.00  0.00     0.124 S 
ATOM     88  O   UNL A   1      31.485  35.001  32.825  1.00  0.00    -0.237 OA
ATOM     89  O   UNL A   1      32.695  37.157  32.780  1.00  0.00    -0.237 OA
ATOM     90  O   UNL A   1      32.395  35.869  30.701  1.00  0.00    -0.744 OA
ENDBRANCH  86  87
ENDBRANCH  58  81
BRANCH  70  91
ATOM     91  C   UNL A   1      40.619  33.533  38.660  1.00  0.00    -0.014 A 
ATOM     92  C   UNL A   1      39.936  33.032  39.782  1.00  0.00     0.010 A 
ATOM     93  C   UNL A   1      41.363  34.722  38.785  1.00  0.00     0.010 A 
ATOM     94  C   UNL A   1      39.980  33.718  40.999  1.00  0.00     0.020 A 
ATOM     95  C   UNL A   1      41.435  35.392  40.007  1.00  0.00     0.020 A 
ATOM     96  C   UNL A   1      40.733  34.891  41.105  1.00  0.00     0.054 A 
BRANCH  96  97
ATOM     97  S   UNL A   1      40.821  35.727  42.712  1.00  0.00     0.124 S 
ATOM     98  O   UNL A   1      41.903  35.003  43.374  1.00  0.00    -0.237 OA
ATOM     99  O   UNL A   1      41.124  37.106  42.337  1.00  0.00    -0.237 OA
ATOM    100  O   UNL A   1      39.492  35.521  43.284  1.00  0.00    -0.744 OA
ENDBRANCH  96  97
ENDBRANCH  70  91
ENDBRANCH  44  45
ENDBRANCH  37  39
ENDBRANCH  36  37
ENDBRANCH  35  36
ENDBRANCH  34  35
ENDBRANCH  33  34
ENDBRANCH  32  33
ENDBRANCH   1  32
TORSDOF 25
ENDMDL
MODEL 3
REMARK VINA RESULT:      -9.1      6.383      8.511
REMARK SMILES CC1(C)[C@@](C)(C(=O)Nc2ccc(Cl)cc2Cl)CC[C@]1(C)C(=O)OCCOCCOCCOCCOC(=O)c1ccc(-c2c3nc(c(-c4ccc(S(=O)(=O)[O-])cc4)c4ccc([nH]4)c(-c4ccc(S(=O)(=O)[O-])cc4)c4nc(c(-c5ccc(S(=O)(=O)[O-])cc5)c5ccc2[nH]5)C=C4)C=C3)cc1
REMARK SMILES IDX 30 1 29 2 28 3 27 4 26 5 25 6 24 7 23 8 21 9 22 10 19 11
REMARK SMILES IDX 1 12 2 13 3 14 4 15 5 16 17 17 18 18 20 19 6 20 7 21 8 22
REMARK SMILES IDX 9 24 10 25 15 26 11 27 14 28 16 29 12 30 13 31 31 32 32 33
REMARK SMILES IDX 33 34 34 35 35 36 36 37 37 38 38 39 39 40 97 41 40 42 96 43
REMARK SMILES IDX 41 44 42 45 43 46 90 47 44 48 95 49 89 50 91 51 45 52 94 53
REMARK SMILES IDX 88 54 87 55 46 57 76 58 57 59 75 60 58 61 61 62 74 63 92 64
REMARK SMILES IDX 59 65 60 66 73 68 93 69 62 70 47 71 48 72 56 73 49 74 55 75
REMARK SMILES IDX 50 76 51 77 52 78 53 79 54 80 77 81 78 82 86 83 79 84 85 85
REMARK SMILES IDX 80 86 81 87 82 88 83 89 84 90 63 91 64 92 72 93 65 94 71 95
REMARK SMILES IDX 66 96 67 97 68 98 69 99 70 100
REMARK H PARENT 8 23 91 56 61 67
REMARK Flexibility Score: inf
ROOT
ATOM      1  C   UNL A   1      35.131  21.487  25.126  1.00  0.00     0.188 C 
ENDROOT
BRANCH   1   2
ATOM      2  O   UNL A   1      34.405  20.306  25.434  1.00  0.00    -0.377 OA
BRANCH   2   3
ATOM      3  C   UNL A   1      34.548  19.117  24.688  1.00  0.00     0.188 C 
BRANCH   3   4
ATOM      4  C   UNL A   1      33.197  18.565  24.236  1.00  0.00     0.188 C 
BRANCH   4   5
ATOM      5  O   UNL A   1      32.136  19.497  24.100  1.00  0.00    -0.376 OA
BRANCH   5   6
ATOM      6  C   UNL A   1      32.073  20.287  22.909  1.00  0.00     0.202 C 
BRANCH   6   7
ATOM      7  C   UNL A   1      32.429  21.791  22.937  1.00  0.00     0.261 C 
BRANCH   7   8
ATOM      8  O   UNL A   1      31.481  22.697  23.569  1.00  0.00    -0.463 OA
BRANCH   8   9
ATOM      9  C   UNL A   1      31.720  23.012  24.864  1.00  0.00     0.312 C 
ATOM     10  O   UNL A   1      31.592  22.198  25.780  1.00  0.00    -0.252 OA
BRANCH   9  11
ATOM     11  C   UNL A   1      32.124  24.481  25.175  1.00  0.00     0.071 C 
ATOM     12  C   UNL A   1      30.182  26.077  24.938  1.00  0.00     0.013 C 
ATOM     13  C   UNL A   1      31.574  25.734  24.340  1.00  0.00    -0.005 C 
ATOM     14  C   UNL A   1      31.335  25.459  22.854  1.00  0.00     0.013 C 
ATOM     15  C   UNL A   1      32.755  26.842  24.406  1.00  0.00     0.053 C 
ATOM     16  C   UNL A   1      33.191  27.662  23.141  1.00  0.00     0.022 C 
ATOM     17  C   UNL A   1      34.033  25.944  24.589  1.00  0.00     0.018 C 
ATOM     18  C   UNL A   1      33.647  24.544  25.008  1.00  0.00     0.020 C 
ATOM     19  C   UNL A   1      31.817  24.605  26.696  1.00  0.00     0.024 C 
BRANCH  15  20
ATOM     20  C   UNL A   1      32.630  27.875  25.558  1.00  0.00     0.230 C 
ATOM     21  O   UNL A   1      33.272  27.710  26.605  1.00  0.00    -0.274 OA
ATOM     22  N   UNL A   1      31.908  29.039  25.494  1.00  0.00    -0.324 N 
ATOM     23  H   UNL A   1      32.105  29.627  26.259  1.00  0.00     0.170 HD
BRANCH  22  24
ATOM     24  C   UNL A   1      30.955  29.628  24.624  1.00  0.00     0.060 A 
ATOM     25  C   UNL A   1      30.412  28.980  23.522  1.00  0.00     0.029 A 
ATOM     26  C   UNL A   1      30.479  30.927  24.875  1.00  0.00     0.066 A 
ATOM     27  C   UNL A   1      29.426  29.538  22.710  1.00  0.00     0.023 A 
ATOM     28  C   UNL A   1      29.509  31.522  24.050  1.00  0.00     0.043 A 
ATOM     29  Cl  UNL A   1      31.113  31.868  26.181  1.00  0.00    -0.082 Cl
ATOM     30  C   UNL A   1      28.978  30.816  22.976  1.00  0.00     0.042 A 
ATOM     31  Cl  UNL A   1      27.788  31.519  21.959  1.00  0.00    -0.084 Cl
ENDBRANCH  22  24
ENDBRANCH  15  20
ENDBRANCH   9  11
ENDBRANCH   8   9
ENDBRANCH   7   8
ENDBRANCH   6   7
ENDBRANCH   5   6
ENDBRANCH   4   5
ENDBRANCH   3   4
ENDBRANCH   2   3
ENDBRANCH   1   2
BRANCH   1  32
ATOM     32  C   UNL A   1      36.619  21.499  25.443  1.00  0.00     0.188 C 
BRANCH  32  33
ATOM     33  O   UNL A   1      37.452  20.665  24.632  1.00  0.00    -0.376 OA
BRANCH  33  34
ATOM     34  C   UNL A   1      38.573  20.022  25.234  1.00  0.00     0.202 C 
BRANCH  34  35
ATOM     35  C   UNL A   1      39.460  20.922  26.095  1.00  0.00     0.261 C 
BRANCH  35  36
ATOM     36  O   UNL A   1      40.441  20.174  26.833  1.00  0.00    -0.460 OA
BRANCH  36  37
ATOM     37  C   UNL A   1      41.634  20.019  26.217  1.00  0.00     0.338 C 
ATOM     38  O   UNL A   1      41.949  19.147  25.418  1.00  0.00    -0.246 OA
BRANCH  37  39
ATOM     39  C   UNL A   1      42.495  21.164  26.539  1.00  0.00     0.060 A 
ATOM     40  C   UNL A   1      42.646  21.543  27.880  1.00  0.00     0.016 A 
ATOM     41  C   UNL A   1      43.083  21.909  25.516  1.00  0.00     0.016 A 
ATOM     42  C   UNL A   1      43.358  22.695  28.200  1.00  0.00     0.010 A 
ATOM     43  C   UNL A   1      43.787  23.069  25.838  1.00  0.00     0.010 A 
ATOM     44  C   UNL A   1      43.898  23.483  27.176  1.00  0.00    -0.014 A 
BRANCH  44  45
ATOM     45  C   UNL A   1      44.449  24.823  27.474  1.00  0.00     0.031 A 
ATOM     46  C   UNL A   1      43.509  25.901  27.938  1.00  0.00     0.074 A 
ATOM     47  C   UNL A   1      45.757  25.077  27.302  1.00  0.00     0.049 A 
ATOM     48  N   UNL A   1      43.740  27.172  28.131  1.00  0.00    -0.248 NA
ATOM     49  C   UNL A   1      42.123  25.489  28.215  1.00  0.00     0.031 C 
ATOM     50  C   UNL A   1      46.766  24.094  26.907  1.00  0.00     0.029 A 
ATOM     51  N   UNL A   1      46.457  26.251  27.420  1.00  0.00    -0.354 N 
ATOM     52  C   UNL A   1      42.526  27.718  28.532  1.00  0.00     0.074 A 
ATOM     53  C   UNL A   1      41.557  26.644  28.533  1.00  0.00     0.031 C 
ATOM     54  C   UNL A   1      47.954  24.711  26.795  1.00  0.00     0.029 A 
ATOM     55  C   UNL A   1      47.779  26.137  27.064  1.00  0.00     0.049 A 
ATOM     56  H   UNL A   1      46.052  27.092  27.730  1.00  0.00     0.167 HD
ATOM     57  C   UNL A   1      42.247  29.000  28.865  1.00  0.00     0.031 A 
ATOM     58  C   UNL A   1      48.729  27.085  26.934  1.00  0.00     0.031 A 
ATOM     59  C   UNL A   1      43.219  30.060  28.842  1.00  0.00     0.049 A 
ATOM     60  C   UNL A   1      48.374  28.519  27.225  1.00  0.00     0.074 A 
ATOM     61  C   UNL A   1      43.047  31.391  29.176  1.00  0.00     0.029 A 
ATOM     62  N   UNL A   1      44.541  29.911  28.450  1.00  0.00    -0.354 N 
ATOM     63  N   UNL A   1      47.228  29.020  27.624  1.00  0.00    -0.248 NA
ATOM     64  C   UNL A   1      49.438  29.516  27.048  1.00  0.00     0.031 C 
ATOM     65  C   UNL A   1      44.249  32.061  28.921  1.00  0.00     0.029 A 
ATOM     66  C   UNL A   1      45.189  31.133  28.499  1.00  0.00     0.049 A 
ATOM     67  H   UNL A   1      44.958  29.062  28.177  1.00  0.00     0.167 HD
ATOM     68  C   UNL A   1      47.443  30.387  27.775  1.00  0.00     0.074 A 
ATOM     69  C   UNL A   1      48.832  30.629  27.437  1.00  0.00     0.031 C 
ATOM     70  C   UNL A   1      46.573  31.354  28.158  1.00  0.00     0.031 A 
BRANCH  57  71
ATOM     71  C   UNL A   1      40.826  29.331  29.243  1.00  0.00    -0.014 A 
ATOM     72  C   UNL A   1      40.383  29.258  30.575  1.00  0.00     0.010 A 
ATOM     73  C   UNL A   1      39.928  29.762  28.248  1.00  0.00     0.010 A 
ATOM     74  C   UNL A   1      39.061  29.573  30.901  1.00  0.00     0.020 A 
ATOM     75  C   UNL A   1      38.613  30.107  28.573  1.00  0.00     0.020 A 
ATOM     76  C   UNL A   1      38.184  29.995  29.897  1.00  0.00     0.054 A 
BRANCH  76  77
ATOM     77  S   UNL A   1      36.481  30.422  30.353  1.00  0.00     0.124 S 
ATOM     78  O   UNL A   1      36.611  31.829  30.721  1.00  0.00    -0.237 OA
ATOM     79  O   UNL A   1      35.746  30.161  29.118  1.00  0.00    -0.237 OA
ATOM     80  O   UNL A   1      36.180  29.515  31.459  1.00  0.00    -0.744 OA
ENDBRANCH  76  77
ENDBRANCH  57  71
BRANCH  58  81
ATOM     81  C   UNL A   1      50.095  26.709  26.478  1.00  0.00    -0.014 A 
ATOM     82  C   UNL A   1      51.039  26.200  27.387  1.00  0.00     0.010 A 
ATOM     83  C   UNL A   1      50.459  26.854  25.126  1.00  0.00     0.010 A 
ATOM     84  C   UNL A   1      52.323  25.855  26.956  1.00  0.00     0.020 A 
ATOM     85  C   UNL A   1      51.732  26.481  24.685  1.00  0.00     0.020 A 
ATOM     86  C   UNL A   1      52.660  25.994  25.606  1.00  0.00     0.054 A 
BRANCH  86  87
ATOM     87  S   UNL A   1      54.315  25.487  25.063  1.00  0.00     0.124 S 
ATOM     88  O   UNL A   1      54.503  26.300  23.865  1.00  0.00    -0.237 OA
ATOM     89  O   UNL A   1      55.144  25.846  26.211  1.00  0.00    -0.237 OA
ATOM     90  O   UNL A   1      54.173  24.051  24.831  1.00  0.00    -0.744 OA
ENDBRANCH  86  87
ENDBRANCH  58  81
BRANCH  70  91
ATOM     91  C   UNL A   1      47.099  32.762  28.270  1.00  0.00    -0.014 A 
ATOM     92  C   UNL A   1      47.017  33.660  27.191  1.00  0.00     0.010 A 
ATOM     93  C   UNL A   1      47.614  33.212  29.500  1.00  0.00     0.010 A 
ATOM     94  C   UNL A   1      47.464  34.976  27.334  1.00  0.00     0.020 A 
ATOM     95  C   UNL A   1      48.031  34.536  29.656  1.00  0.00     0.020 A 
ATOM     96  C   UNL A   1      47.963  35.408  28.567  1.00  0.00     0.054 A 
BRANCH  96  97
ATOM     97  S   UNL A   1      48.478  37.137  28.741  1.00  0.00     0.124 S 
ATOM     98  O   UNL A   1      47.714  37.791  27.683  1.00  0.00    -0.237 OA
ATOM     99  O   UNL A   1      48.063  37.457  30.106  1.00  0.00    -0.237 OA
ATOM    100  O   UNL A   1      49.923  37.092  28.531  1.00  0.00    -0.744 OA
ENDBRANCH  96  97
ENDBRANCH  70  91
ENDBRANCH  44  45
ENDBRANCH  37  39
ENDBRANCH  36  37
ENDBRANCH  35  36
ENDBRANCH  34  35
ENDBRANCH  33  34
ENDBRANCH  32  33
ENDBRANCH   1  32
TORSDOF 25
ENDMDL
