MODEL 1
REMARK VINA RESULT:      -9.4      0.000      0.000
REMARK SMILES Cc1noc(C)c1[C@H](C)NC(=O)NC[C@@](C)(O)C(=O)OCCOCCOCCOCCOC(=O)c1ccc(-c2c3nc(c(-c4ccc(S(=O)(=O)[O-])cc4)c4ccc([nH]4)c(-c4ccc(S(=O)(=O)[O-])cc4)c4nc(c(-c5ccc(S(=O)(=O)[O-])cc5)c5ccc2[nH]5)C=C4)C=C3)cc1
REMARK SMILES IDX 25 1 24 2 23 3 22 4 21 5 20 6 18 7 19 8 15 9 16 10 14 11
REMARK SMILES IDX 13 12 10 13 11 14 12 16 8 18 9 19 7 20 1 21 2 22 3 23 4 24
REMARK SMILES IDX 5 25 6 26 17 27 26 29 27 30 28 31 29 32 30 33 31 34 32 35
REMARK SMILES IDX 33 36 34 37 35 38 36 39 94 40 37 41 93 42 38 43 39 44 40 45
REMARK SMILES IDX 87 46 41 47 92 48 86 49 88 50 42 51 91 52 85 53 84 54 43 56
REMARK SMILES IDX 73 57 54 58 72 59 55 60 58 61 71 62 89 63 56 64 57 65 70 67
REMARK SMILES IDX 90 68 59 69 44 70 45 71 53 72 46 73 52 74 47 75 48 76 49 77
REMARK SMILES IDX 50 78 51 79 74 80 75 81 83 82 76 83 82 84 77 85 78 86 79 87
REMARK SMILES IDX 80 88 81 89 60 90 61 91 69 92 62 93 68 94 63 95 64 96 65 97
REMARK SMILES IDX 66 98 67 99
REMARK H PARENT 10 15 13 17 17 28 88 55 58 66
REMARK Flexibility Score: inf
ROOT
ATOM      1  C   UNL A   1      33.899  30.844  27.767  1.00  0.00     0.188 C 
ENDROOT
BRANCH   1   2
ATOM      2  C   UNL A   1      32.968  30.351  26.663  1.00  0.00     0.188 C 
BRANCH   2   3
ATOM      3  O   UNL A   1      31.837  29.549  26.954  1.00  0.00    -0.376 OA
BRANCH   3   4
ATOM      4  C   UNL A   1      31.582  28.315  26.312  1.00  0.00     0.202 C 
BRANCH   4   5
ATOM      5  C   UNL A   1      31.189  28.253  24.833  1.00  0.00     0.261 C 
BRANCH   5   6
ATOM      6  O   UNL A   1      31.792  27.168  24.124  1.00  0.00    -0.461 OA
BRANCH   6   7
ATOM      7  C   UNL A   1      31.794  27.259  22.766  1.00  0.00     0.339 C 
ATOM      8  O   UNL A   1      30.826  27.586  22.090  1.00  0.00    -0.249 OA
BRANCH   7   9
ATOM      9  C   UNL A   1      33.177  26.881  22.174  1.00  0.00     0.176 C 
ATOM     10  C   UNL A   1      34.092  28.072  22.465  1.00  0.00     0.057 C 
BRANCH   9  11
ATOM     11  C   UNL A   1      33.709  25.543  22.767  1.00  0.00     0.164 C 
BRANCH  11  12
ATOM     12  N   UNL A   1      32.831  24.390  22.661  1.00  0.00    -0.335 N 
ATOM     13  N   UNL A   1      33.293  22.808  24.378  1.00  0.00    -0.331 N 
ATOM     14  C   UNL A   1      32.589  23.273  23.349  1.00  0.00     0.315 C 
ATOM     15  H   UNL A   1      32.880  22.001  24.762  1.00  0.00     0.165 HD
ATOM     16  O   UNL A   1      31.622  22.596  22.989  1.00  0.00    -0.249 OA
ATOM     17  H   UNL A   1      32.258  24.449  21.864  1.00  0.00     0.165 HD
BRANCH  13  18
ATOM     18  C   UNL A   1      34.509  23.172  25.091  1.00  0.00     0.116 C 
ATOM     19  C   UNL A   1      34.124  23.641  26.492  1.00  0.00     0.036 C 
BRANCH  18  20
ATOM     20  C   UNL A   1      35.459  21.998  25.057  1.00  0.00     0.040 A 
ATOM     21  C   UNL A   1      37.783  23.146  25.594  1.00  0.00     0.071 C 
ATOM     22  C   UNL A   1      36.881  22.011  25.275  1.00  0.00     0.086 A 
ATOM     23  N   UNL A   1      37.409  20.787  25.172  1.00  0.00    -0.085 NA
ATOM     24  O   UNL A   1      36.353  19.936  24.972  1.00  0.00    -0.361 OA
ATOM     25  C   UNL A   1      35.193  20.642  24.927  1.00  0.00     0.139 A 
ATOM     26  C   UNL A   1      33.986  19.807  24.770  1.00  0.00     0.091 C 
ENDBRANCH  18  20
ENDBRANCH  13  18
ENDBRANCH  11  12
ENDBRANCH   9  11
BRANCH   9  27
ATOM     27  O   UNL A   1      33.158  26.696  20.749  1.00  0.00    -0.377 OA
ATOM     28  H   UNL A   1      32.269  26.427  20.470  1.00  0.00     0.212 HD
ENDBRANCH   9  27
ENDBRANCH   7   9
ENDBRANCH   6   7
ENDBRANCH   5   6
ENDBRANCH   4   5
ENDBRANCH   3   4
ENDBRANCH   2   3
ENDBRANCH   1   2
BRANCH   1  29
ATOM     29  O   UNL A   1      34.580  32.040  27.434  1.00  0.00    -0.377 OA
BRANCH  29  30
ATOM     30  C   UNL A   1      35.816  32.192  28.099  1.00  0.00     0.188 C 
BRANCH  30  31
ATOM     31  C   UNL A   1      35.947  33.440  28.992  1.00  0.00     0.188 C 
BRANCH  31  32
ATOM     32  O   UNL A   1      37.194  33.990  29.409  1.00  0.00    -0.376 OA
BRANCH  32  33
ATOM     33  C   UNL A   1      37.797  33.619  30.631  1.00  0.00     0.202 C 
BRANCH  33  34
ATOM     34  C   UNL A   1      36.926  32.782  31.573  1.00  0.00     0.261 C 
BRANCH  34  35
ATOM     35  O   UNL A   1      37.575  31.619  32.094  1.00  0.00    -0.460 OA
BRANCH  35  36
ATOM     36  C   UNL A   1      37.244  30.444  31.501  1.00  0.00     0.338 C 
ATOM     37  O   UNL A   1      36.139  29.936  31.422  1.00  0.00    -0.246 OA
BRANCH  36  38
ATOM     38  C   UNL A   1      38.438  29.945  30.784  1.00  0.00     0.060 A 
ATOM     39  C   UNL A   1      39.507  29.431  31.534  1.00  0.00     0.016 A 
ATOM     40  C   UNL A   1      38.459  29.887  29.386  1.00  0.00     0.016 A 
ATOM     41  C   UNL A   1      40.613  28.880  30.890  1.00  0.00     0.010 A 
ATOM     42  C   UNL A   1      39.582  29.373  28.741  1.00  0.00     0.010 A 
ATOM     43  C   UNL A   1      40.676  28.907  29.491  1.00  0.00    -0.014 A 
BRANCH  43  44
ATOM     44  C   UNL A   1      41.985  28.795  28.813  1.00  0.00     0.031 A 
ATOM     45  C   UNL A   1      42.330  27.438  28.260  1.00  0.00     0.074 A 
ATOM     46  C   UNL A   1      42.851  29.820  28.746  1.00  0.00     0.049 A 
ATOM     47  N   UNL A   1      43.463  26.999  27.788  1.00  0.00    -0.248 NA
ATOM     48  C   UNL A   1      41.248  26.434  28.261  1.00  0.00     0.031 C 
ATOM     49  C   UNL A   1      42.596  31.185  29.208  1.00  0.00     0.029 A 
ATOM     50  N   UNL A   1      44.142  29.856  28.285  1.00  0.00    -0.354 N 
ATOM     51  C   UNL A   1      43.239  25.666  27.467  1.00  0.00     0.074 A 
ATOM     52  C   UNL A   1      41.868  25.361  27.797  1.00  0.00     0.031 C 
ATOM     53  C   UNL A   1      43.712  31.918  29.033  1.00  0.00     0.029 A 
ATOM     54  C   UNL A   1      44.768  31.064  28.492  1.00  0.00     0.049 A 
ATOM     55  H   UNL A   1      44.579  29.091  27.846  1.00  0.00     0.167 HD
ATOM     56  C   UNL A   1      44.106  24.769  26.952  1.00  0.00     0.031 A 
ATOM     57  C   UNL A   1      46.057  31.414  28.303  1.00  0.00     0.031 A 
ATOM     58  C   UNL A   1      45.471  25.081  26.642  1.00  0.00     0.049 A 
ATOM     59  C   UNL A   1      47.022  30.379  27.774  1.00  0.00     0.074 A 
ATOM     60  C   UNL A   1      46.440  24.255  26.106  1.00  0.00     0.029 A 
ATOM     61  N   UNL A   1      46.057  26.319  26.848  1.00  0.00    -0.354 N 
ATOM     62  N   UNL A   1      46.793  29.127  27.453  1.00  0.00    -0.248 NA
ATOM     63  C   UNL A   1      48.417  30.801  27.581  1.00  0.00     0.031 C 
ATOM     64  C   UNL A   1      47.630  24.982  26.034  1.00  0.00     0.029 A 
ATOM     65  C   UNL A   1      47.382  26.278  26.463  1.00  0.00     0.049 A 
ATOM     66  H   UNL A   1      45.597  27.110  27.212  1.00  0.00     0.167 HD
ATOM     67  C   UNL A   1      48.003  28.627  26.980  1.00  0.00     0.074 A 
ATOM     68  C   UNL A   1      48.961  29.709  27.058  1.00  0.00     0.031 C 
ATOM     69  C   UNL A   1      48.298  27.387  26.518  1.00  0.00     0.031 A 
BRANCH  56  70
ATOM     70  C   UNL A   1      43.618  23.365  26.738  1.00  0.00    -0.014 A 
ATOM     71  C   UNL A   1      43.778  22.717  25.500  1.00  0.00     0.010 A 
ATOM     72  C   UNL A   1      43.036  22.665  27.811  1.00  0.00     0.010 A 
ATOM     73  C   UNL A   1      43.351  21.398  25.336  1.00  0.00     0.020 A 
ATOM     74  C   UNL A   1      42.633  21.337  27.658  1.00  0.00     0.020 A 
ATOM     75  C   UNL A   1      42.787  20.714  26.418  1.00  0.00     0.054 A 
BRANCH  75  76
ATOM     76  S   UNL A   1      42.307  18.979  26.195  1.00  0.00     0.124 S 
ATOM     77  O   UNL A   1      42.491  18.441  27.542  1.00  0.00    -0.237 OA
ATOM     78  O   UNL A   1      40.922  19.087  25.746  1.00  0.00    -0.237 OA
ATOM     79  O   UNL A   1      43.248  18.484  25.194  1.00  0.00    -0.744 OA
ENDBRANCH  75  76
ENDBRANCH  56  70
BRANCH  57  80
ATOM     80  C   UNL A   1      46.532  32.783  28.658  1.00  0.00    -0.014 A 
ATOM     81  C   UNL A   1      46.652  33.781  27.674  1.00  0.00     0.010 A 
ATOM     82  C   UNL A   1      46.905  33.084  29.980  1.00  0.00     0.010 A 
ATOM     83  C   UNL A   1      47.169  35.041  27.998  1.00  0.00     0.020 A 
ATOM     84  C   UNL A   1      47.395  34.351  30.315  1.00  0.00     0.020 A 
ATOM     85  C   UNL A   1      47.540  35.316  29.318  1.00  0.00     0.054 A 
BRANCH  85  86
ATOM     86  S   UNL A   1      48.193  36.960  29.723  1.00  0.00     0.124 S 
ATOM     87  O   UNL A   1      47.061  37.824  29.403  1.00  0.00    -0.237 OA
ATOM     88  O   UNL A   1      48.512  36.833  31.143  1.00  0.00    -0.237 OA
ATOM     89  O   UNL A   1      49.352  37.093  28.842  1.00  0.00    -0.744 OA
ENDBRANCH  85  86
ENDBRANCH  57  80
BRANCH  69  90
ATOM     90  C   UNL A   1      49.681  27.141  25.983  1.00  0.00    -0.014 A 
ATOM     91  C   UNL A   1      50.608  26.351  26.682  1.00  0.00     0.010 A 
ATOM     92  C   UNL A   1      50.003  27.606  24.694  1.00  0.00     0.010 A 
ATOM     93  C   UNL A   1      51.838  26.034  26.100  1.00  0.00     0.020 A 
ATOM     94  C   UNL A   1      51.219  27.269  24.100  1.00  0.00     0.020 A 
ATOM     95  C   UNL A   1      52.132  26.489  24.810  1.00  0.00     0.054 A 
BRANCH  95  96
ATOM     96  S   UNL A   1      53.696  25.985  24.042  1.00  0.00     0.124 S 
ATOM     97  O   UNL A   1      54.004  24.753  24.761  1.00  0.00    -0.237 OA
ATOM     98  O   UNL A   1      53.325  25.819  22.638  1.00  0.00    -0.237 OA
ATOM     99  O   UNL A   1      54.593  27.106  24.314  1.00  0.00    -0.744 OA
ENDBRANCH  95  96
ENDBRANCH  69  90
ENDBRANCH  43  44
ENDBRANCH  36  38
ENDBRANCH  35  36
ENDBRANCH  34  35
ENDBRANCH  33  34
ENDBRANCH  32  33
ENDBRANCH  31  32
ENDBRANCH  30  31
ENDBRANCH  29  30
ENDBRANCH   1  29
TORSDOF 28
ENDMDL
MODEL 2
REMARK VINA RESULT:      -8.7      1.293      2.049
REMARK SMILES Cc1noc(C)c1[C@H](C)NC(=O)NC[C@@](C)(O)C(=O)OCCOCCOCCOCCOC(=O)c1ccc(-c2c3nc(c(-c4ccc(S(=O)(=O)[O-])cc4)c4ccc([nH]4)c(-c4ccc(S(=O)(=O)[O-])cc4)c4nc(c(-c5ccc(S(=O)(=O)[O-])cc5)c5ccc2[nH]5)C=C4)C=C3)cc1
REMARK SMILES IDX 25 1 24 2 23 3 22 4 21 5 20 6 18 7 19 8 15 9 16 10 14 11
REMARK SMILES IDX 13 12 10 13 11 14 12 16 8 18 9 19 7 20 1 21 2 22 3 23 4 24
REMARK SMILES IDX 5 25 6 26 17 27 26 29 27 30 28 31 29 32 30 33 31 34 32 35
REMARK SMILES IDX 33 36 34 37 35 38 36 39 94 40 37 41 93 42 38 43 39 44 40 45
REMARK SMILES IDX 87 46 41 47 92 48 86 49 88 50 42 51 91 52 85 53 84 54 43 56
REMARK SMILES IDX 73 57 54 58 72 59 55 60 58 61 71 62 89 63 56 64 57 65 70 67
REMARK SMILES IDX 90 68 59 69 44 70 45 71 53 72 46 73 52 74 47 75 48 76 49 77
REMARK SMILES IDX 50 78 51 79 74 80 75 81 83 82 76 83 82 84 77 85 78 86 79 87
REMARK SMILES IDX 80 88 81 89 60 90 61 91 69 92 62 93 68 94 63 95 64 96 65 97
REMARK SMILES IDX 66 98 67 99
REMARK H PARENT 10 15 13 17 17 28 88 55 58 66
REMARK Flexibility Score: inf
ROOT
ATOM      1  C   UNL A   1      34.013  30.919  27.882  1.00  0.00     0.188 C 
ENDROOT
BRANCH   1   2
ATOM      2  C   UNL A   1      33.036  30.387  26.837  1.00  0.00     0.188 C 
BRANCH   2   3
ATOM      3  O   UNL A   1      31.854  29.701  27.213  1.00  0.00    -0.376 OA
BRANCH   3   4
ATOM      4  C   UNL A   1      31.401  28.533  26.557  1.00  0.00     0.202 C 
BRANCH   4   5
ATOM      5  C   UNL A   1      30.982  28.558  25.085  1.00  0.00     0.261 C 
BRANCH   5   6
ATOM      6  O   UNL A   1      31.452  27.436  24.335  1.00  0.00    -0.461 OA
BRANCH   6   7
ATOM      7  C   UNL A   1      31.360  27.531  22.980  1.00  0.00     0.339 C 
ATOM      8  O   UNL A   1      30.527  28.205  22.386  1.00  0.00    -0.249 OA
BRANCH   7   9
ATOM      9  C   UNL A   1      32.435  26.663  22.275  1.00  0.00     0.176 C 
ATOM     10  C   UNL A   1      33.725  27.484  22.322  1.00  0.00     0.057 C 
BRANCH   9  11
ATOM     11  C   UNL A   1      32.576  25.265  22.947  1.00  0.00     0.164 C 
BRANCH  11  12
ATOM     12  N   UNL A   1      33.921  24.724  23.048  1.00  0.00    -0.335 N 
ATOM     13  N   UNL A   1      33.873  22.444  23.727  1.00  0.00    -0.331 N 
ATOM     14  C   UNL A   1      34.489  23.546  23.305  1.00  0.00     0.315 C 
ATOM     15  H   UNL A   1      34.494  21.682  23.781  1.00  0.00     0.165 HD
ATOM     16  O   UNL A   1      35.710  23.469  23.145  1.00  0.00    -0.249 OA
ATOM     17  H   UNL A   1      34.599  25.418  22.882  1.00  0.00     0.165 HD
BRANCH  13  18
ATOM     18  C   UNL A   1      32.527  22.062  24.129  1.00  0.00     0.116 C 
ATOM     19  C   UNL A   1      32.363  20.561  23.898  1.00  0.00     0.036 C 
BRANCH  18  20
ATOM     20  C   UNL A   1      32.304  22.509  25.555  1.00  0.00     0.040 A 
ATOM     21  C   UNL A   1      34.377  21.439  26.807  1.00  0.00     0.071 C 
ATOM     22  C   UNL A   1      33.120  22.222  26.704  1.00  0.00     0.086 A 
ATOM     23  N   UNL A   1      32.626  22.781  27.814  1.00  0.00    -0.085 NA
ATOM     24  O   UNL A   1      31.536  23.511  27.416  1.00  0.00    -0.361 OA
ATOM     25  C   UNL A   1      31.353  23.375  26.077  1.00  0.00     0.139 A 
ATOM     26  C   UNL A   1      30.232  24.172  25.538  1.00  0.00     0.091 C 
ENDBRANCH  18  20
ENDBRANCH  13  18
ENDBRANCH  11  12
ENDBRANCH   9  11
BRANCH   9  27
ATOM     27  O   UNL A   1      32.144  26.404  20.892  1.00  0.00    -0.377 OA
ATOM     28  H   UNL A   1      31.219  26.128  20.803  1.00  0.00     0.212 HD
ENDBRANCH   9  27
ENDBRANCH   7   9
ENDBRANCH   6   7
ENDBRANCH   5   6
ENDBRANCH   4   5
ENDBRANCH   3   4
ENDBRANCH   2   3
ENDBRANCH   1   2
BRANCH   1  29
ATOM     29  O   UNL A   1      34.792  32.006  27.418  1.00  0.00    -0.377 OA
BRANCH  29  30
ATOM     30  C   UNL A   1      35.938  32.257  28.203  1.00  0.00     0.188 C 
BRANCH  30  31
ATOM     31  C   UNL A   1      36.119  33.710  28.681  1.00  0.00     0.188 C 
BRANCH  31  32
ATOM     32  O   UNL A   1      37.382  34.287  29.006  1.00  0.00    -0.376 OA
BRANCH  32  33
ATOM     33  C   UNL A   1      37.925  34.196  30.307  1.00  0.00     0.202 C 
BRANCH  33  34
ATOM     34  C   UNL A   1      36.998  33.608  31.374  1.00  0.00     0.261 C 
BRANCH  34  35
ATOM     35  O   UNL A   1      37.582  32.555  32.144  1.00  0.00    -0.460 OA
BRANCH  35  36
ATOM     36  C   UNL A   1      37.282  31.294  31.741  1.00  0.00     0.338 C 
ATOM     37  O   UNL A   1      36.198  30.737  31.783  1.00  0.00    -0.246 OA
BRANCH  36  38
ATOM     38  C   UNL A   1      38.470  30.742  31.054  1.00  0.00     0.060 A 
ATOM     39  C   UNL A   1      39.508  30.205  31.832  1.00  0.00     0.016 A 
ATOM     40  C   UNL A   1      38.514  30.660  29.658  1.00  0.00     0.016 A 
ATOM     41  C   UNL A   1      40.606  29.605  31.216  1.00  0.00     0.010 A 
ATOM     42  C   UNL A   1      39.629  30.096  29.042  1.00  0.00     0.010 A 
ATOM     43  C   UNL A   1      40.693  29.606  29.819  1.00  0.00    -0.014 A 
BRANCH  43  44
ATOM     44  C   UNL A   1      42.009  29.438  29.166  1.00  0.00     0.031 A 
ATOM     45  C   UNL A   1      42.310  28.064  28.629  1.00  0.00     0.074 A 
ATOM     46  C   UNL A   1      42.916  30.427  29.109  1.00  0.00     0.049 A 
ATOM     47  N   UNL A   1      43.433  27.577  28.181  1.00  0.00    -0.248 NA
ATOM     48  C   UNL A   1      41.189  27.103  28.616  1.00  0.00     0.031 C 
ATOM     49  C   UNL A   1      42.707  31.804  29.557  1.00  0.00     0.029 A 
ATOM     50  N   UNL A   1      44.216  30.409  28.672  1.00  0.00    -0.354 N 
ATOM     51  C   UNL A   1      43.163  26.252  27.864  1.00  0.00     0.074 A 
ATOM     52  C   UNL A   1      41.775  26.004  28.170  1.00  0.00     0.031 C 
ATOM     53  C   UNL A   1      43.854  32.492  29.399  1.00  0.00     0.029 A 
ATOM     54  C   UNL A   1      44.885  31.593  28.883  1.00  0.00     0.049 A 
ATOM     55  H   UNL A   1      44.631  29.623  28.247  1.00  0.00     0.167 HD
ATOM     56  C   UNL A   1      44.003  25.317  27.372  1.00  0.00     0.031 A 
ATOM     57  C   UNL A   1      46.191  31.890  28.716  1.00  0.00     0.031 A 
ATOM     58  C   UNL A   1      45.385  25.574  27.086  1.00  0.00     0.049 A 
ATOM     59  C   UNL A   1      47.123  30.814  28.212  1.00  0.00     0.074 A 
ATOM     60  C   UNL A   1      46.330  24.706  26.573  1.00  0.00     0.029 A 
ATOM     61  N   UNL A   1      46.016  26.789  27.294  1.00  0.00    -0.354 N 
ATOM     62  N   UNL A   1      46.851  29.569  27.895  1.00  0.00    -0.248 NA
ATOM     63  C   UNL A   1      48.538  31.178  28.043  1.00  0.00     0.031 C 
ATOM     64  C   UNL A   1      47.549  25.384  26.518  1.00  0.00     0.029 A 
ATOM     65  C   UNL A   1      47.345  26.692  26.934  1.00  0.00     0.049 A 
ATOM     66  H   UNL A   1      45.581  27.600  27.645  1.00  0.00     0.167 HD
ATOM     67  C   UNL A   1      48.049  29.018  27.447  1.00  0.00     0.074 A 
ATOM     68  C   UNL A   1      49.047  30.062  27.537  1.00  0.00     0.031 C 
ATOM     69  C   UNL A   1      48.303  27.764  26.999  1.00  0.00     0.031 A 
BRANCH  56  70
ATOM     70  C   UNL A   1      43.464  23.932  27.157  1.00  0.00    -0.014 A 
ATOM     71  C   UNL A   1      43.480  22.975  28.187  1.00  0.00     0.010 A 
ATOM     72  C   UNL A   1      42.887  23.600  25.918  1.00  0.00     0.010 A 
ATOM     73  C   UNL A   1      42.938  21.705  27.976  1.00  0.00     0.020 A 
ATOM     74  C   UNL A   1      42.320  22.341  25.712  1.00  0.00     0.020 A 
ATOM     75  C   UNL A   1      42.356  21.398  26.742  1.00  0.00     0.054 A 
BRANCH  75  76
ATOM     76  S   UNL A   1      41.597  19.767  26.520  1.00  0.00     0.124 S 
ATOM     77  O   UNL A   1      42.157  19.345  25.238  1.00  0.00    -0.237 OA
ATOM     78  O   UNL A   1      42.077  19.030  27.687  1.00  0.00    -0.237 OA
ATOM     79  O   UNL A   1      40.164  20.048  26.511  1.00  0.00    -0.744 OA
ENDBRANCH  75  76
ENDBRANCH  56  70
BRANCH  57  80
ATOM     80  C   UNL A   1      46.713  33.241  29.071  1.00  0.00    -0.014 A 
ATOM     81  C   UNL A   1      47.164  33.521  30.373  1.00  0.00     0.010 A 
ATOM     82  C   UNL A   1      46.724  34.271  28.112  1.00  0.00     0.010 A 
ATOM     83  C   UNL A   1      47.583  34.810  30.720  1.00  0.00     0.020 A 
ATOM     84  C   UNL A   1      47.170  35.554  28.446  1.00  0.00     0.020 A 
ATOM     85  C   UNL A   1      47.579  35.820  29.753  1.00  0.00     0.054 A 
BRANCH  85  86
ATOM     86  S   UNL A   1      48.141  37.483  30.216  1.00  0.00     0.124 S 
ATOM     87  O   UNL A   1      47.476  37.682  31.499  1.00  0.00    -0.237 OA
ATOM     88  O   UNL A   1      49.592  37.322  30.272  1.00  0.00    -0.237 OA
ATOM     89  O   UNL A   1      47.658  38.323  29.122  1.00  0.00    -0.744 OA
ENDBRANCH  85  86
ENDBRANCH  57  80
BRANCH  69  90
ATOM     90  C   UNL A   1      49.684  27.461  26.493  1.00  0.00    -0.014 A 
ATOM     91  C   UNL A   1      50.043  27.691  25.154  1.00  0.00     0.010 A 
ATOM     92  C   UNL A   1      50.673  27.063  27.414  1.00  0.00     0.010 A 
ATOM     93  C   UNL A   1      51.368  27.522  24.744  1.00  0.00     0.020 A 
ATOM     94  C   UNL A   1      52.001  26.920  27.013  1.00  0.00     0.020 A 
ATOM     95  C   UNL A   1      52.339  27.145  25.678  1.00  0.00     0.054 A 
BRANCH  95  96
ATOM     96  S   UNL A   1      54.067  27.025  25.140  1.00  0.00     0.124 S 
ATOM     97  O   UNL A   1      53.927  26.938  23.689  1.00  0.00    -0.237 OA
ATOM     98  O   UNL A   1      54.647  28.267  25.643  1.00  0.00    -0.237 OA
ATOM     99  O   UNL A   1      54.550  25.809  25.792  1.00  0.00    -0.744 OA
ENDBRANCH  95  96
ENDBRANCH  69  90
ENDBRANCH  43  44
ENDBRANCH  36  38
ENDBRANCH  35  36
ENDBRANCH  34  35
ENDBRANCH  33  34
ENDBRANCH  32  33
ENDBRANCH  31  32
ENDBRANCH  30  31
ENDBRANCH  29  30
ENDBRANCH   1  29
TORSDOF 28
ENDMDL
MODEL 3
REMARK VINA RESULT:      -8.2      6.259     12.600
REMARK SMILES Cc1noc(C)c1[C@H](C)NC(=O)NC[C@@](C)(O)C(=O)OCCOCCOCCOCCOC(=O)c1ccc(-c2c3nc(c(-c4ccc(S(=O)(=O)[O-])cc4)c4ccc([nH]4)c(-c4ccc(S(=O)(=O)[O-])cc4)c4nc(c(-c5ccc(S(=O)(=O)[O-])cc5)c5ccc2[nH]5)C=C4)C=C3)cc1
REMARK SMILES IDX 25 1 24 2 23 3 22 4 21 5 20 6 18 7 19 8 15 9 16 10 14 11
REMARK SMILES IDX 13 12 10 13 11 14 12 16 8 18 9 19 7 20 1 21 2 22 3 23 4 24
REMARK SMILES IDX 5 25 6 26 17 27 26 29 27 30 28 31 29 32 30 33 31 34 32 35
REMARK SMILES IDX 33 36 34 37 35 38 36 39 94 40 37 41 93 42 38 43 39 44 40 45
REMARK SMILES IDX 87 46 41 47 92 48 86 49 88 50 42 51 91 52 85 53 84 54 43 56
REMARK SMILES IDX 73 57 54 58 72 59 55 60 58 61 71 62 89 63 56 64 57 65 70 67
REMARK SMILES IDX 90 68 59 69 44 70 45 71 53 72 46 73 52 74 47 75 48 76 49 77
REMARK SMILES IDX 50 78 51 79 74 80 75 81 83 82 76 83 82 84 77 85 78 86 79 87
REMARK SMILES IDX 80 88 81 89 60 90 61 91 69 92 62 93 68 94 63 95 64 96 65 97
REMARK SMILES IDX 66 98 67 99
REMARK H PARENT 10 15 13 17 17 28 88 55 58 66
REMARK Flexibility Score: inf
ROOT
ATOM      1  C   UNL A   1      37.968  21.357  25.256  1.00  0.00     0.188 C 
ENDROOT
BRANCH   1   2
ATOM      2  C   UNL A   1      36.508  21.315  24.813  1.00  0.00     0.188 C 
BRANCH   2   3
ATOM      3  O   UNL A   1      35.459  21.114  25.744  1.00  0.00    -0.376 OA
BRANCH   3   4
ATOM      4  C   UNL A   1      34.843  22.173  26.450  1.00  0.00     0.202 C 
BRANCH   4   5
ATOM      5  C   UNL A   1      33.356  22.130  26.813  1.00  0.00     0.261 C 
BRANCH   5   6
ATOM      6  O   UNL A   1      32.495  22.550  25.753  1.00  0.00    -0.461 OA
BRANCH   6   7
ATOM      7  C   UNL A   1      32.220  21.625  24.792  1.00  0.00     0.339 C 
ATOM      8  O   UNL A   1      31.801  20.496  25.015  1.00  0.00    -0.249 OA
BRANCH   7   9
ATOM      9  C   UNL A   1      32.519  22.174  23.372  1.00  0.00     0.176 C 
ATOM     10  C   UNL A   1      31.999  21.113  22.401  1.00  0.00     0.057 C 
BRANCH   9  11
ATOM     11  C   UNL A   1      31.875  23.574  23.151  1.00  0.00     0.164 C 
BRANCH  11  12
ATOM     12  N   UNL A   1      32.339  24.328  21.999  1.00  0.00    -0.335 N 
ATOM     13  N   UNL A   1      32.688  26.614  22.563  1.00  0.00    -0.331 N 
ATOM     14  C   UNL A   1      32.745  25.571  21.737  1.00  0.00     0.315 C 
ATOM     15  H   UNL A   1      33.110  27.410  22.167  1.00  0.00     0.165 HD
ATOM     16  O   UNL A   1      33.212  25.780  20.614  1.00  0.00    -0.249 OA
ATOM     17  H   UNL A   1      32.357  23.770  21.189  1.00  0.00     0.165 HD
BRANCH  13  18
ATOM     18  C   UNL A   1      32.170  26.894  23.894  1.00  0.00     0.116 C 
ATOM     19  C   UNL A   1      32.854  28.152  24.422  1.00  0.00     0.036 C 
BRANCH  18  20
ATOM     20  C   UNL A   1      30.663  26.978  23.818  1.00  0.00     0.040 A 
ATOM     21  C   UNL A   1      29.914  25.223  25.653  1.00  0.00     0.071 C 
ATOM     22  C   UNL A   1      29.702  26.238  24.591  1.00  0.00     0.086 A 
ATOM     23  N   UNL A   1      28.447  26.566  24.265  1.00  0.00    -0.085 NA
ATOM     24  O   UNL A   1      28.549  27.578  23.345  1.00  0.00    -0.361 OA
ATOM     25  C   UNL A   1      29.856  27.844  23.093  1.00  0.00     0.139 A 
ATOM     26  C   UNL A   1      30.073  28.961  22.153  1.00  0.00     0.091 C 
ENDBRANCH  18  20
ENDBRANCH  13  18
ENDBRANCH  11  12
ENDBRANCH   9  11
BRANCH   9  27
ATOM     27  O   UNL A   1      33.922  22.342  23.109  1.00  0.00    -0.377 OA
ATOM     28  H   UNL A   1      34.344  21.473  23.037  1.00  0.00     0.212 HD
ENDBRANCH   9  27
ENDBRANCH   7   9
ENDBRANCH   6   7
ENDBRANCH   5   6
ENDBRANCH   4   5
ENDBRANCH   3   4
ENDBRANCH   2   3
ENDBRANCH   1   2
BRANCH   1  29
ATOM     29  O   UNL A   1      38.218  22.305  26.277  1.00  0.00    -0.377 OA
BRANCH  29  30
ATOM     30  C   UNL A   1      39.589  22.581  26.471  1.00  0.00     0.188 C 
BRANCH  30  31
ATOM     31  C   UNL A   1      39.924  24.002  26.962  1.00  0.00     0.188 C 
BRANCH  31  32
ATOM     32  O   UNL A   1      39.208  24.674  27.996  1.00  0.00    -0.376 OA
BRANCH  32  33
ATOM     33  C   UNL A   1      39.782  25.739  28.723  1.00  0.00     0.202 C 
BRANCH  33  34
ATOM     34  C   UNL A   1      39.532  27.140  28.157  1.00  0.00     0.261 C 
BRANCH  34  35
ATOM     35  O   UNL A   1      39.759  28.200  29.089  1.00  0.00    -0.460 OA
BRANCH  35  36
ATOM     36  C   UNL A   1      38.793  29.151  29.148  1.00  0.00     0.338 C 
ATOM     37  O   UNL A   1      37.601  29.015  28.933  1.00  0.00    -0.246 OA
BRANCH  36  38
ATOM     38  C   UNL A   1      39.398  30.380  29.708  1.00  0.00     0.060 A 
ATOM     39  C   UNL A   1      40.731  30.334  30.145  1.00  0.00     0.016 A 
ATOM     40  C   UNL A   1      38.693  31.588  29.705  1.00  0.00     0.016 A 
ATOM     41  C   UNL A   1      41.358  31.492  30.603  1.00  0.00     0.010 A 
ATOM     42  C   UNL A   1      39.306  32.737  30.201  1.00  0.00     0.010 A 
ATOM     43  C   UNL A   1      40.624  32.681  30.688  1.00  0.00    -0.014 A 
BRANCH  43  44
ATOM     44  C   UNL A   1      41.075  33.759  31.593  1.00  0.00     0.031 A 
ATOM     45  C   UNL A   1      41.980  34.797  30.984  1.00  0.00     0.074 A 
ATOM     46  C   UNL A   1      40.757  33.784  32.897  1.00  0.00     0.049 A 
ATOM     47  N   UNL A   1      42.671  35.738  31.566  1.00  0.00    -0.248 NA
ATOM     48  C   UNL A   1      42.141  34.750  29.517  1.00  0.00     0.031 C 
ATOM     49  C   UNL A   1      39.852  32.856  33.574  1.00  0.00     0.029 A 
ATOM     50  N   UNL A   1      41.193  34.618  33.896  1.00  0.00    -0.354 N 
ATOM     51  C   UNL A   1      43.368  36.371  30.544  1.00  0.00     0.074 A 
ATOM     52  C   UNL A   1      43.024  35.713  29.307  1.00  0.00     0.031 C 
ATOM     53  C   UNL A   1      39.824  33.153  34.887  1.00  0.00     0.029 A 
ATOM     54  C   UNL A   1      40.742  34.262  35.147  1.00  0.00     0.049 A 
ATOM     55  H   UNL A   1      41.771  35.398  33.733  1.00  0.00     0.167 HD
ATOM     56  C   UNL A   1      44.231  37.405  30.631  1.00  0.00     0.031 A 
ATOM     57  C   UNL A   1      41.075  34.753  36.359  1.00  0.00     0.031 A 
ATOM     58  C   UNL A   1      44.574  38.041  31.870  1.00  0.00     0.049 A 
ATOM     59  C   UNL A   1      42.082  35.877  36.436  1.00  0.00     0.074 A 
ATOM     60  C   UNL A   1      45.429  39.107  32.079  1.00  0.00     0.029 A 
ATOM     61  N   UNL A   1      44.081  37.663  33.108  1.00  0.00    -0.354 N 
ATOM     62  N   UNL A   1      42.718  36.483  35.460  1.00  0.00    -0.248 NA
ATOM     63  C   UNL A   1      42.416  36.385  37.775  1.00  0.00     0.031 C 
ATOM     64  C   UNL A   1      45.492  39.342  33.454  1.00  0.00     0.029 A 
ATOM     65  C   UNL A   1      44.625  38.465  34.091  1.00  0.00     0.049 A 
ATOM     66  H   UNL A   1      43.439  36.934  33.263  1.00  0.00     0.167 HD
ATOM     67  C   UNL A   1      43.492  37.470  36.065  1.00  0.00     0.074 A 
ATOM     68  C   UNL A   1      43.246  37.380  37.488  1.00  0.00     0.031 C 
ATOM     69  C   UNL A   1      44.328  38.373  35.496  1.00  0.00     0.031 A 
BRANCH  56  70
ATOM     70  C   UNL A   1      44.891  37.877  29.367  1.00  0.00    -0.014 A 
ATOM     71  C   UNL A   1      44.232  38.747  28.481  1.00  0.00     0.010 A 
ATOM     72  C   UNL A   1      46.212  37.482  29.090  1.00  0.00     0.010 A 
ATOM     73  C   UNL A   1      44.880  39.204  27.331  1.00  0.00     0.020 A 
ATOM     74  C   UNL A   1      46.872  37.957  27.955  1.00  0.00     0.020 A 
ATOM     75  C   UNL A   1      46.199  38.811  27.079  1.00  0.00     0.054 A 
BRANCH  75  76
ATOM     76  S   UNL A   1      47.039  39.475  25.616  1.00  0.00     0.124 S 
ATOM     77  O   UNL A   1      47.978  40.424  26.212  1.00  0.00    -0.237 OA
ATOM     78  O   UNL A   1      47.642  38.283  25.026  1.00  0.00    -0.237 OA
ATOM     79  O   UNL A   1      45.960  40.074  24.837  1.00  0.00    -0.744 OA
ENDBRANCH  75  76
ENDBRANCH  56  70
BRANCH  57  80
ATOM     80  C   UNL A   1      40.498  34.164  37.601  1.00  0.00    -0.014 A 
ATOM     81  C   UNL A   1      39.220  34.540  38.051  1.00  0.00     0.010 A 
ATOM     82  C   UNL A   1      41.245  33.249  38.365  1.00  0.00     0.010 A 
ATOM     83  C   UNL A   1      38.714  34.042  39.257  1.00  0.00     0.020 A 
ATOM     84  C   UNL A   1      40.732  32.724  39.556  1.00  0.00     0.020 A 
ATOM     85  C   UNL A   1      39.477  33.138  40.003  1.00  0.00     0.054 A 
BRANCH  85  86
ATOM     86  S   UNL A   1      38.798  32.489  41.556  1.00  0.00     0.124 S 
ATOM     87  O   UNL A   1      39.526  31.233  41.705  1.00  0.00    -0.237 OA
ATOM     88  O   UNL A   1      39.141  33.538  42.514  1.00  0.00    -0.237 OA
ATOM     89  O   UNL A   1      37.370  32.356  41.275  1.00  0.00    -0.744 OA
ENDBRANCH  85  86
ENDBRANCH  57  80
BRANCH  69  90
ATOM     90  C   UNL A   1      44.980  39.392  36.388  1.00  0.00    -0.014 A 
ATOM     91  C   UNL A   1      46.218  39.143  37.004  1.00  0.00     0.010 A 
ATOM     92  C   UNL A   1      44.399  40.669  36.498  1.00  0.00     0.010 A 
ATOM     93  C   UNL A   1      46.861  40.155  37.720  1.00  0.00     0.020 A 
ATOM     94  C   UNL A   1      45.051  41.690  37.190  1.00  0.00     0.020 A 
ATOM     95  C   UNL A   1      46.276  41.424  37.802  1.00  0.00     0.054 A 
BRANCH  95  96
ATOM     96  S   UNL A   1      47.176  42.746  38.658  1.00  0.00     0.124 S 
ATOM     97  O   UNL A   1      46.396  43.926  38.298  1.00  0.00    -0.237 OA
ATOM     98  O   UNL A   1      47.090  42.338  40.058  1.00  0.00    -0.237 OA
ATOM     99  O   UNL A   1      48.517  42.685  38.079  1.00  0.00    -0.744 OA
ENDBRANCH  95  96
ENDBRANCH  69  90
ENDBRANCH  43  44
ENDBRANCH  36  38
ENDBRANCH  35  36
ENDBRANCH  34  35
ENDBRANCH  33  34
ENDBRANCH  32  33
ENDBRANCH  31  32
ENDBRANCH  30  31
ENDBRANCH  29  30
ENDBRANCH   1  29
TORSDOF 28
ENDMDL
