MODEL 1
REMARK VINA RESULT:     -10.0      0.000      0.000
REMARK SMILES Cc1nccn1CCC[NH+]1CCC2(CC1)[C@@H](C(=O)OCCOCCOCCOCCOC(=O)c1ccc(-c3c4nc(c(-c5ccc(S(=O)(=O)[O-])cc5)c5ccc([nH]5)c(-c5ccc(S(=O)(=O)[O-])cc5)c5nc(c(-c6ccc(S(=O)(=O)[O-])cc6)c6ccc3[nH]6)C=C5)C=C4)cc1)CC(=O)N2C
REMARK SMILES IDX 24 1 23 2 22 3 21 4 20 5 19 6 17 7 18 8 16 9 10 10 11 11
REMARK SMILES IDX 15 12 12 14 14 15 13 16 97 17 94 18 95 19 98 20 96 21 9 22
REMARK SMILES IDX 8 23 7 24 6 25 1 26 2 27 3 28 4 29 5 30 25 31 26 32 27 33
REMARK SMILES IDX 28 34 29 35 30 36 31 37 32 38 33 39 34 40 35 41 93 42 36 43
REMARK SMILES IDX 92 44 37 45 38 46 39 47 86 48 40 49 91 50 85 51 87 52 41 53
REMARK SMILES IDX 90 54 84 55 83 56 42 58 72 59 53 60 71 61 54 62 57 63 70 64
REMARK SMILES IDX 88 65 55 66 56 67 69 69 89 70 58 71 43 72 44 73 52 74 45 75
REMARK SMILES IDX 51 76 46 77 47 78 48 79 49 80 50 81 73 82 74 83 82 84 75 85
REMARK SMILES IDX 81 86 76 87 77 88 78 89 79 90 80 91 59 92 60 93 68 94 61 95
REMARK SMILES IDX 67 96 62 97 63 98 64 99 65 100 66 101
REMARK H PARENT 10 13 87 57 57 68
REMARK Flexibility Score: inf
ROOT
ATOM      1  C   UNL A   1      35.474  22.908  26.194  1.00  0.00     0.188 C 
ENDROOT
BRANCH   1   2
ATOM      2  C   UNL A   1      34.523  21.975  26.945  1.00  0.00     0.188 C 
BRANCH   2   3
ATOM      3  O   UNL A   1      33.221  22.438  27.269  1.00  0.00    -0.376 OA
BRANCH   3   4
ATOM      4  C   UNL A   1      32.431  23.227  26.393  1.00  0.00     0.202 C 
BRANCH   4   5
ATOM      5  C   UNL A   1      30.953  23.483  26.688  1.00  0.00     0.261 C 
BRANCH   5   6
ATOM      6  O   UNL A   1      30.396  24.533  25.866  1.00  0.00    -0.463 OA
BRANCH   6   7
ATOM      7  C   UNL A   1      30.889  25.776  26.048  1.00  0.00     0.311 C 
ATOM      8  O   UNL A   1      31.116  26.233  27.166  1.00  0.00    -0.252 OA
BRANCH   7   9
ATOM      9  C   UNL A   1      31.142  26.623  24.796  1.00  0.00     0.134 C 
ATOM     10  N   UNL A   1      33.396  24.579  21.833  1.00  0.00    -0.335 N 
ATOM     11  C   UNL A   1      32.587  25.653  21.304  1.00  0.00     0.264 C 
ATOM     12  C   UNL A   1      34.275  24.978  22.901  1.00  0.00     0.264 C 
ATOM     13  H   UNL A   1      34.066  24.388  21.088  1.00  0.00     0.348 HD
ATOM     14  C   UNL A   1      31.695  26.272  22.365  1.00  0.00     0.091 C 
ATOM     15  C   UNL A   1      33.520  25.583  24.084  1.00  0.00     0.091 C 
ATOM     16  C   UNL A   1      32.348  26.558  23.758  1.00  0.00     0.067 C 
ATOM     17  N   UNL A   1      32.844  27.957  23.776  1.00  0.00    -0.339 N 
ATOM     18  C   UNL A   1      31.024  28.089  25.240  1.00  0.00     0.118 C 
ATOM     19  C   UNL A   1      32.129  28.826  24.572  1.00  0.00     0.223 C 
ATOM     20  C   UNL A   1      33.937  28.478  22.975  1.00  0.00     0.147 C 
ATOM     21  O   UNL A   1      32.340  30.019  24.722  1.00  0.00    -0.275 OA
BRANCH  10  22
ATOM     22  C   UNL A   1      32.961  23.205  21.688  1.00  0.00     0.264 C 
BRANCH  22  23
ATOM     23  C   UNL A   1      33.022  22.210  22.860  1.00  0.00     0.083 C 
BRANCH  23  24
ATOM     24  C   UNL A   1      32.017  21.063  22.967  1.00  0.00     0.129 C 
BRANCH  24  25
ATOM     25  N   UNL A   1      32.276  19.867  23.740  1.00  0.00    -0.335 N 
ATOM     26  C   UNL A   1      32.260  18.218  21.778  1.00  0.00     0.087 C 
ATOM     27  C   UNL A   1      32.472  18.603  23.199  1.00  0.00     0.105 A 
ATOM     28  N   UNL A   1      32.911  17.769  24.120  1.00  0.00    -0.242 NA
ATOM     29  C   UNL A   1      32.972  18.486  25.278  1.00  0.00     0.131 A 
ATOM     30  C   UNL A   1      32.551  19.777  25.073  1.00  0.00     0.107 A 
ENDBRANCH  24  25
ENDBRANCH  23  24
ENDBRANCH  22  23
ENDBRANCH  10  22
ENDBRANCH   7   9
ENDBRANCH   6   7
ENDBRANCH   5   6
ENDBRANCH   4   5
ENDBRANCH   3   4
ENDBRANCH   2   3
ENDBRANCH   1   2
BRANCH   1  31
ATOM     31  O   UNL A   1      35.783  22.697  24.835  1.00  0.00    -0.377 OA
BRANCH  31  32
ATOM     32  C   UNL A   1      36.875  21.859  24.538  1.00  0.00     0.188 C 
BRANCH  32  33
ATOM     33  C   UNL A   1      37.736  21.506  25.759  1.00  0.00     0.188 C 
BRANCH  33  34
ATOM     34  O   UNL A   1      38.516  22.474  26.465  1.00  0.00    -0.376 OA
BRANCH  34  35
ATOM     35  C   UNL A   1      39.923  22.360  26.605  1.00  0.00     0.202 C 
BRANCH  35  36
ATOM     36  C   UNL A   1      40.500  20.947  26.534  1.00  0.00     0.261 C 
BRANCH  36  37
ATOM     37  O   UNL A   1      41.404  20.736  25.460  1.00  0.00    -0.460 OA
BRANCH  37  38
ATOM     38  C   UNL A   1      42.689  20.562  25.845  1.00  0.00     0.338 C 
ATOM     39  O   UNL A   1      43.220  19.537  26.231  1.00  0.00    -0.246 OA
BRANCH  38  40
ATOM     40  C   UNL A   1      43.338  21.878  25.901  1.00  0.00     0.060 A 
ATOM     41  C   UNL A   1      43.895  22.193  27.138  1.00  0.00     0.016 A 
ATOM     42  C   UNL A   1      43.090  22.855  24.921  1.00  0.00     0.016 A 
ATOM     43  C   UNL A   1      43.908  23.513  27.509  1.00  0.00     0.010 A 
ATOM     44  C   UNL A   1      43.118  24.183  25.292  1.00  0.00     0.010 A 
ATOM     45  C   UNL A   1      43.408  24.475  26.620  1.00  0.00    -0.014 A 
BRANCH  45  46
ATOM     46  C   UNL A   1      43.140  25.770  27.204  1.00  0.00     0.031 A 
ATOM     47  C   UNL A   1      44.213  26.758  27.020  1.00  0.00     0.074 A 
ATOM     48  C   UNL A   1      42.039  26.040  27.927  1.00  0.00     0.049 A 
ATOM     49  N   UNL A   1      45.028  27.213  27.910  1.00  0.00    -0.248 NA
ATOM     50  C   UNL A   1      44.493  27.174  25.642  1.00  0.00     0.031 C 
ATOM     51  C   UNL A   1      40.785  25.287  27.991  1.00  0.00     0.029 A 
ATOM     52  N   UNL A   1      41.796  27.135  28.697  1.00  0.00    -0.354 N 
ATOM     53  C   UNL A   1      45.821  28.130  27.239  1.00  0.00     0.074 A 
ATOM     54  C   UNL A   1      45.553  27.958  25.829  1.00  0.00     0.031 C 
ATOM     55  C   UNL A   1      39.842  26.067  28.566  1.00  0.00     0.029 A 
ATOM     56  C   UNL A   1      40.461  27.302  29.021  1.00  0.00     0.049 A 
ATOM     57  H   UNL A   1      42.504  27.749  28.997  1.00  0.00     0.167 HD
ATOM     58  C   UNL A   1      46.478  29.128  27.884  1.00  0.00     0.031 A 
ATOM     59  C   UNL A   1      39.903  28.427  29.526  1.00  0.00     0.031 A 
ATOM     60  C   UNL A   1      46.595  28.901  29.298  1.00  0.00     0.049 A 
ATOM     61  C   UNL A   1      40.980  29.234  30.153  1.00  0.00     0.074 A 
ATOM     62  C   UNL A   1      47.182  27.926  30.081  1.00  0.00     0.029 A 
ATOM     63  N   UNL A   1      45.752  29.601  30.128  1.00  0.00    -0.354 N 
ATOM     64  N   UNL A   1      41.614  28.886  31.237  1.00  0.00    -0.248 NA
ATOM     65  C   UNL A   1      41.628  30.276  29.368  1.00  0.00     0.031 C 
ATOM     66  C   UNL A   1      46.355  27.817  31.236  1.00  0.00     0.029 A 
ATOM     67  C   UNL A   1      45.312  28.736  31.100  1.00  0.00     0.049 A 
ATOM     68  H   UNL A   1      45.508  30.551  30.043  1.00  0.00     0.167 HD
ATOM     69  C   UNL A   1      42.908  29.362  31.072  1.00  0.00     0.074 A 
ATOM     70  C   UNL A   1      42.821  30.309  29.969  1.00  0.00     0.031 C 
ATOM     71  C   UNL A   1      43.975  28.744  31.663  1.00  0.00     0.031 A 
BRANCH  58  72
ATOM     72  C   UNL A   1      46.677  30.476  27.254  1.00  0.00    -0.014 A 
ATOM     73  C   UNL A   1      47.861  31.192  27.500  1.00  0.00     0.010 A 
ATOM     74  C   UNL A   1      45.613  31.170  26.634  1.00  0.00     0.010 A 
ATOM     75  C   UNL A   1      47.956  32.552  27.177  1.00  0.00     0.020 A 
ATOM     76  C   UNL A   1      45.716  32.507  26.263  1.00  0.00     0.020 A 
ATOM     77  C   UNL A   1      46.875  33.201  26.574  1.00  0.00     0.054 A 
BRANCH  77  78
ATOM     78  S   UNL A   1      46.956  34.981  26.269  1.00  0.00     0.124 S 
ATOM     79  O   UNL A   1      48.354  35.151  25.885  1.00  0.00    -0.237 OA
ATOM     80  O   UNL A   1      45.976  35.161  25.202  1.00  0.00    -0.237 OA
ATOM     81  O   UNL A   1      46.581  35.564  27.555  1.00  0.00    -0.744 OA
ENDBRANCH  77  78
ENDBRANCH  58  72
BRANCH  59  82
ATOM     82  C   UNL A   1      38.570  28.974  29.180  1.00  0.00    -0.014 A 
ATOM     83  C   UNL A   1      37.539  29.030  30.134  1.00  0.00     0.010 A 
ATOM     84  C   UNL A   1      38.385  29.684  27.974  1.00  0.00     0.010 A 
ATOM     85  C   UNL A   1      36.393  29.810  29.910  1.00  0.00     0.020 A 
ATOM     86  C   UNL A   1      37.240  30.448  27.736  1.00  0.00     0.020 A 
ATOM     87  C   UNL A   1      36.259  30.527  28.718  1.00  0.00     0.054 A 
BRANCH  87  88
ATOM     88  S   UNL A   1      34.861  31.665  28.506  1.00  0.00     0.124 S 
ATOM     89  O   UNL A   1      33.807  30.775  28.032  1.00  0.00    -0.237 OA
ATOM     90  O   UNL A   1      34.682  32.200  29.853  1.00  0.00    -0.237 OA
ATOM     91  O   UNL A   1      35.349  32.629  27.521  1.00  0.00    -0.744 OA
ENDBRANCH  87  88
ENDBRANCH  59  82
BRANCH  71  92
ATOM     92  C   UNL A   1      43.710  27.767  32.787  1.00  0.00    -0.014 A 
ATOM     93  C   UNL A   1      43.870  26.374  32.652  1.00  0.00     0.010 A 
ATOM     94  C   UNL A   1      43.428  28.286  34.065  1.00  0.00     0.010 A 
ATOM     95  C   UNL A   1      43.727  25.524  33.757  1.00  0.00     0.020 A 
ATOM     96  C   UNL A   1      43.302  27.444  35.175  1.00  0.00     0.020 A 
ATOM     97  C   UNL A   1      43.443  26.065  35.014  1.00  0.00     0.054 A 
BRANCH  97  98
ATOM     98  S   UNL A   1      43.327  24.961  36.450  1.00  0.00     0.124 S 
ATOM     99  O   UNL A   1      44.393  25.458  37.317  1.00  0.00    -0.237 OA
ATOM    100  O   UNL A   1      41.967  25.190  36.930  1.00  0.00    -0.237 OA
ATOM    101  O   UNL A   1      43.559  23.632  35.886  1.00  0.00    -0.744 OA
ENDBRANCH  97  98
ENDBRANCH  71  92
ENDBRANCH  45  46
ENDBRANCH  38  40
ENDBRANCH  37  38
ENDBRANCH  36  37
ENDBRANCH  35  36
ENDBRANCH  34  35
ENDBRANCH  33  34
ENDBRANCH  32  33
ENDBRANCH  31  32
ENDBRANCH   1  31
TORSDOF 27
ENDMDL
MODEL 2
REMARK VINA RESULT:      -9.8      1.776      2.314
REMARK SMILES Cc1nccn1CCC[NH+]1CCC2(CC1)[C@@H](C(=O)OCCOCCOCCOCCOC(=O)c1ccc(-c3c4nc(c(-c5ccc(S(=O)(=O)[O-])cc5)c5ccc([nH]5)c(-c5ccc(S(=O)(=O)[O-])cc5)c5nc(c(-c6ccc(S(=O)(=O)[O-])cc6)c6ccc3[nH]6)C=C5)C=C4)cc1)CC(=O)N2C
REMARK SMILES IDX 24 1 23 2 22 3 21 4 20 5 19 6 17 7 18 8 16 9 10 10 11 11
REMARK SMILES IDX 15 12 12 14 14 15 13 16 97 17 94 18 95 19 98 20 96 21 9 22
REMARK SMILES IDX 8 23 7 24 6 25 1 26 2 27 3 28 4 29 5 30 25 31 26 32 27 33
REMARK SMILES IDX 28 34 29 35 30 36 31 37 32 38 33 39 34 40 35 41 93 42 36 43
REMARK SMILES IDX 92 44 37 45 38 46 39 47 86 48 40 49 91 50 85 51 87 52 41 53
REMARK SMILES IDX 90 54 84 55 83 56 42 58 72 59 53 60 71 61 54 62 57 63 70 64
REMARK SMILES IDX 88 65 55 66 56 67 69 69 89 70 58 71 43 72 44 73 52 74 45 75
REMARK SMILES IDX 51 76 46 77 47 78 48 79 49 80 50 81 73 82 74 83 82 84 75 85
REMARK SMILES IDX 81 86 76 87 77 88 78 89 79 90 80 91 59 92 60 93 68 94 61 95
REMARK SMILES IDX 67 96 62 97 63 98 64 99 65 100 66 101
REMARK H PARENT 10 13 87 57 57 68
REMARK Flexibility Score: inf
ROOT
ATOM      1  C   UNL A   1      35.623  23.737  25.888  1.00  0.00     0.188 C 
ENDROOT
BRANCH   1   2
ATOM      2  C   UNL A   1      34.811  22.806  26.791  1.00  0.00     0.188 C 
BRANCH   2   3
ATOM      3  O   UNL A   1      33.418  22.665  26.555  1.00  0.00    -0.376 OA
BRANCH   3   4
ATOM      4  C   UNL A   1      32.475  23.700  26.787  1.00  0.00     0.202 C 
BRANCH   4   5
ATOM      5  C   UNL A   1      30.975  23.413  26.765  1.00  0.00     0.261 C 
BRANCH   5   6
ATOM      6  O   UNL A   1      30.301  24.059  25.661  1.00  0.00    -0.463 OA
BRANCH   6   7
ATOM      7  C   UNL A   1      30.239  25.407  25.692  1.00  0.00     0.311 C 
ATOM      8  O   UNL A   1      30.026  26.030  26.730  1.00  0.00    -0.252 OA
BRANCH   7   9
ATOM      9  C   UNL A   1      30.426  26.150  24.365  1.00  0.00     0.134 C 
ATOM     10  N   UNL A   1      33.658  24.644  22.057  1.00  0.00    -0.335 N 
ATOM     11  C   UNL A   1      32.660  25.332  21.272  1.00  0.00     0.264 C 
ATOM     12  C   UNL A   1      34.183  25.420  23.150  1.00  0.00     0.264 C 
ATOM     13  H   UNL A   1      34.469  24.603  21.440  1.00  0.00     0.348 HD
ATOM     14  C   UNL A   1      31.458  25.738  22.105  1.00  0.00     0.091 C 
ATOM     15  C   UNL A   1      33.092  25.871  24.122  1.00  0.00     0.091 C 
ATOM     16  C   UNL A   1      31.750  26.369  23.506  1.00  0.00     0.067 C 
ATOM     17  N   UNL A   1      31.784  27.847  23.368  1.00  0.00    -0.339 N 
ATOM     18  C   UNL A   1      29.793  27.537  24.557  1.00  0.00     0.118 C 
ATOM     19  C   UNL A   1      30.715  28.517  23.924  1.00  0.00     0.223 C 
ATOM     20  C   UNL A   1      32.783  28.605  22.637  1.00  0.00     0.147 C 
ATOM     21  O   UNL A   1      30.524  29.722  23.912  1.00  0.00    -0.275 OA
BRANCH  10  22
ATOM     22  C   UNL A   1      33.695  23.196  22.075  1.00  0.00     0.264 C 
BRANCH  22  23
ATOM     23  C   UNL A   1      33.098  22.387  23.239  1.00  0.00     0.083 C 
BRANCH  23  24
ATOM     24  C   UNL A   1      32.247  21.144  22.974  1.00  0.00     0.129 C 
BRANCH  24  25
ATOM     25  N   UNL A   1      32.332  19.951  23.789  1.00  0.00    -0.335 N 
ATOM     26  C   UNL A   1      32.280  18.256  21.867  1.00  0.00     0.087 C 
ATOM     27  C   UNL A   1      32.435  18.659  23.291  1.00  0.00     0.105 A 
ATOM     28  N   UNL A   1      32.725  17.812  24.258  1.00  0.00    -0.242 NA
ATOM     29  C   UNL A   1      32.780  18.553  25.402  1.00  0.00     0.131 A 
ATOM     30  C   UNL A   1      32.507  19.872  25.140  1.00  0.00     0.107 A 
ENDBRANCH  24  25
ENDBRANCH  23  24
ENDBRANCH  22  23
ENDBRANCH  10  22
ENDBRANCH   7   9
ENDBRANCH   6   7
ENDBRANCH   5   6
ENDBRANCH   4   5
ENDBRANCH   3   4
ENDBRANCH   2   3
ENDBRANCH   1   2
BRANCH   1  31
ATOM     31  O   UNL A   1      36.997  23.519  25.662  1.00  0.00    -0.377 OA
BRANCH  31  32
ATOM     32  C   UNL A   1      37.474  22.199  25.773  1.00  0.00     0.188 C 
BRANCH  32  33
ATOM     33  C   UNL A   1      38.988  22.106  26.019  1.00  0.00     0.188 C 
BRANCH  33  34
ATOM     34  O   UNL A   1      39.604  20.977  26.644  1.00  0.00    -0.376 OA
BRANCH  34  35
ATOM     35  C   UNL A   1      40.841  21.071  27.330  1.00  0.00     0.202 C 
BRANCH  35  36
ATOM     36  C   UNL A   1      41.286  22.475  27.738  1.00  0.00     0.261 C 
BRANCH  36  37
ATOM     37  O   UNL A   1      42.687  22.691  27.664  1.00  0.00    -0.460 OA
BRANCH  37  38
ATOM     38  C   UNL A   1      43.128  23.047  26.436  1.00  0.00     0.338 C 
ATOM     39  O   UNL A   1      43.389  22.319  25.497  1.00  0.00    -0.246 OA
BRANCH  38  40
ATOM     40  C   UNL A   1      43.428  24.486  26.450  1.00  0.00     0.060 A 
ATOM     41  C   UNL A   1      44.151  24.912  27.561  1.00  0.00     0.016 A 
ATOM     42  C   UNL A   1      42.734  25.382  25.619  1.00  0.00     0.016 A 
ATOM     43  C   UNL A   1      43.921  26.184  28.017  1.00  0.00     0.010 A 
ATOM     44  C   UNL A   1      42.516  26.666  26.072  1.00  0.00     0.010 A 
ATOM     45  C   UNL A   1      43.015  27.000  27.326  1.00  0.00    -0.014 A 
BRANCH  45  46
ATOM     46  C   UNL A   1      42.573  28.173  28.047  1.00  0.00     0.031 A 
ATOM     47  C   UNL A   1      43.588  29.228  28.179  1.00  0.00     0.074 A 
ATOM     48  C   UNL A   1      41.363  28.272  28.624  1.00  0.00     0.049 A 
ATOM     49  N   UNL A   1      44.231  29.577  29.241  1.00  0.00    -0.248 NA
ATOM     50  C   UNL A   1      44.033  29.870  26.938  1.00  0.00     0.031 C 
ATOM     51  C   UNL A   1      40.169  27.459  28.383  1.00  0.00     0.029 A 
ATOM     52  N   UNL A   1      40.932  29.219  29.502  1.00  0.00    -0.354 N 
ATOM     53  C   UNL A   1      45.044  30.626  28.844  1.00  0.00     0.074 A 
ATOM     54  C   UNL A   1      44.996  30.665  27.400  1.00  0.00     0.031 C 
ATOM     55  C   UNL A   1      39.099  28.092  28.914  1.00  0.00     0.029 A 
ATOM     56  C   UNL A   1      39.557  29.269  29.637  1.00  0.00     0.049 A 
ATOM     57  H   UNL A   1      41.544  29.812  29.994  1.00  0.00     0.167 HD
ATOM     58  C   UNL A   1      45.528  31.540  29.723  1.00  0.00     0.031 A 
ATOM     59  C   UNL A   1      38.852  30.272  30.211  1.00  0.00     0.031 A 
ATOM     60  C   UNL A   1      45.455  31.099  31.089  1.00  0.00     0.049 A 
ATOM     61  C   UNL A   1      39.766  31.022  31.110  1.00  0.00     0.074 A 
ATOM     62  C   UNL A   1      45.991  30.043  31.800  1.00  0.00     0.029 A 
ATOM     63  N   UNL A   1      44.454  31.619  31.874  1.00  0.00    -0.354 N 
ATOM     64  N   UNL A   1      40.260  30.539  32.215  1.00  0.00    -0.248 NA
ATOM     65  C   UNL A   1      40.445  32.204  30.597  1.00  0.00     0.031 C 
ATOM     66  C   UNL A   1      45.016  29.715  32.785  1.00  0.00     0.029 A 
ATOM     67  C   UNL A   1      43.940  30.591  32.628  1.00  0.00     0.049 A 
ATOM     68  H   UNL A   1      44.157  32.557  31.893  1.00  0.00     0.167 HD
ATOM     69  C   UNL A   1      41.527  31.096  32.323  1.00  0.00     0.074 A 
ATOM     70  C   UNL A   1      41.533  32.200  31.372  1.00  0.00     0.031 C 
ATOM     71  C   UNL A   1      42.539  30.446  32.973  1.00  0.00     0.031 A 
BRANCH  58  72
ATOM     72  C   UNL A   1      45.719  32.979  29.338  1.00  0.00    -0.014 A 
ATOM     73  C   UNL A   1      44.714  33.917  29.627  1.00  0.00     0.010 A 
ATOM     74  C   UNL A   1      46.754  33.383  28.464  1.00  0.00     0.010 A 
ATOM     75  C   UNL A   1      44.725  35.185  29.034  1.00  0.00     0.020 A 
ATOM     76  C   UNL A   1      46.801  34.657  27.909  1.00  0.00     0.020 A 
ATOM     77  C   UNL A   1      45.762  35.538  28.167  1.00  0.00     0.054 A 
BRANCH  77  78
ATOM     78  S   UNL A   1      45.711  37.129  27.308  1.00  0.00     0.124 S 
ATOM     79  O   UNL A   1      44.336  37.154  26.818  1.00  0.00    -0.237 OA
ATOM     80  O   UNL A   1      46.023  38.072  28.378  1.00  0.00    -0.237 OA
ATOM     81  O   UNL A   1      46.743  36.996  26.283  1.00  0.00    -0.744 OA
ENDBRANCH  77  78
ENDBRANCH  58  72
BRANCH  59  82
ATOM     82  C   UNL A   1      37.547  30.802  29.749  1.00  0.00    -0.014 A 
ATOM     83  C   UNL A   1      36.543  31.156  30.667  1.00  0.00     0.010 A 
ATOM     84  C   UNL A   1      37.379  31.203  28.406  1.00  0.00     0.010 A 
ATOM     85  C   UNL A   1      35.442  31.929  30.265  1.00  0.00     0.020 A 
ATOM     86  C   UNL A   1      36.278  31.958  27.995  1.00  0.00     0.020 A 
ATOM     87  C   UNL A   1      35.326  32.338  28.933  1.00  0.00     0.054 A 
BRANCH  87  88
ATOM     88  S   UNL A   1      33.995  33.476  28.456  1.00  0.00     0.124 S 
ATOM     89  O   UNL A   1      33.068  32.593  27.756  1.00  0.00    -0.237 OA
ATOM     90  O   UNL A   1      33.535  33.985  29.745  1.00  0.00    -0.237 OA
ATOM     91  O   UNL A   1      34.670  34.461  27.611  1.00  0.00    -0.744 OA
ENDBRANCH  87  88
ENDBRANCH  59  82
BRANCH  71  92
ATOM     92  C   UNL A   1      42.184  29.293  33.886  1.00  0.00    -0.014 A 
ATOM     93  C   UNL A   1      42.201  27.947  33.470  1.00  0.00     0.010 A 
ATOM     94  C   UNL A   1      41.966  29.568  35.248  1.00  0.00     0.010 A 
ATOM     95  C   UNL A   1      41.981  26.909  34.385  1.00  0.00     0.020 A 
ATOM     96  C   UNL A   1      41.764  28.535  36.171  1.00  0.00     0.020 A 
ATOM     97  C   UNL A   1      41.764  27.210  35.733  1.00  0.00     0.054 A 
BRANCH  97  98
ATOM     98  S   UNL A   1      41.547  25.855  36.921  1.00  0.00     0.124 S 
ATOM     99  O   UNL A   1      41.396  24.692  36.051  1.00  0.00    -0.237 OA
ATOM    100  O   UNL A   1      42.783  25.902  37.699  1.00  0.00    -0.237 OA
ATOM    101  O   UNL A   1      40.344  26.233  37.663  1.00  0.00    -0.744 OA
ENDBRANCH  97  98
ENDBRANCH  71  92
ENDBRANCH  45  46
ENDBRANCH  38  40
ENDBRANCH  37  38
ENDBRANCH  36  37
ENDBRANCH  35  36
ENDBRANCH  34  35
ENDBRANCH  33  34
ENDBRANCH  32  33
ENDBRANCH  31  32
ENDBRANCH   1  31
TORSDOF 27
ENDMDL
MODEL 3
REMARK VINA RESULT:      -8.4      3.318      5.466
REMARK SMILES Cc1nccn1CCC[NH+]1CCC2(CC1)[C@@H](C(=O)OCCOCCOCCOCCOC(=O)c1ccc(-c3c4nc(c(-c5ccc(S(=O)(=O)[O-])cc5)c5ccc([nH]5)c(-c5ccc(S(=O)(=O)[O-])cc5)c5nc(c(-c6ccc(S(=O)(=O)[O-])cc6)c6ccc3[nH]6)C=C5)C=C4)cc1)CC(=O)N2C
REMARK SMILES IDX 24 1 23 2 22 3 21 4 20 5 19 6 17 7 18 8 16 9 10 10 11 11
REMARK SMILES IDX 15 12 12 14 14 15 13 16 97 17 94 18 95 19 98 20 96 21 9 22
REMARK SMILES IDX 8 23 7 24 6 25 1 26 2 27 3 28 4 29 5 30 25 31 26 32 27 33
REMARK SMILES IDX 28 34 29 35 30 36 31 37 32 38 33 39 34 40 35 41 93 42 36 43
REMARK SMILES IDX 92 44 37 45 38 46 39 47 86 48 40 49 91 50 85 51 87 52 41 53
REMARK SMILES IDX 90 54 84 55 83 56 42 58 72 59 53 60 71 61 54 62 57 63 70 64
REMARK SMILES IDX 88 65 55 66 56 67 69 69 89 70 58 71 43 72 44 73 52 74 45 75
REMARK SMILES IDX 51 76 46 77 47 78 48 79 49 80 50 81 73 82 74 83 82 84 75 85
REMARK SMILES IDX 81 86 76 87 77 88 78 89 79 90 80 91 59 92 60 93 68 94 61 95
REMARK SMILES IDX 67 96 62 97 63 98 64 99 65 100 66 101
REMARK H PARENT 10 13 87 57 57 68
REMARK Flexibility Score: inf
ROOT
ATOM      1  C   UNL A   1      39.879  25.558  28.413  1.00  0.00     0.188 C 
ENDROOT
BRANCH   1   2
ATOM      2  C   UNL A   1      40.322  27.020  28.343  1.00  0.00     0.188 C 
BRANCH   2   3
ATOM      3  O   UNL A   1      39.378  28.005  27.951  1.00  0.00    -0.376 OA
BRANCH   3   4
ATOM      4  C   UNL A   1      38.202  28.300  28.689  1.00  0.00     0.202 C 
BRANCH   4   5
ATOM      5  C   UNL A   1      37.368  29.539  28.371  1.00  0.00     0.261 C 
BRANCH   5   6
ATOM      6  O   UNL A   1      36.157  29.225  27.646  1.00  0.00    -0.463 OA
BRANCH   6   7
ATOM      7  C   UNL A   1      35.258  30.221  27.502  1.00  0.00     0.311 C 
ATOM      8  O   UNL A   1      35.585  31.406  27.511  1.00  0.00    -0.252 OA
BRANCH   7   9
ATOM      9  C   UNL A   1      33.787  29.823  27.343  1.00  0.00     0.134 C 
ATOM     10  N   UNL A   1      33.265  26.217  25.160  1.00  0.00    -0.335 N 
ATOM     11  C   UNL A   1      32.158  26.527  26.035  1.00  0.00     0.264 C 
ATOM     12  C   UNL A   1      33.606  27.275  24.246  1.00  0.00     0.264 C 
ATOM     13  H   UNL A   1      32.884  25.520  24.521  1.00  0.00     0.348 HD
ATOM     14  C   UNL A   1      32.435  27.746  26.897  1.00  0.00     0.091 C 
ATOM     15  C   UNL A   1      33.964  28.576  24.965  1.00  0.00     0.091 C 
ATOM     16  C   UNL A   1      33.086  28.979  26.188  1.00  0.00     0.067 C 
ATOM     17  N   UNL A   1      32.009  29.901  25.745  1.00  0.00    -0.339 N 
ATOM     18  C   UNL A   1      32.974  31.118  27.495  1.00  0.00     0.118 C 
ATOM     19  C   UNL A   1      31.914  31.080  26.453  1.00  0.00     0.223 C 
ATOM     20  C   UNL A   1      31.027  29.621  24.714  1.00  0.00     0.147 C 
ATOM     21  O   UNL A   1      31.096  31.970  26.281  1.00  0.00    -0.275 OA
BRANCH  10  22
ATOM     22  C   UNL A   1      34.237  25.215  25.549  1.00  0.00     0.264 C 
BRANCH  22  23
ATOM     23  C   UNL A   1      34.830  24.226  24.530  1.00  0.00     0.083 C 
BRANCH  23  24
ATOM     24  C   UNL A   1      34.081  22.947  24.154  1.00  0.00     0.129 C 
BRANCH  24  25
ATOM     25  N   UNL A   1      34.522  21.633  24.572  1.00  0.00    -0.335 N 
ATOM     26  C   UNL A   1      32.240  20.477  24.428  1.00  0.00     0.087 C 
ATOM     27  C   UNL A   1      33.715  20.504  24.611  1.00  0.00     0.105 A 
ATOM     28  N   UNL A   1      34.443  19.422  24.807  1.00  0.00    -0.242 NA
ATOM     29  C   UNL A   1      35.731  19.852  24.927  1.00  0.00     0.131 A 
ATOM     30  C   UNL A   1      35.799  21.219  24.819  1.00  0.00     0.107 A 
ENDBRANCH  24  25
ENDBRANCH  23  24
ENDBRANCH  22  23
ENDBRANCH  10  22
ENDBRANCH   7   9
ENDBRANCH   6   7
ENDBRANCH   5   6
ENDBRANCH   4   5
ENDBRANCH   3   4
ENDBRANCH   2   3
ENDBRANCH   1   2
BRANCH   1  31
ATOM     31  O   UNL A   1      40.524  24.562  27.651  1.00  0.00    -0.377 OA
BRANCH  31  32
ATOM     32  C   UNL A   1      39.716  23.704  26.882  1.00  0.00     0.188 C 
BRANCH  32  33
ATOM     33  C   UNL A   1      40.143  22.230  26.942  1.00  0.00     0.188 C 
BRANCH  33  34
ATOM     34  O   UNL A   1      41.177  21.757  27.810  1.00  0.00    -0.376 OA
BRANCH  34  35
ATOM     35  C   UNL A   1      42.066  20.718  27.435  1.00  0.00     0.202 C 
BRANCH  35  36
ATOM     36  C   UNL A   1      42.484  20.679  25.966  1.00  0.00     0.261 C 
BRANCH  36  37
ATOM     37  O   UNL A   1      43.805  21.137  25.720  1.00  0.00    -0.460 OA
BRANCH  37  38
ATOM     38  C   UNL A   1      43.868  22.356  25.138  1.00  0.00     0.338 C 
ATOM     39  O   UNL A   1      43.180  22.786  24.230  1.00  0.00    -0.246 OA
BRANCH  38  40
ATOM     40  C   UNL A   1      45.050  23.057  25.657  1.00  0.00     0.060 A 
ATOM     41  C   UNL A   1      45.249  22.912  27.028  1.00  0.00     0.016 A 
ATOM     42  C   UNL A   1      45.687  24.063  24.910  1.00  0.00     0.016 A 
ATOM     43  C   UNL A   1      45.830  23.957  27.698  1.00  0.00     0.010 A 
ATOM     44  C   UNL A   1      46.283  25.108  25.585  1.00  0.00     0.010 A 
ATOM     45  C   UNL A   1      46.231  25.089  26.975  1.00  0.00    -0.014 A 
BRANCH  45  46
ATOM     46  C   UNL A   1      46.508  26.262  27.774  1.00  0.00     0.031 A 
ATOM     47  C   UNL A   1      47.891  26.356  28.264  1.00  0.00     0.074 A 
ATOM     48  C   UNL A   1      45.569  27.160  28.117  1.00  0.00     0.049 A 
ATOM     49  N   UNL A   1      48.315  26.192  29.471  1.00  0.00    -0.248 NA
ATOM     50  C   UNL A   1      48.938  26.511  27.248  1.00  0.00     0.031 C 
ATOM     51  C   UNL A   1      44.245  27.364  27.526  1.00  0.00     0.029 A 
ATOM     52  N   UNL A   1      45.667  28.160  29.035  1.00  0.00    -0.354 N 
ATOM     53  C   UNL A   1      49.682  26.410  29.407  1.00  0.00     0.074 A 
ATOM     54  C   UNL A   1      50.031  26.453  28.006  1.00  0.00     0.031 C 
ATOM     55  C   UNL A   1      43.767  28.560  27.936  1.00  0.00     0.029 A 
ATOM     56  C   UNL A   1      44.687  29.128  28.911  1.00  0.00     0.049 A 
ATOM     57  H   UNL A   1      46.370  28.190  29.723  1.00  0.00     0.167 HD
ATOM     58  C   UNL A   1      50.409  26.768  30.496  1.00  0.00     0.031 A 
ATOM     59  C   UNL A   1      44.701  30.351  29.491  1.00  0.00     0.031 A 
ATOM     60  C   UNL A   1      49.728  26.511  31.736  1.00  0.00     0.049 A 
ATOM     61  C   UNL A   1      45.622  30.297  30.655  1.00  0.00     0.074 A 
ATOM     62  C   UNL A   1      49.240  25.379  32.359  1.00  0.00     0.029 A 
ATOM     63  N   UNL A   1      49.162  27.580  32.387  1.00  0.00    -0.354 N 
ATOM     64  N   UNL A   1      45.382  29.622  31.743  1.00  0.00    -0.248 NA
ATOM     65  C   UNL A   1      47.009  30.703  30.475  1.00  0.00     0.031 C 
ATOM     66  C   UNL A   1      48.085  25.808  33.075  1.00  0.00     0.029 A 
ATOM     67  C   UNL A   1      47.935  27.179  32.856  1.00  0.00     0.049 A 
ATOM     68  H   UNL A   1      49.562  28.473  32.497  1.00  0.00     0.167 HD
ATOM     69  C   UNL A   1      46.624  29.178  32.179  1.00  0.00     0.074 A 
ATOM     70  C   UNL A   1      47.589  29.976  31.433  1.00  0.00     0.031 C 
ATOM     71  C   UNL A   1      46.756  28.024  32.899  1.00  0.00     0.031 A 
BRANCH  58  72
ATOM     72  C   UNL A   1      51.585  27.695  30.388  1.00  0.00    -0.014 A 
ATOM     73  C   UNL A   1      52.861  27.250  30.774  1.00  0.00     0.010 A 
ATOM     74  C   UNL A   1      51.421  29.080  30.158  1.00  0.00     0.010 A 
ATOM     75  C   UNL A   1      53.910  28.158  30.964  1.00  0.00     0.020 A 
ATOM     76  C   UNL A   1      52.470  29.984  30.294  1.00  0.00     0.020 A 
ATOM     77  C   UNL A   1      53.700  29.520  30.736  1.00  0.00     0.054 A 
BRANCH  77  78
ATOM     78  S   UNL A   1      55.019  30.704  31.096  1.00  0.00     0.124 S 
ATOM     79  O   UNL A   1      56.095  30.214  30.240  1.00  0.00    -0.237 OA
ATOM     80  O   UNL A   1      54.417  31.974  30.699  1.00  0.00    -0.237 OA
ATOM     81  O   UNL A   1      55.235  30.545  32.532  1.00  0.00    -0.744 OA
ENDBRANCH  77  78
ENDBRANCH  58  72
BRANCH  59  82
ATOM     82  C   UNL A   1      44.235  31.617  28.877  1.00  0.00    -0.014 A 
ATOM     83  C   UNL A   1      43.495  32.552  29.621  1.00  0.00     0.010 A 
ATOM     84  C   UNL A   1      44.739  32.027  27.624  1.00  0.00     0.010 A 
ATOM     85  C   UNL A   1      43.315  33.864  29.151  1.00  0.00     0.020 A 
ATOM     86  C   UNL A   1      44.549  33.324  27.142  1.00  0.00     0.020 A 
ATOM     87  C   UNL A   1      43.857  34.244  27.920  1.00  0.00     0.054 A 
BRANCH  87  88
ATOM     88  S   UNL A   1      43.768  35.980  27.398  1.00  0.00     0.124 S 
ATOM     89  O   UNL A   1      45.092  36.199  26.825  1.00  0.00    -0.237 OA
ATOM     90  O   UNL A   1      42.660  35.968  26.447  1.00  0.00    -0.237 OA
ATOM     91  O   UNL A   1      43.503  36.701  28.642  1.00  0.00    -0.744 OA
ENDBRANCH  87  88
ENDBRANCH  59  82
BRANCH  71  92
ATOM     92  C   UNL A   1      45.519  27.425  33.533  1.00  0.00    -0.014 A 
ATOM     93  C   UNL A   1      44.766  26.398  32.932  1.00  0.00     0.010 A 
ATOM     94  C   UNL A   1      45.191  27.814  34.844  1.00  0.00     0.010 A 
ATOM     95  C   UNL A   1      43.700  25.796  33.614  1.00  0.00     0.020 A 
ATOM     96  C   UNL A   1      44.140  27.204  35.538  1.00  0.00     0.020 A 
ATOM     97  C   UNL A   1      43.393  26.203  34.915  1.00  0.00     0.054 A 
BRANCH  97  98
ATOM     98  S   UNL A   1      42.054  25.370  35.814  1.00  0.00     0.124 S 
ATOM     99  O   UNL A   1      40.864  26.057  35.317  1.00  0.00    -0.237 OA
ATOM    100  O   UNL A   1      42.197  23.978  35.397  1.00  0.00    -0.237 OA
ATOM    101  O   UNL A   1      42.370  25.622  37.220  1.00  0.00    -0.744 OA
ENDBRANCH  97  98
ENDBRANCH  71  92
ENDBRANCH  45  46
ENDBRANCH  38  40
ENDBRANCH  37  38
ENDBRANCH  36  37
ENDBRANCH  35  36
ENDBRANCH  34  35
ENDBRANCH  33  34
ENDBRANCH  32  33
ENDBRANCH  31  32
ENDBRANCH   1  31
TORSDOF 27
ENDMDL
