MODEL 1
REMARK VINA RESULT:      -9.8      0.000      0.000
REMARK SMILES Cc1c(Cl)cccc1NC(=O)C[C@](C)(C(=O)OCCOCCOCCOCCOC(=O)c1ccc(-c2c3nc(c(-c4ccc(S(=O)(=O)[O-])cc4)c4ccc([nH]4)c(-c4ccc(S(=O)(=O)[O-])cc4)c4nc(c(-c5ccc(S(=O)(=O)[O-])cc5)c5ccc2[nH]5)C=C4)C=C3)cc1)c1ccccc1
REMARK SMILES IDX 23 1 22 2 21 3 20 4 19 5 18 6 17 7 15 8 16 9 13 10 14 11
REMARK SMILES IDX 12 12 10 13 9 14 11 16 8 17 1 18 2 19 3 20 4 21 5 22 7 23
REMARK SMILES IDX 6 24 92 25 93 26 97 27 94 28 96 29 95 30 24 31 25 32 26 33
REMARK SMILES IDX 27 34 28 35 29 36 30 37 31 38 32 39 33 40 91 41 34 42 90 43
REMARK SMILES IDX 35 44 36 45 37 46 84 47 38 48 89 49 83 50 85 51 39 52 88 53
REMARK SMILES IDX 82 54 81 55 40 57 70 58 51 59 69 60 52 61 55 62 68 63 86 64
REMARK SMILES IDX 53 65 54 66 67 68 87 69 56 70 41 71 42 72 50 73 43 74 49 75
REMARK SMILES IDX 44 76 45 77 46 78 47 79 48 80 71 81 72 82 80 83 73 84 79 85
REMARK SMILES IDX 74 86 75 87 76 88 77 89 78 90 57 91 58 92 66 93 59 94 65 95
REMARK SMILES IDX 60 96 61 97 62 98 63 99 64 100
REMARK H PARENT 9 15 85 56 55 67
REMARK Flexibility Score: inf
ROOT
ATOM      1  O   UNL A   1      34.109  35.569  28.326  1.00  0.00    -0.377 OA
ENDROOT
BRANCH   1   2
ATOM      2  C   UNL A   1      34.338  34.195  28.075  1.00  0.00     0.188 C 
BRANCH   2   3
ATOM      3  C   UNL A   1      33.115  33.273  27.997  1.00  0.00     0.188 C 
BRANCH   3   4
ATOM      4  O   UNL A   1      33.414  31.935  27.667  1.00  0.00    -0.376 OA
BRANCH   4   5
ATOM      5  C   UNL A   1      32.526  31.198  26.845  1.00  0.00     0.202 C 
BRANCH   5   6
ATOM      6  C   UNL A   1      32.825  29.797  26.287  1.00  0.00     0.261 C 
BRANCH   6   7
ATOM      7  O   UNL A   1      31.866  29.209  25.402  1.00  0.00    -0.463 OA
BRANCH   7   8
ATOM      8  C   UNL A   1      32.273  28.868  24.163  1.00  0.00     0.316 C 
ATOM      9  O   UNL A   1      33.290  29.323  23.647  1.00  0.00    -0.251 OA
BRANCH   8  10
ATOM     10  C   UNL A   1      31.339  27.841  23.460  1.00  0.00     0.099 C 
ATOM     11  C   UNL A   1      31.956  27.060  22.257  1.00  0.00     0.029 C 
BRANCH  10  12
ATOM     12  C   UNL A   1      30.974  26.771  24.541  1.00  0.00     0.123 C 
BRANCH  12  13
ATOM     13  C   UNL A   1      30.665  25.337  24.098  1.00  0.00     0.225 C 
ATOM     14  N   UNL A   1      31.473  24.252  24.274  1.00  0.00    -0.326 N 
ATOM     15  H   UNL A   1      31.016  23.411  24.043  1.00  0.00     0.169 HD
ATOM     16  O   UNL A   1      29.576  25.120  23.549  1.00  0.00    -0.275 OA
BRANCH  14  17
ATOM     17  C   UNL A   1      32.800  24.033  24.703  1.00  0.00     0.045 A 
ATOM     18  C   UNL A   1      33.583  23.775  22.254  1.00  0.00     0.048 C 
ATOM     19  C   UNL A   1      33.817  23.761  23.748  1.00  0.00    -0.009 A 
ATOM     20  C   UNL A   1      35.111  23.419  24.213  1.00  0.00     0.046 A 
ATOM     21  Cl  UNL A   1      36.378  22.949  23.128  1.00  0.00    -0.084 Cl
ATOM     22  C   UNL A   1      35.408  23.392  25.573  1.00  0.00     0.021 A 
ATOM     23  C   UNL A   1      33.146  24.091  26.053  1.00  0.00     0.026 A 
ATOM     24  C   UNL A   1      34.433  23.754  26.491  1.00  0.00     0.004 A 
ENDBRANCH  14  17
ENDBRANCH  12  13
ENDBRANCH  10  12
BRANCH  10  25
ATOM     25  C   UNL A   1      30.095  28.580  22.843  1.00  0.00    -0.030 A 
ATOM     26  C   UNL A   1      30.262  29.700  22.001  1.00  0.00     0.005 A 
ATOM     27  C   UNL A   1      28.773  28.275  23.227  1.00  0.00     0.005 A 
ATOM     28  C   UNL A   1      29.171  30.498  21.626  1.00  0.00     0.000 A 
ATOM     29  C   UNL A   1      27.685  29.068  22.849  1.00  0.00     0.000 A 
ATOM     30  C   UNL A   1      27.884  30.189  22.059  1.00  0.00     0.000 A 
ENDBRANCH  10  25
ENDBRANCH   8  10
ENDBRANCH   7   8
ENDBRANCH   6   7
ENDBRANCH   5   6
ENDBRANCH   4   5
ENDBRANCH   3   4
ENDBRANCH   2   3
ENDBRANCH   1   2
BRANCH   1  31
ATOM     31  C   UNL A   1      33.119  35.957  29.274  1.00  0.00     0.188 C 
BRANCH  31  32
ATOM     32  C   UNL A   1      33.083  35.374  30.705  1.00  0.00     0.188 C 
BRANCH  32  33
ATOM     33  O   UNL A   1      33.459  36.265  31.743  1.00  0.00    -0.376 OA
BRANCH  33  34
ATOM     34  C   UNL A   1      34.633  35.986  32.489  1.00  0.00     0.202 C 
BRANCH  34  35
ATOM     35  C   UNL A   1      34.822  34.559  33.033  1.00  0.00     0.261 C 
BRANCH  35  36
ATOM     36  O   UNL A   1      35.729  33.719  32.303  1.00  0.00    -0.460 OA
BRANCH  36  37
ATOM     37  C   UNL A   1      35.212  32.597  31.767  1.00  0.00     0.338 C 
ATOM     38  O   UNL A   1      34.026  32.329  31.620  1.00  0.00    -0.246 OA
BRANCH  37  39
ATOM     39  C   UNL A   1      36.311  31.791  31.216  1.00  0.00     0.060 A 
ATOM     40  C   UNL A   1      37.163  31.116  32.101  1.00  0.00     0.016 A 
ATOM     41  C   UNL A   1      36.536  31.749  29.838  1.00  0.00     0.016 A 
ATOM     42  C   UNL A   1      38.288  30.459  31.613  1.00  0.00     0.010 A 
ATOM     43  C   UNL A   1      37.676  31.105  29.353  1.00  0.00     0.010 A 
ATOM     44  C   UNL A   1      38.585  30.509  30.246  1.00  0.00    -0.014 A 
BRANCH  44  45
ATOM     45  C   UNL A   1      39.953  30.152  29.800  1.00  0.00     0.031 A 
ATOM     46  C   UNL A   1      41.028  31.203  29.892  1.00  0.00     0.074 A 
ATOM     47  C   UNL A   1      40.253  28.908  29.390  1.00  0.00     0.049 A 
ATOM     48  N   UNL A   1      42.296  31.120  29.585  1.00  0.00    -0.248 NA
ATOM     49  C   UNL A   1      40.617  32.523  30.401  1.00  0.00     0.031 C 
ATOM     50  C   UNL A   1      39.310  27.796  29.317  1.00  0.00     0.029 A 
ATOM     51  N   UNL A   1      41.443  28.372  28.969  1.00  0.00    -0.354 N 
ATOM     52  C   UNL A   1      42.831  32.374  29.857  1.00  0.00     0.074 A 
ATOM     53  C   UNL A   1      41.745  33.210  30.315  1.00  0.00     0.031 C 
ATOM     54  C   UNL A   1      39.960  26.701  28.885  1.00  0.00     0.029 A 
ATOM     55  C   UNL A   1      41.354  27.045  28.618  1.00  0.00     0.049 A 
ATOM     56  H   UNL A   1      42.281  28.886  28.925  1.00  0.00     0.167 HD
ATOM     57  C   UNL A   1      44.114  32.790  29.743  1.00  0.00     0.031 A 
ATOM     58  C   UNL A   1      42.292  26.211  28.124  1.00  0.00     0.031 A 
ATOM     59  C   UNL A   1      45.188  31.958  29.270  1.00  0.00     0.049 A 
ATOM     60  C   UNL A   1      43.697  26.721  27.925  1.00  0.00     0.074 A 
ATOM     61  C   UNL A   1      46.524  32.282  29.116  1.00  0.00     0.029 A 
ATOM     62  N   UNL A   1      45.047  30.638  28.867  1.00  0.00    -0.354 N 
ATOM     63  N   UNL A   1      44.191  27.906  28.195  1.00  0.00    -0.248 NA
ATOM     64  C   UNL A   1      44.673  25.775  27.366  1.00  0.00     0.031 C 
ATOM     65  C   UNL A   1      47.179  31.180  28.560  1.00  0.00     0.029 A 
ATOM     66  C   UNL A   1      46.267  30.141  28.440  1.00  0.00     0.049 A 
ATOM     67  H   UNL A   1      44.205  30.129  28.883  1.00  0.00     0.167 HD
ATOM     68  C   UNL A   1      45.543  27.837  27.874  1.00  0.00     0.074 A 
ATOM     69  C   UNL A   1      45.789  26.490  27.399  1.00  0.00     0.031 C 
ATOM     70  C   UNL A   1      46.497  28.797  27.971  1.00  0.00     0.031 A 
BRANCH  57  71
ATOM     71  C   UNL A   1      44.412  34.225  30.096  1.00  0.00    -0.014 A 
ATOM     72  C   UNL A   1      44.675  34.615  31.422  1.00  0.00     0.010 A 
ATOM     73  C   UNL A   1      44.451  35.195  29.079  1.00  0.00     0.010 A 
ATOM     74  C   UNL A   1      44.926  35.955  31.729  1.00  0.00     0.020 A 
ATOM     75  C   UNL A   1      44.735  36.531  29.376  1.00  0.00     0.020 A 
ATOM     76  C   UNL A   1      44.952  36.906  30.703  1.00  0.00     0.054 A 
BRANCH  76  77
ATOM     77  S   UNL A   1      45.294  38.636  31.128  1.00  0.00     0.124 S 
ATOM     78  O   UNL A   1      43.954  39.149  31.403  1.00  0.00    -0.237 OA
ATOM     79  O   UNL A   1      46.170  38.511  32.290  1.00  0.00    -0.237 OA
ATOM     80  O   UNL A   1      45.930  39.170  29.926  1.00  0.00    -0.744 OA
ENDBRANCH  76  77
ENDBRANCH  57  71
BRANCH  58  81
ATOM     81  C   UNL A   1      41.930  24.809  27.777  1.00  0.00    -0.014 A 
ATOM     82  C   UNL A   1      41.306  24.506  26.554  1.00  0.00     0.010 A 
ATOM     83  C   UNL A   1      42.211  23.763  28.676  1.00  0.00     0.010 A 
ATOM     84  C   UNL A   1      40.957  23.188  26.244  1.00  0.00     0.020 A 
ATOM     85  C   UNL A   1      41.893  22.440  28.356  1.00  0.00     0.020 A 
ATOM     86  C   UNL A   1      41.258  22.162  27.145  1.00  0.00     0.054 A 
BRANCH  86  87
ATOM     87  S   UNL A   1      40.845  20.453  26.696  1.00  0.00     0.124 S 
ATOM     88  O   UNL A   1      40.779  19.803  28.000  1.00  0.00    -0.237 OA
ATOM     89  O   UNL A   1      39.569  20.612  26.001  1.00  0.00    -0.237 OA
ATOM     90  O   UNL A   1      41.961  20.044  25.846  1.00  0.00    -0.744 OA
ENDBRANCH  86  87
ENDBRANCH  58  81
BRANCH  70  91
ATOM     91  C   UNL A   1      47.910  28.418  27.606  1.00  0.00    -0.014 A 
ATOM     92  C   UNL A   1      48.398  28.558  26.295  1.00  0.00     0.010 A 
ATOM     93  C   UNL A   1      48.781  27.964  28.615  1.00  0.00     0.010 A 
ATOM     94  C   UNL A   1      49.720  28.215  25.993  1.00  0.00     0.020 A 
ATOM     95  C   UNL A   1      50.111  27.654  28.323  1.00  0.00     0.020 A 
ATOM     96  C   UNL A   1      50.568  27.765  27.009  1.00  0.00     0.054 A 
BRANCH  96  97
ATOM     97  S   UNL A   1      52.288  27.364  26.598  1.00  0.00     0.124 S 
ATOM     98  O   UNL A   1      52.526  26.174  27.410  1.00  0.00    -0.237 OA
ATOM     99  O   UNL A   1      52.227  27.139  25.156  1.00  0.00    -0.237 OA
ATOM    100  O   UNL A   1      53.030  28.555  27.005  1.00  0.00    -0.744 OA
ENDBRANCH  96  97
ENDBRANCH  70  91
ENDBRANCH  44  45
ENDBRANCH  37  39
ENDBRANCH  36  37
ENDBRANCH  35  36
ENDBRANCH  34  35
ENDBRANCH  33  34
ENDBRANCH  32  33
ENDBRANCH  31  32
ENDBRANCH   1  31
TORSDOF 27
ENDMDL
MODEL 2
REMARK VINA RESULT:      -9.7      1.997      2.906
REMARK SMILES Cc1c(Cl)cccc1NC(=O)C[C@](C)(C(=O)OCCOCCOCCOCCOC(=O)c1ccc(-c2c3nc(c(-c4ccc(S(=O)(=O)[O-])cc4)c4ccc([nH]4)c(-c4ccc(S(=O)(=O)[O-])cc4)c4nc(c(-c5ccc(S(=O)(=O)[O-])cc5)c5ccc2[nH]5)C=C4)C=C3)cc1)c1ccccc1
REMARK SMILES IDX 23 1 22 2 21 3 20 4 19 5 18 6 17 7 15 8 16 9 13 10 14 11
REMARK SMILES IDX 12 12 10 13 9 14 11 16 8 17 1 18 2 19 3 20 4 21 5 22 7 23
REMARK SMILES IDX 6 24 92 25 93 26 97 27 94 28 96 29 95 30 24 31 25 32 26 33
REMARK SMILES IDX 27 34 28 35 29 36 30 37 31 38 32 39 33 40 91 41 34 42 90 43
REMARK SMILES IDX 35 44 36 45 37 46 84 47 38 48 89 49 83 50 85 51 39 52 88 53
REMARK SMILES IDX 82 54 81 55 40 57 70 58 51 59 69 60 52 61 55 62 68 63 86 64
REMARK SMILES IDX 53 65 54 66 67 68 87 69 56 70 41 71 42 72 50 73 43 74 49 75
REMARK SMILES IDX 44 76 45 77 46 78 47 79 48 80 71 81 72 82 80 83 73 84 79 85
REMARK SMILES IDX 74 86 75 87 76 88 77 89 78 90 57 91 58 92 66 93 59 94 65 95
REMARK SMILES IDX 60 96 61 97 62 98 63 99 64 100
REMARK H PARENT 9 15 85 56 55 67
REMARK Flexibility Score: inf
ROOT
ATOM      1  O   UNL A   1      34.492  31.649  27.304  1.00  0.00    -0.377 OA
ENDROOT
BRANCH   1   2
ATOM      2  C   UNL A   1      34.361  30.331  26.806  1.00  0.00     0.188 C 
BRANCH   2   3
ATOM      3  C   UNL A   1      33.017  29.938  26.182  1.00  0.00     0.188 C 
BRANCH   3   4
ATOM      4  O   UNL A   1      31.988  29.703  27.117  1.00  0.00    -0.376 OA
BRANCH   4   5
ATOM      5  C   UNL A   1      31.820  28.408  27.668  1.00  0.00     0.202 C 
BRANCH   5   6
ATOM      6  C   UNL A   1      31.200  27.221  26.913  1.00  0.00     0.261 C 
BRANCH   6   7
ATOM      7  O   UNL A   1      32.083  26.324  26.232  1.00  0.00    -0.463 OA
BRANCH   7   8
ATOM      8  C   UNL A   1      31.555  25.485  25.319  1.00  0.00     0.316 C 
ATOM      9  O   UNL A   1      30.876  24.508  25.626  1.00  0.00    -0.251 OA
BRANCH   8  10
ATOM     10  C   UNL A   1      31.879  25.878  23.849  1.00  0.00     0.099 C 
ATOM     11  C   UNL A   1      33.334  26.373  23.574  1.00  0.00     0.029 C 
BRANCH  10  12
ATOM     12  C   UNL A   1      31.686  24.579  22.999  1.00  0.00     0.123 C 
BRANCH  12  13
ATOM     13  C   UNL A   1      32.896  23.967  22.284  1.00  0.00     0.225 C 
ATOM     14  N   UNL A   1      33.714  22.996  22.781  1.00  0.00    -0.326 N 
ATOM     15  H   UNL A   1      34.336  22.653  22.099  1.00  0.00     0.169 HD
ATOM     16  O   UNL A   1      33.155  24.362  21.139  1.00  0.00    -0.275 OA
BRANCH  14  17
ATOM     17  C   UNL A   1      33.893  22.360  24.028  1.00  0.00     0.045 A 
ATOM     18  C   UNL A   1      32.605  20.283  23.189  1.00  0.00     0.048 C 
ATOM     19  C   UNL A   1      33.329  21.074  24.254  1.00  0.00    -0.009 A 
ATOM     20  C   UNL A   1      33.413  20.515  25.554  1.00  0.00     0.046 A 
ATOM     21  Cl  UNL A   1      32.647  19.013  25.953  1.00  0.00    -0.084 Cl
ATOM     22  C   UNL A   1      34.071  21.177  26.587  1.00  0.00     0.021 A 
ATOM     23  C   UNL A   1      34.626  22.960  25.053  1.00  0.00     0.026 A 
ATOM     24  C   UNL A   1      34.700  22.387  26.328  1.00  0.00     0.004 A 
ENDBRANCH  14  17
ENDBRANCH  12  13
ENDBRANCH  10  12
BRANCH  10  25
ATOM     25  C   UNL A   1      30.971  27.081  23.400  1.00  0.00    -0.030 A 
ATOM     26  C   UNL A   1      31.528  28.349  23.133  1.00  0.00     0.005 A 
ATOM     27  C   UNL A   1      29.562  27.002  23.408  1.00  0.00     0.005 A 
ATOM     28  C   UNL A   1      30.715  29.477  22.949  1.00  0.00     0.000 A 
ATOM     29  C   UNL A   1      28.753  28.127  23.220  1.00  0.00     0.000 A 
ATOM     30  C   UNL A   1      29.329  29.369  23.004  1.00  0.00     0.000 A 
ENDBRANCH  10  25
ENDBRANCH   8  10
ENDBRANCH   7   8
ENDBRANCH   6   7
ENDBRANCH   5   6
ENDBRANCH   4   5
ENDBRANCH   3   4
ENDBRANCH   2   3
ENDBRANCH   1   2
BRANCH   1  31
ATOM     31  C   UNL A   1      34.655  31.862  28.703  1.00  0.00     0.188 C 
BRANCH  31  32
ATOM     32  C   UNL A   1      34.894  33.270  29.295  1.00  0.00     0.188 C 
BRANCH  32  33
ATOM     33  O   UNL A   1      36.055  33.411  30.097  1.00  0.00    -0.376 OA
BRANCH  33  34
ATOM     34  C   UNL A   1      35.912  33.428  31.508  1.00  0.00     0.202 C 
BRANCH  34  35
ATOM     35  C   UNL A   1      35.525  32.114  32.211  1.00  0.00     0.261 C 
BRANCH  35  36
ATOM     36  O   UNL A   1      36.581  31.159  32.391  1.00  0.00    -0.460 OA
BRANCH  36  37
ATOM     37  C   UNL A   1      36.711  30.218  31.436  1.00  0.00     0.338 C 
ATOM     38  O   UNL A   1      35.823  29.518  30.966  1.00  0.00    -0.246 OA
BRANCH  37  39
ATOM     39  C   UNL A   1      38.083  30.272  30.909  1.00  0.00     0.060 A 
ATOM     40  C   UNL A   1      38.269  30.408  29.527  1.00  0.00     0.016 A 
ATOM     41  C   UNL A   1      39.176  30.131  31.766  1.00  0.00     0.016 A 
ATOM     42  C   UNL A   1      39.550  30.325  28.989  1.00  0.00     0.010 A 
ATOM     43  C   UNL A   1      40.459  30.029  31.223  1.00  0.00     0.010 A 
ATOM     44  C   UNL A   1      40.641  30.068  29.829  1.00  0.00    -0.014 A 
BRANCH  44  45
ATOM     45  C   UNL A   1      41.912  29.604  29.224  1.00  0.00     0.031 A 
ATOM     46  C   UNL A   1      43.055  30.580  29.132  1.00  0.00     0.074 A 
ATOM     47  C   UNL A   1      42.075  28.329  28.831  1.00  0.00     0.049 A 
ATOM     48  N   UNL A   1      44.263  30.400  28.667  1.00  0.00    -0.248 NA
ATOM     49  C   UNL A   1      42.801  31.941  29.634  1.00  0.00     0.031 C 
ATOM     50  C   UNL A   1      41.061  27.282  28.928  1.00  0.00     0.029 A 
ATOM     51  N   UNL A   1      43.162  27.698  28.282  1.00  0.00    -0.354 N 
ATOM     52  C   UNL A   1      44.909  31.622  28.813  1.00  0.00     0.074 A 
ATOM     53  C   UNL A   1      43.949  32.546  29.374  1.00  0.00     0.031 C 
ATOM     54  C   UNL A   1      41.577  26.132  28.461  1.00  0.00     0.029 A 
ATOM     55  C   UNL A   1      42.943  26.370  28.001  1.00  0.00     0.049 A 
ATOM     56  H   UNL A   1      44.018  28.152  28.108  1.00  0.00     0.167 HD
ATOM     57  C   UNL A   1      46.190  31.945  28.517  1.00  0.00     0.031 A 
ATOM     58  C   UNL A   1      43.751  25.457  27.425  1.00  0.00     0.031 A 
ATOM     59  C   UNL A   1      47.136  31.025  27.943  1.00  0.00     0.049 A 
ATOM     60  C   UNL A   1      45.147  25.862  27.025  1.00  0.00     0.074 A 
ATOM     61  C   UNL A   1      48.458  31.251  27.604  1.00  0.00     0.029 A 
ATOM     62  N   UNL A   1      46.859  29.706  27.618  1.00  0.00    -0.354 N 
ATOM     63  N   UNL A   1      45.748  27.018  27.178  1.00  0.00    -0.248 NA
ATOM     64  C   UNL A   1      45.978  24.833  26.384  1.00  0.00     0.031 C 
ATOM     65  C   UNL A   1      48.961  30.088  27.014  1.00  0.00     0.029 A 
ATOM     66  C   UNL A   1      47.977  29.112  27.057  1.00  0.00     0.049 A 
ATOM     67  H   UNL A   1      45.995  29.257  27.765  1.00  0.00     0.167 HD
ATOM     68  C   UNL A   1      47.038  26.845  26.687  1.00  0.00     0.074 A 
ATOM     69  C   UNL A   1      47.132  25.470  26.241  1.00  0.00     0.031 C 
ATOM     70  C   UNL A   1      48.056  27.740  26.619  1.00  0.00     0.031 A 
BRANCH  57  71
ATOM     71  C   UNL A   1      46.623  33.366  28.768  1.00  0.00    -0.014 A 
ATOM     72  C   UNL A   1      46.457  34.368  27.793  1.00  0.00     0.010 A 
ATOM     73  C   UNL A   1      47.187  33.710  30.009  1.00  0.00     0.010 A 
ATOM     74  C   UNL A   1      46.888  35.674  28.040  1.00  0.00     0.020 A 
ATOM     75  C   UNL A   1      47.589  35.022  30.273  1.00  0.00     0.020 A 
ATOM     76  C   UNL A   1      47.454  35.992  29.278  1.00  0.00     0.054 A 
BRANCH  76  77
ATOM     77  S   UNL A   1      47.991  37.699  29.577  1.00  0.00     0.124 S 
ATOM     78  O   UNL A   1      46.776  38.453  29.279  1.00  0.00    -0.237 OA
ATOM     79  O   UNL A   1      48.381  37.667  30.985  1.00  0.00    -0.237 OA
ATOM     80  O   UNL A   1      49.090  37.889  28.633  1.00  0.00    -0.744 OA
ENDBRANCH  76  77
ENDBRANCH  57  71
BRANCH  58  81
ATOM     81  C   UNL A   1      43.258  24.072  27.187  1.00  0.00    -0.014 A 
ATOM     82  C   UNL A   1      42.761  23.690  25.929  1.00  0.00     0.010 A 
ATOM     83  C   UNL A   1      43.284  23.124  28.227  1.00  0.00     0.010 A 
ATOM     84  C   UNL A   1      42.287  22.391  25.719  1.00  0.00     0.020 A 
ATOM     85  C   UNL A   1      42.840  21.816  28.013  1.00  0.00     0.020 A 
ATOM     86  C   UNL A   1      42.334  21.460  26.762  1.00  0.00     0.054 A 
BRANCH  86  87
ATOM     87  S   UNL A   1      41.763  19.767  26.450  1.00  0.00     0.124 S 
ATOM     88  O   UNL A   1      40.326  19.955  26.283  1.00  0.00    -0.237 OA
ATOM     89  O   UNL A   1      42.501  19.405  25.242  1.00  0.00    -0.237 OA
ATOM     90  O   UNL A   1      42.165  19.044  27.654  1.00  0.00    -0.744 OA
ENDBRANCH  86  87
ENDBRANCH  58  81
BRANCH  70  91
ATOM     91  C   UNL A   1      49.382  27.253  26.090  1.00  0.00    -0.014 A 
ATOM     92  C   UNL A   1      50.331  26.638  26.926  1.00  0.00     0.010 A 
ATOM     93  C   UNL A   1      49.654  27.364  24.713  1.00  0.00     0.010 A 
ATOM     94  C   UNL A   1      51.542  26.179  26.400  1.00  0.00     0.020 A 
ATOM     95  C   UNL A   1      50.849  26.877  24.179  1.00  0.00     0.020 A 
ATOM     96  C   UNL A   1      51.794  26.301  25.030  1.00  0.00     0.054 A 
BRANCH  96  97
ATOM     97  S   UNL A   1      53.357  25.663  24.369  1.00  0.00     0.124 S 
ATOM     98  O   UNL A   1      54.342  26.475  25.079  1.00  0.00    -0.237 OA
ATOM     99  O   UNL A   1      53.313  24.253  24.747  1.00  0.00    -0.237 OA
ATOM    100  O   UNL A   1      53.258  25.919  22.933  1.00  0.00    -0.744 OA
ENDBRANCH  96  97
ENDBRANCH  70  91
ENDBRANCH  44  45
ENDBRANCH  37  39
ENDBRANCH  36  37
ENDBRANCH  35  36
ENDBRANCH  34  35
ENDBRANCH  33  34
ENDBRANCH  32  33
ENDBRANCH  31  32
ENDBRANCH   1  31
TORSDOF 27
ENDMDL
MODEL 3
REMARK VINA RESULT:      -9.6      6.610     13.771
REMARK SMILES Cc1c(Cl)cccc1NC(=O)C[C@](C)(C(=O)OCCOCCOCCOCCOC(=O)c1ccc(-c2c3nc(c(-c4ccc(S(=O)(=O)[O-])cc4)c4ccc([nH]4)c(-c4ccc(S(=O)(=O)[O-])cc4)c4nc(c(-c5ccc(S(=O)(=O)[O-])cc5)c5ccc2[nH]5)C=C4)C=C3)cc1)c1ccccc1
REMARK SMILES IDX 23 1 22 2 21 3 20 4 19 5 18 6 17 7 15 8 16 9 13 10 14 11
REMARK SMILES IDX 12 12 10 13 9 14 11 16 8 17 1 18 2 19 3 20 4 21 5 22 7 23
REMARK SMILES IDX 6 24 92 25 93 26 97 27 94 28 96 29 95 30 24 31 25 32 26 33
REMARK SMILES IDX 27 34 28 35 29 36 30 37 31 38 32 39 33 40 91 41 34 42 90 43
REMARK SMILES IDX 35 44 36 45 37 46 84 47 38 48 89 49 83 50 85 51 39 52 88 53
REMARK SMILES IDX 82 54 81 55 40 57 70 58 51 59 69 60 52 61 55 62 68 63 86 64
REMARK SMILES IDX 53 65 54 66 67 68 87 69 56 70 41 71 42 72 50 73 43 74 49 75
REMARK SMILES IDX 44 76 45 77 46 78 47 79 48 80 71 81 72 82 80 83 73 84 79 85
REMARK SMILES IDX 74 86 75 87 76 88 77 89 78 90 57 91 58 92 66 93 59 94 65 95
REMARK SMILES IDX 60 96 61 97 62 98 63 99 64 100
REMARK H PARENT 9 15 85 56 55 67
REMARK Flexibility Score: inf
ROOT
ATOM      1  O   UNL A   1      44.164  20.605  25.484  1.00  0.00    -0.377 OA
ENDROOT
BRANCH   1   2
ATOM      2  C   UNL A   1      43.014  19.784  25.404  1.00  0.00     0.188 C 
BRANCH   2   3
ATOM      3  C   UNL A   1      42.320  19.403  26.717  1.00  0.00     0.188 C 
BRANCH   3   4
ATOM      4  O   UNL A   1      41.168  20.162  27.008  1.00  0.00    -0.376 OA
BRANCH   4   5
ATOM      5  C   UNL A   1      41.261  21.274  27.882  1.00  0.00     0.202 C 
BRANCH   5   6
ATOM      6  C   UNL A   1      41.693  22.683  27.445  1.00  0.00     0.261 C 
BRANCH   6   7
ATOM      7  O   UNL A   1      42.321  23.524  28.419  1.00  0.00    -0.463 OA
BRANCH   7   8
ATOM      8  C   UNL A   1      43.667  23.577  28.436  1.00  0.00     0.316 C 
ATOM      9  O   UNL A   1      44.375  22.738  27.884  1.00  0.00    -0.251 OA
BRANCH   8  10
ATOM     10  C   UNL A   1      44.234  24.802  29.211  1.00  0.00     0.099 C 
ATOM     11  C   UNL A   1      43.211  25.928  29.561  1.00  0.00     0.029 C 
BRANCH  10  12
ATOM     12  C   UNL A   1      44.766  24.247  30.573  1.00  0.00     0.123 C 
BRANCH  12  13
ATOM     13  C   UNL A   1      44.910  25.203  31.763  1.00  0.00     0.225 C 
ATOM     14  N   UNL A   1      45.826  26.207  31.879  1.00  0.00    -0.326 N 
ATOM     15  H   UNL A   1      45.644  26.783  32.657  1.00  0.00     0.169 HD
ATOM     16  O   UNL A   1      44.113  25.082  32.705  1.00  0.00    -0.275 OA
BRANCH  14  17
ATOM     17  C   UNL A   1      46.968  26.627  31.164  1.00  0.00     0.045 A 
ATOM     18  C   UNL A   1      45.918  28.958  30.793  1.00  0.00     0.048 C 
ATOM     19  C   UNL A   1      47.010  27.931  30.600  1.00  0.00    -0.009 A 
ATOM     20  C   UNL A   1      48.111  28.280  29.779  1.00  0.00     0.046 A 
ATOM     21  Cl  UNL A   1      48.186  29.799  28.949  1.00  0.00    -0.084 Cl
ATOM     22  C   UNL A   1      49.161  27.392  29.558  1.00  0.00     0.021 A 
ATOM     23  C   UNL A   1      48.073  25.791  31.005  1.00  0.00     0.026 A 
ATOM     24  C   UNL A   1      49.154  26.158  30.194  1.00  0.00     0.004 A 
ENDBRANCH  14  17
ENDBRANCH  12  13
ENDBRANCH  10  12
BRANCH  10  25
ATOM     25  C   UNL A   1      45.326  25.529  28.344  1.00  0.00    -0.030 A 
ATOM     26  C   UNL A   1      45.102  26.825  27.835  1.00  0.00     0.005 A 
ATOM     27  C   UNL A   1      46.491  24.870  27.895  1.00  0.00     0.005 A 
ATOM     28  C   UNL A   1      45.964  27.394  26.885  1.00  0.00     0.000 A 
ATOM     29  C   UNL A   1      47.352  25.439  26.952  1.00  0.00     0.000 A 
ATOM     30  C   UNL A   1      47.082  26.697  26.435  1.00  0.00     0.000 A 
ENDBRANCH  10  25
ENDBRANCH   8  10
ENDBRANCH   7   8
ENDBRANCH   6   7
ENDBRANCH   5   6
ENDBRANCH   4   5
ENDBRANCH   3   4
ENDBRANCH   2   3
ENDBRANCH   1   2
BRANCH   1  31
ATOM     31  C   UNL A   1      44.671  21.226  24.307  1.00  0.00     0.188 C 
BRANCH  31  32
ATOM     32  C   UNL A   1      44.685  22.762  24.132  1.00  0.00     0.188 C 
BRANCH  32  33
ATOM     33  O   UNL A   1      43.545  23.448  24.624  1.00  0.00    -0.376 OA
BRANCH  33  34
ATOM     34  C   UNL A   1      43.717  24.731  25.202  1.00  0.00     0.202 C 
BRANCH  34  35
ATOM     35  C   UNL A   1      42.562  25.740  25.080  1.00  0.00     0.261 C 
BRANCH  35  36
ATOM     36  O   UNL A   1      42.065  26.285  26.311  1.00  0.00    -0.460 OA
BRANCH  36  37
ATOM     37  C   UNL A   1      40.753  26.113  26.561  1.00  0.00     0.338 C 
ATOM     38  O   UNL A   1      40.023  25.244  26.100  1.00  0.00    -0.246 OA
BRANCH  37  39
ATOM     39  C   UNL A   1      40.352  27.044  27.626  1.00  0.00     0.060 A 
ATOM     40  C   UNL A   1      40.952  28.308  27.678  1.00  0.00     0.016 A 
ATOM     41  C   UNL A   1      39.432  26.650  28.601  1.00  0.00     0.016 A 
ATOM     42  C   UNL A   1      40.691  29.155  28.752  1.00  0.00     0.010 A 
ATOM     43  C   UNL A   1      39.186  27.493  29.686  1.00  0.00     0.010 A 
ATOM     44  C   UNL A   1      39.861  28.723  29.792  1.00  0.00    -0.014 A 
BRANCH  44  45
ATOM     45  C   UNL A   1      39.898  29.450  31.083  1.00  0.00     0.031 A 
ATOM     46  C   UNL A   1      41.049  29.184  32.017  1.00  0.00     0.074 A 
ATOM     47  C   UNL A   1      38.975  30.377  31.392  1.00  0.00     0.049 A 
ATOM     48  N   UNL A   1      41.309  29.713  33.183  1.00  0.00    -0.248 NA
ATOM     49  C   UNL A   1      42.041  28.190  31.573  1.00  0.00     0.031 C 
ATOM     50  C   UNL A   1      37.851  30.761  30.541  1.00  0.00     0.029 A 
ATOM     51  N   UNL A   1      38.845  31.170  32.503  1.00  0.00    -0.354 N 
ATOM     52  C   UNL A   1      42.487  29.113  33.615  1.00  0.00     0.074 A 
ATOM     53  C   UNL A   1      42.870  28.152  32.605  1.00  0.00     0.031 C 
ATOM     54  C   UNL A   1      37.149  31.727  31.158  1.00  0.00     0.029 A 
ATOM     55  C   UNL A   1      37.751  32.002  32.460  1.00  0.00     0.049 A 
ATOM     56  H   UNL A   1      39.476  31.148  33.258  1.00  0.00     0.167 HD
ATOM     57  C   UNL A   1      43.192  29.346  34.747  1.00  0.00     0.031 A 
ATOM     58  C   UNL A   1      37.286  32.876  33.375  1.00  0.00     0.031 A 
ATOM     59  C   UNL A   1      42.796  30.290  35.757  1.00  0.00     0.049 A 
ATOM     60  C   UNL A   1      38.041  33.058  34.667  1.00  0.00     0.074 A 
ATOM     61  C   UNL A   1      43.439  30.603  36.942  1.00  0.00     0.029 A 
ATOM     62  N   UNL A   1      41.651  31.071  35.705  1.00  0.00    -0.354 N 
ATOM     63  N   UNL A   1      39.158  32.490  35.057  1.00  0.00    -0.248 NA
ATOM     64  C   UNL A   1      37.478  34.007  35.637  1.00  0.00     0.031 C 
ATOM     65  C   UNL A   1      42.650  31.523  37.636  1.00  0.00     0.029 A 
ATOM     66  C   UNL A   1      41.554  31.846  36.849  1.00  0.00     0.049 A 
ATOM     67  H   UNL A   1      41.003  31.075  34.964  1.00  0.00     0.167 HD
ATOM     68  C   UNL A   1      39.451  33.042  36.301  1.00  0.00     0.074 A 
ATOM     69  C   UNL A   1      38.398  33.994  36.591  1.00  0.00     0.031 C 
ATOM     70  C   UNL A   1      40.500  32.791  37.124  1.00  0.00     0.031 A 
BRANCH  57  71
ATOM     71  C   UNL A   1      44.439  28.529  34.968  1.00  0.00    -0.014 A 
ATOM     72  C   UNL A   1      44.407  27.319  35.687  1.00  0.00     0.010 A 
ATOM     73  C   UNL A   1      45.661  28.970  34.429  1.00  0.00     0.010 A 
ATOM     74  C   UNL A   1      45.581  26.591  35.899  1.00  0.00     0.020 A 
ATOM     75  C   UNL A   1      46.831  28.228  34.610  1.00  0.00     0.020 A 
ATOM     76  C   UNL A   1      46.787  27.052  35.361  1.00  0.00     0.054 A 
BRANCH  76  77
ATOM     77  S   UNL A   1      48.292  26.080  35.640  1.00  0.00     0.124 S 
ATOM     78  O   UNL A   1      47.745  24.764  35.963  1.00  0.00    -0.237 OA
ATOM     79  O   UNL A   1      48.976  26.177  34.352  1.00  0.00    -0.237 OA
ATOM     80  O   UNL A   1      48.952  26.768  36.746  1.00  0.00    -0.744 OA
ENDBRANCH  76  77
ENDBRANCH  57  71
BRANCH  58  81
ATOM     81  C   UNL A   1      36.036  33.640  33.105  1.00  0.00    -0.014 A 
ATOM     82  C   UNL A   1      34.781  33.125  33.473  1.00  0.00     0.010 A 
ATOM     83  C   UNL A   1      36.098  34.896  32.473  1.00  0.00     0.010 A 
ATOM     84  C   UNL A   1      33.613  33.844  33.202  1.00  0.00     0.020 A 
ATOM     85  C   UNL A   1      34.936  35.632  32.228  1.00  0.00     0.020 A 
ATOM     86  C   UNL A   1      33.698  35.096  32.586  1.00  0.00     0.054 A 
BRANCH  86  87
ATOM     87  S   UNL A   1      32.172  36.034  32.294  1.00  0.00     0.124 S 
ATOM     88  O   UNL A   1      32.269  37.093  33.292  1.00  0.00    -0.237 OA
ATOM     89  O   UNL A   1      32.326  36.456  30.904  1.00  0.00    -0.237 OA
ATOM     90  O   UNL A   1      31.117  35.049  32.523  1.00  0.00    -0.744 OA
ENDBRANCH  86  87
ENDBRANCH  58  81
BRANCH  70  91
ATOM     91  C   UNL A   1      40.597  33.592  38.398  1.00  0.00    -0.014 A 
ATOM     92  C   UNL A   1      41.148  34.885  38.419  1.00  0.00     0.010 A 
ATOM     93  C   UNL A   1      40.071  33.054  39.588  1.00  0.00     0.010 A 
ATOM     94  C   UNL A   1      41.205  35.609  39.613  1.00  0.00     0.020 A 
ATOM     95  C   UNL A   1      40.095  33.788  40.776  1.00  0.00     0.020 A 
ATOM     96  C   UNL A   1      40.678  35.056  40.785  1.00  0.00     0.054 A 
BRANCH  96  97
ATOM     97  S   UNL A   1      40.731  36.032  42.311  1.00  0.00     0.124 S 
ATOM     98  O   UNL A   1      40.099  37.282  41.896  1.00  0.00    -0.237 OA
ATOM     99  O   UNL A   1      39.956  35.215  43.241  1.00  0.00    -0.237 OA
ATOM    100  O   UNL A   1      42.158  36.127  42.615  1.00  0.00    -0.744 OA
ENDBRANCH  96  97
ENDBRANCH  70  91
ENDBRANCH  44  45
ENDBRANCH  37  39
ENDBRANCH  36  37
ENDBRANCH  35  36
ENDBRANCH  34  35
ENDBRANCH  33  34
ENDBRANCH  32  33
ENDBRANCH  31  32
ENDBRANCH   1  31
TORSDOF 27
ENDMDL
