MODEL 1
REMARK VINA RESULT:      -6.8      0.000      0.000
REMARK SMILES CC[C@@H](C)CN(C)C(=O)NC(=O)CCC(=O)OCCOCCOCCOCCOC(=O)c1ccc(-c2c3nc(c(-c4ccc(S(=O)(=O)[O-])cc4)c4ccc([nH]4)c(-c4ccc(S(=O)(=O)[O-])cc4)c4nc(c(-c5ccc(S(=O)(=O)[O-])cc5)c5ccc2[nH]5)C=C4)C=C3)cc1
REMARK SMILES IDX 21 1 20 2 19 3 18 4 17 5 15 6 16 7 14 8 13 9 11 10 8 11 9 12
REMARK SMILES IDX 10 13 12 15 6 16 7 17 5 18 3 19 4 20 2 21 1 22 22 23 23 24
REMARK SMILES IDX 24 25 25 26 26 27 27 28 28 29 29 30 30 31 31 32 32 33 33 34
REMARK SMILES IDX 91 35 34 36 90 37 35 38 36 39 37 40 84 41 38 42 89 43 83 44
REMARK SMILES IDX 85 45 39 46 88 47 82 48 81 49 40 51 70 52 51 53 69 54 52 55
REMARK SMILES IDX 55 56 68 57 86 58 53 59 54 60 67 62 87 63 56 64 41 65 42 66
REMARK SMILES IDX 50 67 43 68 49 69 44 70 45 71 46 72 47 73 48 74 71 75 72 76
REMARK SMILES IDX 80 77 73 78 79 79 74 80 75 81 76 82 77 83 78 84 57 85 58 86
REMARK SMILES IDX 66 87 59 88 65 89 60 90 61 91 62 92 63 93 64 94
REMARK H PARENT 10 14 85 50 55 61
REMARK Flexibility Score: inf
ROOT
ATOM      1  C   UNL A   1      42.469  22.637  27.230  1.00  0.00     0.188 C 
ENDROOT
BRANCH   1   2
ATOM      2  O   UNL A   1      41.212  22.864  26.597  1.00  0.00    -0.376 OA
BRANCH   2   3
ATOM      3  C   UNL A   1      40.320  23.992  26.715  1.00  0.00     0.202 C 
BRANCH   3   4
ATOM      4  C   UNL A   1      38.778  23.493  26.947  1.00  0.00     0.261 C 
BRANCH   4   5
ATOM      5  O   UNL A   1      37.654  24.166  26.259  1.00  0.00    -0.463 OA
BRANCH   5   6
ATOM      6  C   UNL A   1      36.935  23.451  25.346  1.00  0.00     0.306 C 
ATOM      7  O   UNL A   1      37.260  22.345  24.916  1.00  0.00    -0.252 OA
BRANCH   6   8
ATOM      8  C   UNL A   1      35.688  24.127  24.770  1.00  0.00     0.132 C 
BRANCH   8   9
ATOM      9  C   UNL A   1      34.476  24.641  25.532  1.00  0.00     0.112 C 
BRANCH   9  10
ATOM     10  C   UNL A   1      34.028  26.054  25.379  1.00  0.00     0.228 C 
ATOM     11  C   UNL A   1      32.764  25.921  23.457  1.00  0.00     0.323 C 
ATOM     12  O   UNL A   1      31.785  26.551  23.812  1.00  0.00    -0.248 OA
ATOM     13  N   UNL A   1      33.829  26.461  24.095  1.00  0.00    -0.278 N 
ATOM     14  H   UNL A   1      34.424  27.112  23.655  1.00  0.00     0.174 HD
ATOM     15  O   UNL A   1      33.940  26.830  26.327  1.00  0.00    -0.275 OA
BRANCH  11  16
ATOM     16  N   UNL A   1      32.950  24.898  22.514  1.00  0.00    -0.327 N 
ATOM     17  C   UNL A   1      32.732  25.373  21.148  1.00  0.00     0.148 C 
BRANCH  16  18
ATOM     18  C   UNL A   1      32.937  23.317  22.507  1.00  0.00     0.124 C 
BRANCH  18  19
ATOM     19  C   UNL A   1      32.727  21.854  23.328  1.00  0.00     0.005 C 
ATOM     20  C   UNL A   1      32.053  20.955  22.231  1.00  0.00     0.009 C 
BRANCH  19  21
ATOM     21  C   UNL A   1      31.913  21.367  24.595  1.00  0.00     0.002 C 
ATOM     22  C   UNL A   1      31.644  22.467  25.644  1.00  0.00     0.004 C 
ENDBRANCH  19  21
ENDBRANCH  18  19
ENDBRANCH  16  18
ENDBRANCH  11  16
ENDBRANCH   9  10
ENDBRANCH   8   9
ENDBRANCH   6   8
ENDBRANCH   5   6
ENDBRANCH   4   5
ENDBRANCH   3   4
ENDBRANCH   2   3
ENDBRANCH   1   2
BRANCH   1  23
ATOM     23  C   UNL A   1      43.763  22.409  26.422  1.00  0.00     0.188 C 
BRANCH  23  24
ATOM     24  O   UNL A   1      43.635  22.583  25.021  1.00  0.00    -0.377 OA
BRANCH  24  25
ATOM     25  C   UNL A   1      44.321  23.726  24.536  1.00  0.00     0.188 C 
BRANCH  25  26
ATOM     26  C   UNL A   1      43.927  25.074  25.180  1.00  0.00     0.188 C 
BRANCH  26  27
ATOM     27  O   UNL A   1      45.020  25.929  25.471  1.00  0.00    -0.376 OA
BRANCH  27  28
ATOM     28  C   UNL A   1      44.908  26.912  26.495  1.00  0.00     0.202 C 
BRANCH  28  29
ATOM     29  C   UNL A   1      44.398  28.356  26.287  1.00  0.00     0.261 C 
BRANCH  29  30
ATOM     30  O   UNL A   1      45.035  29.414  26.996  1.00  0.00    -0.460 OA
BRANCH  30  31
ATOM     31  C   UNL A   1      45.922  30.165  26.295  1.00  0.00     0.338 C 
ATOM     32  O   UNL A   1      46.508  29.848  25.299  1.00  0.00    -0.246 OA
BRANCH  31  33
ATOM     33  C   UNL A   1      45.835  31.546  26.838  1.00  0.00     0.060 A 
ATOM     34  C   UNL A   1      46.836  32.452  26.458  1.00  0.00     0.016 A 
ATOM     35  C   UNL A   1      44.751  31.966  27.618  1.00  0.00     0.016 A 
ATOM     36  C   UNL A   1      46.769  33.775  26.880  1.00  0.00     0.010 A 
ATOM     37  C   UNL A   1      44.720  33.279  28.099  1.00  0.00     0.010 A 
ATOM     38  C   UNL A   1      45.758  34.166  27.769  1.00  0.00    -0.014 A 
BRANCH  38  39
ATOM     39  C   UNL A   1      46.052  35.336  28.625  1.00  0.00     0.031 A 
ATOM     40  C   UNL A   1      45.579  36.670  28.105  1.00  0.00     0.074 A 
ATOM     41  C   UNL A   1      46.590  35.219  29.849  1.00  0.00     0.049 A 
ATOM     42  N   UNL A   1      45.570  37.836  28.691  1.00  0.00    -0.248 NA
ATOM     43  C   UNL A   1      45.014  36.679  26.741  1.00  0.00     0.031 C 
ATOM     44  C   UNL A   1      47.026  33.972  30.475  1.00  0.00     0.029 A 
ATOM     45  N   UNL A   1      46.837  36.178  30.798  1.00  0.00    -0.354 N 
ATOM     46  C   UNL A   1      44.985  38.706  27.777  1.00  0.00     0.074 A 
ATOM     47  C   UNL A   1      44.684  37.949  26.586  1.00  0.00     0.031 C 
ATOM     48  C   UNL A   1      47.488  34.244  31.711  1.00  0.00     0.029 A 
ATOM     49  C   UNL A   1      47.393  35.684  31.953  1.00  0.00     0.049 A 
ATOM     50  H   UNL A   1      46.635  37.133  30.664  1.00  0.00     0.167 HD
ATOM     51  C   UNL A   1      44.712  40.021  27.919  1.00  0.00     0.031 A 
ATOM     52  C   UNL A   1      47.781  36.330  33.071  1.00  0.00     0.031 A 
ATOM     53  C   UNL A   1      45.053  40.779  29.087  1.00  0.00     0.049 A 
ATOM     54  C   UNL A   1      47.561  37.821  33.165  1.00  0.00     0.074 A 
ATOM     55  C   UNL A   1      44.849  42.124  29.330  1.00  0.00     0.029 A 
ATOM     56  N   UNL A   1      45.687  40.256  30.204  1.00  0.00    -0.354 N 
ATOM     57  N   UNL A   1      46.986  38.628  32.303  1.00  0.00    -0.248 NA
ATOM     58  C   UNL A   1      48.026  38.483  34.391  1.00  0.00     0.031 C 
ATOM     59  C   UNL A   1      45.416  42.427  30.572  1.00  0.00     0.029 A 
ATOM     60  C   UNL A   1      45.908  41.258  31.131  1.00  0.00     0.049 A 
ATOM     61  H   UNL A   1      45.942  39.312  30.319  1.00  0.00     0.167 HD
ATOM     62  C   UNL A   1      46.995  39.887  32.896  1.00  0.00     0.074 A 
ATOM     63  C   UNL A   1      47.614  39.729  34.197  1.00  0.00     0.031 C 
ATOM     64  C   UNL A   1      46.532  41.070  32.416  1.00  0.00     0.031 A 
BRANCH  51  65
ATOM     65  C   UNL A   1      44.060  40.717  26.755  1.00  0.00    -0.014 A 
ATOM     66  C   UNL A   1      42.669  40.648  26.548  1.00  0.00     0.010 A 
ATOM     67  C   UNL A   1      44.850  41.454  25.857  1.00  0.00     0.010 A 
ATOM     68  C   UNL A   1      42.087  41.277  25.446  1.00  0.00     0.020 A 
ATOM     69  C   UNL A   1      44.268  42.109  24.770  1.00  0.00     0.020 A 
ATOM     70  C   UNL A   1      42.890  42.006  24.563  1.00  0.00     0.054 A 
BRANCH  70  71
ATOM     71  S   UNL A   1      42.105  42.842  23.159  1.00  0.00     0.124 S 
ATOM     72  O   UNL A   1      40.689  42.760  23.513  1.00  0.00    -0.237 OA
ATOM     73  O   UNL A   1      42.689  44.179  23.217  1.00  0.00    -0.237 OA
ATOM     74  O   UNL A   1      42.506  42.039  22.007  1.00  0.00    -0.744 OA
ENDBRANCH  70  71
ENDBRANCH  51  65
BRANCH  52  75
ATOM     75  C   UNL A   1      48.432  35.582  34.185  1.00  0.00    -0.014 A 
ATOM     76  C   UNL A   1      49.798  35.247  34.134  1.00  0.00     0.010 A 
ATOM     77  C   UNL A   1      47.675  35.177  35.300  1.00  0.00     0.010 A 
ATOM     78  C   UNL A   1      50.385  34.504  35.165  1.00  0.00     0.020 A 
ATOM     79  C   UNL A   1      48.265  34.460  36.345  1.00  0.00     0.020 A 
ATOM     80  C   UNL A   1      49.615  34.116  36.265  1.00  0.00     0.054 A 
BRANCH  80  81
ATOM     81  S   UNL A   1      50.406  33.184  37.606  1.00  0.00     0.124 S 
ATOM     82  O   UNL A   1      51.821  33.449  37.368  1.00  0.00    -0.237 OA
ATOM     83  O   UNL A   1      49.838  33.808  38.799  1.00  0.00    -0.237 OA
ATOM     84  O   UNL A   1      49.977  31.808  37.368  1.00  0.00    -0.744 OA
ENDBRANCH  80  81
ENDBRANCH  52  75
BRANCH  64  85
ATOM     85  C   UNL A   1      46.642  42.274  33.314  1.00  0.00    -0.014 A 
ATOM     86  C   UNL A   1      47.742  43.146  33.240  1.00  0.00     0.010 A 
ATOM     87  C   UNL A   1      45.599  42.563  34.214  1.00  0.00     0.010 A 
ATOM     88  C   UNL A   1      47.820  44.258  34.083  1.00  0.00     0.020 A 
ATOM     89  C   UNL A   1      45.657  43.690  35.034  1.00  0.00     0.020 A 
ATOM     90  C   UNL A   1      46.778  44.520  34.977  1.00  0.00     0.054 A 
BRANCH  90  91
ATOM     91  S   UNL A   1      46.892  45.979  36.047  1.00  0.00     0.124 S 
ATOM     92  O   UNL A   1      48.304  46.333  35.928  1.00  0.00    -0.237 OA
ATOM     93  O   UNL A   1      45.956  46.910  35.422  1.00  0.00    -0.237 OA
ATOM     94  O   UNL A   1      46.483  45.482  37.359  1.00  0.00    -0.744 OA
ENDBRANCH  90  91
ENDBRANCH  64  85
ENDBRANCH  38  39
ENDBRANCH  31  33
ENDBRANCH  30  31
ENDBRANCH  29  30
ENDBRANCH  28  29
ENDBRANCH  27  28
ENDBRANCH  26  27
ENDBRANCH  25  26
ENDBRANCH  24  25
ENDBRANCH  23  24
ENDBRANCH   1  23
TORSDOF 29
ENDMDL
MODEL 2
REMARK VINA RESULT:      -6.6      6.861     12.728
REMARK SMILES CC[C@@H](C)CN(C)C(=O)NC(=O)CCC(=O)OCCOCCOCCOCCOC(=O)c1ccc(-c2c3nc(c(-c4ccc(S(=O)(=O)[O-])cc4)c4ccc([nH]4)c(-c4ccc(S(=O)(=O)[O-])cc4)c4nc(c(-c5ccc(S(=O)(=O)[O-])cc5)c5ccc2[nH]5)C=C4)C=C3)cc1
REMARK SMILES IDX 21 1 20 2 19 3 18 4 17 5 15 6 16 7 14 8 13 9 11 10 8 11 9 12
REMARK SMILES IDX 10 13 12 15 6 16 7 17 5 18 3 19 4 20 2 21 1 22 22 23 23 24
REMARK SMILES IDX 24 25 25 26 26 27 27 28 28 29 29 30 30 31 31 32 32 33 33 34
REMARK SMILES IDX 91 35 34 36 90 37 35 38 36 39 37 40 84 41 38 42 89 43 83 44
REMARK SMILES IDX 85 45 39 46 88 47 82 48 81 49 40 51 70 52 51 53 69 54 52 55
REMARK SMILES IDX 55 56 68 57 86 58 53 59 54 60 67 62 87 63 56 64 41 65 42 66
REMARK SMILES IDX 50 67 43 68 49 69 44 70 45 71 46 72 47 73 48 74 71 75 72 76
REMARK SMILES IDX 80 77 73 78 79 79 74 80 75 81 76 82 77 83 78 84 57 85 58 86
REMARK SMILES IDX 66 87 59 88 65 89 60 90 61 91 62 92 63 93 64 94
REMARK H PARENT 10 14 85 50 55 61
REMARK Flexibility Score: inf
ROOT
ATOM      1  C   UNL A   1      36.296  33.124  29.704  1.00  0.00     0.188 C 
ENDROOT
BRANCH   1   2
ATOM      2  O   UNL A   1      35.862  32.641  28.435  1.00  0.00    -0.376 OA
BRANCH   2   3
ATOM      3  C   UNL A   1      35.299  31.358  28.088  1.00  0.00     0.202 C 
BRANCH   3   4
ATOM      4  C   UNL A   1      33.746  31.518  27.598  1.00  0.00     0.261 C 
BRANCH   4   5
ATOM      5  O   UNL A   1      32.854  30.340  27.516  1.00  0.00    -0.463 OA
BRANCH   5   6
ATOM      6  C   UNL A   1      33.021  29.475  26.474  1.00  0.00     0.306 C 
ATOM      7  O   UNL A   1      34.113  29.150  26.007  1.00  0.00    -0.252 OA
BRANCH   6   8
ATOM      8  C   UNL A   1      31.749  28.952  25.803  1.00  0.00     0.132 C 
BRANCH   8   9
ATOM      9  C   UNL A   1      31.624  28.296  24.436  1.00  0.00     0.112 C 
BRANCH   9  10
ATOM     10  C   UNL A   1      30.380  28.454  23.631  1.00  0.00     0.228 C 
ATOM     11  C   UNL A   1      29.475  26.340  23.778  1.00  0.00     0.323 C 
ATOM     12  O   UNL A   1      28.321  26.629  24.035  1.00  0.00    -0.248 OA
ATOM     13  N   UNL A   1      29.959  27.329  22.989  1.00  0.00    -0.278 N 
ATOM     14  H   UNL A   1      30.003  27.239  22.010  1.00  0.00     0.174 HD
ATOM     15  O   UNL A   1      29.826  29.538  23.471  1.00  0.00    -0.275 OA
BRANCH  11  16
ATOM     16  N   UNL A   1      30.263  25.212  24.059  1.00  0.00    -0.327 N 
ATOM     17  C   UNL A   1      30.477  25.045  25.496  1.00  0.00     0.148 C 
BRANCH  16  18
ATOM     18  C   UNL A   1      31.302  24.307  23.285  1.00  0.00     0.124 C 
BRANCH  18  19
ATOM     19  C   UNL A   1      32.372  22.999  23.269  1.00  0.00     0.005 C 
ATOM     20  C   UNL A   1      33.340  23.379  22.092  1.00  0.00     0.009 C 
BRANCH  19  21
ATOM     21  C   UNL A   1      32.261  21.441  23.016  1.00  0.00     0.002 C 
ATOM     22  C   UNL A   1      32.743  20.566  24.193  1.00  0.00     0.004 C 
ENDBRANCH  19  21
ENDBRANCH  18  19
ENDBRANCH  16  18
ENDBRANCH  11  16
ENDBRANCH   9  10
ENDBRANCH   8   9
ENDBRANCH   6   8
ENDBRANCH   5   6
ENDBRANCH   4   5
ENDBRANCH   3   4
ENDBRANCH   2   3
ENDBRANCH   1   2
BRANCH   1  23
ATOM     23  C   UNL A   1      35.691  32.609  31.027  1.00  0.00     0.188 C 
BRANCH  23  24
ATOM     24  O   UNL A   1      34.414  33.133  31.347  1.00  0.00    -0.377 OA
BRANCH  24  25
ATOM     25  C   UNL A   1      34.471  34.249  32.221  1.00  0.00     0.188 C 
BRANCH  25  26
ATOM     26  C   UNL A   1      35.888  34.744  32.590  1.00  0.00     0.188 C 
BRANCH  26  27
ATOM     27  O   UNL A   1      36.412  34.191  33.786  1.00  0.00    -0.376 OA
BRANCH  27  28
ATOM     28  C   UNL A   1      37.620  33.439  33.759  1.00  0.00     0.202 C 
BRANCH  28  29
ATOM     29  C   UNL A   1      38.357  32.896  35.004  1.00  0.00     0.261 C 
BRANCH  29  30
ATOM     30  O   UNL A   1      39.755  32.644  34.915  1.00  0.00    -0.460 OA
BRANCH  30  31
ATOM     31  C   UNL A   1      40.190  31.460  35.417  1.00  0.00     0.338 C 
ATOM     32  O   UNL A   1      39.787  30.899  36.396  1.00  0.00    -0.246 OA
BRANCH  31  33
ATOM     33  C   UNL A   1      41.074  30.859  34.385  1.00  0.00     0.060 A 
ATOM     34  C   UNL A   1      41.845  29.750  34.764  1.00  0.00     0.016 A 
ATOM     35  C   UNL A   1      41.074  31.307  33.059  1.00  0.00     0.016 A 
ATOM     36  C   UNL A   1      42.639  29.104  33.823  1.00  0.00     0.010 A 
ATOM     37  C   UNL A   1      41.925  30.701  32.129  1.00  0.00     0.010 A 
ATOM     38  C   UNL A   1      42.743  29.632  32.528  1.00  0.00    -0.014 A 
BRANCH  38  39
ATOM     39  C   UNL A   1      43.981  29.310  31.785  1.00  0.00     0.031 A 
ATOM     40  C   UNL A   1      43.910  28.115  30.869  1.00  0.00     0.074 A 
ATOM     41  C   UNL A   1      45.067  30.099  31.814  1.00  0.00     0.049 A 
ATOM     42  N   UNL A   1      44.780  27.681  29.999  1.00  0.00    -0.248 NA
ATOM     43  C   UNL A   1      42.671  27.315  30.929  1.00  0.00     0.031 C 
ATOM     44  C   UNL A   1      45.221  31.312  32.617  1.00  0.00     0.029 A 
ATOM     45  N   UNL A   1      46.247  30.000  31.122  1.00  0.00    -0.354 N 
ATOM     46  C   UNL A   1      44.185  26.575  29.400  1.00  0.00     0.074 A 
ATOM     47  C   UNL A   1      42.900  26.379  30.026  1.00  0.00     0.031 C 
ATOM     48  C   UNL A   1      46.431  31.847  32.367  1.00  0.00     0.029 A 
ATOM     49  C   UNL A   1      47.139  31.007  31.402  1.00  0.00     0.049 A 
ATOM     50  H   UNL A   1      46.437  29.275  30.484  1.00  0.00     0.167 HD
ATOM     51  C   UNL A   1      44.663  25.793  28.407  1.00  0.00     0.031 A 
ATOM     52  C   UNL A   1      48.385  31.213  30.929  1.00  0.00     0.031 A 
ATOM     53  C   UNL A   1      45.959  25.964  27.819  1.00  0.00     0.049 A 
ATOM     54  C   UNL A   1      48.939  30.264  29.895  1.00  0.00     0.074 A 
ATOM     55  C   UNL A   1      46.559  25.214  26.825  1.00  0.00     0.029 A 
ATOM     56  N   UNL A   1      46.864  26.949  28.187  1.00  0.00    -0.354 N 
ATOM     57  N   UNL A   1      48.359  29.235  29.320  1.00  0.00    -0.248 NA
ATOM     58  C   UNL A   1      50.311  30.515  29.432  1.00  0.00     0.031 C 
ATOM     59  C   UNL A   1      47.853  25.710  26.635  1.00  0.00     0.029 A 
ATOM     60  C   UNL A   1      48.031  26.811  27.458  1.00  0.00     0.049 A 
ATOM     61  H   UNL A   1      46.699  27.642  28.866  1.00  0.00     0.167 HD
ATOM     62  C   UNL A   1      49.284  28.735  28.408  1.00  0.00     0.074 A 
ATOM     63  C   UNL A   1      50.453  29.587  28.495  1.00  0.00     0.031 C 
ATOM     64  C   UNL A   1      49.181  27.672  27.571  1.00  0.00     0.031 A 
BRANCH  51  65
ATOM     65  C   UNL A   1      43.790  24.658  27.945  1.00  0.00    -0.014 A 
ATOM     66  C   UNL A   1      43.034  24.753  26.761  1.00  0.00     0.010 A 
ATOM     67  C   UNL A   1      43.726  23.479  28.706  1.00  0.00     0.010 A 
ATOM     68  C   UNL A   1      42.208  23.699  26.365  1.00  0.00     0.020 A 
ATOM     69  C   UNL A   1      42.923  22.412  28.298  1.00  0.00     0.020 A 
ATOM     70  C   UNL A   1      42.158  22.533  27.136  1.00  0.00     0.054 A 
BRANCH  70  71
ATOM     71  S   UNL A   1      41.104  21.167  26.581  1.00  0.00     0.124 S 
ATOM     72  O   UNL A   1      40.781  20.503  27.842  1.00  0.00    -0.237 OA
ATOM     73  O   UNL A   1      39.994  21.862  25.935  1.00  0.00    -0.237 OA
ATOM     74  O   UNL A   1      41.967  20.406  25.680  1.00  0.00    -0.744 OA
ENDBRANCH  70  71
ENDBRANCH  51  65
BRANCH  52  75
ATOM     75  C   UNL A   1      49.203  32.352  31.437  1.00  0.00    -0.014 A 
ATOM     76  C   UNL A   1      50.069  32.191  32.534  1.00  0.00     0.010 A 
ATOM     77  C   UNL A   1      49.099  33.619  30.835  1.00  0.00     0.010 A 
ATOM     78  C   UNL A   1      50.795  33.280  33.031  1.00  0.00     0.020 A 
ATOM     79  C   UNL A   1      49.845  34.702  31.309  1.00  0.00     0.020 A 
ATOM     80  C   UNL A   1      50.680  34.529  32.413  1.00  0.00     0.054 A 
BRANCH  80  81
ATOM     81  S   UNL A   1      51.659  35.918  33.051  1.00  0.00     0.124 S 
ATOM     82  O   UNL A   1      51.394  36.957  32.062  1.00  0.00    -0.237 OA
ATOM     83  O   UNL A   1      51.072  36.135  34.371  1.00  0.00    -0.237 OA
ATOM     84  O   UNL A   1      53.025  35.397  33.063  1.00  0.00    -0.744 OA
ENDBRANCH  80  81
ENDBRANCH  52  75
BRANCH  64  85
ATOM     85  C   UNL A   1      50.345  27.394  26.656  1.00  0.00    -0.014 A 
ATOM     86  C   UNL A   1      50.488  28.061  25.428  1.00  0.00     0.010 A 
ATOM     87  C   UNL A   1      51.338  26.482  27.061  1.00  0.00     0.010 A 
ATOM     88  C   UNL A   1      51.579  27.786  24.598  1.00  0.00     0.020 A 
ATOM     89  C   UNL A   1      52.446  26.228  26.250  1.00  0.00     0.020 A 
ATOM     90  C   UNL A   1      52.548  26.868  25.014  1.00  0.00     0.054 A 
BRANCH  90  91
ATOM     91  S   UNL A   1      53.964  26.541  23.929  1.00  0.00     0.124 S 
ATOM     92  O   UNL A   1      54.365  25.201  24.349  1.00  0.00    -0.237 OA
ATOM     93  O   UNL A   1      53.374  26.632  22.595  1.00  0.00    -0.237 OA
ATOM     94  O   UNL A   1      54.909  27.606  24.259  1.00  0.00    -0.744 OA
ENDBRANCH  90  91
ENDBRANCH  64  85
ENDBRANCH  38  39
ENDBRANCH  31  33
ENDBRANCH  30  31
ENDBRANCH  29  30
ENDBRANCH  28  29
ENDBRANCH  27  28
ENDBRANCH  26  27
ENDBRANCH  25  26
ENDBRANCH  24  25
ENDBRANCH  23  24
ENDBRANCH   1  23
TORSDOF 29
ENDMDL
MODEL 3
REMARK VINA RESULT:      -6.3      8.647     10.279
REMARK SMILES CC[C@@H](C)CN(C)C(=O)NC(=O)CCC(=O)OCCOCCOCCOCCOC(=O)c1ccc(-c2c3nc(c(-c4ccc(S(=O)(=O)[O-])cc4)c4ccc([nH]4)c(-c4ccc(S(=O)(=O)[O-])cc4)c4nc(c(-c5ccc(S(=O)(=O)[O-])cc5)c5ccc2[nH]5)C=C4)C=C3)cc1
REMARK SMILES IDX 21 1 20 2 19 3 18 4 17 5 15 6 16 7 14 8 13 9 11 10 8 11 9 12
REMARK SMILES IDX 10 13 12 15 6 16 7 17 5 18 3 19 4 20 2 21 1 22 22 23 23 24
REMARK SMILES IDX 24 25 25 26 26 27 27 28 28 29 29 30 30 31 31 32 32 33 33 34
REMARK SMILES IDX 91 35 34 36 90 37 35 38 36 39 37 40 84 41 38 42 89 43 83 44
REMARK SMILES IDX 85 45 39 46 88 47 82 48 81 49 40 51 70 52 51 53 69 54 52 55
REMARK SMILES IDX 55 56 68 57 86 58 53 59 54 60 67 62 87 63 56 64 41 65 42 66
REMARK SMILES IDX 50 67 43 68 49 69 44 70 45 71 46 72 47 73 48 74 71 75 72 76
REMARK SMILES IDX 80 77 73 78 79 79 74 80 75 81 76 82 77 83 78 84 57 85 58 86
REMARK SMILES IDX 66 87 59 88 65 89 60 90 61 91 62 92 63 93 64 94
REMARK H PARENT 10 14 85 50 55 61
REMARK Flexibility Score: inf
ROOT
ATOM      1  C   UNL A   1      45.226  27.111  26.693  1.00  0.00     0.188 C 
ENDROOT
BRANCH   1   2
ATOM      2  O   UNL A   1      44.159  27.521  27.545  1.00  0.00    -0.376 OA
BRANCH   2   3
ATOM      3  C   UNL A   1      43.391  28.742  27.526  1.00  0.00     0.202 C 
BRANCH   3   4
ATOM      4  C   UNL A   1      41.823  28.438  27.168  1.00  0.00     0.261 C 
BRANCH   4   5
ATOM      5  O   UNL A   1      41.390  27.083  26.759  1.00  0.00    -0.463 OA
BRANCH   5   6
ATOM      6  C   UNL A   1      41.944  26.541  25.636  1.00  0.00     0.306 C 
ATOM      7  O   UNL A   1      42.269  27.184  24.639  1.00  0.00    -0.252 OA
BRANCH   6   8
ATOM      8  C   UNL A   1      42.082  25.016  25.605  1.00  0.00     0.132 C 
BRANCH   8   9
ATOM      9  C   UNL A   1      41.998  24.052  26.780  1.00  0.00     0.112 C 
BRANCH   9  10
ATOM     10  C   UNL A   1      40.679  23.542  27.247  1.00  0.00     0.228 C 
ATOM     11  C   UNL A   1      40.996  21.264  27.093  1.00  0.00     0.323 C 
ATOM     12  O   UNL A   1      40.544  20.922  28.170  1.00  0.00    -0.248 OA
ATOM     13  N   UNL A   1      40.293  22.354  26.704  1.00  0.00    -0.278 N 
ATOM     14  H   UNL A   1      39.546  22.290  26.065  1.00  0.00     0.174 HD
ATOM     15  O   UNL A   1      39.942  24.186  27.989  1.00  0.00    -0.275 OA
BRANCH  11  16
ATOM     16  N   UNL A   1      41.960  20.704  26.240  1.00  0.00    -0.327 N 
ATOM     17  C   UNL A   1      41.938  19.242  26.283  1.00  0.00     0.148 C 
BRANCH  16  18
ATOM     18  C   UNL A   1      43.307  21.169  25.556  1.00  0.00     0.124 C 
BRANCH  18  19
ATOM     19  C   UNL A   1      44.962  20.950  25.292  1.00  0.00     0.005 C 
ATOM     20  C   UNL A   1      45.381  22.331  24.672  1.00  0.00     0.009 C 
BRANCH  19  21
ATOM     21  C   UNL A   1      45.856  19.990  24.406  1.00  0.00     0.002 C 
ATOM     22  C   UNL A   1      45.058  19.049  23.479  1.00  0.00     0.004 C 
ENDBRANCH  19  21
ENDBRANCH  18  19
ENDBRANCH  16  18
ENDBRANCH  11  16
ENDBRANCH   9  10
ENDBRANCH   8   9
ENDBRANCH   6   8
ENDBRANCH   5   6
ENDBRANCH   4   5
ENDBRANCH   3   4
ENDBRANCH   2   3
ENDBRANCH   1   2
BRANCH   1  23
ATOM     23  C   UNL A   1      45.602  25.626  26.508  1.00  0.00     0.188 C 
BRANCH  23  24
ATOM     24  O   UNL A   1      46.486  25.360  25.432  1.00  0.00    -0.377 OA
BRANCH  24  25
ATOM     25  C   UNL A   1      47.853  25.456  25.797  1.00  0.00     0.188 C 
BRANCH  25  26
ATOM     26  C   UNL A   1      48.180  25.151  27.276  1.00  0.00     0.188 C 
BRANCH  26  27
ATOM     27  O   UNL A   1      49.069  26.074  27.885  1.00  0.00    -0.376 OA
BRANCH  27  28
ATOM     28  C   UNL A   1      49.052  26.262  29.296  1.00  0.00     0.202 C 
BRANCH  28  29
ATOM     29  C   UNL A   1      47.776  26.383  30.159  1.00  0.00     0.261 C 
BRANCH  29  30
ATOM     30  O   UNL A   1      46.943  27.525  29.991  1.00  0.00    -0.460 OA
BRANCH  30  31
ATOM     31  C   UNL A   1      47.406  28.693  30.507  1.00  0.00     0.338 C 
ATOM     32  O   UNL A   1      48.378  29.300  30.161  1.00  0.00    -0.246 OA
BRANCH  31  33
ATOM     33  C   UNL A   1      46.339  29.215  31.401  1.00  0.00     0.060 A 
ATOM     34  C   UNL A   1      46.257  30.606  31.561  1.00  0.00     0.016 A 
ATOM     35  C   UNL A   1      45.387  28.373  31.986  1.00  0.00     0.016 A 
ATOM     36  C   UNL A   1      45.238  31.156  32.330  1.00  0.00     0.010 A 
ATOM     37  C   UNL A   1      44.403  28.921  32.816  1.00  0.00     0.010 A 
ATOM     38  C   UNL A   1      44.364  30.309  33.025  1.00  0.00    -0.014 A 
BRANCH  38  39
ATOM     39  C   UNL A   1      43.727  30.872  34.236  1.00  0.00     0.031 A 
ATOM     40  C   UNL A   1      42.332  31.413  34.058  1.00  0.00     0.074 A 
ATOM     41  C   UNL A   1      44.292  30.796  35.452  1.00  0.00     0.049 A 
ATOM     42  N   UNL A   1      41.482  31.836  34.954  1.00  0.00    -0.248 NA
ATOM     43  C   UNL A   1      41.818  31.459  32.675  1.00  0.00     0.031 C 
ATOM     44  C   UNL A   1      45.611  30.236  35.747  1.00  0.00     0.029 A 
ATOM     45  N   UNL A   1      43.804  31.176  36.676  1.00  0.00    -0.354 N 
ATOM     46  C   UNL A   1      40.335  32.176  34.245  1.00  0.00     0.074 A 
ATOM     47  C   UNL A   1      40.603  31.949  32.846  1.00  0.00     0.031 C 
ATOM     48  C   UNL A   1      45.825  30.309  37.075  1.00  0.00     0.029 A 
ATOM     49  C   UNL A   1      44.668  30.933  37.716  1.00  0.00     0.049 A 
ATOM     50  H   UNL A   1      42.917  31.586  36.798  1.00  0.00     0.167 HD
ATOM     51  C   UNL A   1      39.154  32.631  34.718  1.00  0.00     0.031 A 
ATOM     52  C   UNL A   1      44.531  31.193  39.032  1.00  0.00     0.031 A 
ATOM     53  C   UNL A   1      38.906  32.898  36.105  1.00  0.00     0.049 A 
ATOM     54  C   UNL A   1      43.239  31.800  39.525  1.00  0.00     0.074 A 
ATOM     55  C   UNL A   1      37.757  33.388  36.695  1.00  0.00     0.029 A 
ATOM     56  N   UNL A   1      39.836  32.713  37.118  1.00  0.00    -0.354 N 
ATOM     57  N   UNL A   1      42.153  32.098  38.848  1.00  0.00    -0.248 NA
ATOM     58  C   UNL A   1      43.150  32.091  40.962  1.00  0.00     0.031 C 
ATOM     59  C   UNL A   1      38.013  33.555  38.060  1.00  0.00     0.029 A 
ATOM     60  C   UNL A   1      39.295  33.104  38.329  1.00  0.00     0.049 A 
ATOM     61  H   UNL A   1      40.745  32.357  36.992  1.00  0.00     0.167 HD
ATOM     62  C   UNL A   1      41.242  32.581  39.782  1.00  0.00     0.074 A 
ATOM     63  C   UNL A   1      41.899  32.518  41.073  1.00  0.00     0.031 C 
ATOM     64  C   UNL A   1      39.976  33.034  39.597  1.00  0.00     0.031 A 
BRANCH  51  65
ATOM     65  C   UNL A   1      38.072  32.913  33.711  1.00  0.00    -0.014 A 
ATOM     66  C   UNL A   1      37.144  31.922  33.339  1.00  0.00     0.010 A 
ATOM     67  C   UNL A   1      37.981  34.189  33.130  1.00  0.00     0.010 A 
ATOM     68  C   UNL A   1      36.165  32.195  32.381  1.00  0.00     0.020 A 
ATOM     69  C   UNL A   1      36.986  34.474  32.193  1.00  0.00     0.020 A 
ATOM     70  C   UNL A   1      36.091  33.471  31.814  1.00  0.00     0.054 A 
BRANCH  70  71
ATOM     71  S   UNL A   1      34.790  33.809  30.598  1.00  0.00     0.124 S 
ATOM     72  O   UNL A   1      34.126  32.512  30.498  1.00  0.00    -0.237 OA
ATOM     73  O   UNL A   1      34.014  34.863  31.246  1.00  0.00    -0.237 OA
ATOM     74  O   UNL A   1      35.526  34.224  29.407  1.00  0.00    -0.744 OA
ENDBRANCH  70  71
ENDBRANCH  51  65
BRANCH  52  75
ATOM     75  C   UNL A   1      45.646  30.900  39.977  1.00  0.00    -0.014 A 
ATOM     76  C   UNL A   1      46.652  31.850  40.231  1.00  0.00     0.010 A 
ATOM     77  C   UNL A   1      45.720  29.648  40.614  1.00  0.00     0.010 A 
ATOM     78  C   UNL A   1      47.720  31.544  41.083  1.00  0.00     0.020 A 
ATOM     79  C   UNL A   1      46.768  29.349  41.489  1.00  0.00     0.020 A 
ATOM     80  C   UNL A   1      47.770  30.296  41.709  1.00  0.00     0.054 A 
BRANCH  80  81
ATOM     81  S   UNL A   1      49.143  29.935  42.839  1.00  0.00     0.124 S 
ATOM     82  O   UNL A   1      49.396  28.523  42.572  1.00  0.00    -0.237 OA
ATOM     83  O   UNL A   1      50.177  30.861  42.382  1.00  0.00    -0.237 OA
ATOM     84  O   UNL A   1      48.589  30.233  44.158  1.00  0.00    -0.744 OA
ENDBRANCH  80  81
ENDBRANCH  52  75
BRANCH  64  85
ATOM     85  C   UNL A   1      39.206  33.461  40.819  1.00  0.00    -0.014 A 
ATOM     86  C   UNL A   1      39.334  34.755  41.352  1.00  0.00     0.010 A 
ATOM     87  C   UNL A   1      38.301  32.561  41.414  1.00  0.00     0.010 A 
ATOM     88  C   UNL A   1      38.607  35.127  42.486  1.00  0.00     0.020 A 
ATOM     89  C   UNL A   1      37.548  32.939  42.526  1.00  0.00     0.020 A 
ATOM     90  C   UNL A   1      37.721  34.214  43.068  1.00  0.00     0.054 A 
BRANCH  90  91
ATOM     91  S   UNL A   1      36.774  34.725  44.527  1.00  0.00     0.124 S 
ATOM     92  O   UNL A   1      37.272  33.807  45.548  1.00  0.00    -0.237 OA
ATOM     93  O   UNL A   1      37.168  36.122  44.692  1.00  0.00    -0.237 OA
ATOM     94  O   UNL A   1      35.383  34.520  44.129  1.00  0.00    -0.744 OA
ENDBRANCH  90  91
ENDBRANCH  64  85
ENDBRANCH  38  39
ENDBRANCH  31  33
ENDBRANCH  30  31
ENDBRANCH  29  30
ENDBRANCH  28  29
ENDBRANCH  27  28
ENDBRANCH  26  27
ENDBRANCH  25  26
ENDBRANCH  24  25
ENDBRANCH  23  24
ENDBRANCH   1  23
TORSDOF 29
ENDMDL
