MODEL 1
REMARK VINA RESULT:      -9.5      0.000      0.000
REMARK SMILES C[C@H](c1ccccc1F)N(C)c1cccc(F)c1C(=O)OCCOCCOCCOCCOC(=O)c1ccc(-c2c3nc(c(-c4ccc(S(=O)(=O)[O-])cc4)c4ccc([nH]4)c(-c4ccc(S(=O)(=O)[O-])cc4)c4nc(c(-c5ccc(S(=O)(=O)[O-])cc5)c5ccc2[nH]5)C=C4)C=C3)cc1
REMARK SMILES IDX 27 1 26 2 25 3 24 4 23 5 22 6 21 7 19 8 20 9 18 10 12 11
REMARK SMILES IDX 13 12 14 13 16 14 15 15 17 16 10 17 11 18 2 19 1 20 3 21
REMARK SMILES IDX 4 22 8 23 5 24 7 25 9 26 6 27 28 28 29 29 30 30 31 31 32 32
REMARK SMILES IDX 33 33 34 34 35 35 36 36 37 37 95 38 38 39 94 40 39 41 40 42
REMARK SMILES IDX 41 43 88 44 42 45 93 46 87 47 89 48 43 49 92 50 86 51 85 52
REMARK SMILES IDX 44 54 74 55 55 56 73 57 56 58 59 59 72 60 90 61 57 62 58 63
REMARK SMILES IDX 71 65 91 66 60 67 45 68 46 69 54 70 47 71 53 72 48 73 49 74
REMARK SMILES IDX 50 75 51 76 52 77 75 78 76 79 84 80 77 81 83 82 78 83 79 84
REMARK SMILES IDX 80 85 81 86 82 87 61 88 62 89 70 90 63 91 69 92 64 93 65 94
REMARK SMILES IDX 66 95 67 96 68 97
REMARK H PARENT 89 53 59 64
REMARK Flexibility Score: inf
ROOT
ATOM      1  O   UNL A   1      41.101  20.068  27.526  1.00  0.00    -0.377 OA
ENDROOT
BRANCH   1   2
ATOM      2  C   UNL A   1      40.101  20.563  26.643  1.00  0.00     0.188 C 
BRANCH   2   3
ATOM      3  C   UNL A   1      39.970  22.083  26.419  1.00  0.00     0.188 C 
BRANCH   3   4
ATOM      4  O   UNL A   1      38.756  22.460  25.767  1.00  0.00    -0.376 OA
BRANCH   4   5
ATOM      5  C   UNL A   1      38.179  23.681  26.224  1.00  0.00     0.202 C 
BRANCH   5   6
ATOM      6  C   UNL A   1      36.739  23.876  25.744  1.00  0.00     0.261 C 
BRANCH   6   7
ATOM      7  O   UNL A   1      36.040  22.638  25.530  1.00  0.00    -0.460 OA
BRANCH   7   8
ATOM      8  C   UNL A   1      35.743  22.254  24.264  1.00  0.00     0.343 C 
ATOM      9  O   UNL A   1      36.419  22.489  23.278  1.00  0.00    -0.246 OA
BRANCH   8  10
ATOM     10  C   UNL A   1      34.546  21.375  24.359  1.00  0.00     0.119 A 
ATOM     11  C   UNL A   1      33.245  21.797  23.991  1.00  0.00     0.055 A 
ATOM     12  C   UNL A   1      32.251  20.798  23.892  1.00  0.00     0.027 A 
ATOM     13  C   UNL A   1      32.500  19.461  24.212  1.00  0.00     0.005 A 
ATOM     14  C   UNL A   1      34.775  20.032  24.700  1.00  0.00     0.139 A 
ATOM     15  C   UNL A   1      33.764  19.080  24.631  1.00  0.00     0.040 A 
ATOM     16  F   UNL A   1      35.991  19.618  25.092  1.00  0.00    -0.206 F 
BRANCH  11  17
ATOM     17  N   UNL A   1      32.904  23.112  23.685  1.00  0.00    -0.367 N 
ATOM     18  C   UNL A   1      33.255  23.609  22.354  1.00  0.00     0.144 C 
BRANCH  17  19
ATOM     19  C   UNL A   1      31.780  23.806  24.365  1.00  0.00     0.112 C 
ATOM     20  C   UNL A   1      30.580  24.039  23.443  1.00  0.00     0.036 C 
BRANCH  19  21
ATOM     21  C   UNL A   1      32.228  25.076  25.080  1.00  0.00     0.010 A 
ATOM     22  C   UNL A   1      33.534  25.585  24.969  1.00  0.00     0.009 A 
ATOM     23  C   UNL A   1      31.330  25.767  25.904  1.00  0.00     0.128 A 
ATOM     24  C   UNL A   1      33.924  26.721  25.684  1.00  0.00     0.001 A 
ATOM     25  C   UNL A   1      31.711  26.903  26.613  1.00  0.00     0.039 A 
ATOM     26  F   UNL A   1      30.066  25.336  26.032  1.00  0.00    -0.207 F 
ATOM     27  C   UNL A   1      33.014  27.380  26.508  1.00  0.00     0.003 A 
ENDBRANCH  19  21
ENDBRANCH  17  19
ENDBRANCH  11  17
ENDBRANCH   8  10
ENDBRANCH   7   8
ENDBRANCH   6   7
ENDBRANCH   5   6
ENDBRANCH   4   5
ENDBRANCH   3   4
ENDBRANCH   2   3
ENDBRANCH   1   2
BRANCH   1  28
ATOM     28  C   UNL A   1      42.430  20.089  27.024  1.00  0.00     0.188 C 
BRANCH  28  29
ATOM     29  C   UNL A   1      42.654  18.980  25.979  1.00  0.00     0.188 C 
BRANCH  29  30
ATOM     30  O   UNL A   1      43.115  19.484  24.723  1.00  0.00    -0.376 OA
BRANCH  30  31
ATOM     31  C   UNL A   1      44.519  19.624  24.555  1.00  0.00     0.202 C 
BRANCH  31  32
ATOM     32  C   UNL A   1      45.252  20.692  25.385  1.00  0.00     0.261 C 
BRANCH  32  33
ATOM     33  O   UNL A   1      45.581  21.916  24.710  1.00  0.00    -0.460 OA
BRANCH  33  34
ATOM     34  C   UNL A   1      44.578  22.649  24.180  1.00  0.00     0.338 C 
ATOM     35  O   UNL A   1      43.989  22.447  23.134  1.00  0.00    -0.246 OA
BRANCH  34  36
ATOM     36  C   UNL A   1      44.169  23.626  25.212  1.00  0.00     0.060 A 
ATOM     37  C   UNL A   1      44.575  24.961  25.079  1.00  0.00     0.016 A 
ATOM     38  C   UNL A   1      43.336  23.240  26.266  1.00  0.00     0.016 A 
ATOM     39  C   UNL A   1      44.173  25.909  26.021  1.00  0.00     0.010 A 
ATOM     40  C   UNL A   1      42.959  24.183  27.225  1.00  0.00     0.010 A 
ATOM     41  C   UNL A   1      43.405  25.511  27.125  1.00  0.00    -0.014 A 
BRANCH  41  42
ATOM     42  C   UNL A   1      43.308  26.405  28.301  1.00  0.00     0.031 A 
ATOM     43  C   UNL A   1      44.438  26.355  29.297  1.00  0.00     0.074 A 
ATOM     44  C   UNL A   1      42.274  27.246  28.480  1.00  0.00     0.049 A 
ATOM     45  N   UNL A   1      44.585  27.008  30.418  1.00  0.00    -0.248 NA
ATOM     46  C   UNL A   1      45.552  25.443  28.979  1.00  0.00     0.031 C 
ATOM     47  C   UNL A   1      41.148  27.420  27.562  1.00  0.00     0.029 A 
ATOM     48  N   UNL A   1      42.008  28.117  29.506  1.00  0.00    -0.354 N 
ATOM     49  C   UNL A   1      45.810  26.596  30.931  1.00  0.00     0.074 A 
ATOM     50  C   UNL A   1      46.348  25.612  30.021  1.00  0.00     0.031 C 
ATOM     51  C   UNL A   1      40.308  28.339  28.074  1.00  0.00     0.029 A 
ATOM     52  C   UNL A   1      40.822  28.797  29.363  1.00  0.00     0.049 A 
ATOM     53  H   UNL A   1      42.612  28.243  30.274  1.00  0.00     0.167 HD
ATOM     54  C   UNL A   1      46.437  27.006  32.056  1.00  0.00     0.031 A 
ATOM     55  C   UNL A   1      40.218  29.674  30.192  1.00  0.00     0.031 A 
ATOM     56  C   UNL A   1      45.886  27.958  32.979  1.00  0.00     0.049 A 
ATOM     57  C   UNL A   1      40.893  30.040  31.493  1.00  0.00     0.074 A 
ATOM     58  C   UNL A   1      46.427  28.422  34.164  1.00  0.00     0.029 A 
ATOM     59  N   UNL A   1      44.663  28.591  32.819  1.00  0.00    -0.354 N 
ATOM     60  N   UNL A   1      42.055  29.647  31.961  1.00  0.00    -0.248 NA
ATOM     61  C   UNL A   1      40.176  30.975  32.373  1.00  0.00     0.031 C 
ATOM     62  C   UNL A   1      45.510  29.304  34.744  1.00  0.00     0.029 A 
ATOM     63  C   UNL A   1      44.425  29.431  33.891  1.00  0.00     0.049 A 
ATOM     64  H   UNL A   1      44.055  28.461  32.056  1.00  0.00     0.167 HD
ATOM     65  C   UNL A   1      42.223  30.318  33.169  1.00  0.00     0.074 A 
ATOM     66  C   UNL A   1      41.050  31.145  33.356  1.00  0.00     0.031 C 
ATOM     67  C   UNL A   1      43.257  30.259  34.046  1.00  0.00     0.031 A 
BRANCH  54  68
ATOM     68  C   UNL A   1      47.781  26.403  32.356  1.00  0.00    -0.014 A 
ATOM     69  C   UNL A   1      48.957  26.964  31.826  1.00  0.00     0.010 A 
ATOM     70  C   UNL A   1      47.874  25.282  33.199  1.00  0.00     0.010 A 
ATOM     71  C   UNL A   1      50.201  26.398  32.114  1.00  0.00     0.020 A 
ATOM     72  C   UNL A   1      49.118  24.728  33.510  1.00  0.00     0.020 A 
ATOM     73  C   UNL A   1      50.273  25.283  32.955  1.00  0.00     0.054 A 
BRANCH  73  74
ATOM     74  S   UNL A   1      51.905  24.594  33.343  1.00  0.00     0.124 S 
ATOM     75  O   UNL A   1      52.654  24.885  32.123  1.00  0.00    -0.237 OA
ATOM     76  O   UNL A   1      52.303  25.358  34.522  1.00  0.00    -0.237 OA
ATOM     77  O   UNL A   1      51.636  23.179  33.585  1.00  0.00    -0.744 OA
ENDBRANCH  73  74
ENDBRANCH  54  68
BRANCH  55  78
ATOM     78  C   UNL A   1      38.893  30.260  29.843  1.00  0.00    -0.014 A 
ATOM     79  C   UNL A   1      37.711  29.517  30.013  1.00  0.00     0.010 A 
ATOM     80  C   UNL A   1      38.811  31.551  29.288  1.00  0.00     0.010 A 
ATOM     81  C   UNL A   1      36.479  30.036  29.601  1.00  0.00     0.020 A 
ATOM     82  C   UNL A   1      37.578  32.085  28.902  1.00  0.00     0.020 A 
ATOM     83  C   UNL A   1      36.421  31.316  29.043  1.00  0.00     0.054 A 
BRANCH  83  84
ATOM     84  S   UNL A   1      34.813  31.977  28.524  1.00  0.00     0.124 S 
ATOM     85  O   UNL A   1      34.192  30.812  27.902  1.00  0.00    -0.237 OA
ATOM     86  O   UNL A   1      34.225  32.409  29.790  1.00  0.00    -0.237 OA
ATOM     87  O   UNL A   1      35.168  33.061  27.611  1.00  0.00    -0.744 OA
ENDBRANCH  83  84
ENDBRANCH  55  78
BRANCH  67  88
ATOM     88  C   UNL A   1      43.197  31.152  35.256  1.00  0.00    -0.014 A 
ATOM     89  C   UNL A   1      43.709  32.460  35.229  1.00  0.00     0.010 A 
ATOM     90  C   UNL A   1      42.555  30.691  36.421  1.00  0.00     0.010 A 
ATOM     91  C   UNL A   1      43.609  33.280  36.355  1.00  0.00     0.020 A 
ATOM     92  C   UNL A   1      42.428  31.517  37.539  1.00  0.00     0.020 A 
ATOM     93  C   UNL A   1      42.970  32.803  37.504  1.00  0.00     0.054 A 
BRANCH  93  94
ATOM     94  S   UNL A   1      42.811  33.903  38.937  1.00  0.00     0.124 S 
ATOM     95  O   UNL A   1      41.395  34.257  38.893  1.00  0.00    -0.237 OA
ATOM     96  O   UNL A   1      43.210  33.043  40.049  1.00  0.00    -0.237 OA
ATOM     97  O   UNL A   1      43.736  34.996  38.640  1.00  0.00    -0.744 OA
ENDBRANCH  93  94
ENDBRANCH  67  88
ENDBRANCH  41  42
ENDBRANCH  34  36
ENDBRANCH  33  34
ENDBRANCH  32  33
ENDBRANCH  31  32
ENDBRANCH  30  31
ENDBRANCH  29  30
ENDBRANCH  28  29
ENDBRANCH   1  28
TORSDOF 26
ENDMDL
MODEL 2
REMARK VINA RESULT:      -9.4      2.438      8.441
REMARK SMILES C[C@H](c1ccccc1F)N(C)c1cccc(F)c1C(=O)OCCOCCOCCOCCOC(=O)c1ccc(-c2c3nc(c(-c4ccc(S(=O)(=O)[O-])cc4)c4ccc([nH]4)c(-c4ccc(S(=O)(=O)[O-])cc4)c4nc(c(-c5ccc(S(=O)(=O)[O-])cc5)c5ccc2[nH]5)C=C4)C=C3)cc1
REMARK SMILES IDX 27 1 26 2 25 3 24 4 23 5 22 6 21 7 19 8 20 9 18 10 12 11
REMARK SMILES IDX 13 12 14 13 16 14 15 15 17 16 10 17 11 18 2 19 1 20 3 21
REMARK SMILES IDX 4 22 8 23 5 24 7 25 9 26 6 27 28 28 29 29 30 30 31 31 32 32
REMARK SMILES IDX 33 33 34 34 35 35 36 36 37 37 95 38 38 39 94 40 39 41 40 42
REMARK SMILES IDX 41 43 88 44 42 45 93 46 87 47 89 48 43 49 92 50 86 51 85 52
REMARK SMILES IDX 44 54 74 55 55 56 73 57 56 58 59 59 72 60 90 61 57 62 58 63
REMARK SMILES IDX 71 65 91 66 60 67 45 68 46 69 54 70 47 71 53 72 48 73 49 74
REMARK SMILES IDX 50 75 51 76 52 77 75 78 76 79 84 80 77 81 83 82 78 83 79 84
REMARK SMILES IDX 80 85 81 86 82 87 61 88 62 89 70 90 63 91 69 92 64 93 65 94
REMARK SMILES IDX 66 95 67 96 68 97
REMARK H PARENT 89 53 59 64
REMARK Flexibility Score: inf
ROOT
ATOM      1  O   UNL A   1      42.229  19.969  26.705  1.00  0.00    -0.377 OA
ENDROOT
BRANCH   1   2
ATOM      2  C   UNL A   1      41.009  20.406  26.118  1.00  0.00     0.188 C 
BRANCH   2   3
ATOM      3  C   UNL A   1      40.134  21.436  26.861  1.00  0.00     0.188 C 
BRANCH   3   4
ATOM      4  O   UNL A   1      39.118  22.017  26.041  1.00  0.00    -0.376 OA
BRANCH   4   5
ATOM      5  C   UNL A   1      38.843  23.392  26.303  1.00  0.00     0.202 C 
BRANCH   5   6
ATOM      6  C   UNL A   1      37.407  23.789  25.957  1.00  0.00     0.261 C 
BRANCH   6   7
ATOM      7  O   UNL A   1      36.556  22.661  25.690  1.00  0.00    -0.460 OA
BRANCH   7   8
ATOM      8  C   UNL A   1      36.222  22.370  24.408  1.00  0.00     0.343 C 
ATOM      9  O   UNL A   1      36.917  22.585  23.431  1.00  0.00    -0.246 OA
BRANCH   8  10
ATOM     10  C   UNL A   1      34.943  21.611  24.466  1.00  0.00     0.119 A 
ATOM     11  C   UNL A   1      33.693  22.173  24.109  1.00  0.00     0.055 A 
ATOM     12  C   UNL A   1      32.606  21.282  23.970  1.00  0.00     0.027 A 
ATOM     13  C   UNL A   1      32.718  19.916  24.242  1.00  0.00     0.005 A 
ATOM     14  C   UNL A   1      35.036  20.241  24.760  1.00  0.00     0.139 A 
ATOM     15  C   UNL A   1      33.936  19.397  24.653  1.00  0.00     0.040 A 
ATOM     16  F   UNL A   1      36.201  19.695  25.141  1.00  0.00    -0.206 F 
BRANCH  11  17
ATOM     17  N   UNL A   1      33.486  23.526  23.850  1.00  0.00    -0.367 N 
ATOM     18  C   UNL A   1      32.880  23.882  22.566  1.00  0.00     0.144 C 
BRANCH  17  19
ATOM     19  C   UNL A   1      33.323  24.515  24.946  1.00  0.00     0.112 C 
ATOM     20  C   UNL A   1      33.185  23.861  26.322  1.00  0.00     0.036 C 
BRANCH  19  21
ATOM     21  C   UNL A   1      32.215  25.523  24.659  1.00  0.00     0.010 A 
ATOM     22  C   UNL A   1      32.479  26.865  24.334  1.00  0.00     0.009 A 
ATOM     23  C   UNL A   1      30.873  25.127  24.740  1.00  0.00     0.128 A 
ATOM     24  C   UNL A   1      31.436  27.774  24.132  1.00  0.00     0.001 A 
ATOM     25  C   UNL A   1      29.830  26.026  24.532  1.00  0.00     0.039 A 
ATOM     26  F   UNL A   1      30.563  23.854  25.028  1.00  0.00    -0.207 F 
ATOM     27  C   UNL A   1      30.111  27.356  24.233  1.00  0.00     0.003 A 
ENDBRANCH  19  21
ENDBRANCH  17  19
ENDBRANCH  11  17
ENDBRANCH   8  10
ENDBRANCH   7   8
ENDBRANCH   6   7
ENDBRANCH   5   6
ENDBRANCH   4   5
ENDBRANCH   3   4
ENDBRANCH   2   3
ENDBRANCH   1   2
BRANCH   1  28
ATOM     28  C   UNL A   1      43.165  19.380  25.812  1.00  0.00     0.188 C 
BRANCH  28  29
ATOM     29  C   UNL A   1      43.992  20.451  25.077  1.00  0.00     0.188 C 
BRANCH  29  30
ATOM     30  O   UNL A   1      44.759  21.268  25.966  1.00  0.00    -0.376 OA
BRANCH  30  31
ATOM     31  C   UNL A   1      44.498  22.665  25.953  1.00  0.00     0.202 C 
BRANCH  31  32
ATOM     32  C   UNL A   1      43.154  23.152  25.382  1.00  0.00     0.261 C 
BRANCH  32  33
ATOM     33  O   UNL A   1      42.552  24.281  26.034  1.00  0.00    -0.460 OA
BRANCH  33  34
ATOM     34  C   UNL A   1      43.136  25.490  25.899  1.00  0.00     0.338 C 
ATOM     35  O   UNL A   1      43.795  25.891  24.958  1.00  0.00    -0.246 OA
BRANCH  34  36
ATOM     36  C   UNL A   1      42.645  26.331  27.013  1.00  0.00     0.060 A 
ATOM     37  C   UNL A   1      43.114  27.648  27.124  1.00  0.00     0.016 A 
ATOM     38  C   UNL A   1      41.680  25.845  27.899  1.00  0.00     0.016 A 
ATOM     39  C   UNL A   1      42.640  28.472  28.146  1.00  0.00     0.010 A 
ATOM     40  C   UNL A   1      41.228  26.660  28.938  1.00  0.00     0.010 A 
ATOM     41  C   UNL A   1      41.733  27.963  29.086  1.00  0.00    -0.014 A 
BRANCH  41  42
ATOM     42  C   UNL A   1      41.531  28.684  30.364  1.00  0.00     0.031 A 
ATOM     43  C   UNL A   1      40.405  29.683  30.418  1.00  0.00     0.074 A 
ATOM     44  C   UNL A   1      42.297  28.454  31.445  1.00  0.00     0.049 A 
ATOM     45  N   UNL A   1      40.033  30.462  31.398  1.00  0.00    -0.248 NA
ATOM     46  C   UNL A   1      39.587  29.816  29.198  1.00  0.00     0.031 C 
ATOM     47  C   UNL A   1      43.383  27.479  31.530  1.00  0.00     0.029 A 
ATOM     48  N   UNL A   1      42.271  29.037  32.688  1.00  0.00    -0.354 N 
ATOM     49  C   UNL A   1      38.936  31.167  30.918  1.00  0.00     0.074 A 
ATOM     50  C   UNL A   1      38.722  30.753  29.551  1.00  0.00     0.031 C 
ATOM     51  C   UNL A   1      43.924  27.535  32.761  1.00  0.00     0.029 A 
ATOM     52  C   UNL A   1      43.243  28.567  33.540  1.00  0.00     0.049 A 
ATOM     53  H   UNL A   1      41.617  29.727  32.945  1.00  0.00     0.167 HD
ATOM     54  C   UNL A   1      38.166  32.074  31.560  1.00  0.00     0.031 A 
ATOM     55  C   UNL A   1      43.551  28.946  34.798  1.00  0.00     0.031 A 
ATOM     56  C   UNL A   1      38.399  32.512  32.907  1.00  0.00     0.049 A 
ATOM     57  C   UNL A   1      42.737  30.034  35.458  1.00  0.00     0.074 A 
ATOM     58  C   UNL A   1      37.695  33.448  33.642  1.00  0.00     0.029 A 
ATOM     59  N   UNL A   1      39.419  32.044  33.720  1.00  0.00    -0.354 N 
ATOM     60  N   UNL A   1      41.698  30.687  34.993  1.00  0.00    -0.248 NA
ATOM     61  C   UNL A   1      43.137  30.430  36.816  1.00  0.00     0.031 C 
ATOM     62  C   UNL A   1      38.317  33.578  34.888  1.00  0.00     0.029 A 
ATOM     63  C   UNL A   1      39.372  32.682  34.947  1.00  0.00     0.049 A 
ATOM     64  H   UNL A   1      40.078  31.360  33.463  1.00  0.00     0.167 HD
ATOM     65  C   UNL A   1      41.297  31.540  36.018  1.00  0.00     0.074 A 
ATOM     66  C   UNL A   1      42.200  31.316  37.127  1.00  0.00     0.031 C 
ATOM     67  C   UNL A   1      40.272  32.429  36.042  1.00  0.00     0.031 A 
BRANCH  54  68
ATOM     68  C   UNL A   1      37.014  32.667  30.796  1.00  0.00    -0.014 A 
ATOM     69  C   UNL A   1      37.216  33.737  29.906  1.00  0.00     0.010 A 
ATOM     70  C   UNL A   1      35.724  32.130  30.946  1.00  0.00     0.010 A 
ATOM     71  C   UNL A   1      36.139  34.278  29.198  1.00  0.00     0.020 A 
ATOM     72  C   UNL A   1      34.650  32.652  30.221  1.00  0.00     0.020 A 
ATOM     73  C   UNL A   1      34.863  33.731  29.360  1.00  0.00     0.054 A 
BRANCH  73  74
ATOM     74  S   UNL A   1      33.492  34.427  28.398  1.00  0.00     0.124 S 
ATOM     75  O   UNL A   1      32.902  33.229  27.804  1.00  0.00    -0.237 OA
ATOM     76  O   UNL A   1      32.683  35.083  29.421  1.00  0.00    -0.237 OA
ATOM     77  O   UNL A   1      34.151  35.328  27.457  1.00  0.00    -0.744 OA
ENDBRANCH  73  74
ENDBRANCH  54  68
BRANCH  55  78
ATOM     78  C   UNL A   1      44.691  28.317  35.523  1.00  0.00    -0.014 A 
ATOM     79  C   UNL A   1      46.005  28.787  35.343  1.00  0.00     0.010 A 
ATOM     80  C   UNL A   1      44.475  27.206  36.359  1.00  0.00     0.010 A 
ATOM     81  C   UNL A   1      47.082  28.139  35.954  1.00  0.00     0.020 A 
ATOM     82  C   UNL A   1      45.547  26.572  36.995  1.00  0.00     0.020 A 
ATOM     83  C   UNL A   1      46.847  27.031  36.773  1.00  0.00     0.054 A 
BRANCH  83  84
ATOM     84  S   UNL A   1      48.256  26.207  37.566  1.00  0.00     0.124 S 
ATOM     85  O   UNL A   1      47.826  24.812  37.577  1.00  0.00    -0.237 OA
ATOM     86  O   UNL A   1      49.358  26.523  36.660  1.00  0.00    -0.237 OA
ATOM     87  O   UNL A   1      48.334  26.850  38.876  1.00  0.00    -0.744 OA
ENDBRANCH  83  84
ENDBRANCH  55  78
BRANCH  67  88
ATOM     88  C   UNL A   1      40.032  33.183  37.323  1.00  0.00    -0.014 A 
ATOM     89  C   UNL A   1      39.016  32.805  38.217  1.00  0.00     0.010 A 
ATOM     90  C   UNL A   1      40.886  34.248  37.665  1.00  0.00     0.010 A 
ATOM     91  C   UNL A   1      38.838  33.501  39.416  1.00  0.00     0.020 A 
ATOM     92  C   UNL A   1      40.730  34.927  38.874  1.00  0.00     0.020 A 
ATOM     93  C   UNL A   1      39.696  34.558  39.736  1.00  0.00     0.054 A 
BRANCH  93  94
ATOM     94  S   UNL A   1      39.474  35.415  41.319  1.00  0.00     0.124 S 
ATOM     95  O   UNL A   1      38.820  34.392  42.130  1.00  0.00    -0.237 OA
ATOM     96  O   UNL A   1      40.845  35.741  41.704  1.00  0.00    -0.237 OA
ATOM     97  O   UNL A   1      38.640  36.566  40.977  1.00  0.00    -0.744 OA
ENDBRANCH  93  94
ENDBRANCH  67  88
ENDBRANCH  41  42
ENDBRANCH  34  36
ENDBRANCH  33  34
ENDBRANCH  32  33
ENDBRANCH  31  32
ENDBRANCH  30  31
ENDBRANCH  29  30
ENDBRANCH  28  29
ENDBRANCH   1  28
TORSDOF 26
ENDMDL
MODEL 3
REMARK VINA RESULT:      -9.4      2.933      8.769
REMARK SMILES C[C@H](c1ccccc1F)N(C)c1cccc(F)c1C(=O)OCCOCCOCCOCCOC(=O)c1ccc(-c2c3nc(c(-c4ccc(S(=O)(=O)[O-])cc4)c4ccc([nH]4)c(-c4ccc(S(=O)(=O)[O-])cc4)c4nc(c(-c5ccc(S(=O)(=O)[O-])cc5)c5ccc2[nH]5)C=C4)C=C3)cc1
REMARK SMILES IDX 27 1 26 2 25 3 24 4 23 5 22 6 21 7 19 8 20 9 18 10 12 11
REMARK SMILES IDX 13 12 14 13 16 14 15 15 17 16 10 17 11 18 2 19 1 20 3 21
REMARK SMILES IDX 4 22 8 23 5 24 7 25 9 26 6 27 28 28 29 29 30 30 31 31 32 32
REMARK SMILES IDX 33 33 34 34 35 35 36 36 37 37 95 38 38 39 94 40 39 41 40 42
REMARK SMILES IDX 41 43 88 44 42 45 93 46 87 47 89 48 43 49 92 50 86 51 85 52
REMARK SMILES IDX 44 54 74 55 55 56 73 57 56 58 59 59 72 60 90 61 57 62 58 63
REMARK SMILES IDX 71 65 91 66 60 67 45 68 46 69 54 70 47 71 53 72 48 73 49 74
REMARK SMILES IDX 50 75 51 76 52 77 75 78 76 79 84 80 77 81 83 82 78 83 79 84
REMARK SMILES IDX 80 85 81 86 82 87 61 88 62 89 70 90 63 91 69 92 64 93 65 94
REMARK SMILES IDX 66 95 67 96 68 97
REMARK H PARENT 89 53 59 64
REMARK Flexibility Score: inf
ROOT
ATOM      1  O   UNL A   1      39.193  21.935  26.256  1.00  0.00    -0.377 OA
ENDROOT
BRANCH   1   2
ATOM      2  C   UNL A   1      38.026  22.728  26.067  1.00  0.00     0.188 C 
BRANCH   2   3
ATOM      3  C   UNL A   1      37.130  22.480  24.836  1.00  0.00     0.188 C 
BRANCH   3   4
ATOM      4  O   UNL A   1      36.269  21.350  24.977  1.00  0.00    -0.376 OA
BRANCH   4   5
ATOM      5  C   UNL A   1      34.888  21.607  24.728  1.00  0.00     0.202 C 
BRANCH   5   6
ATOM      6  C   UNL A   1      34.663  22.790  23.785  1.00  0.00     0.261 C 
BRANCH   6   7
ATOM      7  O   UNL A   1      33.710  23.742  24.287  1.00  0.00    -0.460 OA
BRANCH   7   8
ATOM      8  C   UNL A   1      32.450  23.749  23.783  1.00  0.00     0.343 C 
ATOM      9  O   UNL A   1      32.148  23.473  22.636  1.00  0.00    -0.246 OA
BRANCH   8  10
ATOM     10  C   UNL A   1      31.537  23.995  24.931  1.00  0.00     0.119 A 
ATOM     11  C   UNL A   1      30.994  25.269  25.229  1.00  0.00     0.055 A 
ATOM     12  C   UNL A   1      29.955  25.316  26.184  1.00  0.00     0.027 A 
ATOM     13  C   UNL A   1      29.518  24.181  26.871  1.00  0.00     0.005 A 
ATOM     14  C   UNL A   1      31.105  22.867  25.647  1.00  0.00     0.139 A 
ATOM     15  C   UNL A   1      30.106  22.954  26.611  1.00  0.00     0.040 A 
ATOM     16  F   UNL A   1      31.635  21.657  25.410  1.00  0.00    -0.206 F 
BRANCH  11  17
ATOM     17  N   UNL A   1      31.391  26.454  24.614  1.00  0.00    -0.367 N 
ATOM     18  C   UNL A   1      32.592  27.113  25.128  1.00  0.00     0.144 C 
BRANCH  17  19
ATOM     19  C   UNL A   1      31.030  26.762  23.206  1.00  0.00     0.112 C 
ATOM     20  C   UNL A   1      32.248  27.075  22.334  1.00  0.00     0.036 C 
BRANCH  19  21
ATOM     21  C   UNL A   1      29.944  27.827  23.104  1.00  0.00     0.010 A 
ATOM     22  C   UNL A   1      30.227  29.169  22.795  1.00  0.00     0.009 A 
ATOM     23  C   UNL A   1      28.607  27.485  23.346  1.00  0.00     0.128 A 
ATOM     24  C   UNL A   1      29.211  30.129  22.765  1.00  0.00     0.001 A 
ATOM     25  C   UNL A   1      27.589  28.436  23.310  1.00  0.00     0.039 A 
ATOM     26  F   UNL A   1      28.276  26.216  23.626  1.00  0.00    -0.207 F 
ATOM     27  C   UNL A   1      27.892  29.764  23.024  1.00  0.00     0.003 A 
ENDBRANCH  19  21
ENDBRANCH  17  19
ENDBRANCH  11  17
ENDBRANCH   8  10
ENDBRANCH   7   8
ENDBRANCH   6   7
ENDBRANCH   5   6
ENDBRANCH   4   5
ENDBRANCH   3   4
ENDBRANCH   2   3
ENDBRANCH   1   2
BRANCH   1  28
ATOM     28  C   UNL A   1      40.283  22.588  26.892  1.00  0.00     0.188 C 
BRANCH  28  29
ATOM     29  C   UNL A   1      41.319  21.576  27.413  1.00  0.00     0.188 C 
BRANCH  29  30
ATOM     30  O   UNL A   1      42.564  22.185  27.763  1.00  0.00    -0.376 OA
BRANCH  30  31
ATOM     31  C   UNL A   1      43.620  22.098  26.814  1.00  0.00     0.202 C 
BRANCH  31  32
ATOM     32  C   UNL A   1      43.901  23.318  25.921  1.00  0.00     0.261 C 
BRANCH  32  33
ATOM     33  O   UNL A   1      43.763  24.609  26.535  1.00  0.00    -0.460 OA
BRANCH  33  34
ATOM     34  C   UNL A   1      42.846  25.465  26.037  1.00  0.00     0.338 C 
ATOM     35  O   UNL A   1      42.337  25.442  24.932  1.00  0.00    -0.246 OA
BRANCH  34  36
ATOM     36  C   UNL A   1      42.401  26.319  27.161  1.00  0.00     0.060 A 
ATOM     37  C   UNL A   1      42.901  27.625  27.256  1.00  0.00     0.016 A 
ATOM     38  C   UNL A   1      41.449  25.855  28.072  1.00  0.00     0.016 A 
ATOM     39  C   UNL A   1      42.470  28.461  28.287  1.00  0.00     0.010 A 
ATOM     40  C   UNL A   1      41.041  26.682  29.121  1.00  0.00     0.010 A 
ATOM     41  C   UNL A   1      41.577  27.974  29.252  1.00  0.00    -0.014 A 
BRANCH  41  42
ATOM     42  C   UNL A   1      41.423  28.702  30.532  1.00  0.00     0.031 A 
ATOM     43  C   UNL A   1      40.319  29.724  30.613  1.00  0.00     0.074 A 
ATOM     44  C   UNL A   1      42.212  28.460  31.594  1.00  0.00     0.049 A 
ATOM     45  N   UNL A   1      39.989  30.513  31.600  1.00  0.00    -0.248 NA
ATOM     46  C   UNL A   1      39.473  29.871  29.414  1.00  0.00     0.031 C 
ATOM     47  C   UNL A   1      43.280  27.462  31.653  1.00  0.00     0.029 A 
ATOM     48  N   UNL A   1      42.230  29.045  32.835  1.00  0.00    -0.354 N 
ATOM     49  C   UNL A   1      38.893  31.239  31.147  1.00  0.00     0.074 A 
ATOM     50  C   UNL A   1      38.636  30.825  29.787  1.00  0.00     0.031 C 
ATOM     51  C   UNL A   1      43.854  27.511  32.870  1.00  0.00     0.029 A 
ATOM     52  C   UNL A   1      43.214  28.559  33.664  1.00  0.00     0.049 A 
ATOM     53  H   UNL A   1      41.597  29.749  33.107  1.00  0.00     0.167 HD
ATOM     54  C   UNL A   1      38.159  32.162  31.806  1.00  0.00     0.031 A 
ATOM     55  C   UNL A   1      43.563  28.934  34.912  1.00  0.00     0.031 A 
ATOM     56  C   UNL A   1      38.435  32.599  33.145  1.00  0.00     0.049 A 
ATOM     57  C   UNL A   1      42.788  30.040  35.590  1.00  0.00     0.074 A 
ATOM     58  C   UNL A   1      37.770  33.550  33.895  1.00  0.00     0.029 A 
ATOM     59  N   UNL A   1      39.467  32.112  33.933  1.00  0.00    -0.354 N 
ATOM     60  N   UNL A   1      41.750  30.712  35.150  1.00  0.00    -0.248 NA
ATOM     61  C   UNL A   1      43.231  30.431  36.936  1.00  0.00     0.031 C 
ATOM     62  C   UNL A   1      38.426  33.671  35.125  1.00  0.00     0.029 A 
ATOM     63  C   UNL A   1      39.465  32.753  35.159  1.00  0.00     0.049 A 
ATOM     64  H   UNL A   1      40.105  31.414  33.661  1.00  0.00     0.167 HD
ATOM     65  C   UNL A   1      41.394  31.576  36.183  1.00  0.00     0.074 A 
ATOM     66  C   UNL A   1      42.321  31.336  37.268  1.00  0.00     0.031 C 
ATOM     67  C   UNL A   1      40.388  32.485  36.231  1.00  0.00     0.031 A 
BRANCH  54  68
ATOM     68  C   UNL A   1      37.000  32.776  31.070  1.00  0.00    -0.014 A 
ATOM     69  C   UNL A   1      37.202  33.829  30.159  1.00  0.00     0.010 A 
ATOM     70  C   UNL A   1      35.701  32.278  31.269  1.00  0.00     0.010 A 
ATOM     71  C   UNL A   1      36.118  34.389  29.478  1.00  0.00     0.020 A 
ATOM     72  C   UNL A   1      34.619  32.819  30.571  1.00  0.00     0.020 A 
ATOM     73  C   UNL A   1      34.833  33.880  29.689  1.00  0.00     0.054 A 
BRANCH  73  74
ATOM     74  S   UNL A   1      33.451  34.600  28.760  1.00  0.00     0.124 S 
ATOM     75  O   UNL A   1      34.113  35.668  28.015  1.00  0.00    -0.237 OA
ATOM     76  O   UNL A   1      32.981  33.474  27.960  1.00  0.00    -0.237 OA
ATOM     77  O   UNL A   1      32.530  35.048  29.802  1.00  0.00    -0.744 OA
ENDBRANCH  73  74
ENDBRANCH  54  68
BRANCH  55  78
ATOM     78  C   UNL A   1      44.708  28.284  35.609  1.00  0.00    -0.014 A 
ATOM     79  C   UNL A   1      46.027  28.716  35.381  1.00  0.00     0.010 A 
ATOM     80  C   UNL A   1      44.490  27.190  36.466  1.00  0.00     0.010 A 
ATOM     81  C   UNL A   1      47.107  28.047  35.966  1.00  0.00     0.020 A 
ATOM     82  C   UNL A   1      45.565  26.535  37.076  1.00  0.00     0.020 A 
ATOM     83  C   UNL A   1      46.868  26.956  36.807  1.00  0.00     0.054 A 
BRANCH  83  84
ATOM     84  S   UNL A   1      48.280  26.105  37.566  1.00  0.00     0.124 S 
ATOM     85  O   UNL A   1      49.130  27.223  37.964  1.00  0.00    -0.237 OA
ATOM     86  O   UNL A   1      47.653  25.366  38.660  1.00  0.00    -0.237 OA
ATOM     87  O   UNL A   1      48.800  25.275  36.483  1.00  0.00    -0.744 OA
ENDBRANCH  83  84
ENDBRANCH  55  78
BRANCH  67  88
ATOM     88  C   UNL A   1      40.197  33.247  37.515  1.00  0.00    -0.014 A 
ATOM     89  C   UNL A   1      40.820  34.487  37.732  1.00  0.00     0.010 A 
ATOM     90  C   UNL A   1      39.323  32.738  38.494  1.00  0.00     0.010 A 
ATOM     91  C   UNL A   1      40.597  35.191  38.919  1.00  0.00     0.020 A 
ATOM     92  C   UNL A   1      39.076  33.450  39.669  1.00  0.00     0.020 A 
ATOM     93  C   UNL A   1      39.727  34.667  39.880  1.00  0.00     0.054 A 
BRANCH  93  94
ATOM     94  S   UNL A   1      39.418  35.620  41.392  1.00  0.00     0.124 S 
ATOM     95  O   UNL A   1      39.378  34.572  42.408  1.00  0.00    -0.237 OA
ATOM     96  O   UNL A   1      40.574  36.511  41.453  1.00  0.00    -0.237 OA
ATOM     97  O   UNL A   1      38.142  36.282  41.130  1.00  0.00    -0.744 OA
ENDBRANCH  93  94
ENDBRANCH  67  88
ENDBRANCH  41  42
ENDBRANCH  34  36
ENDBRANCH  33  34
ENDBRANCH  32  33
ENDBRANCH  31  32
ENDBRANCH  30  31
ENDBRANCH  29  30
ENDBRANCH  28  29
ENDBRANCH   1  28
TORSDOF 26
ENDMDL
