MODEL 1
REMARK VINA RESULT:      -9.4      0.000      0.000
REMARK SMILES COc1ccc(-n2c(SCc3cn(-c4ccc(C(=O)OCCOCCOCCOCCOC(=O)c5ccc(-c6c7nc(c(-c8ccc(S(=O)(=O)[O-])cc8)c8ccc([nH]8)c(-c8ccc(S(=O)(=O)[O-])cc8)c8nc(c(-c9ccc(S(=O)(=O)[O-])cc9)c9ccc6[nH]9)C=C8)C=C7)cc5)cc4)nn3)nc3ccccc3c2=O)cc1
REMARK SMILES IDX 24 1 23 2 22 3 21 4 20 5 18 6 19 7 17 8 14 9 15 10 96 11
REMARK SMILES IDX 16 12 95 13 13 14 11 15 12 16 98 17 97 18 10 19 9 20 8 21
REMARK SMILES IDX 7 22 106 23 99 24 105 25 107 26 100 27 104 28 101 29 103 30
REMARK SMILES IDX 102 31 6 32 3 33 4 34 109 35 5 36 108 37 2 38 1 39 25 40
REMARK SMILES IDX 26 41 27 42 28 43 29 44 30 45 31 46 32 47 33 48 34 49 35 50
REMARK SMILES IDX 36 51 94 52 37 53 93 54 38 55 39 56 40 57 87 58 41 59 92 60
REMARK SMILES IDX 86 61 88 62 42 63 91 64 85 65 84 66 43 68 73 69 54 70 72 71
REMARK SMILES IDX 55 72 58 73 71 74 89 75 56 76 57 77 70 79 90 80 59 81 44 82
REMARK SMILES IDX 45 83 53 84 46 85 52 86 47 87 48 88 49 89 50 90 51 91 74 92
REMARK SMILES IDX 75 93 83 94 76 95 82 96 77 97 78 98 79 99 80 100 81 101
REMARK SMILES IDX 60 102 61 103 69 104 62 105 68 106 63 107 64 108 65 109
REMARK SMILES IDX 66 110 67 111
REMARK H PARENT 88 67 58 78
REMARK Flexibility Score: inf
ROOT
ATOM      1  C   UNL A   1      32.115  27.910  25.653  1.00  0.00     0.188 C 
ENDROOT
BRANCH   1   2
ATOM      2  O   UNL A   1      31.681  26.648  25.167  1.00  0.00    -0.376 OA
BRANCH   2   3
ATOM      3  C   UNL A   1      32.254  25.998  24.046  1.00  0.00     0.202 C 
BRANCH   3   4
ATOM      4  C   UNL A   1      31.640  24.798  23.310  1.00  0.00     0.261 C 
BRANCH   4   5
ATOM      5  O   UNL A   1      32.525  23.992  22.550  1.00  0.00    -0.460 OA
BRANCH   5   6
ATOM      6  C   UNL A   1      32.610  22.699  22.913  1.00  0.00     0.338 C 
ATOM      7  O   UNL A   1      31.835  21.790  22.642  1.00  0.00    -0.246 OA
BRANCH   6   8
ATOM      8  C   UNL A   1      33.931  22.518  23.536  1.00  0.00     0.060 A 
ATOM      9  C   UNL A   1      36.395  22.338  24.762  1.00  0.00     0.066 A 
ATOM     10  C   UNL A   1      36.245  23.186  23.659  1.00  0.00     0.029 A 
ATOM     11  C   UNL A   1      35.309  21.634  25.298  1.00  0.00     0.029 A 
ATOM     12  C   UNL A   1      35.012  23.248  23.024  1.00  0.00     0.018 A 
ATOM     13  C   UNL A   1      34.069  21.735  24.688  1.00  0.00     0.018 A 
BRANCH   9  14
ATOM     14  N   UNL A   1      37.679  22.103  25.268  1.00  0.00    -0.220 N 
ATOM     15  C   UNL A   1      39.505  22.264  26.414  1.00  0.00     0.093 A 
ATOM     16  C   UNL A   1      38.484  23.017  25.896  1.00  0.00     0.141 A 
ATOM     17  N   UNL A   1      39.349  20.966  26.009  1.00  0.00    -0.134 NA
ATOM     18  N   UNL A   1      38.208  20.869  25.354  1.00  0.00    -0.062 NA
BRANCH  15  19
ATOM     19  C   UNL A   1      40.560  22.699  27.342  1.00  0.00     0.138 C 
BRANCH  19  20
ATOM     20  S   UNL A   1      41.417  24.171  26.837  1.00  0.00    -0.081 SA
BRANCH  20  21
ATOM     21  C   UNL A   1      41.742  25.061  28.382  1.00  0.00     0.176 A 
ATOM     22  N   UNL A   1      41.760  26.436  28.218  1.00  0.00    -0.255 N 
ATOM     23  C   UNL A   1      43.002  27.010  27.961  1.00  0.00     0.266 A 
ATOM     24  N   UNL A   1      42.664  24.517  29.121  1.00  0.00    -0.223 NA
ATOM     25  C   UNL A   1      44.114  26.008  27.871  1.00  0.00     0.066 A 
ATOM     26  O   UNL A   1      43.230  28.199  27.769  1.00  0.00    -0.268 OA
ATOM     27  C   UNL A   1      43.921  24.787  28.546  1.00  0.00     0.079 A 
ATOM     28  C   UNL A   1      45.142  26.144  26.944  1.00  0.00     0.016 A 
ATOM     29  C   UNL A   1      44.802  23.727  28.353  1.00  0.00     0.029 A 
ATOM     30  C   UNL A   1      45.969  25.045  26.689  1.00  0.00     0.001 A 
ATOM     31  C   UNL A   1      45.812  23.849  27.402  1.00  0.00     0.002 A 
BRANCH  22  32
ATOM     32  C   UNL A   1      40.570  27.189  28.374  1.00  0.00     0.052 A 
ATOM     33  C   UNL A   1      38.603  29.088  28.972  1.00  0.00     0.119 A 
ATOM     34  C   UNL A   1      39.215  29.103  27.723  1.00  0.00     0.048 A 
ATOM     35  C   UNL A   1      38.878  28.057  29.871  1.00  0.00     0.048 A 
ATOM     36  C   UNL A   1      40.223  28.174  27.436  1.00  0.00     0.030 A 
ATOM     37  C   UNL A   1      39.835  27.085  29.558  1.00  0.00     0.030 A 
BRANCH  33  38
ATOM     38  O   UNL A   1      37.681  30.058  29.258  1.00  0.00    -0.497 OA
ATOM     39  C   UNL A   1      36.663  29.596  30.148  1.00  0.00     0.278 C 
ENDBRANCH  33  38
ENDBRANCH  22  32
ENDBRANCH  20  21
ENDBRANCH  19  20
ENDBRANCH  15  19
ENDBRANCH   9  14
ENDBRANCH   6   8
ENDBRANCH   5   6
ENDBRANCH   4   5
ENDBRANCH   3   4
ENDBRANCH   2   3
ENDBRANCH   1   2
BRANCH   1  40
ATOM     40  C   UNL A   1      31.485  29.232  25.164  1.00  0.00     0.188 C 
BRANCH  40  41
ATOM     41  O   UNL A   1      31.789  30.348  25.980  1.00  0.00    -0.377 OA
BRANCH  41  42
ATOM     42  C   UNL A   1      32.621  30.098  27.113  1.00  0.00     0.188 C 
BRANCH  42  43
ATOM     43  C   UNL A   1      33.773  31.078  27.467  1.00  0.00     0.188 C 
BRANCH  43  44
ATOM     44  O   UNL A   1      33.397  32.445  27.554  1.00  0.00    -0.376 OA
BRANCH  44  45
ATOM     45  C   UNL A   1      34.033  33.373  28.413  1.00  0.00     0.202 C 
BRANCH  45  46
ATOM     46  C   UNL A   1      34.549  32.872  29.757  1.00  0.00     0.261 C 
BRANCH  46  47
ATOM     47  O   UNL A   1      35.239  33.860  30.492  1.00  0.00    -0.460 OA
BRANCH  47  48
ATOM     48  C   UNL A   1      34.531  34.398  31.498  1.00  0.00     0.338 C 
ATOM     49  O   UNL A   1      33.690  35.287  31.415  1.00  0.00    -0.246 OA
BRANCH  48  50
ATOM     50  C   UNL A   1      35.032  33.839  32.750  1.00  0.00     0.060 A 
ATOM     51  C   UNL A   1      35.628  34.759  33.605  1.00  0.00     0.016 A 
ATOM     52  C   UNL A   1      35.297  32.459  32.804  1.00  0.00     0.016 A 
ATOM     53  C   UNL A   1      36.749  34.344  34.271  1.00  0.00     0.010 A 
ATOM     54  C   UNL A   1      36.425  32.051  33.460  1.00  0.00     0.010 A 
ATOM     55  C   UNL A   1      37.191  33.028  34.081  1.00  0.00    -0.014 A 
BRANCH  55  56
ATOM     56  C   UNL A   1      38.458  32.672  34.661  1.00  0.00     0.031 A 
ATOM     57  C   UNL A   1      38.578  33.204  36.027  1.00  0.00     0.074 A 
ATOM     58  C   UNL A   1      39.372  31.917  34.028  1.00  0.00     0.049 A 
ATOM     59  N   UNL A   1      39.250  34.241  36.391  1.00  0.00    -0.248 NA
ATOM     60  C   UNL A   1      37.639  32.696  37.040  1.00  0.00     0.031 C 
ATOM     61  C   UNL A   1      39.238  31.157  32.784  1.00  0.00     0.029 A 
ATOM     62  N   UNL A   1      40.619  31.592  34.450  1.00  0.00    -0.354 N 
ATOM     63  C   UNL A   1      39.024  34.351  37.752  1.00  0.00     0.074 A 
ATOM     64  C   UNL A   1      37.856  33.556  38.035  1.00  0.00     0.031 C 
ATOM     65  C   UNL A   1      40.259  30.270  32.699  1.00  0.00     0.029 A 
ATOM     66  C   UNL A   1      41.177  30.498  33.803  1.00  0.00     0.049 A 
ATOM     67  H   UNL A   1      41.090  32.091  35.156  1.00  0.00     0.167 HD
ATOM     68  C   UNL A   1      40.005  34.799  38.579  1.00  0.00     0.031 A 
ATOM     69  C   UNL A   1      42.263  29.796  34.219  1.00  0.00     0.031 A 
ATOM     70  C   UNL A   1      41.043  35.488  37.852  1.00  0.00     0.049 A 
ATOM     71  C   UNL A   1      43.019  30.674  35.152  1.00  0.00     0.074 A 
ATOM     72  C   UNL A   1      41.072  36.583  37.010  1.00  0.00     0.029 A 
ATOM     73  N   UNL A   1      42.204  34.788  37.609  1.00  0.00    -0.354 N 
ATOM     74  N   UNL A   1      43.619  31.767  34.770  1.00  0.00    -0.248 NA
ATOM     75  C   UNL A   1      42.696  30.611  36.571  1.00  0.00     0.031 C 
ATOM     76  C   UNL A   1      42.011  36.244  35.991  1.00  0.00     0.029 A 
ATOM     77  C   UNL A   1      42.559  34.997  36.301  1.00  0.00     0.049 A 
ATOM     78  H   UNL A   1      42.694  34.237  38.260  1.00  0.00     0.167 HD
ATOM     79  C   UNL A   1      43.347  32.692  35.768  1.00  0.00     0.074 A 
ATOM     80  C   UNL A   1      42.859  31.899  36.896  1.00  0.00     0.031 C 
ATOM     81  C   UNL A   1      43.266  34.028  35.489  1.00  0.00     0.031 A 
BRANCH  68  82
ATOM     82  C   UNL A   1      40.237  34.185  39.935  1.00  0.00    -0.014 A 
ATOM     83  C   UNL A   1      40.821  32.909  40.004  1.00  0.00     0.010 A 
ATOM     84  C   UNL A   1      39.642  34.686  41.114  1.00  0.00     0.010 A 
ATOM     85  C   UNL A   1      40.748  32.147  41.175  1.00  0.00     0.020 A 
ATOM     86  C   UNL A   1      39.606  33.956  42.299  1.00  0.00     0.020 A 
ATOM     87  C   UNL A   1      40.130  32.674  42.311  1.00  0.00     0.054 A 
BRANCH  87  88
ATOM     88  S   UNL A   1      39.954  31.649  43.786  1.00  0.00     0.124 S 
ATOM     89  O   UNL A   1      38.699  32.142  44.343  1.00  0.00    -0.237 OA
ATOM     90  O   UNL A   1      39.916  30.303  43.220  1.00  0.00    -0.237 OA
ATOM     91  O   UNL A   1      41.153  31.959  44.562  1.00  0.00    -0.744 OA
ENDBRANCH  87  88
ENDBRANCH  68  82
BRANCH  69  92
ATOM     92  C   UNL A   1      42.476  28.326  34.149  1.00  0.00    -0.014 A 
ATOM     93  C   UNL A   1      43.493  27.775  33.344  1.00  0.00     0.010 A 
ATOM     94  C   UNL A   1      41.864  27.479  35.095  1.00  0.00     0.010 A 
ATOM     95  C   UNL A   1      43.925  26.449  33.529  1.00  0.00     0.020 A 
ATOM     96  C   UNL A   1      42.283  26.156  35.279  1.00  0.00     0.020 A 
ATOM     97  C   UNL A   1      43.331  25.653  34.512  1.00  0.00     0.054 A 
BRANCH  97  98
ATOM     98  S   UNL A   1      44.016  24.008  34.877  1.00  0.00     0.124 S 
ATOM     99  O   UNL A   1      42.902  23.126  34.546  1.00  0.00    -0.237 OA
ATOM    100  O   UNL A   1      45.167  23.937  33.983  1.00  0.00    -0.237 OA
ATOM    101  O   UNL A   1      44.346  24.083  36.299  1.00  0.00    -0.744 OA
ENDBRANCH  97  98
ENDBRANCH  69  92
BRANCH  81 102
ATOM    102  C   UNL A   1      43.765  34.509  34.142  1.00  0.00    -0.014 A 
ATOM    103  C   UNL A   1      45.120  34.756  33.841  1.00  0.00     0.010 A 
ATOM    104  C   UNL A   1      42.824  34.596  33.102  1.00  0.00     0.010 A 
ATOM    105  C   UNL A   1      45.511  35.125  32.544  1.00  0.00     0.020 A 
ATOM    106  C   UNL A   1      43.209  34.943  31.806  1.00  0.00     0.020 A 
ATOM    107  C   UNL A   1      44.548  35.223  31.534  1.00  0.00     0.054 A 
BRANCH 107 108
ATOM    108  S   UNL A   1      45.052  35.695  29.856  1.00  0.00     0.124 S 
ATOM    109  O   UNL A   1      46.132  36.645  30.105  1.00  0.00    -0.237 OA
ATOM    110  O   UNL A   1      45.457  34.421  29.267  1.00  0.00    -0.237 OA
ATOM    111  O   UNL A   1      43.841  36.276  29.280  1.00  0.00    -0.744 OA
ENDBRANCH 107 108
ENDBRANCH  81 102
ENDBRANCH  55  56
ENDBRANCH  48  50
ENDBRANCH  47  48
ENDBRANCH  46  47
ENDBRANCH  45  46
ENDBRANCH  44  45
ENDBRANCH  43  44
ENDBRANCH  42  43
ENDBRANCH  41  42
ENDBRANCH  40  41
ENDBRANCH   1  40
TORSDOF 29
ENDMDL
MODEL 2
REMARK VINA RESULT:      -8.7      2.913      7.965
REMARK SMILES COc1ccc(-n2c(SCc3cn(-c4ccc(C(=O)OCCOCCOCCOCCOC(=O)c5ccc(-c6c7nc(c(-c8ccc(S(=O)(=O)[O-])cc8)c8ccc([nH]8)c(-c8ccc(S(=O)(=O)[O-])cc8)c8nc(c(-c9ccc(S(=O)(=O)[O-])cc9)c9ccc6[nH]9)C=C8)C=C7)cc5)cc4)nn3)nc3ccccc3c2=O)cc1
REMARK SMILES IDX 24 1 23 2 22 3 21 4 20 5 18 6 19 7 17 8 14 9 15 10 96 11
REMARK SMILES IDX 16 12 95 13 13 14 11 15 12 16 98 17 97 18 10 19 9 20 8 21
REMARK SMILES IDX 7 22 106 23 99 24 105 25 107 26 100 27 104 28 101 29 103 30
REMARK SMILES IDX 102 31 6 32 3 33 4 34 109 35 5 36 108 37 2 38 1 39 25 40
REMARK SMILES IDX 26 41 27 42 28 43 29 44 30 45 31 46 32 47 33 48 34 49 35 50
REMARK SMILES IDX 36 51 94 52 37 53 93 54 38 55 39 56 40 57 87 58 41 59 92 60
REMARK SMILES IDX 86 61 88 62 42 63 91 64 85 65 84 66 43 68 73 69 54 70 72 71
REMARK SMILES IDX 55 72 58 73 71 74 89 75 56 76 57 77 70 79 90 80 59 81 44 82
REMARK SMILES IDX 45 83 53 84 46 85 52 86 47 87 48 88 49 89 50 90 51 91 74 92
REMARK SMILES IDX 75 93 83 94 76 95 82 96 77 97 78 98 79 99 80 100 81 101
REMARK SMILES IDX 60 102 61 103 69 104 62 105 68 106 63 107 64 108 65 109
REMARK SMILES IDX 66 110 67 111
REMARK H PARENT 88 67 58 78
REMARK Flexibility Score: inf
ROOT
ATOM      1  C   UNL A   1      31.448  29.004  25.793  1.00  0.00     0.188 C 
ENDROOT
BRANCH   1   2
ATOM      2  O   UNL A   1      31.647  27.681  25.318  1.00  0.00    -0.376 OA
BRANCH   2   3
ATOM      3  C   UNL A   1      30.603  26.852  24.840  1.00  0.00     0.202 C 
BRANCH   3   4
ATOM      4  C   UNL A   1      30.738  25.824  23.706  1.00  0.00     0.261 C 
BRANCH   4   5
ATOM      5  O   UNL A   1      32.016  25.233  23.527  1.00  0.00    -0.460 OA
BRANCH   5   6
ATOM      6  C   UNL A   1      32.105  23.919  23.804  1.00  0.00     0.338 C 
ATOM      7  O   UNL A   1      31.280  23.044  23.571  1.00  0.00    -0.246 OA
BRANCH   6   8
ATOM      8  C   UNL A   1      33.481  23.674  24.262  1.00  0.00     0.060 A 
ATOM      9  C   UNL A   1      35.997  23.151  25.267  1.00  0.00     0.066 A 
ATOM     10  C   UNL A   1      35.227  24.163  25.854  1.00  0.00     0.029 A 
ATOM     11  C   UNL A   1      35.494  22.356  24.230  1.00  0.00     0.029 A 
ATOM     12  C   UNL A   1      33.975  24.445  25.323  1.00  0.00     0.018 A 
ATOM     13  C   UNL A   1      34.225  22.611  23.735  1.00  0.00     0.018 A 
BRANCH   9  14
ATOM     14  N   UNL A   1      37.336  23.009  25.649  1.00  0.00    -0.220 N 
ATOM     15  C   UNL A   1      39.242  23.295  26.627  1.00  0.00     0.093 A 
ATOM     16  C   UNL A   1      38.124  23.974  26.220  1.00  0.00     0.141 A 
ATOM     17  N   UNL A   1      39.149  21.995  26.212  1.00  0.00    -0.134 NA
ATOM     18  N   UNL A   1      37.962  21.819  25.661  1.00  0.00    -0.062 NA
BRANCH  15  19
ATOM     19  C   UNL A   1      40.343  23.797  27.464  1.00  0.00     0.138 C 
BRANCH  19  20
ATOM     20  S   UNL A   1      41.944  23.709  26.698  1.00  0.00    -0.081 SA
BRANCH  20  21
ATOM     21  C   UNL A   1      43.024  24.672  27.788  1.00  0.00     0.176 A 
ATOM     22  N   UNL A   1      43.157  25.991  27.387  1.00  0.00    -0.255 N 
ATOM     23  C   UNL A   1      44.230  26.274  26.547  1.00  0.00     0.266 A 
ATOM     24  N   UNL A   1      44.090  24.035  28.173  1.00  0.00    -0.223 NA
ATOM     25  C   UNL A   1      45.045  25.066  26.194  1.00  0.00     0.066 A 
ATOM     26  O   UNL A   1      44.514  27.367  26.068  1.00  0.00    -0.268 OA
ATOM     27  C   UNL A   1      44.999  23.986  27.097  1.00  0.00     0.079 A 
ATOM     28  C   UNL A   1      45.579  24.895  24.921  1.00  0.00     0.016 A 
ATOM     29  C   UNL A   1      45.555  22.757  26.756  1.00  0.00     0.029 A 
ATOM     30  C   UNL A   1      46.055  23.632  24.554  1.00  0.00     0.001 A 
ATOM     31  C   UNL A   1      46.061  22.573  25.472  1.00  0.00     0.002 A 
BRANCH  22  32
ATOM     32  C   UNL A   1      42.267  26.979  27.875  1.00  0.00     0.052 A 
ATOM     33  C   UNL A   1      40.080  28.472  28.783  1.00  0.00     0.119 A 
ATOM     34  C   UNL A   1      40.915  27.847  29.703  1.00  0.00     0.048 A 
ATOM     35  C   UNL A   1      40.405  28.460  27.427  1.00  0.00     0.048 A 
ATOM     36  C   UNL A   1      41.990  27.072  29.247  1.00  0.00     0.030 A 
ATOM     37  C   UNL A   1      41.520  27.744  26.975  1.00  0.00     0.030 A 
BRANCH  33  38
ATOM     38  O   UNL A   1      38.990  29.153  29.250  1.00  0.00    -0.497 OA
ATOM     39  C   UNL A   1      38.524  28.643  30.501  1.00  0.00     0.278 C 
ENDBRANCH  33  38
ENDBRANCH  22  32
ENDBRANCH  20  21
ENDBRANCH  19  20
ENDBRANCH  15  19
ENDBRANCH   9  14
ENDBRANCH   6   8
ENDBRANCH   5   6
ENDBRANCH   4   5
ENDBRANCH   3   4
ENDBRANCH   2   3
ENDBRANCH   1   2
BRANCH   1  40
ATOM     40  C   UNL A   1      32.189  29.546  27.035  1.00  0.00     0.188 C 
BRANCH  40  41
ATOM     41  O   UNL A   1      33.511  29.058  27.172  1.00  0.00    -0.377 OA
BRANCH  41  42
ATOM     42  C   UNL A   1      34.544  30.039  27.248  1.00  0.00     0.188 C 
BRANCH  42  43
ATOM     43  C   UNL A   1      34.199  31.512  27.601  1.00  0.00     0.188 C 
BRANCH  43  44
ATOM     44  O   UNL A   1      35.320  32.360  27.812  1.00  0.00    -0.376 OA
BRANCH  44  45
ATOM     45  C   UNL A   1      35.612  32.966  29.057  1.00  0.00     0.202 C 
BRANCH  45  46
ATOM     46  C   UNL A   1      34.457  33.234  30.015  1.00  0.00     0.261 C 
BRANCH  46  47
ATOM     47  O   UNL A   1      34.879  33.699  31.279  1.00  0.00    -0.460 OA
BRANCH  47  48
ATOM     48  C   UNL A   1      35.302  32.734  32.112  1.00  0.00     0.338 C 
ATOM     49  O   UNL A   1      34.843  31.603  32.225  1.00  0.00    -0.246 OA
BRANCH  48  50
ATOM     50  C   UNL A   1      36.329  33.306  32.977  1.00  0.00     0.060 A 
ATOM     51  C   UNL A   1      36.854  34.518  32.543  1.00  0.00     0.016 A 
ATOM     52  C   UNL A   1      37.013  32.448  33.857  1.00  0.00     0.016 A 
ATOM     53  C   UNL A   1      38.200  34.700  32.704  1.00  0.00     0.010 A 
ATOM     54  C   UNL A   1      38.360  32.626  34.005  1.00  0.00     0.010 A 
ATOM     55  C   UNL A   1      38.942  33.686  33.325  1.00  0.00    -0.014 A 
BRANCH  55  56
ATOM     56  C   UNL A   1      40.373  33.832  33.332  1.00  0.00     0.031 A 
ATOM     57  C   UNL A   1      40.999  32.925  32.359  1.00  0.00     0.074 A 
ATOM     58  C   UNL A   1      41.020  34.719  34.109  1.00  0.00     0.049 A 
ATOM     59  N   UNL A   1      41.595  31.813  32.619  1.00  0.00    -0.248 NA
ATOM     60  C   UNL A   1      40.690  33.136  30.935  1.00  0.00     0.031 C 
ATOM     61  C   UNL A   1      40.469  35.809  34.916  1.00  0.00     0.029 A 
ATOM     62  N   UNL A   1      42.358  34.881  34.250  1.00  0.00    -0.354 N 
ATOM     63  C   UNL A   1      41.977  31.318  31.384  1.00  0.00     0.074 A 
ATOM     64  C   UNL A   1      41.188  32.021  30.404  1.00  0.00     0.031 C 
ATOM     65  C   UNL A   1      41.471  36.661  35.244  1.00  0.00     0.029 A 
ATOM     66  C   UNL A   1      42.734  36.105  34.788  1.00  0.00     0.049 A 
ATOM     67  H   UNL A   1      43.009  34.190  33.992  1.00  0.00     0.167 HD
ATOM     68  C   UNL A   1      43.141  30.629  31.247  1.00  0.00     0.031 A 
ATOM     69  C   UNL A   1      43.985  36.633  34.766  1.00  0.00     0.031 A 
ATOM     70  C   UNL A   1      43.635  30.159  32.519  1.00  0.00     0.049 A 
ATOM     71  C   UNL A   1      44.930  35.507  34.541  1.00  0.00     0.074 A 
ATOM     72  C   UNL A   1      43.123  29.355  33.518  1.00  0.00     0.029 A 
ATOM     73  N   UNL A   1      44.662  30.874  33.092  1.00  0.00    -0.354 N 
ATOM     74  N   UNL A   1      45.127  34.559  35.416  1.00  0.00    -0.248 NA
ATOM     75  C   UNL A   1      45.278  35.162  33.169  1.00  0.00     0.031 C 
ATOM     76  C   UNL A   1      43.559  29.955  34.737  1.00  0.00     0.029 A 
ATOM     77  C   UNL A   1      44.369  31.046  34.420  1.00  0.00     0.049 A 
ATOM     78  H   UNL A   1      45.466  31.204  32.630  1.00  0.00     0.167 HD
ATOM     79  C   UNL A   1      45.184  33.390  34.669  1.00  0.00     0.074 A 
ATOM     80  C   UNL A   1      45.369  33.833  33.287  1.00  0.00     0.031 C 
ATOM     81  C   UNL A   1      44.787  32.194  35.200  1.00  0.00     0.031 A 
BRANCH  68  82
ATOM     82  C   UNL A   1      44.035  30.819  30.051  1.00  0.00    -0.014 A 
ATOM     83  C   UNL A   1      43.585  30.371  28.797  1.00  0.00     0.010 A 
ATOM     84  C   UNL A   1      45.404  31.151  30.163  1.00  0.00     0.010 A 
ATOM     85  C   UNL A   1      44.477  30.199  27.732  1.00  0.00     0.020 A 
ATOM     86  C   UNL A   1      46.290  31.030  29.097  1.00  0.00     0.020 A 
ATOM     87  C   UNL A   1      45.826  30.519  27.896  1.00  0.00     0.054 A 
BRANCH  87  88
ATOM     88  S   UNL A   1      46.987  30.203  26.549  1.00  0.00     0.124 S 
ATOM     89  O   UNL A   1      46.149  30.426  25.377  1.00  0.00    -0.237 OA
ATOM     90  O   UNL A   1      48.020  31.205  26.796  1.00  0.00    -0.237 OA
ATOM     91  O   UNL A   1      47.400  28.819  26.774  1.00  0.00    -0.744 OA
ENDBRANCH  87  88
ENDBRANCH  68  82
BRANCH  69  92
ATOM     92  C   UNL A   1      44.367  38.055  34.561  1.00  0.00    -0.014 A 
ATOM     93  C   UNL A   1      45.709  38.471  34.668  1.00  0.00     0.010 A 
ATOM     94  C   UNL A   1      43.452  38.955  33.979  1.00  0.00     0.010 A 
ATOM     95  C   UNL A   1      46.127  39.711  34.148  1.00  0.00     0.020 A 
ATOM     96  C   UNL A   1      43.858  40.192  33.466  1.00  0.00     0.020 A 
ATOM     97  C   UNL A   1      45.201  40.555  33.531  1.00  0.00     0.054 A 
BRANCH  97  98
ATOM     98  S   UNL A   1      45.775  42.065  32.694  1.00  0.00     0.124 S 
ATOM     99  O   UNL A   1      45.238  43.118  33.550  1.00  0.00    -0.237 OA
ATOM    100  O   UNL A   1      47.226  41.909  32.716  1.00  0.00    -0.237 OA
ATOM    101  O   UNL A   1      45.167  41.974  31.368  1.00  0.00    -0.744 OA
ENDBRANCH  97  98
ENDBRANCH  69  92
BRANCH  81 102
ATOM    102  C   UNL A   1      44.563  32.114  36.695  1.00  0.00    -0.014 A 
ATOM    103  C   UNL A   1      43.336  32.398  37.329  1.00  0.00     0.010 A 
ATOM    104  C   UNL A   1      45.615  31.610  37.477  1.00  0.00     0.010 A 
ATOM    105  C   UNL A   1      43.186  32.225  38.714  1.00  0.00     0.020 A 
ATOM    106  C   UNL A   1      45.468  31.417  38.852  1.00  0.00     0.020 A 
ATOM    107  C   UNL A   1      44.259  31.741  39.469  1.00  0.00     0.054 A 
BRANCH 107 108
ATOM    108  S   UNL A   1      44.067  31.512  41.258  1.00  0.00     0.124 S 
ATOM    109  O   UNL A   1      44.273  32.862  41.775  1.00  0.00    -0.237 OA
ATOM    110  O   UNL A   1      42.706  30.995  41.376  1.00  0.00    -0.237 OA
ATOM    111  O   UNL A   1      45.116  30.554  41.602  1.00  0.00    -0.744 OA
ENDBRANCH 107 108
ENDBRANCH  81 102
ENDBRANCH  55  56
ENDBRANCH  48  50
ENDBRANCH  47  48
ENDBRANCH  46  47
ENDBRANCH  45  46
ENDBRANCH  44  45
ENDBRANCH  43  44
ENDBRANCH  42  43
ENDBRANCH  41  42
ENDBRANCH  40  41
ENDBRANCH   1  40
TORSDOF 29
ENDMDL
MODEL 3
REMARK VINA RESULT:      -7.9      5.593     10.898
REMARK SMILES COc1ccc(-n2c(SCc3cn(-c4ccc(C(=O)OCCOCCOCCOCCOC(=O)c5ccc(-c6c7nc(c(-c8ccc(S(=O)(=O)[O-])cc8)c8ccc([nH]8)c(-c8ccc(S(=O)(=O)[O-])cc8)c8nc(c(-c9ccc(S(=O)(=O)[O-])cc9)c9ccc6[nH]9)C=C8)C=C7)cc5)cc4)nn3)nc3ccccc3c2=O)cc1
REMARK SMILES IDX 24 1 23 2 22 3 21 4 20 5 18 6 19 7 17 8 14 9 15 10 96 11
REMARK SMILES IDX 16 12 95 13 13 14 11 15 12 16 98 17 97 18 10 19 9 20 8 21
REMARK SMILES IDX 7 22 106 23 99 24 105 25 107 26 100 27 104 28 101 29 103 30
REMARK SMILES IDX 102 31 6 32 3 33 4 34 109 35 5 36 108 37 2 38 1 39 25 40
REMARK SMILES IDX 26 41 27 42 28 43 29 44 30 45 31 46 32 47 33 48 34 49 35 50
REMARK SMILES IDX 36 51 94 52 37 53 93 54 38 55 39 56 40 57 87 58 41 59 92 60
REMARK SMILES IDX 86 61 88 62 42 63 91 64 85 65 84 66 43 68 73 69 54 70 72 71
REMARK SMILES IDX 55 72 58 73 71 74 89 75 56 76 57 77 70 79 90 80 59 81 44 82
REMARK SMILES IDX 45 83 53 84 46 85 52 86 47 87 48 88 49 89 50 90 51 91 74 92
REMARK SMILES IDX 75 93 83 94 76 95 82 96 77 97 78 98 79 99 80 100 81 101
REMARK SMILES IDX 60 102 61 103 69 104 62 105 68 106 63 107 64 108 65 109
REMARK SMILES IDX 66 110 67 111
REMARK H PARENT 88 67 58 78
REMARK Flexibility Score: inf
ROOT
ATOM      1  C   UNL A   1      33.007  28.053  26.121  1.00  0.00     0.188 C 
ENDROOT
BRANCH   1   2
ATOM      2  O   UNL A   1      33.368  26.945  25.310  1.00  0.00    -0.376 OA
BRANCH   2   3
ATOM      3  C   UNL A   1      33.096  25.598  25.652  1.00  0.00     0.202 C 
BRANCH   3   4
ATOM      4  C   UNL A   1      33.452  24.377  24.791  1.00  0.00     0.261 C 
BRANCH   4   5
ATOM      5  O   UNL A   1      34.832  24.101  24.611  1.00  0.00    -0.460 OA
BRANCH   5   6
ATOM      6  C   UNL A   1      35.172  22.801  24.540  1.00  0.00     0.338 C 
ATOM      7  O   UNL A   1      34.563  21.894  23.987  1.00  0.00    -0.246 OA
BRANCH   6   8
ATOM      8  C   UNL A   1      36.538  22.689  25.076  1.00  0.00     0.060 A 
ATOM      9  C   UNL A   1      39.031  22.479  26.238  1.00  0.00     0.066 A 
ATOM     10  C   UNL A   1      38.314  23.674  26.378  1.00  0.00     0.029 A 
ATOM     11  C   UNL A   1      38.485  21.368  25.584  1.00  0.00     0.029 A 
ATOM     12  C   UNL A   1      37.075  23.786  25.762  1.00  0.00     0.018 A 
ATOM     13  C   UNL A   1      37.226  21.471  25.011  1.00  0.00     0.018 A 
BRANCH   9  14
ATOM     14  N   UNL A   1      40.364  22.434  26.664  1.00  0.00    -0.220 N 
ATOM     15  C   UNL A   1      42.193  22.800  27.756  1.00  0.00     0.093 A 
ATOM     16  C   UNL A   1      41.022  23.402  27.377  1.00  0.00     0.141 A 
ATOM     17  N   UNL A   1      42.256  21.556  27.192  1.00  0.00    -0.134 NA
ATOM     18  N   UNL A   1      41.116  21.323  26.570  1.00  0.00    -0.062 NA
BRANCH  15  19
ATOM     19  C   UNL A   1      43.203  23.313  28.695  1.00  0.00     0.138 C 
BRANCH  19  20
ATOM     20  S   UNL A   1      44.855  23.352  28.043  1.00  0.00    -0.081 SA
BRANCH  20  21
ATOM     21  C   UNL A   1      45.684  24.661  28.983  1.00  0.00     0.176 A 
ATOM     22  N   UNL A   1      44.799  25.474  29.670  1.00  0.00    -0.255 N 
ATOM     23  C   UNL A   1      44.370  26.619  29.004  1.00  0.00     0.266 A 
ATOM     24  N   UNL A   1      46.671  25.222  28.350  1.00  0.00    -0.223 NA
ATOM     25  C   UNL A   1      44.931  26.749  27.620  1.00  0.00     0.066 A 
ATOM     26  O   UNL A   1      43.580  27.456  29.427  1.00  0.00    -0.268 OA
ATOM     27  C   UNL A   1      46.145  26.081  27.365  1.00  0.00     0.079 A 
ATOM     28  C   UNL A   1      44.166  27.243  26.569  1.00  0.00     0.016 A 
ATOM     29  C   UNL A   1      46.633  25.976  26.066  1.00  0.00     0.029 A 
ATOM     30  C   UNL A   1      44.619  27.054  25.259  1.00  0.00     0.001 A 
ATOM     31  C   UNL A   1      45.855  26.441  25.009  1.00  0.00     0.002 A 
BRANCH  22  32
ATOM     32  C   UNL A   1      44.422  25.158  30.999  1.00  0.00     0.052 A 
ATOM     33  C   UNL A   1      44.295  24.415  33.695  1.00  0.00     0.119 A 
ATOM     34  C   UNL A   1      44.394  25.761  33.357  1.00  0.00     0.048 A 
ATOM     35  C   UNL A   1      44.133  23.456  32.695  1.00  0.00     0.048 A 
ATOM     36  C   UNL A   1      44.491  26.130  32.009  1.00  0.00     0.030 A 
ATOM     37  C   UNL A   1      44.159  23.831  31.347  1.00  0.00     0.030 A 
BRANCH  33  38
ATOM     38  O   UNL A   1      44.286  24.075  35.020  1.00  0.00    -0.497 OA
ATOM     39  C   UNL A   1      42.986  23.694  35.475  1.00  0.00     0.278 C 
ENDBRANCH  33  38
ENDBRANCH  22  32
ENDBRANCH  20  21
ENDBRANCH  19  20
ENDBRANCH  15  19
ENDBRANCH   9  14
ENDBRANCH   6   8
ENDBRANCH   5   6
ENDBRANCH   4   5
ENDBRANCH   3   4
ENDBRANCH   2   3
ENDBRANCH   1   2
BRANCH   1  40
ATOM     40  C   UNL A   1      33.963  28.626  27.191  1.00  0.00     0.188 C 
BRANCH  40  41
ATOM     41  O   UNL A   1      35.012  29.414  26.659  1.00  0.00    -0.377 OA
BRANCH  41  42
ATOM     42  C   UNL A   1      35.553  30.415  27.521  1.00  0.00     0.188 C 
BRANCH  42  43
ATOM     43  C   UNL A   1      36.009  30.045  28.959  1.00  0.00     0.188 C 
BRANCH  43  44
ATOM     44  O   UNL A   1      36.165  31.144  29.845  1.00  0.00    -0.376 OA
BRANCH  44  45
ATOM     45  C   UNL A   1      37.004  31.112  30.984  1.00  0.00     0.202 C 
BRANCH  45  46
ATOM     46  C   UNL A   1      37.541  32.434  31.519  1.00  0.00     0.261 C 
BRANCH  46  47
ATOM     47  O   UNL A   1      38.197  33.207  30.536  1.00  0.00    -0.460 OA
BRANCH  47  48
ATOM     48  C   UNL A   1      39.002  34.162  31.028  1.00  0.00     0.338 C 
ATOM     49  O   UNL A   1      38.750  34.943  31.939  1.00  0.00    -0.246 OA
BRANCH  48  50
ATOM     50  C   UNL A   1      40.200  34.213  30.195  1.00  0.00     0.060 A 
ATOM     51  C   UNL A   1      41.401  34.226  30.896  1.00  0.00     0.016 A 
ATOM     52  C   UNL A   1      40.076  34.693  28.879  1.00  0.00     0.016 A 
ATOM     53  C   UNL A   1      42.388  35.040  30.412  1.00  0.00     0.010 A 
ATOM     54  C   UNL A   1      41.059  35.516  28.405  1.00  0.00     0.010 A 
ATOM     55  C   UNL A   1      42.141  35.764  29.237  1.00  0.00    -0.014 A 
BRANCH  55  56
ATOM     56  C   UNL A   1      43.130  36.733  28.845  1.00  0.00     0.031 A 
ATOM     57  C   UNL A   1      44.457  36.110  28.730  1.00  0.00     0.074 A 
ATOM     58  C   UNL A   1      42.839  38.019  28.585  1.00  0.00     0.049 A 
ATOM     59  N   UNL A   1      45.419  36.190  29.583  1.00  0.00    -0.248 NA
ATOM     60  C   UNL A   1      44.637  35.074  27.700  1.00  0.00     0.031 C 
ATOM     61  C   UNL A   1      41.529  38.656  28.442  1.00  0.00     0.029 A 
ATOM     62  N   UNL A   1      43.700  39.023  28.287  1.00  0.00    -0.354 N 
ATOM     63  C   UNL A   1      46.434  35.417  29.048  1.00  0.00     0.074 A 
ATOM     64  C   UNL A   1      45.820  34.574  28.053  1.00  0.00     0.031 C 
ATOM     65  C   UNL A   1      41.689  39.859  27.839  1.00  0.00     0.029 A 
ATOM     66  C   UNL A   1      43.110  40.124  27.682  1.00  0.00     0.049 A 
ATOM     67  H   UNL A   1      44.663  38.974  28.484  1.00  0.00     0.167 HD
ATOM     68  C   UNL A   1      47.735  35.772  29.218  1.00  0.00     0.031 A 
ATOM     69  C   UNL A   1      43.765  41.120  27.031  1.00  0.00     0.031 A 
ATOM     70  C   UNL A   1      47.893  36.718  30.296  1.00  0.00     0.049 A 
ATOM     71  C   UNL A   1      45.175  41.097  27.503  1.00  0.00     0.074 A 
ATOM     72  C   UNL A   1      47.582  36.711  31.642  1.00  0.00     0.029 A 
ATOM     73  N   UNL A   1      48.057  38.040  29.948  1.00  0.00    -0.354 N 
ATOM     74  N   UNL A   1      45.520  41.395  28.725  1.00  0.00    -0.248 NA
ATOM     75  C   UNL A   1      46.133  40.275  26.775  1.00  0.00     0.031 C 
ATOM     76  C   UNL A   1      47.127  38.033  31.924  1.00  0.00     0.029 A 
ATOM     77  C   UNL A   1      47.252  38.795  30.761  1.00  0.00     0.049 A 
ATOM     78  H   UNL A   1      48.649  38.383  29.241  1.00  0.00     0.167 HD
ATOM     79  C   UNL A   1      46.481  40.453  29.065  1.00  0.00     0.074 A 
ATOM     80  C   UNL A   1      46.887  39.852  27.795  1.00  0.00     0.031 C 
ATOM     81  C   UNL A   1      46.645  40.048  30.361  1.00  0.00     0.031 A 
BRANCH  68  82
ATOM     82  C   UNL A   1      48.744  35.634  28.108  1.00  0.00    -0.014 A 
ATOM     83  C   UNL A   1      50.011  36.220  28.274  1.00  0.00     0.010 A 
ATOM     84  C   UNL A   1      48.397  35.207  26.807  1.00  0.00     0.010 A 
ATOM     85  C   UNL A   1      50.854  36.429  27.177  1.00  0.00     0.020 A 
ATOM     86  C   UNL A   1      49.248  35.367  25.718  1.00  0.00     0.020 A 
ATOM     87  C   UNL A   1      50.460  36.011  25.905  1.00  0.00     0.054 A 
BRANCH  87  88
ATOM     88  S   UNL A   1      51.511  36.373  24.482  1.00  0.00     0.124 S 
ATOM     89  O   UNL A   1      50.531  36.803  23.491  1.00  0.00    -0.237 OA
ATOM     90  O   UNL A   1      52.387  37.417  25.008  1.00  0.00    -0.237 OA
ATOM     91  O   UNL A   1      52.166  35.095  24.208  1.00  0.00    -0.744 OA
ENDBRANCH  87  88
ENDBRANCH  68  82
BRANCH  69  92
ATOM     92  C   UNL A   1      43.345  41.823  25.789  1.00  0.00    -0.014 A 
ATOM     93  C   UNL A   1      44.224  42.691  25.111  1.00  0.00     0.010 A 
ATOM     94  C   UNL A   1      42.176  41.421  25.111  1.00  0.00     0.010 A 
ATOM     95  C   UNL A   1      43.975  43.082  23.782  1.00  0.00     0.020 A 
ATOM     96  C   UNL A   1      41.918  41.812  23.793  1.00  0.00     0.020 A 
ATOM     97  C   UNL A   1      42.832  42.622  23.124  1.00  0.00     0.054 A 
BRANCH  97  98
ATOM     98  S   UNL A   1      42.608  42.972  21.353  1.00  0.00     0.124 S 
ATOM     99  O   UNL A   1      41.239  43.473  21.305  1.00  0.00    -0.237 OA
ATOM    100  O   UNL A   1      43.653  43.958  21.089  1.00  0.00    -0.237 OA
ATOM    101  O   UNL A   1      42.816  41.672  20.717  1.00  0.00    -0.744 OA
ENDBRANCH  97  98
ENDBRANCH  69  92
BRANCH  81 102
ATOM    102  C   UNL A   1      45.967  40.851  31.452  1.00  0.00    -0.014 A 
ATOM    103  C   UNL A   1      46.525  41.996  32.056  1.00  0.00     0.010 A 
ATOM    104  C   UNL A   1      44.651  40.493  31.791  1.00  0.00     0.010 A 
ATOM    105  C   UNL A   1      45.800  42.732  33.007  1.00  0.00     0.020 A 
ATOM    106  C   UNL A   1      43.917  41.231  32.721  1.00  0.00     0.020 A 
ATOM    107  C   UNL A   1      44.499  42.338  33.338  1.00  0.00     0.054 A 
BRANCH 107 108
ATOM    108  S   UNL A   1      43.559  43.290  34.564  1.00  0.00     0.124 S 
ATOM    109  O   UNL A   1      42.183  42.880  34.297  1.00  0.00    -0.237 OA
ATOM    110  O   UNL A   1      44.118  42.829  35.832  1.00  0.00    -0.237 OA
ATOM    111  O   UNL A   1      43.863  44.681  34.233  1.00  0.00    -0.744 OA
ENDBRANCH 107 108
ENDBRANCH  81 102
ENDBRANCH  55  56
ENDBRANCH  48  50
ENDBRANCH  47  48
ENDBRANCH  46  47
ENDBRANCH  45  46
ENDBRANCH  44  45
ENDBRANCH  43  44
ENDBRANCH  42  43
ENDBRANCH  41  42
ENDBRANCH  40  41
ENDBRANCH   1  40
TORSDOF 29
ENDMDL
