MODEL 1
REMARK VINA RESULT:      -7.8      0.000      0.000
REMARK SMILES C[C@@H](C(=O)OCCOCCOCCOCCOC(=O)c1ccc(-c2c3nc(c(-c4ccc(S(=O)(=O)[O-])cc4)c4ccc([nH]4)c(-c4ccc(S(=O)(=O)[O-])cc4)c4nc(c(-c5ccc(S(=O)(=O)[O-])cc5)c5ccc2[nH]5)C=C4)C=C3)cc1)c1ccc(C[C@H]2CCC[C@@H]2O)cc1
REMARK SMILES IDX 10 1 9 2 8 3 7 4 6 5 5 6 3 7 4 8 2 9 1 10 80 11 81 12 92 13
REMARK SMILES IDX 82 14 91 15 83 16 84 17 85 18 86 19 89 20 87 21 88 22 90 23
REMARK SMILES IDX 11 25 12 26 13 27 14 28 15 29 16 30 17 31 18 32 19 33 20 34
REMARK SMILES IDX 21 35 79 36 22 37 78 38 23 39 24 40 25 41 72 42 26 43 77 44
REMARK SMILES IDX 71 45 73 46 27 47 76 48 70 49 69 50 28 52 58 53 39 54 57 55
REMARK SMILES IDX 40 56 43 57 56 58 74 59 41 60 42 61 55 63 75 64 44 65 29 66
REMARK SMILES IDX 30 67 38 68 31 69 37 70 32 71 33 72 34 73 35 74 36 75 59 76
REMARK SMILES IDX 60 77 68 78 61 79 67 80 62 81 63 82 64 83 65 84 66 85 45 86
REMARK SMILES IDX 46 87 54 88 47 89 53 90 48 91 49 92 50 93 51 94 52 95
REMARK H PARENT 90 24 73 51 43 62
REMARK Flexibility Score: inf
ROOT
ATOM      1  C   UNL A   1      42.321  28.100  34.739  1.00  0.00     0.188 C 
ENDROOT
BRANCH   1   2
ATOM      2  C   UNL A   1      42.936  29.418  35.234  1.00  0.00     0.188 C 
BRANCH   2   3
ATOM      3  O   UNL A   1      43.798  30.111  34.354  1.00  0.00    -0.376 OA
BRANCH   3   4
ATOM      4  C   UNL A   1      43.955  31.521  34.433  1.00  0.00     0.202 C 
BRANCH   4   5
ATOM      5  C   UNL A   1      42.904  32.531  34.946  1.00  0.00     0.261 C 
BRANCH   5   6
ATOM      6  O   UNL A   1      42.689  33.703  34.155  1.00  0.00    -0.463 OA
BRANCH   6   7
ATOM      7  C   UNL A   1      41.637  33.717  33.303  1.00  0.00     0.313 C 
ATOM      8  O   UNL A   1      41.432  32.859  32.450  1.00  0.00    -0.252 OA
BRANCH   7   9
ATOM      9  C   UNL A   1      40.657  34.863  33.592  1.00  0.00     0.126 C 
ATOM     10  C   UNL A   1      40.955  35.571  34.929  1.00  0.00     0.025 C 
BRANCH   9  11
ATOM     11  C   UNL A   1      39.182  34.497  33.355  1.00  0.00    -0.034 A 
ATOM     12  C   UNL A   1      38.317  34.190  34.417  1.00  0.00     0.005 A 
ATOM     13  C   UNL A   1      38.616  34.541  32.069  1.00  0.00     0.005 A 
ATOM     14  C   UNL A   1      36.956  33.923  34.198  1.00  0.00     0.004 A 
ATOM     15  C   UNL A   1      37.266  34.239  31.845  1.00  0.00     0.004 A 
ATOM     16  C   UNL A   1      36.417  33.926  32.908  1.00  0.00    -0.048 A 
BRANCH  16  17
ATOM     17  C   UNL A   1      34.948  33.677  32.657  1.00  0.00     0.041 C 
BRANCH  17  18
ATOM     18  C   UNL A   1      34.016  34.895  32.563  1.00  0.00     0.022 C 
ATOM     19  C   UNL A   1      34.398  36.112  33.419  1.00  0.00     0.007 C 
ATOM     20  C   UNL A   1      33.806  35.463  31.157  1.00  0.00     0.117 C 
ATOM     21  C   UNL A   1      34.017  37.346  32.594  1.00  0.00     0.003 C 
ATOM     22  C   UNL A   1      33.187  36.825  31.431  1.00  0.00     0.032 C 
BRANCH  20  23
ATOM     23  O   UNL A   1      32.954  34.642  30.377  1.00  0.00    -0.393 OA
ATOM     24  H   UNL A   1      32.448  34.054  30.960  1.00  0.00     0.210 HD
ENDBRANCH  20  23
ENDBRANCH  17  18
ENDBRANCH  16  17
ENDBRANCH   9  11
ENDBRANCH   7   9
ENDBRANCH   6   7
ENDBRANCH   5   6
ENDBRANCH   4   5
ENDBRANCH   3   4
ENDBRANCH   2   3
ENDBRANCH   1   2
BRANCH   1  25
ATOM     25  O   UNL A   1      41.574  28.193  33.541  1.00  0.00    -0.377 OA
BRANCH  25  26
ATOM     26  C   UNL A   1      41.110  29.471  33.119  1.00  0.00     0.188 C 
BRANCH  26  27
ATOM     27  C   UNL A   1      39.754  30.033  33.598  1.00  0.00     0.188 C 
BRANCH  27  28
ATOM     28  O   UNL A   1      38.677  29.107  33.583  1.00  0.00    -0.376 OA
BRANCH  28  29
ATOM     29  C   UNL A   1      37.367  29.597  33.344  1.00  0.00     0.202 C 
BRANCH  29  30
ATOM     30  C   UNL A   1      37.045  30.104  31.929  1.00  0.00     0.261 C 
BRANCH  30  31
ATOM     31  O   UNL A   1      36.730  29.103  30.949  1.00  0.00    -0.460 OA
BRANCH  31  32
ATOM     32  C   UNL A   1      36.842  29.435  29.646  1.00  0.00     0.338 C 
ATOM     33  O   UNL A   1      36.064  30.109  28.991  1.00  0.00    -0.246 OA
BRANCH  32  34
ATOM     34  C   UNL A   1      38.181  29.012  29.186  1.00  0.00     0.060 A 
ATOM     35  C   UNL A   1      38.998  28.278  30.057  1.00  0.00     0.016 A 
ATOM     36  C   UNL A   1      38.626  29.336  27.903  1.00  0.00     0.016 A 
ATOM     37  C   UNL A   1      40.281  27.903  29.660  1.00  0.00     0.010 A 
ATOM     38  C   UNL A   1      39.920  28.978  27.515  1.00  0.00     0.010 A 
ATOM     39  C   UNL A   1      40.767  28.293  28.404  1.00  0.00    -0.014 A 
BRANCH  39  40
ATOM     40  C   UNL A   1      42.214  28.170  28.104  1.00  0.00     0.031 A 
ATOM     41  C   UNL A   1      43.103  29.353  28.385  1.00  0.00     0.074 A 
ATOM     42  C   UNL A   1      42.740  27.032  27.615  1.00  0.00     0.049 A 
ATOM     43  N   UNL A   1      44.381  29.504  28.158  1.00  0.00    -0.248 NA
ATOM     44  C   UNL A   1      42.456  30.525  29.001  1.00  0.00     0.031 C 
ATOM     45  C   UNL A   1      41.997  25.802  27.349  1.00  0.00     0.029 A 
ATOM     46  N   UNL A   1      44.029  26.735  27.247  1.00  0.00    -0.354 N 
ATOM     47  C   UNL A   1      44.691  30.787  28.595  1.00  0.00     0.074 A 
ATOM     48  C   UNL A   1      43.462  31.385  29.067  1.00  0.00     0.031 C 
ATOM     49  C   UNL A   1      42.842  24.884  26.847  1.00  0.00     0.029 A 
ATOM     50  C   UNL A   1      44.176  25.473  26.722  1.00  0.00     0.049 A 
ATOM     51  H   UNL A   1      44.777  27.366  27.350  1.00  0.00     0.167 HD
ATOM     52  C   UNL A   1      45.893  31.412  28.609  1.00  0.00     0.031 A 
ATOM     53  C   UNL A   1      45.254  24.873  26.177  1.00  0.00     0.031 A 
ATOM     54  C   UNL A   1      47.111  30.822  28.118  1.00  0.00     0.049 A 
ATOM     55  C   UNL A   1      46.564  25.618  26.121  1.00  0.00     0.074 A 
ATOM     56  C   UNL A   1      48.380  31.371  28.091  1.00  0.00     0.029 A 
ATOM     57  N   UNL A   1      47.209  29.557  27.559  1.00  0.00    -0.354 N 
ATOM     58  N   UNL A   1      46.847  26.824  26.554  1.00  0.00    -0.248 NA
ATOM     59  C   UNL A   1      47.703  24.918  25.510  1.00  0.00     0.031 C 
ATOM     60  C   UNL A   1      49.234  30.463  27.457  1.00  0.00     0.029 A 
ATOM     61  C   UNL A   1      48.512  29.317  27.158  1.00  0.00     0.049 A 
ATOM     62  H   UNL A   1      46.462  28.922  27.463  1.00  0.00     0.167 HD
ATOM     63  C   UNL A   1      48.203  27.013  26.296  1.00  0.00     0.074 A 
ATOM     64  C   UNL A   1      48.684  25.792  25.684  1.00  0.00     0.031 C 
ATOM     65  C   UNL A   1      48.980  28.097  26.548  1.00  0.00     0.031 A 
BRANCH  52  66
ATOM     66  C   UNL A   1      45.936  32.823  29.134  1.00  0.00    -0.014 A 
ATOM     67  C   UNL A   1      46.523  33.124  30.377  1.00  0.00     0.010 A 
ATOM     68  C   UNL A   1      45.407  33.871  28.359  1.00  0.00     0.010 A 
ATOM     69  C   UNL A   1      46.540  34.438  30.853  1.00  0.00     0.020 A 
ATOM     70  C   UNL A   1      45.452  35.192  28.816  1.00  0.00     0.020 A 
ATOM     71  C   UNL A   1      46.003  35.464  30.069  1.00  0.00     0.054 A 
BRANCH  71  72
ATOM     72  S   UNL A   1      46.058  37.162  30.704  1.00  0.00     0.124 S 
ATOM     73  O   UNL A   1      46.983  37.033  31.828  1.00  0.00    -0.237 OA
ATOM     74  O   UNL A   1      46.562  37.914  29.558  1.00  0.00    -0.237 OA
ATOM     75  O   UNL A   1      44.671  37.441  31.069  1.00  0.00    -0.744 OA
ENDBRANCH  71  72
ENDBRANCH  52  66
BRANCH  53  76
ATOM     76  C   UNL A   1      45.135  23.498  25.613  1.00  0.00    -0.014 A 
ATOM     77  C   UNL A   1      45.479  22.371  26.379  1.00  0.00     0.010 A 
ATOM     78  C   UNL A   1      44.673  23.312  24.296  1.00  0.00     0.010 A 
ATOM     79  C   UNL A   1      45.377  21.086  25.835  1.00  0.00     0.020 A 
ATOM     80  C   UNL A   1      44.539  22.028  23.760  1.00  0.00     0.020 A 
ATOM     81  C   UNL A   1      44.902  20.923  24.531  1.00  0.00     0.054 A 
BRANCH  81  82
ATOM     82  S   UNL A   1      44.721  19.244  23.869  1.00  0.00     0.124 S 
ATOM     83  O   UNL A   1      45.966  18.612  24.296  1.00  0.00    -0.237 OA
ATOM     84  O   UNL A   1      43.510  18.774  24.537  1.00  0.00    -0.237 OA
ATOM     85  O   UNL A   1      44.588  19.455  22.429  1.00  0.00    -0.744 OA
ENDBRANCH  81  82
ENDBRANCH  53  76
BRANCH  65  86
ATOM     86  C   UNL A   1      50.445  28.005  26.204  1.00  0.00    -0.014 A 
ATOM     87  C   UNL A   1      51.376  27.443  27.096  1.00  0.00     0.010 A 
ATOM     88  C   UNL A   1      50.885  28.431  24.937  1.00  0.00     0.010 A 
ATOM     89  C   UNL A   1      52.725  27.342  26.738  1.00  0.00     0.020 A 
ATOM     90  C   UNL A   1      52.225  28.300  24.563  1.00  0.00     0.020 A 
ATOM     91  C   UNL A   1      53.140  27.769  25.473  1.00  0.00     0.054 A 
BRANCH  91  92
ATOM     92  S   UNL A   1      54.886  27.585  25.019  1.00  0.00     0.124 S 
ATOM     93  O   UNL A   1      55.225  28.930  24.560  1.00  0.00    -0.237 OA
ATOM     94  O   UNL A   1      55.503  27.178  26.279  1.00  0.00    -0.237 OA
ATOM     95  O   UNL A   1      54.870  26.559  23.979  1.00  0.00    -0.744 OA
ENDBRANCH  91  92
ENDBRANCH  65  86
ENDBRANCH  39  40
ENDBRANCH  32  34
ENDBRANCH  31  32
ENDBRANCH  30  31
ENDBRANCH  29  30
ENDBRANCH  28  29
ENDBRANCH  27  28
ENDBRANCH  26  27
ENDBRANCH  25  26
ENDBRANCH   1  25
TORSDOF 27
ENDMDL
MODEL 2
REMARK VINA RESULT:      -7.6      2.100      9.298
REMARK SMILES C[C@@H](C(=O)OCCOCCOCCOCCOC(=O)c1ccc(-c2c3nc(c(-c4ccc(S(=O)(=O)[O-])cc4)c4ccc([nH]4)c(-c4ccc(S(=O)(=O)[O-])cc4)c4nc(c(-c5ccc(S(=O)(=O)[O-])cc5)c5ccc2[nH]5)C=C4)C=C3)cc1)c1ccc(C[C@H]2CCC[C@@H]2O)cc1
REMARK SMILES IDX 10 1 9 2 8 3 7 4 6 5 5 6 3 7 4 8 2 9 1 10 80 11 81 12 92 13
REMARK SMILES IDX 82 14 91 15 83 16 84 17 85 18 86 19 89 20 87 21 88 22 90 23
REMARK SMILES IDX 11 25 12 26 13 27 14 28 15 29 16 30 17 31 18 32 19 33 20 34
REMARK SMILES IDX 21 35 79 36 22 37 78 38 23 39 24 40 25 41 72 42 26 43 77 44
REMARK SMILES IDX 71 45 73 46 27 47 76 48 70 49 69 50 28 52 58 53 39 54 57 55
REMARK SMILES IDX 40 56 43 57 56 58 74 59 41 60 42 61 55 63 75 64 44 65 29 66
REMARK SMILES IDX 30 67 38 68 31 69 37 70 32 71 33 72 34 73 35 74 36 75 59 76
REMARK SMILES IDX 60 77 68 78 61 79 67 80 62 81 63 82 64 83 65 84 66 85 45 86
REMARK SMILES IDX 46 87 54 88 47 89 53 90 48 91 49 92 50 93 51 94 52 95
REMARK H PARENT 90 24 73 51 43 62
REMARK Flexibility Score: inf
ROOT
ATOM      1  C   UNL A   1      34.125  35.435  32.383  1.00  0.00     0.188 C 
ENDROOT
BRANCH   1   2
ATOM      2  C   UNL A   1      34.583  34.622  33.603  1.00  0.00     0.188 C 
BRANCH   2   3
ATOM      3  O   UNL A   1      34.944  33.272  33.394  1.00  0.00    -0.376 OA
BRANCH   3   4
ATOM      4  C   UNL A   1      36.292  32.839  33.528  1.00  0.00     0.202 C 
BRANCH   4   5
ATOM      5  C   UNL A   1      37.530  33.485  32.867  1.00  0.00     0.261 C 
BRANCH   5   6
ATOM      6  O   UNL A   1      38.803  33.192  33.448  1.00  0.00    -0.463 OA
BRANCH   6   7
ATOM      7  C   UNL A   1      39.243  33.979  34.457  1.00  0.00     0.313 C 
ATOM      8  O   UNL A   1      38.710  35.034  34.789  1.00  0.00    -0.252 OA
BRANCH   7   9
ATOM      9  C   UNL A   1      40.419  33.356  35.225  1.00  0.00     0.126 C 
ATOM     10  C   UNL A   1      41.580  34.350  35.430  1.00  0.00     0.025 C 
BRANCH   9  11
ATOM     11  C   UNL A   1      40.826  31.963  34.718  1.00  0.00    -0.034 A 
ATOM     12  C   UNL A   1      42.044  31.743  34.056  1.00  0.00     0.005 A 
ATOM     13  C   UNL A   1      40.032  30.831  34.976  1.00  0.00     0.005 A 
ATOM     14  C   UNL A   1      42.438  30.457  33.657  1.00  0.00     0.004 A 
ATOM     15  C   UNL A   1      40.407  29.552  34.546  1.00  0.00     0.004 A 
ATOM     16  C   UNL A   1      41.617  29.347  33.880  1.00  0.00    -0.048 A 
BRANCH  16  17
ATOM     17  C   UNL A   1      42.041  27.950  33.491  1.00  0.00     0.041 C 
BRANCH  17  18
ATOM     18  C   UNL A   1      42.651  27.051  34.578  1.00  0.00     0.022 C 
ATOM     19  C   UNL A   1      41.657  26.294  35.472  1.00  0.00     0.007 C 
ATOM     20  C   UNL A   1      43.623  25.977  34.084  1.00  0.00     0.117 C 
ATOM     21  C   UNL A   1      42.304  24.937  35.768  1.00  0.00     0.003 C 
ATOM     22  C   UNL A   1      43.742  25.050  35.284  1.00  0.00     0.032 C 
BRANCH  20  23
ATOM     23  O   UNL A   1      44.874  26.526  33.713  1.00  0.00    -0.393 OA
ATOM     24  H   UNL A   1      45.481  26.487  34.469  1.00  0.00     0.210 HD
ENDBRANCH  20  23
ENDBRANCH  17  18
ENDBRANCH  16  17
ENDBRANCH   9  11
ENDBRANCH   7   9
ENDBRANCH   6   7
ENDBRANCH   5   6
ENDBRANCH   4   5
ENDBRANCH   3   4
ENDBRANCH   2   3
ENDBRANCH   1   2
BRANCH   1  25
ATOM     25  O   UNL A   1      33.624  34.674  31.301  1.00  0.00    -0.377 OA
BRANCH  25  26
ATOM     26  C   UNL A   1      34.417  34.544  30.126  1.00  0.00     0.188 C 
BRANCH  26  27
ATOM     27  C   UNL A   1      33.924  33.732  28.909  1.00  0.00     0.188 C 
BRANCH  27  28
ATOM     28  O   UNL A   1      34.905  33.479  27.915  1.00  0.00    -0.376 OA
BRANCH  28  29
ATOM     29  C   UNL A   1      35.553  32.216  27.909  1.00  0.00     0.202 C 
BRANCH  29  30
ATOM     30  C   UNL A   1      35.376  31.321  29.146  1.00  0.00     0.261 C 
BRANCH  30  31
ATOM     31  O   UNL A   1      36.382  31.434  30.164  1.00  0.00    -0.460 OA
BRANCH  31  32
ATOM     32  C   UNL A   1      36.924  30.296  30.648  1.00  0.00     0.338 C 
ATOM     33  O   UNL A   1      36.340  29.391  31.221  1.00  0.00    -0.246 OA
BRANCH  32  34
ATOM     34  C   UNL A   1      38.326  30.232  30.185  1.00  0.00     0.060 A 
ATOM     35  C   UNL A   1      38.592  30.304  28.811  1.00  0.00     0.016 A 
ATOM     36  C   UNL A   1      39.371  30.102  31.103  1.00  0.00     0.016 A 
ATOM     37  C   UNL A   1      39.904  30.205  28.348  1.00  0.00     0.010 A 
ATOM     38  C   UNL A   1      40.682  29.981  30.635  1.00  0.00     0.010 A 
ATOM     39  C   UNL A   1      40.951  29.994  29.255  1.00  0.00    -0.014 A 
BRANCH  39  40
ATOM     40  C   UNL A   1      42.285  29.581  28.756  1.00  0.00     0.031 A 
ATOM     41  C   UNL A   1      42.472  28.151  28.321  1.00  0.00     0.074 A 
ATOM     42  C   UNL A   1      43.307  30.453  28.666  1.00  0.00     0.049 A 
ATOM     43  N   UNL A   1      43.552  27.544  27.902  1.00  0.00    -0.248 NA
ATOM     44  C   UNL A   1      41.277  27.290  28.372  1.00  0.00     0.031 C 
ATOM     45  C   UNL A   1      43.240  31.872  29.005  1.00  0.00     0.029 A 
ATOM     46  N   UNL A   1      44.606  30.260  28.266  1.00  0.00    -0.354 N 
ATOM     47  C   UNL A   1      43.170  26.232  27.647  1.00  0.00     0.074 A 
ATOM     48  C   UNL A   1      41.770  26.121  27.992  1.00  0.00     0.031 C 
ATOM     49  C   UNL A   1      44.453  32.422  28.811  1.00  0.00     0.029 A 
ATOM     50  C   UNL A   1      45.388  31.387  28.371  1.00  0.00     0.049 A 
ATOM     51  H   UNL A   1      44.947  29.398  27.936  1.00  0.00     0.167 HD
ATOM     52  C   UNL A   1      43.915  25.210  27.164  1.00  0.00     0.031 A 
ATOM     53  C   UNL A   1      46.710  31.556  28.162  1.00  0.00     0.031 A 
ATOM     54  C   UNL A   1      45.314  25.317  26.842  1.00  0.00     0.049 A 
ATOM     55  C   UNL A   1      47.541  30.383  27.707  1.00  0.00     0.074 A 
ATOM     56  C   UNL A   1      46.158  24.342  26.342  1.00  0.00     0.029 A 
ATOM     57  N   UNL A   1      46.077  26.465  26.998  1.00  0.00    -0.354 N 
ATOM     58  N   UNL A   1      47.164  29.152  27.453  1.00  0.00    -0.248 NA
ATOM     59  C   UNL A   1      48.977  30.625  27.503  1.00  0.00     0.031 C 
ATOM     60  C   UNL A   1      47.446  24.881  26.258  1.00  0.00     0.029 A 
ATOM     61  C   UNL A   1      47.388  26.215  26.631  1.00  0.00     0.049 A 
ATOM     62  H   UNL A   1      45.735  27.331  27.321  1.00  0.00     0.167 HD
ATOM     63  C   UNL A   1      48.309  28.483  27.030  1.00  0.00     0.074 A 
ATOM     64  C   UNL A   1      49.387  29.449  27.048  1.00  0.00     0.031 C 
ATOM     65  C   UNL A   1      48.454  27.186  26.654  1.00  0.00     0.031 A 
BRANCH  52  66
ATOM     66  C   UNL A   1      43.238  23.875  26.995  1.00  0.00    -0.014 A 
ATOM     67  C   UNL A   1      42.956  23.052  28.101  1.00  0.00     0.010 A 
ATOM     68  C   UNL A   1      42.848  23.449  25.712  1.00  0.00     0.010 A 
ATOM     69  C   UNL A   1      42.339  21.811  27.921  1.00  0.00     0.020 A 
ATOM     70  C   UNL A   1      42.201  22.223  25.531  1.00  0.00     0.020 A 
ATOM     71  C   UNL A   1      41.966  21.404  26.636  1.00  0.00     0.054 A 
BRANCH  71  72
ATOM     72  S   UNL A   1      41.149  19.797  26.436  1.00  0.00     0.124 S 
ATOM     73  O   UNL A   1      41.975  19.165  25.410  1.00  0.00    -0.237 OA
ATOM     74  O   UNL A   1      41.256  19.217  27.773  1.00  0.00    -0.237 OA
ATOM     75  O   UNL A   1      39.794  20.146  26.017  1.00  0.00    -0.744 OA
ENDBRANCH  71  72
ENDBRANCH  52  66
BRANCH  53  76
ATOM     76  C   UNL A   1      47.337  32.885  28.409  1.00  0.00    -0.014 A 
ATOM     77  C   UNL A   1      47.853  33.218  29.673  1.00  0.00     0.010 A 
ATOM     78  C   UNL A   1      47.420  33.831  27.370  1.00  0.00     0.010 A 
ATOM     79  C   UNL A   1      48.427  34.474  29.898  1.00  0.00     0.020 A 
ATOM     80  C   UNL A   1      48.022  35.074  27.580  1.00  0.00     0.020 A 
ATOM     81  C   UNL A   1      48.513  35.392  28.847  1.00  0.00     0.054 A 
BRANCH  81  82
ATOM     82  S   UNL A   1      49.317  36.991  29.146  1.00  0.00     0.124 S 
ATOM     83  O   UNL A   1      50.658  36.762  28.617  1.00  0.00    -0.237 OA
ATOM     84  O   UNL A   1      48.480  37.909  28.379  1.00  0.00    -0.237 OA
ATOM     85  O   UNL A   1      49.235  37.149  30.597  1.00  0.00    -0.744 OA
ENDBRANCH  81  82
ENDBRANCH  53  76
BRANCH  65  86
ATOM     86  C   UNL A   1      49.817  26.739  26.189  1.00  0.00    -0.014 A 
ATOM     87  C   UNL A   1      50.293  27.047  24.902  1.00  0.00     0.010 A 
ATOM     88  C   UNL A   1      50.661  26.052  27.082  1.00  0.00     0.010 A 
ATOM     89  C   UNL A   1      51.574  26.645  24.508  1.00  0.00     0.020 A 
ATOM     90  C   UNL A   1      51.953  25.679  26.704  1.00  0.00     0.020 A 
ATOM     91  C   UNL A   1      52.396  25.967  25.412  1.00  0.00     0.054 A 
BRANCH  91  92
ATOM     92  S   UNL A   1      54.068  25.497  24.889  1.00  0.00     0.124 S 
ATOM     93  O   UNL A   1      54.153  26.100  23.562  1.00  0.00    -0.237 OA
ATOM     94  O   UNL A   1      54.908  26.115  25.914  1.00  0.00    -0.237 OA
ATOM     95  O   UNL A   1      54.043  24.036  24.910  1.00  0.00    -0.744 OA
ENDBRANCH  91  92
ENDBRANCH  65  86
ENDBRANCH  39  40
ENDBRANCH  32  34
ENDBRANCH  31  32
ENDBRANCH  30  31
ENDBRANCH  29  30
ENDBRANCH  28  29
ENDBRANCH  27  28
ENDBRANCH  26  27
ENDBRANCH  25  26
ENDBRANCH   1  25
TORSDOF 27
ENDMDL
MODEL 3
REMARK VINA RESULT:      -7.6      5.146     12.472
REMARK SMILES C[C@@H](C(=O)OCCOCCOCCOCCOC(=O)c1ccc(-c2c3nc(c(-c4ccc(S(=O)(=O)[O-])cc4)c4ccc([nH]4)c(-c4ccc(S(=O)(=O)[O-])cc4)c4nc(c(-c5ccc(S(=O)(=O)[O-])cc5)c5ccc2[nH]5)C=C4)C=C3)cc1)c1ccc(C[C@H]2CCC[C@@H]2O)cc1
REMARK SMILES IDX 10 1 9 2 8 3 7 4 6 5 5 6 3 7 4 8 2 9 1 10 80 11 81 12 92 13
REMARK SMILES IDX 82 14 91 15 83 16 84 17 85 18 86 19 89 20 87 21 88 22 90 23
REMARK SMILES IDX 11 25 12 26 13 27 14 28 15 29 16 30 17 31 18 32 19 33 20 34
REMARK SMILES IDX 21 35 79 36 22 37 78 38 23 39 24 40 25 41 72 42 26 43 77 44
REMARK SMILES IDX 71 45 73 46 27 47 76 48 70 49 69 50 28 52 58 53 39 54 57 55
REMARK SMILES IDX 40 56 43 57 56 58 74 59 41 60 42 61 55 63 75 64 44 65 29 66
REMARK SMILES IDX 30 67 38 68 31 69 37 70 32 71 33 72 34 73 35 74 36 75 59 76
REMARK SMILES IDX 60 77 68 78 61 79 67 80 62 81 63 82 64 83 65 84 66 85 45 86
REMARK SMILES IDX 46 87 54 88 47 89 53 90 48 91 49 92 50 93 51 94 52 95
REMARK H PARENT 90 24 73 51 43 62
REMARK Flexibility Score: inf
ROOT
ATOM      1  C   UNL A   1      33.469  26.360  24.254  1.00  0.00     0.188 C 
ENDROOT
BRANCH   1   2
ATOM      2  C   UNL A   1      32.719  25.153  24.840  1.00  0.00     0.188 C 
BRANCH   2   3
ATOM      3  O   UNL A   1      32.641  23.983  24.052  1.00  0.00    -0.376 OA
BRANCH   3   4
ATOM      4  C   UNL A   1      32.231  22.742  24.612  1.00  0.00     0.202 C 
BRANCH   4   5
ATOM      5  C   UNL A   1      33.151  21.556  24.980  1.00  0.00     0.261 C 
BRANCH   5   6
ATOM      6  O   UNL A   1      34.346  21.861  25.704  1.00  0.00    -0.463 OA
BRANCH   6   7
ATOM      7  C   UNL A   1      35.527  21.443  25.193  1.00  0.00     0.313 C 
ATOM      8  O   UNL A   1      35.793  20.271  24.941  1.00  0.00    -0.252 OA
BRANCH   7   9
ATOM      9  C   UNL A   1      36.468  22.608  24.851  1.00  0.00     0.126 C 
ATOM     10  C   UNL A   1      36.611  22.822  23.330  1.00  0.00     0.025 C 
BRANCH   9  11
ATOM     11  C   UNL A   1      37.788  22.595  25.641  1.00  0.00    -0.034 A 
ATOM     12  C   UNL A   1      38.636  21.477  25.646  1.00  0.00     0.005 A 
ATOM     13  C   UNL A   1      38.244  23.740  26.319  1.00  0.00     0.005 A 
ATOM     14  C   UNL A   1      39.870  21.498  26.315  1.00  0.00     0.004 A 
ATOM     15  C   UNL A   1      39.458  23.751  27.016  1.00  0.00     0.004 A 
ATOM     16  C   UNL A   1      40.289  22.629  27.023  1.00  0.00    -0.048 A 
BRANCH  16  17
ATOM     17  C   UNL A   1      41.631  22.683  27.717  1.00  0.00     0.041 C 
BRANCH  17  18
ATOM     18  C   UNL A   1      42.896  22.599  26.850  1.00  0.00     0.022 C 
ATOM     19  C   UNL A   1      42.728  22.956  25.365  1.00  0.00     0.007 C 
ATOM     20  C   UNL A   1      44.081  23.446  27.319  1.00  0.00     0.117 C 
ATOM     21  C   UNL A   1      44.022  23.666  24.952  1.00  0.00     0.003 C 
ATOM     22  C   UNL A   1      44.994  23.456  26.103  1.00  0.00     0.032 C 
BRANCH  20  23
ATOM     23  O   UNL A   1      44.717  22.885  28.453  1.00  0.00    -0.393 OA
ATOM     24  H   UNL A   1      44.410  21.973  28.577  1.00  0.00     0.210 HD
ENDBRANCH  20  23
ENDBRANCH  17  18
ENDBRANCH  16  17
ENDBRANCH   9  11
ENDBRANCH   7   9
ENDBRANCH   6   7
ENDBRANCH   5   6
ENDBRANCH   4   5
ENDBRANCH   3   4
ENDBRANCH   2   3
ENDBRANCH   1   2
BRANCH   1  25
ATOM     25  O   UNL A   1      32.780  27.593  24.324  1.00  0.00    -0.377 OA
BRANCH  25  26
ATOM     26  C   UNL A   1      32.038  27.899  25.500  1.00  0.00     0.188 C 
BRANCH  26  27
ATOM     27  C   UNL A   1      31.943  29.343  26.038  1.00  0.00     0.188 C 
BRANCH  27  28
ATOM     28  O   UNL A   1      33.088  30.150  25.806  1.00  0.00    -0.376 OA
BRANCH  28  29
ATOM     29  C   UNL A   1      34.056  30.265  26.837  1.00  0.00     0.202 C 
BRANCH  29  30
ATOM     30  C   UNL A   1      33.764  31.251  27.980  1.00  0.00     0.261 C 
BRANCH  30  31
ATOM     31  O   UNL A   1      34.192  32.607  27.777  1.00  0.00    -0.460 OA
BRANCH  31  32
ATOM     32  C   UNL A   1      34.356  33.388  28.865  1.00  0.00     0.338 C 
ATOM     33  O   UNL A   1      33.491  34.008  29.461  1.00  0.00    -0.246 OA
BRANCH  32  34
ATOM     34  C   UNL A   1      35.742  33.207  29.345  1.00  0.00     0.060 A 
ATOM     35  C   UNL A   1      36.169  33.919  30.474  1.00  0.00     0.016 A 
ATOM     36  C   UNL A   1      36.614  32.339  28.685  1.00  0.00     0.016 A 
ATOM     37  C   UNL A   1      37.484  33.796  30.922  1.00  0.00     0.010 A 
ATOM     38  C   UNL A   1      37.937  32.233  29.122  1.00  0.00     0.010 A 
ATOM     39  C   UNL A   1      38.389  32.990  30.219  1.00  0.00    -0.014 A 
BRANCH  39  40
ATOM     40  C   UNL A   1      39.841  33.097  30.498  1.00  0.00     0.031 A 
ATOM     41  C   UNL A   1      40.461  32.096  31.438  1.00  0.00     0.074 A 
ATOM     42  C   UNL A   1      40.604  34.042  29.920  1.00  0.00     0.049 A 
ATOM     43  N   UNL A   1      41.691  32.018  31.875  1.00  0.00    -0.248 NA
ATOM     44  C   UNL A   1      39.569  31.044  31.956  1.00  0.00     0.031 C 
ATOM     45  C   UNL A   1      40.136  35.035  28.956  1.00  0.00     0.029 A 
ATOM     46  N   UNL A   1      41.940  34.322  30.073  1.00  0.00    -0.354 N 
ATOM     47  C   UNL A   1      41.719  30.917  32.725  1.00  0.00     0.074 A 
ATOM     48  C   UNL A   1      40.377  30.380  32.768  1.00  0.00     0.031 C 
ATOM     49  C   UNL A   1      41.168  35.826  28.611  1.00  0.00     0.029 A 
ATOM     50  C   UNL A   1      42.358  35.420  29.357  1.00  0.00     0.049 A 
ATOM     51  H   UNL A   1      42.541  33.788  30.640  1.00  0.00     0.167 HD
ATOM     52  C   UNL A   1      42.768  30.395  33.403  1.00  0.00     0.031 A 
ATOM     53  C   UNL A   1      43.555  36.041  29.331  1.00  0.00     0.031 A 
ATOM     54  C   UNL A   1      44.097  30.945  33.374  1.00  0.00     0.049 A 
ATOM     55  C   UNL A   1      44.689  35.495  30.162  1.00  0.00     0.074 A 
ATOM     56  C   UNL A   1      45.230  30.488  34.023  1.00  0.00     0.029 A 
ATOM     57  N   UNL A   1      44.471  32.079  32.668  1.00  0.00    -0.354 N 
ATOM     58  N   UNL A   1      44.706  34.443  30.946  1.00  0.00    -0.248 NA
ATOM     59  C   UNL A   1      45.969  36.216  30.098  1.00  0.00     0.031 C 
ATOM     60  C   UNL A   1      46.273  31.383  33.762  1.00  0.00     0.029 A 
ATOM     61  C   UNL A   1      45.810  32.354  32.888  1.00  0.00     0.049 A 
ATOM     62  H   UNL A   1      43.871  32.609  32.094  1.00  0.00     0.167 HD
ATOM     63  C   UNL A   1      46.004  34.359  31.443  1.00  0.00     0.074 A 
ATOM     64  C   UNL A   1      46.745  35.458  30.859  1.00  0.00     0.031 C 
ATOM     65  C   UNL A   1      46.536  33.452  32.301  1.00  0.00     0.031 A 
BRANCH  52  66
ATOM     66  C   UNL A   1      42.505  29.189  34.268  1.00  0.00    -0.014 A 
ATOM     67  C   UNL A   1      42.133  29.324  35.618  1.00  0.00     0.010 A 
ATOM     68  C   UNL A   1      42.603  27.900  33.713  1.00  0.00     0.010 A 
ATOM     69  C   UNL A   1      41.906  28.192  36.406  1.00  0.00     0.020 A 
ATOM     70  C   UNL A   1      42.346  26.766  34.489  1.00  0.00     0.020 A 
ATOM     71  C   UNL A   1      42.016  26.920  35.837  1.00  0.00     0.054 A 
BRANCH  71  72
ATOM     72  S   UNL A   1      41.697  25.471  36.879  1.00  0.00     0.124 S 
ATOM     73  O   UNL A   1      40.493  25.878  37.600  1.00  0.00    -0.237 OA
ATOM     74  O   UNL A   1      41.511  24.406  35.896  1.00  0.00    -0.237 OA
ATOM     75  O   UNL A   1      42.903  25.358  37.696  1.00  0.00    -0.744 OA
ENDBRANCH  71  72
ENDBRANCH  52  66
BRANCH  53  76
ATOM     76  C   UNL A   1      43.738  37.269  28.506  1.00  0.00    -0.014 A 
ATOM     77  C   UNL A   1      44.495  37.238  27.322  1.00  0.00     0.010 A 
ATOM     78  C   UNL A   1      43.150  38.483  28.907  1.00  0.00     0.010 A 
ATOM     79  C   UNL A   1      44.672  38.400  26.563  1.00  0.00     0.020 A 
ATOM     80  C   UNL A   1      43.297  39.638  28.135  1.00  0.00     0.020 A 
ATOM     81  C   UNL A   1      44.066  39.592  26.972  1.00  0.00     0.054 A 
BRANCH  81  82
ATOM     82  S   UNL A   1      44.259  41.070  25.938  1.00  0.00     0.124 S 
ATOM     83  O   UNL A   1      44.377  42.128  26.938  1.00  0.00    -0.237 OA
ATOM     84  O   UNL A   1      45.475  40.770  25.187  1.00  0.00    -0.237 OA
ATOM     85  O   UNL A   1      43.034  41.095  25.143  1.00  0.00    -0.744 OA
ENDBRANCH  81  82
ENDBRANCH  53  76
BRANCH  65  86
ATOM     86  C   UNL A   1      48.002  33.576  32.633  1.00  0.00    -0.014 A 
ATOM     87  C   UNL A   1      48.444  34.305  33.752  1.00  0.00     0.010 A 
ATOM     88  C   UNL A   1      48.949  32.896  31.845  1.00  0.00     0.010 A 
ATOM     89  C   UNL A   1      49.808  34.379  34.054  1.00  0.00     0.020 A 
ATOM     90  C   UNL A   1      50.309  32.939  32.163  1.00  0.00     0.020 A 
ATOM     91  C   UNL A   1      50.732  33.692  33.259  1.00  0.00     0.054 A 
BRANCH  91  92
ATOM     92  S   UNL A   1      52.489  33.768  33.699  1.00  0.00     0.124 S 
ATOM     93  O   UNL A   1      52.664  35.183  34.014  1.00  0.00    -0.237 OA
ATOM     94  O   UNL A   1      52.573  32.856  34.838  1.00  0.00    -0.237 OA
ATOM     95  O   UNL A   1      53.171  33.311  32.490  1.00  0.00    -0.744 OA
ENDBRANCH  91  92
ENDBRANCH  65  86
ENDBRANCH  39  40
ENDBRANCH  32  34
ENDBRANCH  31  32
ENDBRANCH  30  31
ENDBRANCH  29  30
ENDBRANCH  28  29
ENDBRANCH  27  28
ENDBRANCH  26  27
ENDBRANCH  25  26
ENDBRANCH   1  25
TORSDOF 27
ENDMDL
