MODEL 1
REMARK VINA RESULT:      -8.9      0.000      0.000
REMARK SMILES O=C(OCCOCCOCCOCCOC(=O)c1cc2c(c(S(=O)(=O)Nc3cc(C(F)(F)F)ccc3-n3cccn3)c1)CCC2)c1ccc(-c2c3nc(c(-c4ccc(S(=O)(=O)[O-])cc4)c4ccc([nH]4)c(-c4ccc(S(=O)(=O)[O-])cc4)c4nc(c(-c5ccc(S(=O)(=O)[O-])cc5)c5ccc2[nH]5)C=C4)C=C3)cc1
REMARK SMILES IDX 10 1 9 2 8 3 7 4 6 5 5 6 4 7 3 8 2 9 1 10 46 11 47 12 105 13
REMARK SMILES IDX 48 14 104 15 49 16 50 17 51 18 98 19 52 20 103 21 97 22
REMARK SMILES IDX 99 23 53 24 102 25 96 26 95 27 54 29 84 30 65 31 83 32 66 33
REMARK SMILES IDX 69 34 82 35 100 36 67 37 68 38 81 40 101 41 70 42 55 43
REMARK SMILES IDX 56 44 64 45 57 46 63 47 58 48 59 49 60 50 61 51 62 52 85 53
REMARK SMILES IDX 86 54 94 55 87 56 93 57 88 58 89 59 90 60 91 61 92 62 71 63
REMARK SMILES IDX 72 64 80 65 73 66 79 67 74 68 75 69 76 70 77 71 78 72 11 73
REMARK SMILES IDX 12 74 13 75 14 76 15 77 16 78 17 79 18 80 19 81 42 82 20 83
REMARK SMILES IDX 22 84 21 85 45 86 43 87 44 88 23 89 24 90 25 91 26 92 27 94
REMARK SMILES IDX 28 95 36 96 29 97 35 98 34 99 37 100 38 101 41 102 39 103
REMARK SMILES IDX 40 104 30 105 31 106 32 107 33 108
REMARK H PARENT 99 28 69 39 26 93
REMARK Flexibility Score: inf
ROOT
ATOM      1  C   UNL A   1      34.661  22.618  25.871  1.00  0.00     0.188 C 
ENDROOT
BRANCH   1   2
ATOM      2  O   UNL A   1      33.764  23.611  25.430  1.00  0.00    -0.377 OA
BRANCH   2   3
ATOM      3  C   UNL A   1      34.247  24.356  24.326  1.00  0.00     0.188 C 
BRANCH   3   4
ATOM      4  C   UNL A   1      33.920  25.861  24.295  1.00  0.00     0.188 C 
BRANCH   4   5
ATOM      5  O   UNL A   1      33.290  26.615  25.320  1.00  0.00    -0.376 OA
BRANCH   5   6
ATOM      6  C   UNL A   1      33.818  27.248  26.465  1.00  0.00     0.202 C 
BRANCH   6   7
ATOM      7  C   UNL A   1      34.380  28.666  26.514  1.00  0.00     0.261 C 
BRANCH   7   8
ATOM      8  O   UNL A   1      34.964  29.069  27.742  1.00  0.00    -0.460 OA
BRANCH   8   9
ATOM      9  C   UNL A   1      35.427  30.287  28.083  1.00  0.00     0.338 C 
ATOM     10  O   UNL A   1      35.147  31.235  27.348  1.00  0.00    -0.246 OA
BRANCH   9  11
ATOM     11  C   UNL A   1      36.345  30.544  29.224  1.00  0.00     0.060 A 
ATOM     12  C   UNL A   1      36.979  31.751  29.525  1.00  0.00     0.016 A 
ATOM     13  C   UNL A   1      36.607  29.417  30.029  1.00  0.00     0.016 A 
ATOM     14  C   UNL A   1      38.008  31.776  30.439  1.00  0.00     0.010 A 
ATOM     15  C   UNL A   1      37.612  29.443  30.972  1.00  0.00     0.010 A 
ATOM     16  C   UNL A   1      38.374  30.595  31.076  1.00  0.00    -0.014 A 
BRANCH  16  17
ATOM     17  C   UNL A   1      39.620  30.612  31.805  1.00  0.00     0.031 A 
ATOM     18  C   UNL A   1      39.682  31.624  32.883  1.00  0.00     0.074 A 
ATOM     19  C   UNL A   1      40.616  29.771  31.467  1.00  0.00     0.049 A 
ATOM     20  N   UNL A   1      40.398  32.699  32.920  1.00  0.00    -0.248 NA
ATOM     21  C   UNL A   1      38.690  31.523  33.964  1.00  0.00     0.031 C 
ATOM     22  C   UNL A   1      40.562  28.613  30.567  1.00  0.00     0.029 A 
ATOM     23  N   UNL A   1      41.879  29.712  31.957  1.00  0.00    -0.354 N 
ATOM     24  C   UNL A   1      40.118  33.292  34.146  1.00  0.00     0.074 A 
ATOM     25  C   UNL A   1      38.937  32.638  34.650  1.00  0.00     0.031 C 
ATOM     26  C   UNL A   1      41.637  27.826  30.794  1.00  0.00     0.029 A 
ATOM     27  C   UNL A   1      42.518  28.500  31.731  1.00  0.00     0.049 A 
ATOM     28  H   UNL A   1      42.305  30.463  32.430  1.00  0.00     0.167 HD
ATOM     29  C   UNL A   1      41.033  34.082  34.774  1.00  0.00     0.031 A 
ATOM     30  C   UNL A   1      43.642  28.060  32.350  1.00  0.00     0.031 A 
ATOM     31  C   UNL A   1      42.040  34.558  33.861  1.00  0.00     0.049 A 
ATOM     32  C   UNL A   1      44.328  29.256  32.904  1.00  0.00     0.074 A 
ATOM     33  C   UNL A   1      42.024  35.335  32.719  1.00  0.00     0.029 A 
ATOM     34  N   UNL A   1      43.247  33.899  33.856  1.00  0.00    -0.354 N 
ATOM     35  N   UNL A   1      44.841  30.192  32.153  1.00  0.00    -0.248 NA
ATOM     36  C   UNL A   1      44.010  29.658  34.266  1.00  0.00     0.031 C 
ATOM     37  C   UNL A   1      42.996  34.746  31.860  1.00  0.00     0.029 A 
ATOM     38  C   UNL A   1      43.603  33.691  32.549  1.00  0.00     0.049 A 
ATOM     39  H   UNL A   1      43.763  33.626  34.648  1.00  0.00     0.167 HD
ATOM     40  C   UNL A   1      44.514  31.382  32.789  1.00  0.00     0.074 A 
ATOM     41  C   UNL A   1      44.080  30.986  34.130  1.00  0.00     0.031 C 
ATOM     42  C   UNL A   1      44.355  32.543  32.085  1.00  0.00     0.031 A 
BRANCH  29  43
ATOM     43  C   UNL A   1      41.264  34.022  36.267  1.00  0.00    -0.014 A 
ATOM     44  C   UNL A   1      42.116  33.020  36.777  1.00  0.00     0.010 A 
ATOM     45  C   UNL A   1      40.448  34.698  37.197  1.00  0.00     0.010 A 
ATOM     46  C   UNL A   1      42.062  32.640  38.125  1.00  0.00     0.020 A 
ATOM     47  C   UNL A   1      40.416  34.356  38.549  1.00  0.00     0.020 A 
ATOM     48  C   UNL A   1      41.193  33.298  38.995  1.00  0.00     0.054 A 
BRANCH  48  49
ATOM     49  S   UNL A   1      41.020  32.706  40.695  1.00  0.00     0.124 S 
ATOM     50  O   UNL A   1      42.172  31.819  40.820  1.00  0.00    -0.237 OA
ATOM     51  O   UNL A   1      41.087  33.948  41.460  1.00  0.00    -0.237 OA
ATOM     52  O   UNL A   1      39.716  32.047  40.696  1.00  0.00    -0.744 OA
ENDBRANCH  48  49
ENDBRANCH  29  43
BRANCH  30  53
ATOM     53  C   UNL A   1      43.904  26.673  32.818  1.00  0.00    -0.014 A 
ATOM     54  C   UNL A   1      44.885  25.868  32.210  1.00  0.00     0.010 A 
ATOM     55  C   UNL A   1      43.370  26.231  34.047  1.00  0.00     0.010 A 
ATOM     56  C   UNL A   1      45.349  24.696  32.834  1.00  0.00     0.020 A 
ATOM     57  C   UNL A   1      43.821  25.062  34.672  1.00  0.00     0.020 A 
ATOM     58  C   UNL A   1      44.825  24.310  34.072  1.00  0.00     0.054 A 
BRANCH  58  59
ATOM     59  S   UNL A   1      45.546  22.892  34.953  1.00  0.00     0.124 S 
ATOM     60  O   UNL A   1      46.847  23.411  35.366  1.00  0.00    -0.237 OA
ATOM     61  O   UNL A   1      44.586  22.664  36.029  1.00  0.00    -0.237 OA
ATOM     62  O   UNL A   1      45.593  21.842  33.937  1.00  0.00    -0.744 OA
ENDBRANCH  58  59
ENDBRANCH  30  53
BRANCH  42  63
ATOM     63  C   UNL A   1      44.792  32.577  30.639  1.00  0.00    -0.014 A 
ATOM     64  C   UNL A   1      44.025  32.063  29.573  1.00  0.00     0.010 A 
ATOM     65  C   UNL A   1      45.950  33.313  30.335  1.00  0.00     0.010 A 
ATOM     66  C   UNL A   1      44.423  32.265  28.242  1.00  0.00     0.020 A 
ATOM     67  C   UNL A   1      46.341  33.532  29.012  1.00  0.00     0.020 A 
ATOM     68  C   UNL A   1      45.582  33.000  27.971  1.00  0.00     0.054 A 
BRANCH  68  69
ATOM     69  S   UNL A   1      46.070  33.304  26.248  1.00  0.00     0.124 S 
ATOM     70  O   UNL A   1      45.002  32.652  25.495  1.00  0.00    -0.237 OA
ATOM     71  O   UNL A   1      46.096  34.763  26.170  1.00  0.00    -0.237 OA
ATOM     72  O   UNL A   1      47.381  32.665  26.140  1.00  0.00    -0.744 OA
ENDBRANCH  68  69
ENDBRANCH  42  63
ENDBRANCH  16  17
ENDBRANCH   9  11
ENDBRANCH   8   9
ENDBRANCH   7   8
ENDBRANCH   6   7
ENDBRANCH   5   6
ENDBRANCH   4   5
ENDBRANCH   3   4
ENDBRANCH   2   3
ENDBRANCH   1   2
BRANCH   1  73
ATOM     73  C   UNL A   1      35.688  22.186  24.804  1.00  0.00     0.188 C 
BRANCH  73  74
ATOM     74  O   UNL A   1      37.073  22.482  24.928  1.00  0.00    -0.376 OA
BRANCH  74  75
ATOM     75  C   UNL A   1      38.029  21.458  25.139  1.00  0.00     0.202 C 
BRANCH  75  76
ATOM     76  C   UNL A   1      39.247  21.700  26.043  1.00  0.00     0.261 C 
BRANCH  76  77
ATOM     77  O   UNL A   1      40.309  20.741  25.959  1.00  0.00    -0.460 OA
BRANCH  77  78
ATOM     78  C   UNL A   1      41.122  20.626  27.036  1.00  0.00     0.338 C 
ATOM     79  O   UNL A   1      40.945  19.955  28.041  1.00  0.00    -0.246 OA
BRANCH  78  80
ATOM     80  C   UNL A   1      42.363  21.379  26.756  1.00  0.00     0.061 A 
ATOM     81  C   UNL A   1      43.134  20.979  25.672  1.00  0.00     0.019 A 
ATOM     82  C   UNL A   1      42.765  22.463  27.582  1.00  0.00     0.038 A 
ATOM     83  C   UNL A   1      44.277  21.703  25.411  1.00  0.00    -0.043 A 
ATOM     84  C   UNL A   1      43.975  23.149  27.349  1.00  0.00     0.092 A 
ATOM     85  C   UNL A   1      44.731  22.739  26.260  1.00  0.00    -0.024 A 
ATOM     86  C   UNL A   1      45.165  21.556  24.212  1.00  0.00     0.036 C 
ATOM     87  C   UNL A   1      46.046  23.212  25.728  1.00  0.00     0.037 C 
ATOM     88  C   UNL A   1      45.822  22.935  24.237  1.00  0.00     0.010 C 
BRANCH  84  89
ATOM     89  S   UNL A   1      44.571  24.304  28.573  1.00  0.00     0.262 S 
ATOM     90  O   UNL A   1      43.765  24.117  29.765  1.00  0.00    -0.201 OA
ATOM     91  O   UNL A   1      46.007  24.136  28.656  1.00  0.00    -0.201 OA
BRANCH  89  92
ATOM     92  N   UNL A   1      44.329  25.947  28.148  1.00  0.00    -0.277 N 
ATOM     93  H   UNL A   1      45.001  26.613  28.422  1.00  0.00     0.180 HD
BRANCH  92  94
ATOM     94  C   UNL A   1      43.180  26.381  27.406  1.00  0.00     0.075 A 
ATOM     95  C   UNL A   1      41.901  26.011  27.866  1.00  0.00     0.042 A 
ATOM     96  C   UNL A   1      43.290  27.253  26.313  1.00  0.00     0.089 A 
ATOM     97  C   UNL A   1      40.738  26.578  27.306  1.00  0.00     0.058 A 
ATOM     98  C   UNL A   1      42.134  27.809  25.743  1.00  0.00     0.031 A 
ATOM     99  C   UNL A   1      40.870  27.471  26.233  1.00  0.00     0.015 A 
BRANCH  96 100
ATOM    100  N   UNL A   1      44.551  27.634  25.794  1.00  0.00    -0.239 N 
ATOM    101  C   UNL A   1      45.417  26.885  25.028  1.00  0.00     0.115 A 
ATOM    102  N   UNL A   1      45.100  28.829  26.128  1.00  0.00    -0.177 NA
ATOM    103  C   UNL A   1      46.629  27.526  25.055  1.00  0.00     0.042 A 
ATOM    104  C   UNL A   1      46.383  28.704  25.778  1.00  0.00     0.135 A 
ENDBRANCH  96 100
BRANCH  97 105
ATOM    105  C   UNL A   1      39.379  26.293  27.907  1.00  0.00     0.416 C 
ATOM    106  F   UNL A   1      38.626  25.466  27.134  1.00  0.00    -0.166 F 
ATOM    107  F   UNL A   1      39.467  25.694  29.127  1.00  0.00    -0.166 F 
ATOM    108  F   UNL A   1      38.628  27.414  28.101  1.00  0.00    -0.166 F 
ENDBRANCH  97 105
ENDBRANCH  92  94
ENDBRANCH  89  92
ENDBRANCH  84  89
ENDBRANCH  78  80
ENDBRANCH  77  78
ENDBRANCH  76  77
ENDBRANCH  75  76
ENDBRANCH  74  75
ENDBRANCH  73  74
ENDBRANCH   1  73
TORSDOF 28
ENDMDL
MODEL 2
REMARK VINA RESULT:      -8.4      3.064      7.716
REMARK SMILES O=C(OCCOCCOCCOCCOC(=O)c1cc2c(c(S(=O)(=O)Nc3cc(C(F)(F)F)ccc3-n3cccn3)c1)CCC2)c1ccc(-c2c3nc(c(-c4ccc(S(=O)(=O)[O-])cc4)c4ccc([nH]4)c(-c4ccc(S(=O)(=O)[O-])cc4)c4nc(c(-c5ccc(S(=O)(=O)[O-])cc5)c5ccc2[nH]5)C=C4)C=C3)cc1
REMARK SMILES IDX 10 1 9 2 8 3 7 4 6 5 5 6 4 7 3 8 2 9 1 10 46 11 47 12 105 13
REMARK SMILES IDX 48 14 104 15 49 16 50 17 51 18 98 19 52 20 103 21 97 22
REMARK SMILES IDX 99 23 53 24 102 25 96 26 95 27 54 29 84 30 65 31 83 32 66 33
REMARK SMILES IDX 69 34 82 35 100 36 67 37 68 38 81 40 101 41 70 42 55 43
REMARK SMILES IDX 56 44 64 45 57 46 63 47 58 48 59 49 60 50 61 51 62 52 85 53
REMARK SMILES IDX 86 54 94 55 87 56 93 57 88 58 89 59 90 60 91 61 92 62 71 63
REMARK SMILES IDX 72 64 80 65 73 66 79 67 74 68 75 69 76 70 77 71 78 72 11 73
REMARK SMILES IDX 12 74 13 75 14 76 15 77 16 78 17 79 18 80 19 81 42 82 20 83
REMARK SMILES IDX 22 84 21 85 45 86 43 87 44 88 23 89 24 90 25 91 26 92 27 94
REMARK SMILES IDX 28 95 36 96 29 97 35 98 34 99 37 100 38 101 41 102 39 103
REMARK SMILES IDX 40 104 30 105 31 106 32 107 33 108
REMARK H PARENT 99 28 69 39 26 93
REMARK Flexibility Score: inf
ROOT
ATOM      1  C   UNL A   1      34.708  21.349  26.011  1.00  0.00     0.188 C 
ENDROOT
BRANCH   1   2
ATOM      2  O   UNL A   1      33.751  22.153  25.362  1.00  0.00    -0.377 OA
BRANCH   2   3
ATOM      3  C   UNL A   1      34.064  22.421  24.008  1.00  0.00     0.188 C 
BRANCH   3   4
ATOM      4  C   UNL A   1      35.044  23.577  23.726  1.00  0.00     0.188 C 
BRANCH   4   5
ATOM      5  O   UNL A   1      35.565  24.497  24.672  1.00  0.00    -0.376 OA
BRANCH   5   6
ATOM      6  C   UNL A   1      36.254  24.291  25.887  1.00  0.00     0.202 C 
BRANCH   6   7
ATOM      7  C   UNL A   1      37.707  23.842  26.016  1.00  0.00     0.261 C 
BRANCH   7   8
ATOM      8  O   UNL A   1      38.584  24.734  26.684  1.00  0.00    -0.460 OA
BRANCH   8   9
ATOM      9  C   UNL A   1      39.914  24.870  26.524  1.00  0.00     0.338 C 
ATOM     10  O   UNL A   1      40.496  24.040  25.825  1.00  0.00    -0.246 OA
BRANCH   9  11
ATOM     11  C   UNL A   1      40.743  25.887  27.224  1.00  0.00     0.060 A 
ATOM     12  C   UNL A   1      41.454  25.707  28.412  1.00  0.00     0.016 A 
ATOM     13  C   UNL A   1      40.745  27.159  26.614  1.00  0.00     0.016 A 
ATOM     14  C   UNL A   1      41.948  26.799  29.088  1.00  0.00     0.010 A 
ATOM     15  C   UNL A   1      41.270  28.252  27.268  1.00  0.00     0.010 A 
ATOM     16  C   UNL A   1      41.759  28.068  28.550  1.00  0.00    -0.014 A 
BRANCH  16  17
ATOM     17  C   UNL A   1      42.044  29.187  29.418  1.00  0.00     0.031 A 
ATOM     18  C   UNL A   1      43.300  29.901  29.099  1.00  0.00     0.074 A 
ATOM     19  C   UNL A   1      41.210  29.489  30.431  1.00  0.00     0.049 A 
ATOM     20  N   UNL A   1      44.392  29.927  29.789  1.00  0.00    -0.248 NA
ATOM     21  C   UNL A   1      43.415  30.505  27.763  1.00  0.00     0.031 C 
ATOM     22  C   UNL A   1      39.859  28.974  30.682  1.00  0.00     0.029 A 
ATOM     23  N   UNL A   1      41.361  30.422  31.404  1.00  0.00    -0.354 N 
ATOM     24  C   UNL A   1      45.261  30.750  29.081  1.00  0.00     0.074 A 
ATOM     25  C   UNL A   1      44.683  30.916  27.772  1.00  0.00     0.031 C 
ATOM     26  C   UNL A   1      39.228  29.793  31.553  1.00  0.00     0.029 A 
ATOM     27  C   UNL A   1      40.176  30.784  32.030  1.00  0.00     0.049 A 
ATOM     28  H   UNL A   1      42.234  30.808  31.645  1.00  0.00     0.167 HD
ATOM     29  C   UNL A   1      46.243  31.451  29.715  1.00  0.00     0.031 A 
ATOM     30  C   UNL A   1      39.982  31.878  32.809  1.00  0.00     0.031 A 
ATOM     31  C   UNL A   1      46.533  30.903  31.014  1.00  0.00     0.049 A 
ATOM     32  C   UNL A   1      41.323  32.318  33.276  1.00  0.00     0.074 A 
ATOM     33  C   UNL A   1      46.988  29.683  31.473  1.00  0.00     0.029 A 
ATOM     34  N   UNL A   1      45.974  31.534  32.102  1.00  0.00    -0.354 N 
ATOM     35  N   UNL A   1      42.066  31.605  34.077  1.00  0.00    -0.248 NA
ATOM     36  C   UNL A   1      42.039  33.298  32.473  1.00  0.00     0.031 C 
ATOM     37  C   UNL A   1      46.263  29.448  32.676  1.00  0.00     0.029 A 
ATOM     38  C   UNL A   1      45.462  30.566  32.926  1.00  0.00     0.049 A 
ATOM     39  H   UNL A   1      45.948  32.505  32.260  1.00  0.00     0.167 HD
ATOM     40  C   UNL A   1      43.356  31.732  33.579  1.00  0.00     0.074 A 
ATOM     41  C   UNL A   1      43.290  32.857  32.644  1.00  0.00     0.031 C 
ATOM     42  C   UNL A   1      44.284  30.744  33.751  1.00  0.00     0.031 A 
BRANCH  29  43
ATOM     43  C   UNL A   1      46.583  32.878  29.348  1.00  0.00    -0.014 A 
ATOM     44  C   UNL A   1      45.634  33.887  29.615  1.00  0.00     0.010 A 
ATOM     45  C   UNL A   1      47.646  33.216  28.484  1.00  0.00     0.010 A 
ATOM     46  C   UNL A   1      45.685  35.122  28.956  1.00  0.00     0.020 A 
ATOM     47  C   UNL A   1      47.730  34.458  27.855  1.00  0.00     0.020 A 
ATOM     48  C   UNL A   1      46.723  35.388  28.063  1.00  0.00     0.054 A 
BRANCH  48  49
ATOM     49  S   UNL A   1      46.703  36.923  27.107  1.00  0.00     0.124 S 
ATOM     50  O   UNL A   1      47.404  36.525  25.890  1.00  0.00    -0.237 OA
ATOM     51  O   UNL A   1      45.272  37.175  26.964  1.00  0.00    -0.237 OA
ATOM     52  O   UNL A   1      47.416  37.867  27.963  1.00  0.00    -0.744 OA
ENDBRANCH  48  49
ENDBRANCH  29  43
BRANCH  30  53
ATOM     53  C   UNL A   1      38.782  32.755  32.813  1.00  0.00    -0.014 A 
ATOM     54  C   UNL A   1      38.185  33.183  31.613  1.00  0.00     0.010 A 
ATOM     55  C   UNL A   1      38.059  32.955  34.009  1.00  0.00     0.010 A 
ATOM     56  C   UNL A   1      36.892  33.740  31.607  1.00  0.00     0.020 A 
ATOM     57  C   UNL A   1      36.776  33.514  34.011  1.00  0.00     0.020 A 
ATOM     58  C   UNL A   1      36.188  33.885  32.807  1.00  0.00     0.054 A 
BRANCH  58  59
ATOM     59  S   UNL A   1      34.459  34.446  32.775  1.00  0.00     0.124 S 
ATOM     60  O   UNL A   1      34.324  34.963  31.416  1.00  0.00    -0.237 OA
ATOM     61  O   UNL A   1      33.721  33.219  33.060  1.00  0.00    -0.237 OA
ATOM     62  O   UNL A   1      34.404  35.457  33.829  1.00  0.00    -0.744 OA
ENDBRANCH  58  59
ENDBRANCH  30  53
BRANCH  42  63
ATOM     63  C   UNL A   1      43.975  29.621  34.714  1.00  0.00    -0.014 A 
ATOM     64  C   UNL A   1      43.009  28.622  34.473  1.00  0.00     0.010 A 
ATOM     65  C   UNL A   1      44.818  29.480  35.830  1.00  0.00     0.010 A 
ATOM     66  C   UNL A   1      42.881  27.525  35.341  1.00  0.00     0.020 A 
ATOM     67  C   UNL A   1      44.707  28.383  36.686  1.00  0.00     0.020 A 
ATOM     68  C   UNL A   1      43.734  27.414  36.444  1.00  0.00     0.054 A 
BRANCH  68  69
ATOM     69  S   UNL A   1      43.602  25.971  37.538  1.00  0.00     0.124 S 
ATOM     70  O   UNL A   1      42.391  26.259  38.301  1.00  0.00    -0.237 OA
ATOM     71  O   UNL A   1      43.504  24.857  36.598  1.00  0.00    -0.237 OA
ATOM     72  O   UNL A   1      44.843  26.007  38.312  1.00  0.00    -0.744 OA
ENDBRANCH  68  69
ENDBRANCH  42  63
ENDBRANCH  16  17
ENDBRANCH   9  11
ENDBRANCH   8   9
ENDBRANCH   7   8
ENDBRANCH   6   7
ENDBRANCH   5   6
ENDBRANCH   4   5
ENDBRANCH   3   4
ENDBRANCH   2   3
ENDBRANCH   1   2
BRANCH   1  73
ATOM     73  C   UNL A   1      35.459  20.388  25.066  1.00  0.00     0.188 C 
BRANCH  73  74
ATOM     74  O   UNL A   1      36.784  20.651  24.621  1.00  0.00    -0.376 OA
BRANCH  74  75
ATOM     75  C   UNL A   1      37.905  20.072  25.262  1.00  0.00     0.202 C 
BRANCH  75  76
ATOM     76  C   UNL A   1      39.084  20.944  25.719  1.00  0.00     0.261 C 
BRANCH  76  77
ATOM     77  O   UNL A   1      40.177  20.268  26.351  1.00  0.00    -0.460 OA
BRANCH  77  78
ATOM     78  C   UNL A   1      41.034  21.025  27.077  1.00  0.00     0.338 C 
ATOM     79  O   UNL A   1      40.828  21.570  28.151  1.00  0.00    -0.246 OA
BRANCH  78  80
ATOM     80  C   UNL A   1      42.350  21.002  26.404  1.00  0.00     0.061 A 
ATOM     81  C   UNL A   1      42.836  19.774  25.972  1.00  0.00     0.019 A 
ATOM     82  C   UNL A   1      43.102  22.193  26.225  1.00  0.00     0.038 A 
ATOM     83  C   UNL A   1      44.054  19.771  25.328  1.00  0.00    -0.043 A 
ATOM     84  C   UNL A   1      44.382  22.167  25.631  1.00  0.00     0.092 A 
ATOM     85  C   UNL A   1      44.850  20.933  25.201  1.00  0.00    -0.024 A 
ATOM     86  C   UNL A   1      44.690  18.601  24.640  1.00  0.00     0.036 C 
ATOM     87  C   UNL A   1      46.137  20.529  24.556  1.00  0.00     0.037 C 
ATOM     88  C   UNL A   1      45.628  19.361  23.703  1.00  0.00     0.010 C 
BRANCH  84  89
ATOM     89  S   UNL A   1      45.399  23.633  25.688  1.00  0.00     0.262 S 
ATOM     90  O   UNL A   1      46.510  23.347  26.575  1.00  0.00    -0.201 OA
ATOM     91  O   UNL A   1      45.667  24.020  24.318  1.00  0.00    -0.201 OA
BRANCH  89  92
ATOM     92  N   UNL A   1      44.621  24.985  26.399  1.00  0.00    -0.277 N 
ATOM     93  H   UNL A   1      43.719  25.231  26.091  1.00  0.00     0.180 HD
BRANCH  92  94
ATOM     94  C   UNL A   1      45.244  25.768  27.427  1.00  0.00     0.075 A 
ATOM     95  C   UNL A   1      44.841  25.570  28.762  1.00  0.00     0.042 A 
ATOM     96  C   UNL A   1      46.315  26.632  27.155  1.00  0.00     0.089 A 
ATOM     97  C   UNL A   1      45.558  26.151  29.829  1.00  0.00     0.058 A 
ATOM     98  C   UNL A   1      47.022  27.225  28.213  1.00  0.00     0.031 A 
ATOM     99  C   UNL A   1      46.644  26.989  29.537  1.00  0.00     0.015 A 
BRANCH  96 100
ATOM    100  N   UNL A   1      46.741  26.888  25.829  1.00  0.00    -0.239 N 
ATOM    101  C   UNL A   1      47.988  26.682  25.283  1.00  0.00     0.115 A 
ATOM    102  N   UNL A   1      45.916  27.510  24.949  1.00  0.00    -0.177 NA
ATOM    103  C   UNL A   1      48.027  27.381  24.103  1.00  0.00     0.042 A 
ATOM    104  C   UNL A   1      46.731  27.901  23.965  1.00  0.00     0.135 A 
ENDBRANCH  96 100
BRANCH  97 105
ATOM    105  C   UNL A   1      45.213  25.811  31.262  1.00  0.00     0.416 C 
ATOM    106  F   UNL A   1      44.319  24.791  31.360  1.00  0.00    -0.166 F 
ATOM    107  F   UNL A   1      46.304  25.428  31.981  1.00  0.00    -0.166 F 
ATOM    108  F   UNL A   1      44.668  26.855  31.949  1.00  0.00    -0.166 F 
ENDBRANCH  97 105
ENDBRANCH  92  94
ENDBRANCH  89  92
ENDBRANCH  84  89
ENDBRANCH  78  80
ENDBRANCH  77  78
ENDBRANCH  76  77
ENDBRANCH  75  76
ENDBRANCH  74  75
ENDBRANCH  73  74
ENDBRANCH   1  73
TORSDOF 28
ENDMDL
MODEL 3
REMARK VINA RESULT:      -8.1      3.268      7.830
REMARK SMILES O=C(OCCOCCOCCOCCOC(=O)c1cc2c(c(S(=O)(=O)Nc3cc(C(F)(F)F)ccc3-n3cccn3)c1)CCC2)c1ccc(-c2c3nc(c(-c4ccc(S(=O)(=O)[O-])cc4)c4ccc([nH]4)c(-c4ccc(S(=O)(=O)[O-])cc4)c4nc(c(-c5ccc(S(=O)(=O)[O-])cc5)c5ccc2[nH]5)C=C4)C=C3)cc1
REMARK SMILES IDX 10 1 9 2 8 3 7 4 6 5 5 6 4 7 3 8 2 9 1 10 46 11 47 12 105 13
REMARK SMILES IDX 48 14 104 15 49 16 50 17 51 18 98 19 52 20 103 21 97 22
REMARK SMILES IDX 99 23 53 24 102 25 96 26 95 27 54 29 84 30 65 31 83 32 66 33
REMARK SMILES IDX 69 34 82 35 100 36 67 37 68 38 81 40 101 41 70 42 55 43
REMARK SMILES IDX 56 44 64 45 57 46 63 47 58 48 59 49 60 50 61 51 62 52 85 53
REMARK SMILES IDX 86 54 94 55 87 56 93 57 88 58 89 59 90 60 91 61 92 62 71 63
REMARK SMILES IDX 72 64 80 65 73 66 79 67 74 68 75 69 76 70 77 71 78 72 11 73
REMARK SMILES IDX 12 74 13 75 14 76 15 77 16 78 17 79 18 80 19 81 42 82 20 83
REMARK SMILES IDX 22 84 21 85 45 86 43 87 44 88 23 89 24 90 25 91 26 92 27 94
REMARK SMILES IDX 28 95 36 96 29 97 35 98 34 99 37 100 38 101 41 102 39 103
REMARK SMILES IDX 40 104 30 105 31 106 32 107 33 108
REMARK H PARENT 99 28 69 39 26 93
REMARK Flexibility Score: inf
ROOT
ATOM      1  C   UNL A   1      34.668  21.440  26.224  1.00  0.00     0.188 C 
ENDROOT
BRANCH   1   2
ATOM      2  O   UNL A   1      33.653  22.298  25.761  1.00  0.00    -0.377 OA
BRANCH   2   3
ATOM      3  C   UNL A   1      33.893  22.806  24.461  1.00  0.00     0.188 C 
BRANCH   3   4
ATOM      4  C   UNL A   1      34.840  24.016  24.341  1.00  0.00     0.188 C 
BRANCH   4   5
ATOM      5  O   UNL A   1      35.493  24.692  25.404  1.00  0.00    -0.376 OA
BRANCH   5   6
ATOM      6  C   UNL A   1      36.321  24.212  26.441  1.00  0.00     0.202 C 
BRANCH   6   7
ATOM      7  C   UNL A   1      37.804  23.878  26.307  1.00  0.00     0.261 C 
BRANCH   7   8
ATOM      8  O   UNL A   1      38.706  24.745  26.974  1.00  0.00    -0.460 OA
BRANCH   8   9
ATOM      9  C   UNL A   1      39.938  25.124  26.584  1.00  0.00     0.338 C 
ATOM     10  O   UNL A   1      40.470  24.494  25.669  1.00  0.00    -0.246 OA
BRANCH   9  11
ATOM     11  C   UNL A   1      40.743  26.177  27.258  1.00  0.00     0.060 A 
ATOM     12  C   UNL A   1      41.651  25.989  28.303  1.00  0.00     0.016 A 
ATOM     13  C   UNL A   1      40.500  27.485  26.792  1.00  0.00     0.016 A 
ATOM     14  C   UNL A   1      42.115  27.075  29.010  1.00  0.00     0.010 A 
ATOM     15  C   UNL A   1      40.992  28.578  27.473  1.00  0.00     0.010 A 
ATOM     16  C   UNL A   1      41.697  28.349  28.643  1.00  0.00    -0.014 A 
BRANCH  16  17
ATOM     17  C   UNL A   1      41.983  29.417  29.573  1.00  0.00     0.031 A 
ATOM     18  C   UNL A   1      43.167  30.231  29.220  1.00  0.00     0.074 A 
ATOM     19  C   UNL A   1      41.215  29.590  30.666  1.00  0.00     0.049 A 
ATOM     20  N   UNL A   1      44.306  30.276  29.827  1.00  0.00    -0.248 NA
ATOM     21  C   UNL A   1      43.142  30.938  27.930  1.00  0.00     0.031 C 
ATOM     22  C   UNL A   1      39.920  28.972  30.974  1.00  0.00     0.029 A 
ATOM     23  N   UNL A   1      41.387  30.456  31.694  1.00  0.00    -0.354 N 
ATOM     24  C   UNL A   1      45.068  31.203  29.124  1.00  0.00     0.074 A 
ATOM     25  C   UNL A   1      44.381  31.428  27.878  1.00  0.00     0.031 C 
ATOM     26  C   UNL A   1      39.312  29.683  31.951  1.00  0.00     0.029 A 
ATOM     27  C   UNL A   1      40.236  30.694  32.433  1.00  0.00     0.049 A 
ATOM     28  H   UNL A   1      42.253  30.878  31.900  1.00  0.00     0.167 HD
ATOM     29  C   UNL A   1      46.054  31.916  29.737  1.00  0.00     0.031 A 
ATOM     30  C   UNL A   1      40.041  31.713  33.307  1.00  0.00     0.031 A 
ATOM     31  C   UNL A   1      46.476  31.293  30.965  1.00  0.00     0.049 A 
ATOM     32  C   UNL A   1      41.386  32.203  33.708  1.00  0.00     0.074 A 
ATOM     33  C   UNL A   1      47.036  30.073  31.291  1.00  0.00     0.029 A 
ATOM     34  N   UNL A   1      45.969  31.804  32.136  1.00  0.00    -0.354 N 
ATOM     35  N   UNL A   1      42.230  31.480  34.393  1.00  0.00    -0.248 NA
ATOM     36  C   UNL A   1      41.980  33.283  32.933  1.00  0.00     0.031 C 
ATOM     37  C   UNL A   1      46.422  29.705  32.522  1.00  0.00     0.029 A 
ATOM     38  C   UNL A   1      45.580  30.748  32.918  1.00  0.00     0.049 A 
ATOM     39  H   UNL A   1      45.899  32.758  32.371  1.00  0.00     0.167 HD
ATOM     40  C   UNL A   1      43.467  31.726  33.813  1.00  0.00     0.074 A 
ATOM     41  C   UNL A   1      43.264  32.911  32.977  1.00  0.00     0.031 C 
ATOM     42  C   UNL A   1      44.462  30.789  33.838  1.00  0.00     0.031 A 
BRANCH  29  43
ATOM     43  C   UNL A   1      46.282  33.384  29.459  1.00  0.00    -0.014 A 
ATOM     44  C   UNL A   1      45.261  34.299  29.793  1.00  0.00     0.010 A 
ATOM     45  C   UNL A   1      47.308  33.856  28.613  1.00  0.00     0.010 A 
ATOM     46  C   UNL A   1      45.213  35.574  29.214  1.00  0.00     0.020 A 
ATOM     47  C   UNL A   1      47.291  35.137  28.064  1.00  0.00     0.020 A 
ATOM     48  C   UNL A   1      46.219  35.973  28.334  1.00  0.00     0.054 A 
BRANCH  48  49
ATOM     49  S   UNL A   1      46.073  37.559  27.477  1.00  0.00     0.124 S 
ATOM     50  O   UNL A   1      47.150  37.467  26.496  1.00  0.00    -0.237 OA
ATOM     51  O   UNL A   1      44.717  37.494  26.942  1.00  0.00    -0.237 OA
ATOM     52  O   UNL A   1      46.274  38.541  28.540  1.00  0.00    -0.744 OA
ENDBRANCH  48  49
ENDBRANCH  29  43
BRANCH  30  53
ATOM     53  C   UNL A   1      38.796  32.510  33.468  1.00  0.00    -0.014 A 
ATOM     54  C   UNL A   1      38.731  33.856  33.064  1.00  0.00     0.010 A 
ATOM     55  C   UNL A   1      37.580  31.863  33.776  1.00  0.00     0.010 A 
ATOM     56  C   UNL A   1      37.494  34.511  32.924  1.00  0.00     0.020 A 
ATOM     57  C   UNL A   1      36.345  32.509  33.645  1.00  0.00     0.020 A 
ATOM     58  C   UNL A   1      36.306  33.826  33.198  1.00  0.00     0.054 A 
BRANCH  58  59
ATOM     59  S   UNL A   1      34.707  34.619  32.853  1.00  0.00     0.124 S 
ATOM     60  O   UNL A   1      33.757  33.662  33.414  1.00  0.00    -0.237 OA
ATOM     61  O   UNL A   1      34.820  35.888  33.566  1.00  0.00    -0.237 OA
ATOM     62  O   UNL A   1      34.685  34.731  31.395  1.00  0.00    -0.744 OA
ENDBRANCH  58  59
ENDBRANCH  30  53
BRANCH  42  63
ATOM     63  C   UNL A   1      44.294  29.580  34.730  1.00  0.00    -0.014 A 
ATOM     64  C   UNL A   1      44.515  29.594  36.122  1.00  0.00     0.010 A 
ATOM     65  C   UNL A   1      43.725  28.431  34.154  1.00  0.00     0.010 A 
ATOM     66  C   UNL A   1      44.193  28.476  36.910  1.00  0.00     0.020 A 
ATOM     67  C   UNL A   1      43.387  27.323  34.934  1.00  0.00     0.020 A 
ATOM     68  C   UNL A   1      43.630  27.346  36.307  1.00  0.00     0.054 A 
BRANCH  68  69
ATOM     69  S   UNL A   1      43.167  25.919  37.331  1.00  0.00     0.124 S 
ATOM     70  O   UNL A   1      44.180  24.929  36.973  1.00  0.00    -0.237 OA
ATOM     71  O   UNL A   1      43.258  26.450  38.689  1.00  0.00    -0.237 OA
ATOM     72  O   UNL A   1      41.810  25.601  36.891  1.00  0.00    -0.744 OA
ENDBRANCH  68  69
ENDBRANCH  42  63
ENDBRANCH  16  17
ENDBRANCH   9  11
ENDBRANCH   8   9
ENDBRANCH   7   8
ENDBRANCH   6   7
ENDBRANCH   5   6
ENDBRANCH   4   5
ENDBRANCH   3   4
ENDBRANCH   2   3
ENDBRANCH   1   2
BRANCH   1  73
ATOM     73  C   UNL A   1      35.245  20.511  25.136  1.00  0.00     0.188 C 
BRANCH  73  74
ATOM     74  O   UNL A   1      36.496  20.767  24.511  1.00  0.00    -0.376 OA
BRANCH  74  75
ATOM     75  C   UNL A   1      37.694  20.189  24.997  1.00  0.00     0.202 C 
BRANCH  75  76
ATOM     76  C   UNL A   1      38.828  21.073  25.537  1.00  0.00     0.261 C 
BRANCH  76  77
ATOM     77  O   UNL A   1      39.950  20.396  26.116  1.00  0.00    -0.460 OA
BRANCH  77  78
ATOM     78  C   UNL A   1      40.777  21.131  26.898  1.00  0.00     0.338 C 
ATOM     79  O   UNL A   1      40.517  21.678  27.959  1.00  0.00    -0.246 OA
BRANCH  78  80
ATOM     80  C   UNL A   1      42.131  21.080  26.307  1.00  0.00     0.061 A 
ATOM     81  C   UNL A   1      42.623  19.840  25.918  1.00  0.00     0.019 A 
ATOM     82  C   UNL A   1      42.913  22.256  26.162  1.00  0.00     0.038 A 
ATOM     83  C   UNL A   1      43.878  19.810  25.350  1.00  0.00    -0.043 A 
ATOM     84  C   UNL A   1      44.226  22.203  25.648  1.00  0.00     0.092 A 
ATOM     85  C   UNL A   1      44.699  20.958  25.260  1.00  0.00    -0.024 A 
ATOM     86  C   UNL A   1      44.535  18.622  24.714  1.00  0.00     0.036 C 
ATOM     87  C   UNL A   1      46.016  20.525  24.700  1.00  0.00     0.037 C 
ATOM     88  C   UNL A   1      45.541  19.356  23.829  1.00  0.00     0.010 C 
BRANCH  84  89
ATOM     89  S   UNL A   1      45.262  23.654  25.753  1.00  0.00     0.262 S 
ATOM     90  O   UNL A   1      46.473  23.263  26.449  1.00  0.00    -0.201 OA
ATOM     91  O   UNL A   1      45.359  24.206  24.418  1.00  0.00    -0.201 OA
BRANCH  89  92
ATOM     92  N   UNL A   1      44.600  24.907  26.716  1.00  0.00    -0.277 N 
ATOM     93  H   UNL A   1      43.621  24.981  26.793  1.00  0.00     0.180 HD
BRANCH  92  94
ATOM     94  C   UNL A   1      45.426  25.850  27.414  1.00  0.00     0.075 A 
ATOM     95  C   UNL A   1      46.115  26.825  26.666  1.00  0.00     0.042 A 
ATOM     96  C   UNL A   1      45.474  25.900  28.815  1.00  0.00     0.089 A 
ATOM     97  C   UNL A   1      46.768  27.900  27.305  1.00  0.00     0.058 A 
ATOM     98  C   UNL A   1      46.134  26.960  29.455  1.00  0.00     0.031 A 
ATOM     99  C   UNL A   1      46.779  27.948  28.706  1.00  0.00     0.015 A 
BRANCH  96 100
ATOM    100  N   UNL A   1      44.822  24.928  29.613  1.00  0.00    -0.239 N 
ATOM    101  C   UNL A   1      44.612  24.947  30.973  1.00  0.00     0.115 A 
ATOM    102  N   UNL A   1      44.416  23.752  29.070  1.00  0.00    -0.177 NA
ATOM    103  C   UNL A   1      44.263  23.673  31.342  1.00  0.00     0.042 A 
ATOM    104  C   UNL A   1      44.192  22.969  30.129  1.00  0.00     0.135 A 
ENDBRANCH  96 100
BRANCH  97 105
ATOM    105  C   UNL A   1      47.373  29.023  26.492  1.00  0.00     0.416 C 
ATOM    106  F   UNL A   1      47.381  30.209  27.157  1.00  0.00    -0.166 F 
ATOM    107  F   UNL A   1      48.666  28.774  26.146  1.00  0.00    -0.166 F 
ATOM    108  F   UNL A   1      46.717  29.254  25.319  1.00  0.00    -0.166 F 
ENDBRANCH  97 105
ENDBRANCH  92  94
ENDBRANCH  89  92
ENDBRANCH  84  89
ENDBRANCH  78  80
ENDBRANCH  77  78
ENDBRANCH  76  77
ENDBRANCH  75  76
ENDBRANCH  74  75
ENDBRANCH  73  74
ENDBRANCH   1  73
TORSDOF 28
ENDMDL
