MODEL 1
REMARK VINA RESULT:      -9.1      0.000      0.000
REMARK SMILES C[C@H]1[C@@H](C(=O)OCCOCCOCCOCCOC(=O)c2ccc(-c3c4nc(c(-c5ccc(S(=O)(=O)[O-])cc5)c5ccc([nH]5)c(-c5ccc(S(=O)(=O)[O-])cc5)c5nc(c(-c6ccc(S(=O)(=O)[O-])cc6)c6ccc3[nH]6)C=C5)C=C4)cc2)CC[N@@H+]1CC(F)(F)F
REMARK SMILES IDX 13 1 12 2 11 3 10 4 9 5 8 6 7 7 6 8 4 9 5 10 3 11 1 12 2 13
REMARK SMILES IDX 83 14 81 15 82 16 84 18 85 19 86 20 87 21 88 22 14 23 15 24
REMARK SMILES IDX 16 25 17 26 18 27 19 28 20 29 21 30 22 31 80 32 23 33 79 34
REMARK SMILES IDX 24 35 25 36 26 37 73 38 27 39 78 40 72 41 74 42 28 43 77 44
REMARK SMILES IDX 71 45 70 46 29 48 59 49 40 50 58 51 41 52 44 53 57 54 75 55
REMARK SMILES IDX 42 56 43 57 56 59 76 60 45 61 30 62 31 63 39 64 32 65 38 66
REMARK SMILES IDX 33 67 34 68 35 69 36 70 37 71 60 72 61 73 69 74 62 75 68 76
REMARK SMILES IDX 63 77 64 78 65 79 66 80 67 81 46 82 47 83 55 84 48 85 54 86
REMARK SMILES IDX 49 87 50 88 51 89 52 90 53 91
REMARK H PARENT 83 17 74 47 44 58
REMARK Flexibility Score: inf
ROOT
ATOM      1  C   UNL A   1      33.106  30.815  27.331  1.00  0.00     0.188 C 
ENDROOT
BRANCH   1   2
ATOM      2  O   UNL A   1      33.207  30.126  26.102  1.00  0.00    -0.377 OA
BRANCH   2   3
ATOM      3  C   UNL A   1      32.139  29.288  25.686  1.00  0.00     0.188 C 
BRANCH   3   4
ATOM      4  C   UNL A   1      32.099  28.564  24.326  1.00  0.00     0.188 C 
BRANCH   4   5
ATOM      5  O   UNL A   1      30.817  28.504  23.746  1.00  0.00    -0.376 OA
BRANCH   5   6
ATOM      6  C   UNL A   1      30.130  27.270  23.729  1.00  0.00     0.202 C 
BRANCH   6   7
ATOM      7  C   UNL A   1      30.191  26.297  24.921  1.00  0.00     0.261 C 
BRANCH   7   8
ATOM      8  O   UNL A   1      31.169  25.244  24.878  1.00  0.00    -0.463 OA
BRANCH   8   9
ATOM      9  C   UNL A   1      31.193  24.352  25.888  1.00  0.00     0.315 C 
ATOM     10  O   UNL A   1      30.358  24.329  26.789  1.00  0.00    -0.252 OA
BRANCH   9  11
ATOM     11  C   UNL A   1      32.286  23.287  25.782  1.00  0.00     0.162 C 
ATOM     12  C   UNL A   1      34.263  25.038  25.489  1.00  0.00     0.076 C 
ATOM     13  C   UNL A   1      33.783  23.592  25.600  1.00  0.00     0.195 C 
ATOM     14  N   UNL A   1      34.269  22.799  24.442  1.00  0.00    -0.324 N 
ATOM     15  C   UNL A   1      31.951  22.233  24.725  1.00  0.00     0.083 C 
ATOM     16  C   UNL A   1      33.133  22.165  23.778  1.00  0.00     0.263 C 
ATOM     17  H   UNL A   1      34.722  23.441  23.790  1.00  0.00     0.348 HD
BRANCH  14  18
ATOM     18  C   UNL A   1      35.320  21.815  24.807  1.00  0.00     0.379 C 
BRANCH  18  19
ATOM     19  C   UNL A   1      36.812  22.194  24.675  1.00  0.00     0.438 C 
ATOM     20  F   UNL A   1      37.536  21.207  24.100  1.00  0.00    -0.165 F 
ATOM     21  F   UNL A   1      36.957  23.296  23.903  1.00  0.00    -0.165 F 
ATOM     22  F   UNL A   1      37.376  22.463  25.874  1.00  0.00    -0.165 F 
ENDBRANCH  18  19
ENDBRANCH  14  18
ENDBRANCH   9  11
ENDBRANCH   8   9
ENDBRANCH   7   8
ENDBRANCH   6   7
ENDBRANCH   5   6
ENDBRANCH   4   5
ENDBRANCH   3   4
ENDBRANCH   2   3
ENDBRANCH   1   2
BRANCH   1  23
ATOM     23  C   UNL A   1      34.247  31.788  27.675  1.00  0.00     0.188 C 
BRANCH  23  24
ATOM     24  O   UNL A   1      34.044  32.509  28.882  1.00  0.00    -0.376 OA
BRANCH  24  25
ATOM     25  C   UNL A   1      34.944  32.285  29.957  1.00  0.00     0.202 C 
BRANCH  25  26
ATOM     26  C   UNL A   1      36.295  31.590  29.706  1.00  0.00     0.261 C 
BRANCH  26  27
ATOM     27  O   UNL A   1      36.290  30.162  29.596  1.00  0.00    -0.460 OA
BRANCH  27  28
ATOM     28  C   UNL A   1      36.971  29.469  30.526  1.00  0.00     0.338 C 
ATOM     29  O   UNL A   1      36.582  29.159  31.644  1.00  0.00    -0.246 OA
BRANCH  28  30
ATOM     30  C   UNL A   1      38.206  28.966  29.895  1.00  0.00     0.060 A 
ATOM     31  C   UNL A   1      39.196  28.406  30.712  1.00  0.00     0.016 A 
ATOM     32  C   UNL A   1      38.383  29.038  28.510  1.00  0.00     0.016 A 
ATOM     33  C   UNL A   1      40.388  27.957  30.152  1.00  0.00     0.010 A 
ATOM     34  C   UNL A   1      39.594  28.619  27.953  1.00  0.00     0.010 A 
ATOM     35  C   UNL A   1      40.617  28.123  28.781  1.00  0.00    -0.014 A 
BRANCH  35  36
ATOM     36  C   UNL A   1      42.011  28.028  28.291  1.00  0.00     0.031 A 
ATOM     37  C   UNL A   1      42.891  29.239  28.451  1.00  0.00     0.074 A 
ATOM     38  C   UNL A   1      42.512  26.877  27.809  1.00  0.00     0.049 A 
ATOM     39  N   UNL A   1      44.158  29.389  28.167  1.00  0.00    -0.248 NA
ATOM     40  C   UNL A   1      42.255  30.444  29.015  1.00  0.00     0.031 C 
ATOM     41  C   UNL A   1      41.771  25.626  27.662  1.00  0.00     0.029 A 
ATOM     42  N   UNL A   1      43.775  26.577  27.367  1.00  0.00    -0.354 N 
ATOM     43  C   UNL A   1      44.468  30.699  28.515  1.00  0.00     0.074 A 
ATOM     44  C   UNL A   1      43.252  31.314  28.994  1.00  0.00     0.031 C 
ATOM     45  C   UNL A   1      42.597  24.688  27.165  1.00  0.00     0.029 A 
ATOM     46  C   UNL A   1      43.913  25.279  26.936  1.00  0.00     0.049 A 
ATOM     47  H   UNL A   1      44.513  27.229  27.360  1.00  0.00     0.167 HD
ATOM     48  C   UNL A   1      45.663  31.332  28.452  1.00  0.00     0.031 A 
ATOM     49  C   UNL A   1      44.982  24.649  26.407  1.00  0.00     0.031 A 
ATOM     50  C   UNL A   1      46.866  30.721  27.956  1.00  0.00     0.049 A 
ATOM     51  C   UNL A   1      46.284  25.399  26.273  1.00  0.00     0.074 A 
ATOM     52  C   UNL A   1      48.131  31.272  27.851  1.00  0.00     0.029 A 
ATOM     53  N   UNL A   1      46.952  29.423  27.474  1.00  0.00    -0.354 N 
ATOM     54  N   UNL A   1      46.569  26.631  26.625  1.00  0.00    -0.248 NA
ATOM     55  C   UNL A   1      47.413  24.666  25.686  1.00  0.00     0.031 C 
ATOM     56  C   UNL A   1      48.966  30.329  27.243  1.00  0.00     0.029 A 
ATOM     57  C   UNL A   1      48.242  29.165  27.043  1.00  0.00     0.049 A 
ATOM     58  H   UNL A   1      46.207  28.781  27.444  1.00  0.00     0.167 HD
ATOM     59  C   UNL A   1      47.918  26.808  26.334  1.00  0.00     0.074 A 
ATOM     60  C   UNL A   1      48.394  25.551  25.793  1.00  0.00     0.031 C 
ATOM     61  C   UNL A   1      48.697  27.907  26.501  1.00  0.00     0.031 A 
BRANCH  48  62
ATOM     62  C   UNL A   1      45.709  32.773  28.890  1.00  0.00    -0.014 A 
ATOM     63  C   UNL A   1      46.093  33.134  30.195  1.00  0.00     0.010 A 
ATOM     64  C   UNL A   1      45.383  33.786  27.970  1.00  0.00     0.010 A 
ATOM     65  C   UNL A   1      46.115  34.477  30.581  1.00  0.00     0.020 A 
ATOM     66  C   UNL A   1      45.435  35.132  28.341  1.00  0.00     0.020 A 
ATOM     67  C   UNL A   1      45.786  35.468  29.650  1.00  0.00     0.054 A 
BRANCH  67  68
ATOM     68  S   UNL A   1      45.850  37.205  30.170  1.00  0.00     0.124 S 
ATOM     69  O   UNL A   1      45.563  37.904  28.921  1.00  0.00    -0.237 OA
ATOM     70  O   UNL A   1      44.800  37.273  31.184  1.00  0.00    -0.237 OA
ATOM     71  O   UNL A   1      47.211  37.366  30.675  1.00  0.00    -0.744 OA
ENDBRANCH  67  68
ENDBRANCH  48  62
BRANCH  49  72
ATOM     72  C   UNL A   1      44.866  23.235  25.954  1.00  0.00    -0.014 A 
ATOM     73  C   UNL A   1      45.794  22.683  25.053  1.00  0.00     0.010 A 
ATOM     74  C   UNL A   1      43.808  22.431  26.417  1.00  0.00     0.010 A 
ATOM     75  C   UNL A   1      45.656  21.362  24.612  1.00  0.00     0.020 A 
ATOM     76  C   UNL A   1      43.684  21.102  26.004  1.00  0.00     0.020 A 
ATOM     77  C   UNL A   1      44.604  20.579  25.094  1.00  0.00     0.054 A 
BRANCH  77  78
ATOM     78  S   UNL A   1      44.475  18.854  24.548  1.00  0.00     0.124 S 
ATOM     79  O   UNL A   1      45.384  18.174  25.465  1.00  0.00    -0.237 OA
ATOM     80  O   UNL A   1      43.055  18.571  24.736  1.00  0.00    -0.237 OA
ATOM     81  O   UNL A   1      44.912  18.902  23.154  1.00  0.00    -0.744 OA
ENDBRANCH  77  78
ENDBRANCH  49  72
BRANCH  61  82
ATOM     82  C   UNL A   1      50.156  27.787  26.138  1.00  0.00    -0.014 A 
ATOM     83  C   UNL A   1      51.125  27.418  27.088  1.00  0.00     0.010 A 
ATOM     84  C   UNL A   1      50.557  28.018  24.808  1.00  0.00     0.010 A 
ATOM     85  C   UNL A   1      52.472  27.338  26.727  1.00  0.00     0.020 A 
ATOM     86  C   UNL A   1      51.897  27.902  24.435  1.00  0.00     0.020 A 
ATOM     87  C   UNL A   1      52.851  27.584  25.404  1.00  0.00     0.054 A 
BRANCH  87  88
ATOM     88  S   UNL A   1      54.604  27.464  24.959  1.00  0.00     0.124 S 
ATOM     89  O   UNL A   1      54.843  28.752  24.314  1.00  0.00    -0.237 OA
ATOM     90  O   UNL A   1      55.252  27.282  26.256  1.00  0.00    -0.237 OA
ATOM     91  O   UNL A   1      54.659  26.304  24.073  1.00  0.00    -0.744 OA
ENDBRANCH  87  88
ENDBRANCH  61  82
ENDBRANCH  35  36
ENDBRANCH  28  30
ENDBRANCH  27  28
ENDBRANCH  26  27
ENDBRANCH  25  26
ENDBRANCH  24  25
ENDBRANCH  23  24
ENDBRANCH   1  23
TORSDOF 25
ENDMDL
MODEL 2
REMARK VINA RESULT:      -8.9      1.962      8.214
REMARK SMILES C[C@H]1[C@@H](C(=O)OCCOCCOCCOCCOC(=O)c2ccc(-c3c4nc(c(-c5ccc(S(=O)(=O)[O-])cc5)c5ccc([nH]5)c(-c5ccc(S(=O)(=O)[O-])cc5)c5nc(c(-c6ccc(S(=O)(=O)[O-])cc6)c6ccc3[nH]6)C=C5)C=C4)cc2)CC[N@@H+]1CC(F)(F)F
REMARK SMILES IDX 13 1 12 2 11 3 10 4 9 5 8 6 7 7 6 8 4 9 5 10 3 11 1 12 2 13
REMARK SMILES IDX 83 14 81 15 82 16 84 18 85 19 86 20 87 21 88 22 14 23 15 24
REMARK SMILES IDX 16 25 17 26 18 27 19 28 20 29 21 30 22 31 80 32 23 33 79 34
REMARK SMILES IDX 24 35 25 36 26 37 73 38 27 39 78 40 72 41 74 42 28 43 77 44
REMARK SMILES IDX 71 45 70 46 29 48 59 49 40 50 58 51 41 52 44 53 57 54 75 55
REMARK SMILES IDX 42 56 43 57 56 59 76 60 45 61 30 62 31 63 39 64 32 65 38 66
REMARK SMILES IDX 33 67 34 68 35 69 36 70 37 71 60 72 61 73 69 74 62 75 68 76
REMARK SMILES IDX 63 77 64 78 65 79 66 80 67 81 46 82 47 83 55 84 48 85 54 86
REMARK SMILES IDX 49 87 50 88 51 89 52 90 53 91
REMARK H PARENT 83 17 74 47 44 58
REMARK Flexibility Score: inf
ROOT
ATOM      1  C   UNL A   1      33.093  30.533  27.051  1.00  0.00     0.188 C 
ENDROOT
BRANCH   1   2
ATOM      2  O   UNL A   1      33.269  29.972  25.766  1.00  0.00    -0.377 OA
BRANCH   2   3
ATOM      3  C   UNL A   1      32.312  29.044  25.277  1.00  0.00     0.188 C 
BRANCH   3   4
ATOM      4  C   UNL A   1      31.855  28.981  23.806  1.00  0.00     0.188 C 
BRANCH   4   5
ATOM      5  O   UNL A   1      30.519  28.568  23.638  1.00  0.00    -0.376 OA
BRANCH   5   6
ATOM      6  C   UNL A   1      30.241  27.476  22.787  1.00  0.00     0.202 C 
BRANCH   6   7
ATOM      7  C   UNL A   1      31.357  26.756  22.009  1.00  0.00     0.261 C 
BRANCH   7   8
ATOM      8  O   UNL A   1      31.977  25.614  22.626  1.00  0.00    -0.463 OA
BRANCH   8   9
ATOM      9  C   UNL A   1      33.295  25.417  22.427  1.00  0.00     0.315 C 
ATOM     10  O   UNL A   1      34.015  26.214  21.831  1.00  0.00    -0.252 OA
BRANCH   9  11
ATOM     11  C   UNL A   1      33.867  24.164  23.092  1.00  0.00     0.162 C 
ATOM     12  C   UNL A   1      31.559  22.848  23.089  1.00  0.00     0.076 C 
ATOM     13  C   UNL A   1      33.050  22.900  23.414  1.00  0.00     0.195 C 
ATOM     14  N   UNL A   1      33.276  22.567  24.844  1.00  0.00    -0.324 N 
ATOM     15  C   UNL A   1      34.625  24.500  24.378  1.00  0.00     0.083 C 
ATOM     16  C   UNL A   1      34.030  23.645  25.479  1.00  0.00     0.263 C 
ATOM     17  H   UNL A   1      32.364  22.486  25.295  1.00  0.00     0.348 HD
BRANCH  14  18
ATOM     18  C   UNL A   1      33.923  21.244  25.041  1.00  0.00     0.379 C 
BRANCH  18  19
ATOM     19  C   UNL A   1      33.076  19.953  24.976  1.00  0.00     0.438 C 
ATOM     20  F   UNL A   1      33.421  19.175  23.924  1.00  0.00    -0.165 F 
ATOM     21  F   UNL A   1      33.252  19.211  26.093  1.00  0.00    -0.165 F 
ATOM     22  F   UNL A   1      31.755  20.217  24.868  1.00  0.00    -0.165 F 
ENDBRANCH  18  19
ENDBRANCH  14  18
ENDBRANCH   9  11
ENDBRANCH   8   9
ENDBRANCH   7   8
ENDBRANCH   6   7
ENDBRANCH   5   6
ENDBRANCH   4   5
ENDBRANCH   3   4
ENDBRANCH   2   3
ENDBRANCH   1   2
BRANCH   1  23
ATOM     23  C   UNL A   1      34.294  31.286  27.648  1.00  0.00     0.188 C 
BRANCH  23  24
ATOM     24  O   UNL A   1      33.960  32.131  28.739  1.00  0.00    -0.376 OA
BRANCH  24  25
ATOM     25  C   UNL A   1      34.928  32.326  29.759  1.00  0.00     0.202 C 
BRANCH  25  26
ATOM     26  C   UNL A   1      36.277  31.584  29.699  1.00  0.00     0.261 C 
BRANCH  26  27
ATOM     27  O   UNL A   1      36.273  30.186  30.009  1.00  0.00    -0.460 OA
BRANCH  27  28
ATOM     28  C   UNL A   1      37.041  29.779  31.036  1.00  0.00     0.338 C 
ATOM     29  O   UNL A   1      36.663  29.259  32.077  1.00  0.00    -0.246 OA
BRANCH  28  30
ATOM     30  C   UNL A   1      38.450  29.883  30.611  1.00  0.00     0.060 A 
ATOM     31  C   UNL A   1      38.733  29.948  29.240  1.00  0.00     0.016 A 
ATOM     32  C   UNL A   1      39.482  29.922  31.553  1.00  0.00     0.016 A 
ATOM     33  C   UNL A   1      40.053  30.008  28.805  1.00  0.00     0.010 A 
ATOM     34  C   UNL A   1      40.808  29.947  31.114  1.00  0.00     0.010 A 
ATOM     35  C   UNL A   1      41.095  29.941  29.738  1.00  0.00    -0.014 A 
BRANCH  35  36
ATOM     36  C   UNL A   1      42.448  29.593  29.246  1.00  0.00     0.031 A 
ATOM     37  C   UNL A   1      42.677  28.182  28.771  1.00  0.00     0.074 A 
ATOM     38  C   UNL A   1      43.417  30.518  29.133  1.00  0.00     0.049 A 
ATOM     39  N   UNL A   1      43.743  27.648  28.237  1.00  0.00    -0.248 NA
ATOM     40  C   UNL A   1      41.543  27.249  28.913  1.00  0.00     0.031 C 
ATOM     41  C   UNL A   1      43.293  31.925  29.506  1.00  0.00     0.029 A 
ATOM     42  N   UNL A   1      44.697  30.406  28.652  1.00  0.00    -0.354 N 
ATOM     43  C   UNL A   1      43.410  26.321  27.981  1.00  0.00     0.074 A 
ATOM     44  C   UNL A   1      42.059  26.121  28.453  1.00  0.00     0.031 C 
ATOM     45  C   UNL A   1      44.453  32.550  29.238  1.00  0.00     0.029 A 
ATOM     46  C   UNL A   1      45.407  31.582  28.699  1.00  0.00     0.049 A 
ATOM     47  H   UNL A   1      45.071  29.564  28.306  1.00  0.00     0.167 HD
ATOM     48  C   UNL A   1      44.158  25.358  27.395  1.00  0.00     0.031 A 
ATOM     49  C   UNL A   1      46.685  31.839  28.353  1.00  0.00     0.031 A 
ATOM     50  C   UNL A   1      45.509  25.558  26.945  1.00  0.00     0.049 A 
ATOM     51  C   UNL A   1      47.526  30.729  27.775  1.00  0.00     0.074 A 
ATOM     52  C   UNL A   1      46.356  24.649  26.336  1.00  0.00     0.029 A 
ATOM     53  N   UNL A   1      46.213  26.748  27.063  1.00  0.00    -0.354 N 
ATOM     54  N   UNL A   1      47.192  29.485  27.520  1.00  0.00    -0.248 NA
ATOM     55  C   UNL A   1      48.912  31.063  27.423  1.00  0.00     0.031 C 
ATOM     56  C   UNL A   1      47.595  25.271  26.147  1.00  0.00     0.029 A 
ATOM     57  C   UNL A   1      47.494  26.589  26.565  1.00  0.00     0.049 A 
ATOM     58  H   UNL A   1      45.853  27.581  27.444  1.00  0.00     0.167 HD
ATOM     59  C   UNL A   1      48.317  28.900  26.945  1.00  0.00     0.074 A 
ATOM     60  C   UNL A   1      49.332  29.931  26.876  1.00  0.00     0.031 C 
ATOM     61  C   UNL A   1      48.495  27.627  26.509  1.00  0.00     0.031 A 
BRANCH  48  62
ATOM     62  C   UNL A   1      43.541  23.990  27.253  1.00  0.00    -0.014 A 
ATOM     63  C   UNL A   1      43.366  23.144  28.364  1.00  0.00     0.010 A 
ATOM     64  C   UNL A   1      43.108  23.555  25.989  1.00  0.00     0.010 A 
ATOM     65  C   UNL A   1      42.804  21.874  28.205  1.00  0.00     0.020 A 
ATOM     66  C   UNL A   1      42.516  22.299  25.830  1.00  0.00     0.020 A 
ATOM     67  C   UNL A   1      42.382  21.461  26.938  1.00  0.00     0.054 A 
BRANCH  67  68
ATOM     68  S   UNL A   1      41.629  19.819  26.766  1.00  0.00     0.124 S 
ATOM     69  O   UNL A   1      40.386  19.977  27.517  1.00  0.00    -0.237 OA
ATOM     70  O   UNL A   1      41.475  19.689  25.318  1.00  0.00    -0.237 OA
ATOM     71  O   UNL A   1      42.611  18.921  27.368  1.00  0.00    -0.744 OA
ENDBRANCH  67  68
ENDBRANCH  48  62
BRANCH  49  72
ATOM     72  C   UNL A   1      47.253  33.201  28.555  1.00  0.00    -0.014 A 
ATOM     73  C   UNL A   1      47.162  34.181  27.551  1.00  0.00     0.010 A 
ATOM     74  C   UNL A   1      47.903  33.522  29.761  1.00  0.00     0.010 A 
ATOM     75  C   UNL A   1      47.726  35.448  27.741  1.00  0.00     0.020 A 
ATOM     76  C   UNL A   1      48.439  34.796  29.969  1.00  0.00     0.020 A 
ATOM     77  C   UNL A   1      48.357  35.748  28.952  1.00  0.00     0.054 A 
BRANCH  77  78
ATOM     78  S   UNL A   1      49.035  37.413  29.196  1.00  0.00     0.124 S 
ATOM     79  O   UNL A   1      48.234  38.207  28.270  1.00  0.00    -0.237 OA
ATOM     80  O   UNL A   1      48.784  37.648  30.615  1.00  0.00    -0.237 OA
ATOM     81  O   UNL A   1      50.444  37.264  28.837  1.00  0.00    -0.744 OA
ENDBRANCH  77  78
ENDBRANCH  49  72
BRANCH  61  82
ATOM     82  C   UNL A   1      49.822  27.289  25.876  1.00  0.00    -0.014 A 
ATOM     83  C   UNL A   1      50.874  26.728  26.621  1.00  0.00     0.010 A 
ATOM     84  C   UNL A   1      50.003  27.511  24.498  1.00  0.00     0.010 A 
ATOM     85  C   UNL A   1      52.100  26.448  26.011  1.00  0.00     0.020 A 
ATOM     86  C   UNL A   1      51.214  27.198  23.877  1.00  0.00     0.020 A 
ATOM     87  C   UNL A   1      52.264  26.688  24.643  1.00  0.00     0.054 A 
BRANCH  87  88
ATOM     88  S   UNL A   1      53.861  26.307  23.874  1.00  0.00     0.124 S 
ATOM     89  O   UNL A   1      53.463  25.921  22.523  1.00  0.00    -0.237 OA
ATOM     90  O   UNL A   1      54.577  27.576  23.979  1.00  0.00    -0.237 OA
ATOM     91  O   UNL A   1      54.394  25.226  24.700  1.00  0.00    -0.744 OA
ENDBRANCH  87  88
ENDBRANCH  61  82
ENDBRANCH  35  36
ENDBRANCH  28  30
ENDBRANCH  27  28
ENDBRANCH  26  27
ENDBRANCH  25  26
ENDBRANCH  24  25
ENDBRANCH  23  24
ENDBRANCH   1  23
TORSDOF 25
ENDMDL
MODEL 3
REMARK VINA RESULT:      -8.3      8.170     10.578
REMARK SMILES C[C@H]1[C@@H](C(=O)OCCOCCOCCOCCOC(=O)c2ccc(-c3c4nc(c(-c5ccc(S(=O)(=O)[O-])cc5)c5ccc([nH]5)c(-c5ccc(S(=O)(=O)[O-])cc5)c5nc(c(-c6ccc(S(=O)(=O)[O-])cc6)c6ccc3[nH]6)C=C5)C=C4)cc2)CC[N@@H+]1CC(F)(F)F
REMARK SMILES IDX 13 1 12 2 11 3 10 4 9 5 8 6 7 7 6 8 4 9 5 10 3 11 1 12 2 13
REMARK SMILES IDX 83 14 81 15 82 16 84 18 85 19 86 20 87 21 88 22 14 23 15 24
REMARK SMILES IDX 16 25 17 26 18 27 19 28 20 29 21 30 22 31 80 32 23 33 79 34
REMARK SMILES IDX 24 35 25 36 26 37 73 38 27 39 78 40 72 41 74 42 28 43 77 44
REMARK SMILES IDX 71 45 70 46 29 48 59 49 40 50 58 51 41 52 44 53 57 54 75 55
REMARK SMILES IDX 42 56 43 57 56 59 76 60 45 61 30 62 31 63 39 64 32 65 38 66
REMARK SMILES IDX 33 67 34 68 35 69 36 70 37 71 60 72 61 73 69 74 62 75 68 76
REMARK SMILES IDX 63 77 64 78 65 79 66 80 67 81 46 82 47 83 55 84 48 85 54 86
REMARK SMILES IDX 49 87 50 88 51 89 52 90 53 91
REMARK H PARENT 83 17 74 47 44 58
REMARK Flexibility Score: inf
ROOT
ATOM      1  C   UNL A   1      33.143  30.723  27.090  1.00  0.00     0.188 C 
ENDROOT
BRANCH   1   2
ATOM      2  O   UNL A   1      33.329  29.888  25.965  1.00  0.00    -0.377 OA
BRANCH   2   3
ATOM      3  C   UNL A   1      32.604  28.671  25.876  1.00  0.00     0.188 C 
BRANCH   3   4
ATOM      4  C   UNL A   1      32.177  28.025  24.543  1.00  0.00     0.188 C 
BRANCH   4   5
ATOM      5  O   UNL A   1      30.781  27.937  24.370  1.00  0.00    -0.376 OA
BRANCH   5   6
ATOM      6  C   UNL A   1      30.123  26.736  24.710  1.00  0.00     0.202 C 
BRANCH   6   7
ATOM      7  C   UNL A   1      30.890  25.408  24.851  1.00  0.00     0.261 C 
BRANCH   7   8
ATOM      8  O   UNL A   1      31.583  25.160  26.086  1.00  0.00    -0.463 OA
BRANCH   8   9
ATOM      9  C   UNL A   1      31.573  23.908  26.585  1.00  0.00     0.315 C 
ATOM     10  O   UNL A   1      30.708  23.495  27.353  1.00  0.00    -0.252 OA
BRANCH   9  11
ATOM     11  C   UNL A   1      32.669  22.990  26.045  1.00  0.00     0.162 C 
ATOM     12  C   UNL A   1      34.428  24.948  25.679  1.00  0.00     0.076 C 
ATOM     13  C   UNL A   1      34.067  23.465  25.609  1.00  0.00     0.195 C 
ATOM     14  N   UNL A   1      34.318  22.939  24.243  1.00  0.00    -0.324 N 
ATOM     15  C   UNL A   1      32.161  22.111  24.900  1.00  0.00     0.083 C 
ATOM     16  C   UNL A   1      33.097  22.325  23.728  1.00  0.00     0.263 C 
ATOM     17  H   UNL A   1      34.575  23.726  23.646  1.00  0.00     0.348 HD
BRANCH  14  18
ATOM     18  C   UNL A   1      35.478  22.012  24.177  1.00  0.00     0.379 C 
BRANCH  18  19
ATOM     19  C   UNL A   1      35.575  20.826  25.162  1.00  0.00     0.438 C 
ATOM     20  F   UNL A   1      36.718  20.122  24.995  1.00  0.00    -0.165 F 
ATOM     21  F   UNL A   1      35.564  21.267  26.441  1.00  0.00    -0.165 F 
ATOM     22  F   UNL A   1      34.544  19.963  25.022  1.00  0.00    -0.165 F 
ENDBRANCH  18  19
ENDBRANCH  14  18
ENDBRANCH   9  11
ENDBRANCH   8   9
ENDBRANCH   7   8
ENDBRANCH   6   7
ENDBRANCH   5   6
ENDBRANCH   4   5
ENDBRANCH   3   4
ENDBRANCH   2   3
ENDBRANCH   1   2
BRANCH   1  23
ATOM     23  C   UNL A   1      34.408  31.141  27.858  1.00  0.00     0.188 C 
BRANCH  23  24
ATOM     24  O   UNL A   1      34.224  32.269  28.701  1.00  0.00    -0.376 OA
BRANCH  24  25
ATOM     25  C   UNL A   1      35.091  32.425  29.814  1.00  0.00     0.202 C 
BRANCH  25  26
ATOM     26  C   UNL A   1      34.614  33.182  31.068  1.00  0.00     0.261 C 
BRANCH  26  27
ATOM     27  O   UNL A   1      35.228  34.445  31.348  1.00  0.00    -0.460 OA
BRANCH  27  28
ATOM     28  C   UNL A   1      35.310  34.819  32.637  1.00  0.00     0.338 C 
ATOM     29  O   UNL A   1      34.478  35.452  33.274  1.00  0.00    -0.246 OA
BRANCH  28  30
ATOM     30  C   UNL A   1      36.495  34.162  33.221  1.00  0.00     0.060 A 
ATOM     31  C   UNL A   1      36.326  33.367  34.362  1.00  0.00     0.016 A 
ATOM     32  C   UNL A   1      37.758  34.320  32.645  1.00  0.00     0.016 A 
ATOM     33  C   UNL A   1      37.429  32.765  34.959  1.00  0.00     0.010 A 
ATOM     34  C   UNL A   1      38.870  33.743  33.265  1.00  0.00     0.010 A 
ATOM     35  C   UNL A   1      38.711  33.005  34.451  1.00  0.00    -0.014 A 
BRANCH  35  36
ATOM     36  C   UNL A   1      39.872  32.707  35.321  1.00  0.00     0.031 A 
ATOM     37  C   UNL A   1      40.193  33.688  36.417  1.00  0.00     0.074 A 
ATOM     38  C   UNL A   1      40.561  31.558  35.208  1.00  0.00     0.049 A 
ATOM     39  N   UNL A   1      41.108  33.624  37.348  1.00  0.00    -0.248 NA
ATOM     40  C   UNL A   1      39.361  34.904  36.475  1.00  0.00     0.031 C 
ATOM     41  C   UNL A   1      40.304  30.509  34.223  1.00  0.00     0.029 A 
ATOM     42  N   UNL A   1      41.613  31.080  35.946  1.00  0.00    -0.354 N 
ATOM     43  C   UNL A   1      40.964  34.787  38.096  1.00  0.00     0.074 A 
ATOM     44  C   UNL A   1      39.901  35.557  37.491  1.00  0.00     0.031 C 
ATOM     45  C   UNL A   1      41.178  29.505  34.420  1.00  0.00     0.029 A 
ATOM     46  C   UNL A   1      42.068  29.853  35.526  1.00  0.00     0.049 A 
ATOM     47  H   UNL A   1      42.006  31.569  36.705  1.00  0.00     0.167 HD
ATOM     48  C   UNL A   1      41.648  35.176  39.198  1.00  0.00     0.031 A 
ATOM     49  C   UNL A   1      43.094  29.105  35.980  1.00  0.00     0.031 A 
ATOM     50  C   UNL A   1      42.718  34.416  39.784  1.00  0.00     0.049 A 
ATOM     51  C   UNL A   1      43.894  29.596  37.160  1.00  0.00     0.074 A 
ATOM     52  C   UNL A   1      43.476  34.718  40.901  1.00  0.00     0.029 A 
ATOM     53  N   UNL A   1      43.187  33.205  39.295  1.00  0.00    -0.354 N 
ATOM     54  N   UNL A   1      43.734  30.688  37.872  1.00  0.00    -0.248 NA
ATOM     55  C   UNL A   1      45.003  28.744  37.609  1.00  0.00     0.031 C 
ATOM     56  C   UNL A   1      44.448  33.723  41.047  1.00  0.00     0.029 A 
ATOM     57  C   UNL A   1      44.245  32.762  40.069  1.00  0.00     0.049 A 
ATOM     58  H   UNL A   1      42.822  32.733  38.512  1.00  0.00     0.167 HD
ATOM     59  C   UNL A   1      44.700  30.635  38.873  1.00  0.00     0.074 A 
ATOM     60  C   UNL A   1      45.426  29.396  38.683  1.00  0.00     0.031 C 
ATOM     61  C   UNL A   1      44.961  31.527  39.862  1.00  0.00     0.031 A 
BRANCH  48  62
ATOM     62  C   UNL A   1      41.285  36.506  39.807  1.00  0.00    -0.014 A 
ATOM     63  C   UNL A   1      41.893  37.701  39.379  1.00  0.00     0.010 A 
ATOM     64  C   UNL A   1      40.300  36.562  40.808  1.00  0.00     0.010 A 
ATOM     65  C   UNL A   1      41.549  38.921  39.968  1.00  0.00     0.020 A 
ATOM     66  C   UNL A   1      39.929  37.784  41.378  1.00  0.00     0.020 A 
ATOM     67  C   UNL A   1      40.568  38.954  40.964  1.00  0.00     0.054 A 
BRANCH  67  68
ATOM     68  S   UNL A   1      40.121  40.554  41.691  1.00  0.00     0.124 S 
ATOM     69  O   UNL A   1      39.203  40.156  42.755  1.00  0.00    -0.237 OA
ATOM     70  O   UNL A   1      41.412  41.073  42.138  1.00  0.00    -0.237 OA
ATOM     71  O   UNL A   1      39.510  41.282  40.582  1.00  0.00    -0.744 OA
ENDBRANCH  67  68
ENDBRANCH  48  62
BRANCH  49  72
ATOM     72  C   UNL A   1      43.432  27.817  35.311  1.00  0.00    -0.014 A 
ATOM     73  C   UNL A   1      42.928  26.595  35.793  1.00  0.00     0.010 A 
ATOM     74  C   UNL A   1      44.277  27.808  34.186  1.00  0.00     0.010 A 
ATOM     75  C   UNL A   1      43.278  25.390  35.173  1.00  0.00     0.020 A 
ATOM     76  C   UNL A   1      44.603  26.611  33.545  1.00  0.00     0.020 A 
ATOM     77  C   UNL A   1      44.110  25.406  34.050  1.00  0.00     0.054 A 
BRANCH  77  78
ATOM     78  S   UNL A   1      44.507  23.836  33.233  1.00  0.00     0.124 S 
ATOM     79  O   UNL A   1      43.362  23.007  33.592  1.00  0.00    -0.237 OA
ATOM     80  O   UNL A   1      44.592  24.227  31.829  1.00  0.00    -0.237 OA
ATOM     81  O   UNL A   1      45.778  23.446  33.840  1.00  0.00    -0.744 OA
ENDBRANCH  77  78
ENDBRANCH  49  72
BRANCH  61  82
ATOM     82  C   UNL A   1      46.050  31.174  40.845  1.00  0.00    -0.014 A 
ATOM     83  C   UNL A   1      45.781  30.429  42.008  1.00  0.00     0.010 A 
ATOM     84  C   UNL A   1      47.374  31.570  40.578  1.00  0.00     0.010 A 
ATOM     85  C   UNL A   1      46.807  30.139  42.911  1.00  0.00     0.020 A 
ATOM     86  C   UNL A   1      48.407  31.249  41.460  1.00  0.00     0.020 A 
ATOM     87  C   UNL A   1      48.113  30.553  42.634  1.00  0.00     0.054 A 
BRANCH  87  88
ATOM     88  S   UNL A   1      49.426  30.155  43.818  1.00  0.00     0.124 S 
ATOM     89  O   UNL A   1      48.672  29.572  44.925  1.00  0.00    -0.237 OA
ATOM     90  O   UNL A   1      50.262  29.221  43.068  1.00  0.00    -0.237 OA
ATOM     91  O   UNL A   1      50.045  31.449  44.100  1.00  0.00    -0.744 OA
ENDBRANCH  87  88
ENDBRANCH  61  82
ENDBRANCH  35  36
ENDBRANCH  28  30
ENDBRANCH  27  28
ENDBRANCH  26  27
ENDBRANCH  25  26
ENDBRANCH  24  25
ENDBRANCH  23  24
ENDBRANCH   1  23
TORSDOF 25
ENDMDL
