MODEL 1
REMARK VINA RESULT:      -9.1      0.000      0.000
REMARK SMILES O=C(OCCOCCOCCOCCOC(=O)[C@H]1CC2=c3ccccc3=N[C@H]2[C@@H](c2ccccc2)[NH2+]1)c1ccc(-c2c3nc(c(-c4ccc(S(=O)(=O)[O-])cc4)c4ccc([nH]4)c(-c4ccc(S(=O)(=O)[O-])cc4)c4nc(c(-c5ccc(S(=O)(=O)[O-])cc5)c5ccc2[nH]5)C=C4)C=C3)cc1
REMARK SMILES IDX 8 1 7 2 6 3 5 4 4 5 3 6 2 7 1 8 37 9 38 10 96 11 39 12 95 13
REMARK SMILES IDX 40 14 41 15 42 16 89 17 43 18 94 19 88 20 90 21 44 22 93 23
REMARK SMILES IDX 87 24 86 25 45 27 75 28 56 29 74 30 57 31 60 32 73 33 91 34
REMARK SMILES IDX 58 35 59 36 72 38 92 39 61 40 46 41 47 42 55 43 48 44 54 45
REMARK SMILES IDX 49 46 50 47 51 48 52 49 53 50 76 51 77 52 85 53 78 54 84 55
REMARK SMILES IDX 79 56 80 57 81 58 82 59 83 60 62 61 63 62 71 63 64 64 70 65
REMARK SMILES IDX 65 66 66 67 67 68 68 69 69 70 9 71 10 72 11 73 12 74 13 75
REMARK SMILES IDX 14 76 15 77 16 78 17 79 18 80 19 81 36 82 20 83 29 84 21 87
REMARK SMILES IDX 28 88 22 89 26 90 27 91 23 92 25 93 24 94 30 95 31 96 35 97
REMARK SMILES IDX 32 98 34 99 33 100
REMARK H PARENT 90 26 60 37 36 85 36 86
REMARK Flexibility Score: inf
ROOT
ATOM      1  C   UNL A   1      40.281  22.385  26.308  1.00  0.00     0.188 C 
ENDROOT
BRANCH   1   2
ATOM      2  C   UNL A   1      41.725  22.850  26.154  1.00  0.00     0.188 C 
BRANCH   2   3
ATOM      3  O   UNL A   1      42.597  21.907  25.542  1.00  0.00    -0.376 OA
BRANCH   3   4
ATOM      4  C   UNL A   1      43.982  22.068  25.799  1.00  0.00     0.202 C 
BRANCH   4   5
ATOM      5  C   UNL A   1      44.188  22.863  27.079  1.00  0.00     0.261 C 
BRANCH   5   6
ATOM      6  O   UNL A   1      45.356  23.703  27.004  1.00  0.00    -0.460 OA
BRANCH   6   7
ATOM      7  C   UNL A   1      45.968  24.480  27.925  1.00  0.00     0.338 C 
ATOM      8  O   UNL A   1      47.191  24.351  28.028  1.00  0.00    -0.246 OA
BRANCH   7   9
ATOM      9  C   UNL A   1      45.301  25.459  28.857  1.00  0.00     0.060 A 
ATOM     10  C   UNL A   1      44.483  24.896  29.858  1.00  0.00     0.016 A 
ATOM     11  C   UNL A   1      45.405  26.853  28.832  1.00  0.00     0.016 A 
ATOM     12  C   UNL A   1      43.804  25.691  30.788  1.00  0.00     0.010 A 
ATOM     13  C   UNL A   1      44.705  27.659  29.739  1.00  0.00     0.010 A 
ATOM     14  C   UNL A   1      43.922  27.082  30.738  1.00  0.00    -0.014 A 
BRANCH  14  15
ATOM     15  C   UNL A   1      43.451  27.913  31.866  1.00  0.00     0.031 A 
ATOM     16  C   UNL A   1      44.206  28.016  33.153  1.00  0.00     0.074 A 
ATOM     17  C   UNL A   1      42.281  28.556  31.688  1.00  0.00     0.049 A 
ATOM     18  N   UNL A   1      43.979  28.814  34.162  1.00  0.00    -0.248 NA
ATOM     19  C   UNL A   1      45.353  27.114  33.342  1.00  0.00     0.031 C 
ATOM     20  C   UNL A   1      41.460  28.465  30.475  1.00  0.00     0.029 A 
ATOM     21  N   UNL A   1      41.586  29.415  32.496  1.00  0.00    -0.354 N 
ATOM     22  C   UNL A   1      44.966  28.536  35.099  1.00  0.00     0.074 A 
ATOM     23  C   UNL A   1      45.770  27.461  34.556  1.00  0.00     0.031 C 
ATOM     24  C   UNL A   1      40.396  29.266  30.604  1.00  0.00     0.029 A 
ATOM     25  C   UNL A   1      40.447  29.916  31.908  1.00  0.00     0.049 A 
ATOM     26  H   UNL A   1      41.872  29.652  33.408  1.00  0.00     0.167 HD
ATOM     27  C   UNL A   1      45.173  29.143  36.292  1.00  0.00     0.031 A 
ATOM     28  C   UNL A   1      39.560  30.827  32.351  1.00  0.00     0.031 A 
ATOM     29  C   UNL A   1      44.326  30.194  36.809  1.00  0.00     0.049 A 
ATOM     30  C   UNL A   1      39.823  31.490  33.672  1.00  0.00     0.074 A 
ATOM     31  C   UNL A   1      44.472  30.915  37.982  1.00  0.00     0.029 A 
ATOM     32  N   UNL A   1      43.175  30.669  36.192  1.00  0.00    -0.354 N 
ATOM     33  N   UNL A   1      40.819  31.291  34.503  1.00  0.00    -0.248 NA
ATOM     34  C   UNL A   1      38.872  32.520  34.102  1.00  0.00     0.031 C 
ATOM     35  C   UNL A   1      43.373  31.766  38.111  1.00  0.00     0.029 A 
ATOM     36  C   UNL A   1      42.588  31.649  36.975  1.00  0.00     0.049 A 
ATOM     37  H   UNL A   1      42.828  30.354  35.326  1.00  0.00     0.167 HD
ATOM     38  C   UNL A   1      40.637  32.199  35.536  1.00  0.00     0.074 A 
ATOM     39  C   UNL A   1      39.440  32.954  35.219  1.00  0.00     0.031 C 
ATOM     40  C   UNL A   1      41.396  32.393  36.643  1.00  0.00     0.031 A 
BRANCH  27  41
ATOM     41  C   UNL A   1      46.362  28.737  37.131  1.00  0.00    -0.014 A 
ATOM     42  C   UNL A   1      47.623  29.317  36.895  1.00  0.00     0.010 A 
ATOM     43  C   UNL A   1      46.272  27.650  38.020  1.00  0.00     0.010 A 
ATOM     44  C   UNL A   1      48.777  28.784  37.480  1.00  0.00     0.020 A 
ATOM     45  C   UNL A   1      47.421  27.132  38.632  1.00  0.00     0.020 A 
ATOM     46  C   UNL A   1      48.669  27.682  38.332  1.00  0.00     0.054 A 
BRANCH  46  47
ATOM     47  S   UNL A   1      50.184  26.953  39.017  1.00  0.00     0.124 S 
ATOM     48  O   UNL A   1      49.996  25.532  38.741  1.00  0.00    -0.237 OA
ATOM     49  O   UNL A   1      51.232  27.614  38.243  1.00  0.00    -0.237 OA
ATOM     50  O   UNL A   1      50.136  27.327  40.429  1.00  0.00    -0.744 OA
ENDBRANCH  46  47
ENDBRANCH  27  41
BRANCH  28  51
ATOM     51  C   UNL A   1      38.428  31.223  31.468  1.00  0.00    -0.014 A 
ATOM     52  C   UNL A   1      38.589  32.242  30.511  1.00  0.00     0.010 A 
ATOM     53  C   UNL A   1      37.152  30.666  31.663  1.00  0.00     0.010 A 
ATOM     54  C   UNL A   1      37.489  32.732  29.803  1.00  0.00     0.020 A 
ATOM     55  C   UNL A   1      36.054  31.130  30.931  1.00  0.00     0.020 A 
ATOM     56  C   UNL A   1      36.225  32.181  30.028  1.00  0.00     0.054 A 
BRANCH  56  57
ATOM     57  S   UNL A   1      34.803  32.868  29.134  1.00  0.00     0.124 S 
ATOM     58  O   UNL A   1      35.441  33.865  28.280  1.00  0.00    -0.237 OA
ATOM     59  O   UNL A   1      34.267  31.699  28.442  1.00  0.00    -0.237 OA
ATOM     60  O   UNL A   1      33.956  33.402  30.196  1.00  0.00    -0.744 OA
ENDBRANCH  56  57
ENDBRANCH  28  51
BRANCH  40  61
ATOM     61  C   UNL A   1      40.978  33.480  37.600  1.00  0.00    -0.014 A 
ATOM     62  C   UNL A   1      39.806  33.316  38.364  1.00  0.00     0.010 A 
ATOM     63  C   UNL A   1      41.669  34.702  37.662  1.00  0.00     0.010 A 
ATOM     64  C   UNL A   1      39.315  34.363  39.145  1.00  0.00     0.020 A 
ATOM     65  C   UNL A   1      41.201  35.741  38.471  1.00  0.00     0.020 A 
ATOM     66  C   UNL A   1      40.013  35.572  39.187  1.00  0.00     0.054 A 
BRANCH  66  67
ATOM     67  S   UNL A   1      39.350  36.928  40.193  1.00  0.00     0.124 S 
ATOM     68  O   UNL A   1      38.663  37.742  39.195  1.00  0.00    -0.237 OA
ATOM     69  O   UNL A   1      38.485  36.231  41.143  1.00  0.00    -0.237 OA
ATOM     70  O   UNL A   1      40.544  37.535  40.779  1.00  0.00    -0.744 OA
ENDBRANCH  66  67
ENDBRANCH  40  61
ENDBRANCH  14  15
ENDBRANCH   7   9
ENDBRANCH   6   7
ENDBRANCH   5   6
ENDBRANCH   4   5
ENDBRANCH   3   4
ENDBRANCH   2   3
ENDBRANCH   1   2
BRANCH   1  71
ATOM     71  O   UNL A   1      39.347  23.300  26.861  1.00  0.00    -0.377 OA
BRANCH  71  72
ATOM     72  C   UNL A   1      38.082  23.509  26.239  1.00  0.00     0.188 C 
BRANCH  72  73
ATOM     73  C   UNL A   1      37.502  22.398  25.362  1.00  0.00     0.188 C 
BRANCH  73  74
ATOM     74  O   UNL A   1      36.095  22.455  25.198  1.00  0.00    -0.376 OA
BRANCH  74  75
ATOM     75  C   UNL A   1      35.423  23.715  25.243  1.00  0.00     0.202 C 
BRANCH  75  76
ATOM     76  C   UNL A   1      34.144  23.947  24.415  1.00  0.00     0.261 C 
BRANCH  76  77
ATOM     77  O   UNL A   1      34.331  25.035  23.490  1.00  0.00    -0.459 OA
BRANCH  77  78
ATOM     78  C   UNL A   1      33.576  24.992  22.353  1.00  0.00     0.365 C 
ATOM     79  O   UNL A   1      33.476  24.012  21.619  1.00  0.00    -0.245 OA
BRANCH  78  80
ATOM     80  C   UNL A   1      32.665  26.230  22.278  1.00  0.00     0.298 C 
ATOM     81  C   UNL A   1      31.344  26.210  23.102  1.00  0.00     0.111 C 
ATOM     82  N   UNL A   1      33.541  27.443  22.433  1.00  0.00    -0.326 N 
ATOM     83  C   UNL A   1      30.579  27.483  22.791  1.00  0.00    -0.024 C 
ATOM     84  C   UNL A   1      32.807  28.655  22.929  1.00  0.00     0.243 C 
ATOM     85  H   UNL A   1      33.950  27.663  21.525  1.00  0.00     0.347 HD
ATOM     86  H   UNL A   1      34.248  27.216  23.132  1.00  0.00     0.347 HD
ATOM     87  C   UNL A   1      29.344  27.943  22.975  1.00  0.00     0.002 A 
ATOM     88  C   UNL A   1      31.430  28.582  22.203  1.00  0.00     0.196 C 
ATOM     89  C   UNL A   1      28.151  27.541  23.650  1.00  0.00     0.010 A 
ATOM     90  C   UNL A   1      29.416  29.294  22.363  1.00  0.00     0.066 A 
ATOM     91  N   UNL A   1      30.590  29.798  22.123  1.00  0.00    -0.270 NA
ATOM     92  C   UNL A   1      27.040  28.284  23.486  1.00  0.00     0.001 A 
ATOM     93  C   UNL A   1      28.123  29.938  22.043  1.00  0.00     0.028 A 
ATOM     94  C   UNL A   1      27.005  29.399  22.552  1.00  0.00     0.002 A 
BRANCH  84  95
ATOM     95  C   UNL A   1      32.925  28.701  24.469  1.00  0.00     0.012 A 
ATOM     96  C   UNL A   1      32.187  29.550  25.304  1.00  0.00     0.010 A 
ATOM     97  C   UNL A   1      33.783  27.773  25.104  1.00  0.00     0.010 A 
ATOM     98  C   UNL A   1      32.189  29.378  26.696  1.00  0.00     0.001 A 
ATOM     99  C   UNL A   1      33.783  27.595  26.488  1.00  0.00     0.001 A 
ATOM    100  C   UNL A   1      32.964  28.384  27.286  1.00  0.00     0.000 A 
ENDBRANCH  84  95
ENDBRANCH  78  80
ENDBRANCH  77  78
ENDBRANCH  76  77
ENDBRANCH  75  76
ENDBRANCH  74  75
ENDBRANCH  73  74
ENDBRANCH  72  73
ENDBRANCH  71  72
ENDBRANCH   1  71
TORSDOF 24
ENDMDL
MODEL 2
REMARK VINA RESULT:      -8.5      5.759      9.265
REMARK SMILES O=C(OCCOCCOCCOCCOC(=O)[C@H]1CC2=c3ccccc3=N[C@H]2[C@@H](c2ccccc2)[NH2+]1)c1ccc(-c2c3nc(c(-c4ccc(S(=O)(=O)[O-])cc4)c4ccc([nH]4)c(-c4ccc(S(=O)(=O)[O-])cc4)c4nc(c(-c5ccc(S(=O)(=O)[O-])cc5)c5ccc2[nH]5)C=C4)C=C3)cc1
REMARK SMILES IDX 8 1 7 2 6 3 5 4 4 5 3 6 2 7 1 8 37 9 38 10 96 11 39 12 95 13
REMARK SMILES IDX 40 14 41 15 42 16 89 17 43 18 94 19 88 20 90 21 44 22 93 23
REMARK SMILES IDX 87 24 86 25 45 27 75 28 56 29 74 30 57 31 60 32 73 33 91 34
REMARK SMILES IDX 58 35 59 36 72 38 92 39 61 40 46 41 47 42 55 43 48 44 54 45
REMARK SMILES IDX 49 46 50 47 51 48 52 49 53 50 76 51 77 52 85 53 78 54 84 55
REMARK SMILES IDX 79 56 80 57 81 58 82 59 83 60 62 61 63 62 71 63 64 64 70 65
REMARK SMILES IDX 65 66 66 67 67 68 68 69 69 70 9 71 10 72 11 73 12 74 13 75
REMARK SMILES IDX 14 76 15 77 16 78 17 79 18 80 19 81 36 82 20 83 29 84 21 87
REMARK SMILES IDX 28 88 22 89 26 90 27 91 23 92 25 93 24 94 30 95 31 96 35 97
REMARK SMILES IDX 32 98 34 99 33 100
REMARK H PARENT 90 26 60 37 36 85 36 86
REMARK Flexibility Score: inf
ROOT
ATOM      1  C   UNL A   1      43.355  23.777  26.249  1.00  0.00     0.188 C 
ENDROOT
BRANCH   1   2
ATOM      2  C   UNL A   1      44.847  23.464  26.259  1.00  0.00     0.188 C 
BRANCH   2   3
ATOM      3  O   UNL A   1      45.670  24.439  25.630  1.00  0.00    -0.376 OA
BRANCH   3   4
ATOM      4  C   UNL A   1      46.620  25.093  26.455  1.00  0.00     0.202 C 
BRANCH   4   5
ATOM      5  C   UNL A   1      46.121  26.479  26.831  1.00  0.00     0.261 C 
BRANCH   5   6
ATOM      6  O   UNL A   1      46.244  27.406  25.735  1.00  0.00    -0.460 OA
BRANCH   6   7
ATOM      7  C   UNL A   1      46.350  28.753  25.703  1.00  0.00     0.338 C 
ATOM      8  O   UNL A   1      46.706  29.251  24.631  1.00  0.00    -0.246 OA
BRANCH   7   9
ATOM      9  C   UNL A   1      46.108  29.699  26.851  1.00  0.00     0.060 A 
ATOM     10  C   UNL A   1      44.824  30.282  26.907  1.00  0.00     0.016 A 
ATOM     11  C   UNL A   1      47.012  30.057  27.855  1.00  0.00     0.016 A 
ATOM     12  C   UNL A   1      44.467  31.178  27.920  1.00  0.00     0.010 A 
ATOM     13  C   UNL A   1      46.674  30.977  28.856  1.00  0.00     0.010 A 
ATOM     14  C   UNL A   1      45.392  31.522  28.910  1.00  0.00    -0.014 A 
BRANCH  14  15
ATOM     15  C   UNL A   1      44.952  32.233  30.128  1.00  0.00     0.031 A 
ATOM     16  C   UNL A   1      44.963  33.726  30.231  1.00  0.00     0.074 A 
ATOM     17  C   UNL A   1      44.563  31.464  31.163  1.00  0.00     0.049 A 
ATOM     18  N   UNL A   1      44.474  34.475  31.183  1.00  0.00    -0.248 NA
ATOM     19  C   UNL A   1      45.606  34.477  29.141  1.00  0.00     0.031 C 
ATOM     20  C   UNL A   1      44.571  29.998  31.155  1.00  0.00     0.029 A 
ATOM     21  N   UNL A   1      44.076  31.787  32.402  1.00  0.00    -0.354 N 
ATOM     22  C   UNL A   1      44.721  35.788  30.801  1.00  0.00     0.074 A 
ATOM     23  C   UNL A   1      45.445  35.732  29.549  1.00  0.00     0.031 C 
ATOM     24  C   UNL A   1      44.075  29.549  32.315  1.00  0.00     0.029 A 
ATOM     25  C   UNL A   1      43.727  30.690  33.154  1.00  0.00     0.049 A 
ATOM     26  H   UNL A   1      43.985  32.714  32.722  1.00  0.00     0.167 HD
ATOM     27  C   UNL A   1      44.355  36.922  31.445  1.00  0.00     0.031 A 
ATOM     28  C   UNL A   1      43.156  30.607  34.370  1.00  0.00     0.031 A 
ATOM     29  C   UNL A   1      43.658  36.930  32.711  1.00  0.00     0.049 A 
ATOM     30  C   UNL A   1      42.753  31.881  35.053  1.00  0.00     0.074 A 
ATOM     31  C   UNL A   1      43.194  38.020  33.428  1.00  0.00     0.029 A 
ATOM     32  N   UNL A   1      43.330  35.800  33.450  1.00  0.00    -0.354 N 
ATOM     33  N   UNL A   1      42.899  33.116  34.634  1.00  0.00    -0.248 NA
ATOM     34  C   UNL A   1      42.080  31.758  36.350  1.00  0.00     0.031 C 
ATOM     35  C   UNL A   1      42.658  37.556  34.630  1.00  0.00     0.029 A 
ATOM     36  C   UNL A   1      42.699  36.171  34.626  1.00  0.00     0.049 A 
ATOM     37  H   UNL A   1      43.519  34.873  33.178  1.00  0.00     0.167 HD
ATOM     38  C   UNL A   1      42.300  33.916  35.596  1.00  0.00     0.074 A 
ATOM     39  C   UNL A   1      41.781  33.023  36.615  1.00  0.00     0.031 C 
ATOM     40  C   UNL A   1      42.186  35.267  35.629  1.00  0.00     0.031 A 
BRANCH  27  41
ATOM     41  C   UNL A   1      44.657  38.260  30.813  1.00  0.00    -0.014 A 
ATOM     42  C   UNL A   1      45.795  38.988  31.213  1.00  0.00     0.010 A 
ATOM     43  C   UNL A   1      43.719  38.881  29.968  1.00  0.00     0.010 A 
ATOM     44  C   UNL A   1      45.959  40.325  30.832  1.00  0.00     0.020 A 
ATOM     45  C   UNL A   1      43.895  40.209  29.560  1.00  0.00     0.020 A 
ATOM     46  C   UNL A   1      44.997  40.932  30.021  1.00  0.00     0.054 A 
BRANCH  46  47
ATOM     47  S   UNL A   1      45.185  42.689  29.605  1.00  0.00     0.124 S 
ATOM     48  O   UNL A   1      44.553  42.766  28.292  1.00  0.00    -0.237 OA
ATOM     49  O   UNL A   1      44.467  43.351  30.692  1.00  0.00    -0.237 OA
ATOM     50  O   UNL A   1      46.633  42.891  29.615  1.00  0.00    -0.744 OA
ENDBRANCH  46  47
ENDBRANCH  27  41
BRANCH  28  51
ATOM     51  C   UNL A   1      42.841  29.264  34.931  1.00  0.00    -0.014 A 
ATOM     52  C   UNL A   1      43.674  28.680  35.903  1.00  0.00     0.010 A 
ATOM     53  C   UNL A   1      41.771  28.514  34.409  1.00  0.00     0.010 A 
ATOM     54  C   UNL A   1      43.478  27.356  36.303  1.00  0.00     0.020 A 
ATOM     55  C   UNL A   1      41.551  27.199  34.833  1.00  0.00     0.020 A 
ATOM     56  C   UNL A   1      42.424  26.620  35.756  1.00  0.00     0.054 A 
BRANCH  56  57
ATOM     57  S   UNL A   1      42.221  24.887  36.254  1.00  0.00     0.124 S 
ATOM     58  O   UNL A   1      42.151  24.211  34.962  1.00  0.00    -0.237 OA
ATOM     59  O   UNL A   1      43.431  24.635  37.030  1.00  0.00    -0.237 OA
ATOM     60  O   UNL A   1      40.980  24.895  37.024  1.00  0.00    -0.744 OA
ENDBRANCH  56  57
ENDBRANCH  28  51
BRANCH  40  61
ATOM     61  C   UNL A   1      41.453  35.882  36.794  1.00  0.00    -0.014 A 
ATOM     62  C   UNL A   1      42.186  36.355  37.900  1.00  0.00     0.010 A 
ATOM     63  C   UNL A   1      40.049  35.888  36.852  1.00  0.00     0.010 A 
ATOM     64  C   UNL A   1      41.531  36.792  39.052  1.00  0.00     0.020 A 
ATOM     65  C   UNL A   1      39.388  36.358  37.990  1.00  0.00     0.020 A 
ATOM     66  C   UNL A   1      40.135  36.783  39.092  1.00  0.00     0.054 A 
BRANCH  66  67
ATOM     67  S   UNL A   1      39.301  37.336  40.604  1.00  0.00     0.124 S 
ATOM     68  O   UNL A   1      40.419  37.799  41.420  1.00  0.00    -0.237 OA
ATOM     69  O   UNL A   1      38.403  38.380  40.113  1.00  0.00    -0.237 OA
ATOM     70  O   UNL A   1      38.633  36.129  41.087  1.00  0.00    -0.744 OA
ENDBRANCH  66  67
ENDBRANCH  40  61
ENDBRANCH  14  15
ENDBRANCH   7   9
ENDBRANCH   6   7
ENDBRANCH   5   6
ENDBRANCH   4   5
ENDBRANCH   3   4
ENDBRANCH   2   3
ENDBRANCH   1   2
BRANCH   1  71
ATOM     71  O   UNL A   1      42.477  22.832  26.840  1.00  0.00    -0.377 OA
BRANCH  71  72
ATOM     72  C   UNL A   1      41.678  23.188  27.965  1.00  0.00     0.188 C 
BRANCH  72  73
ATOM     73  C   UNL A   1      41.624  24.656  28.392  1.00  0.00     0.188 C 
BRANCH  73  74
ATOM     74  O   UNL A   1      40.487  25.361  27.924  1.00  0.00    -0.376 OA
BRANCH  74  75
ATOM     75  C   UNL A   1      39.582  25.953  28.858  1.00  0.00     0.202 C 
BRANCH  75  76
ATOM     76  C   UNL A   1      40.004  27.188  29.677  1.00  0.00     0.261 C 
BRANCH  76  77
ATOM     77  O   UNL A   1      38.874  28.050  29.910  1.00  0.00    -0.459 OA
BRANCH  77  78
ATOM     78  C   UNL A   1      38.352  28.027  31.172  1.00  0.00     0.365 C 
ATOM     79  O   UNL A   1      38.613  27.176  32.019  1.00  0.00    -0.245 OA
BRANCH  78  80
ATOM     80  C   UNL A   1      37.623  29.349  31.466  1.00  0.00     0.298 C 
ATOM     81  C   UNL A   1      38.127  30.205  32.665  1.00  0.00     0.111 C 
ATOM     82  N   UNL A   1      37.440  30.064  30.155  1.00  0.00    -0.326 N 
ATOM     83  C   UNL A   1      37.198  31.396  32.813  1.00  0.00    -0.024 C 
ATOM     84  C   UNL A   1      37.268  31.548  30.297  1.00  0.00     0.243 C 
ATOM     85  H   UNL A   1      36.612  29.686  29.694  1.00  0.00     0.347 HD
ATOM     86  H   UNL A   1      38.290  29.913  29.610  1.00  0.00     0.347 HD
ATOM     87  C   UNL A   1      36.952  32.327  33.732  1.00  0.00     0.002 A 
ATOM     88  C   UNL A   1      36.390  31.701  31.576  1.00  0.00     0.196 C 
ATOM     89  C   UNL A   1      37.498  32.758  34.980  1.00  0.00     0.010 A 
ATOM     90  C   UNL A   1      35.877  33.127  33.091  1.00  0.00     0.066 A 
ATOM     91  N   UNL A   1      35.678  32.977  31.815  1.00  0.00    -0.270 NA
ATOM     92  C   UNL A   1      36.849  33.717  35.667  1.00  0.00     0.001 A 
ATOM     93  C   UNL A   1      35.094  34.007  33.985  1.00  0.00     0.028 A 
ATOM     94  C   UNL A   1      35.559  34.226  35.225  1.00  0.00     0.002 A 
BRANCH  84  95
ATOM     95  C   UNL A   1      38.654  32.216  30.165  1.00  0.00     0.012 A 
ATOM     96  C   UNL A   1      38.885  33.598  30.202  1.00  0.00     0.010 A 
ATOM     97  C   UNL A   1      39.794  31.384  30.073  1.00  0.00     0.010 A 
ATOM     98  C   UNL A   1      40.186  34.113  30.299  1.00  0.00     0.001 A 
ATOM     99  C   UNL A   1      41.090  31.892  30.174  1.00  0.00     0.001 A 
ATOM    100  C   UNL A   1      41.286  33.260  30.313  1.00  0.00     0.000 A 
ENDBRANCH  84  95
ENDBRANCH  78  80
ENDBRANCH  77  78
ENDBRANCH  76  77
ENDBRANCH  75  76
ENDBRANCH  74  75
ENDBRANCH  73  74
ENDBRANCH  72  73
ENDBRANCH  71  72
ENDBRANCH   1  71
TORSDOF 24
ENDMDL
MODEL 3
REMARK VINA RESULT:      -8.2      6.186      9.968
REMARK SMILES O=C(OCCOCCOCCOCCOC(=O)[C@H]1CC2=c3ccccc3=N[C@H]2[C@@H](c2ccccc2)[NH2+]1)c1ccc(-c2c3nc(c(-c4ccc(S(=O)(=O)[O-])cc4)c4ccc([nH]4)c(-c4ccc(S(=O)(=O)[O-])cc4)c4nc(c(-c5ccc(S(=O)(=O)[O-])cc5)c5ccc2[nH]5)C=C4)C=C3)cc1
REMARK SMILES IDX 8 1 7 2 6 3 5 4 4 5 3 6 2 7 1 8 37 9 38 10 96 11 39 12 95 13
REMARK SMILES IDX 40 14 41 15 42 16 89 17 43 18 94 19 88 20 90 21 44 22 93 23
REMARK SMILES IDX 87 24 86 25 45 27 75 28 56 29 74 30 57 31 60 32 73 33 91 34
REMARK SMILES IDX 58 35 59 36 72 38 92 39 61 40 46 41 47 42 55 43 48 44 54 45
REMARK SMILES IDX 49 46 50 47 51 48 52 49 53 50 76 51 77 52 85 53 78 54 84 55
REMARK SMILES IDX 79 56 80 57 81 58 82 59 83 60 62 61 63 62 71 63 64 64 70 65
REMARK SMILES IDX 65 66 66 67 67 68 68 69 69 70 9 71 10 72 11 73 12 74 13 75
REMARK SMILES IDX 14 76 15 77 16 78 17 79 18 80 19 81 36 82 20 83 29 84 21 87
REMARK SMILES IDX 28 88 22 89 26 90 27 91 23 92 25 93 24 94 30 95 31 96 35 97
REMARK SMILES IDX 32 98 34 99 33 100
REMARK H PARENT 90 26 60 37 36 85 36 86
REMARK Flexibility Score: inf
ROOT
ATOM      1  C   UNL A   1      50.749  24.750  32.090  1.00  0.00     0.188 C 
ENDROOT
BRANCH   1   2
ATOM      2  C   UNL A   1      51.131  23.471  32.825  1.00  0.00     0.188 C 
BRANCH   2   3
ATOM      3  O   UNL A   1      50.085  22.516  32.953  1.00  0.00    -0.376 OA
BRANCH   3   4
ATOM      4  C   UNL A   1      50.024  21.804  34.177  1.00  0.00     0.202 C 
BRANCH   4   5
ATOM      5  C   UNL A   1      48.646  21.186  34.355  1.00  0.00     0.261 C 
BRANCH   5   6
ATOM      6  O   UNL A   1      47.719  22.113  34.954  1.00  0.00    -0.460 OA
BRANCH   6   7
ATOM      7  C   UNL A   1      46.464  22.480  34.610  1.00  0.00     0.338 C 
ATOM      8  O   UNL A   1      45.608  21.592  34.627  1.00  0.00    -0.246 OA
BRANCH   7   9
ATOM      9  C   UNL A   1      46.019  23.854  34.181  1.00  0.00     0.060 A 
ATOM     10  C   UNL A   1      46.665  24.936  34.815  1.00  0.00     0.016 A 
ATOM     11  C   UNL A   1      45.041  24.167  33.232  1.00  0.00     0.016 A 
ATOM     12  C   UNL A   1      46.346  26.264  34.511  1.00  0.00     0.010 A 
ATOM     13  C   UNL A   1      44.692  25.492  32.943  1.00  0.00     0.010 A 
ATOM     14  C   UNL A   1      45.361  26.549  33.561  1.00  0.00    -0.014 A 
BRANCH  14  15
ATOM     15  C   UNL A   1      45.212  27.918  33.027  1.00  0.00     0.031 A 
ATOM     16  C   UNL A   1      46.003  28.411  31.857  1.00  0.00     0.074 A 
ATOM     17  C   UNL A   1      44.342  28.720  33.670  1.00  0.00     0.049 A 
ATOM     18  N   UNL A   1      45.868  29.534  31.204  1.00  0.00    -0.248 NA
ATOM     19  C   UNL A   1      47.084  27.546  31.356  1.00  0.00     0.031 C 
ATOM     20  C   UNL A   1      43.568  28.326  34.852  1.00  0.00     0.029 A 
ATOM     21  N   UNL A   1      43.945  30.008  33.427  1.00  0.00    -0.354 N 
ATOM     22  C   UNL A   1      46.824  29.508  30.196  1.00  0.00     0.074 A 
ATOM     23  C   UNL A   1      47.564  28.274  30.351  1.00  0.00     0.031 C 
ATOM     24  C   UNL A   1      42.762  29.334  35.207  1.00  0.00     0.029 A 
ATOM     25  C   UNL A   1      42.969  30.450  34.291  1.00  0.00     0.049 A 
ATOM     26  H   UNL A   1      44.319  30.563  32.705  1.00  0.00     0.167 HD
ATOM     27  C   UNL A   1      47.038  30.434  29.231  1.00  0.00     0.031 A 
ATOM     28  C   UNL A   1      42.288  31.611  34.323  1.00  0.00     0.031 A 
ATOM     29  C   UNL A   1      46.293  31.669  29.132  1.00  0.00     0.049 A 
ATOM     30  C   UNL A   1      42.540  32.612  33.234  1.00  0.00     0.074 A 
ATOM     31  C   UNL A   1      46.391  32.655  28.166  1.00  0.00     0.029 A 
ATOM     32  N   UNL A   1      45.320  32.089  30.031  1.00  0.00    -0.354 N 
ATOM     33  N   UNL A   1      43.375  32.531  32.224  1.00  0.00    -0.248 NA
ATOM     34  C   UNL A   1      41.741  33.842  33.260  1.00  0.00     0.031 C 
ATOM     35  C   UNL A   1      45.539  33.702  28.521  1.00  0.00     0.029 A 
ATOM     36  C   UNL A   1      44.836  33.332  29.657  1.00  0.00     0.049 A 
ATOM     37  H   UNL A   1      45.020  31.579  30.818  1.00  0.00     0.167 HD
ATOM     38  C   UNL A   1      43.174  33.680  31.473  1.00  0.00     0.074 A 
ATOM     39  C   UNL A   1      42.131  34.435  32.140  1.00  0.00     0.031 C 
ATOM     40  C   UNL A   1      43.793  34.069  30.332  1.00  0.00     0.031 A 
BRANCH  27  41
ATOM     41  C   UNL A   1      48.086  30.173  28.175  1.00  0.00    -0.014 A 
ATOM     42  C   UNL A   1      47.824  29.265  27.131  1.00  0.00     0.010 A 
ATOM     43  C   UNL A   1      49.392  30.675  28.324  1.00  0.00     0.010 A 
ATOM     44  C   UNL A   1      48.854  28.820  26.294  1.00  0.00     0.020 A 
ATOM     45  C   UNL A   1      50.419  30.256  27.469  1.00  0.00     0.020 A 
ATOM     46  C   UNL A   1      50.150  29.307  26.481  1.00  0.00     0.054 A 
BRANCH  46  47
ATOM     47  S   UNL A   1      51.488  28.657  25.441  1.00  0.00     0.124 S 
ATOM     48  O   UNL A   1      51.266  27.216  25.516  1.00  0.00    -0.237 OA
ATOM     49  O   UNL A   1      51.211  29.272  24.145  1.00  0.00    -0.237 OA
ATOM     50  O   UNL A   1      52.700  29.138  26.101  1.00  0.00    -0.744 OA
ENDBRANCH  46  47
ENDBRANCH  27  41
BRANCH  28  51
ATOM     51  C   UNL A   1      41.235  31.803  35.358  1.00  0.00    -0.014 A 
ATOM     52  C   UNL A   1      39.955  31.245  35.191  1.00  0.00     0.010 A 
ATOM     53  C   UNL A   1      41.474  32.644  36.460  1.00  0.00     0.010 A 
ATOM     54  C   UNL A   1      38.919  31.565  36.073  1.00  0.00     0.020 A 
ATOM     55  C   UNL A   1      40.448  32.940  37.364  1.00  0.00     0.020 A 
ATOM     56  C   UNL A   1      39.170  32.421  37.147  1.00  0.00     0.054 A 
BRANCH  56  57
ATOM     57  S   UNL A   1      37.798  32.863  38.250  1.00  0.00     0.124 S 
ATOM     58  O   UNL A   1      36.680  32.950  37.315  1.00  0.00    -0.237 OA
ATOM     59  O   UNL A   1      37.757  31.734  39.174  1.00  0.00    -0.237 OA
ATOM     60  O   UNL A   1      38.224  34.130  38.836  1.00  0.00    -0.744 OA
ENDBRANCH  56  57
ENDBRANCH  28  51
BRANCH  40  61
ATOM     61  C   UNL A   1      43.356  35.367  29.702  1.00  0.00    -0.014 A 
ATOM     62  C   UNL A   1      42.300  35.362  28.771  1.00  0.00     0.010 A 
ATOM     63  C   UNL A   1      44.056  36.563  29.937  1.00  0.00     0.010 A 
ATOM     64  C   UNL A   1      41.973  36.520  28.062  1.00  0.00     0.020 A 
ATOM     65  C   UNL A   1      43.708  37.733  29.256  1.00  0.00     0.020 A 
ATOM     66  C   UNL A   1      42.684  37.696  28.305  1.00  0.00     0.054 A 
BRANCH  66  67
ATOM     67  S   UNL A   1      42.258  39.185  27.361  1.00  0.00     0.124 S 
ATOM     68  O   UNL A   1      41.694  40.051  28.393  1.00  0.00    -0.237 OA
ATOM     69  O   UNL A   1      43.549  39.605  26.822  1.00  0.00    -0.237 OA
ATOM     70  O   UNL A   1      41.305  38.698  26.365  1.00  0.00    -0.744 OA
ENDBRANCH  66  67
ENDBRANCH  40  61
ENDBRANCH  14  15
ENDBRANCH   7   9
ENDBRANCH   6   7
ENDBRANCH   5   6
ENDBRANCH   4   5
ENDBRANCH   3   4
ENDBRANCH   2   3
ENDBRANCH   1   2
BRANCH   1  71
ATOM     71  O   UNL A   1      50.744  24.721  30.670  1.00  0.00    -0.377 OA
BRANCH  71  72
ATOM     72  C   UNL A   1      49.654  25.274  29.938  1.00  0.00     0.188 C 
BRANCH  72  73
ATOM     73  C   UNL A   1      49.932  25.915  28.578  1.00  0.00     0.188 C 
BRANCH  73  74
ATOM     74  O   UNL A   1      49.625  25.089  27.467  1.00  0.00    -0.376 OA
BRANCH  74  75
ATOM     75  C   UNL A   1      48.264  24.908  27.069  1.00  0.00     0.202 C 
BRANCH  75  76
ATOM     76  C   UNL A   1      47.806  25.309  25.654  1.00  0.00     0.261 C 
BRANCH  76  77
ATOM     77  O   UNL A   1      46.368  25.358  25.583  1.00  0.00    -0.459 OA
BRANCH  77  78
ATOM     78  C   UNL A   1      45.818  26.595  25.403  1.00  0.00     0.365 C 
ATOM     79  O   UNL A   1      45.992  27.298  24.411  1.00  0.00    -0.245 OA
BRANCH  78  80
ATOM     80  C   UNL A   1      44.746  26.857  26.475  1.00  0.00     0.298 C 
ATOM     81  C   UNL A   1      43.331  27.295  25.996  1.00  0.00     0.111 C 
ATOM     82  N   UNL A   1      44.805  25.720  27.459  1.00  0.00    -0.326 N 
ATOM     83  C   UNL A   1      42.490  27.586  27.225  1.00  0.00    -0.024 C 
ATOM     84  C   UNL A   1      43.527  25.515  28.219  1.00  0.00     0.243 C 
ATOM     85  H   UNL A   1      45.551  25.911  28.128  1.00  0.00     0.347 HD
ATOM     86  H   UNL A   1      44.974  24.868  26.923  1.00  0.00     0.347 HD
ATOM     87  C   UNL A   1      41.333  28.190  27.488  1.00  0.00     0.002 A 
ATOM     88  C   UNL A   1      43.019  26.962  28.492  1.00  0.00     0.196 C 
ATOM     89  C   UNL A   1      40.244  28.762  26.761  1.00  0.00     0.010 A 
ATOM     90  C   UNL A   1      41.231  28.045  28.963  1.00  0.00     0.066 A 
ATOM     91  N   UNL A   1      42.008  27.185  29.551  1.00  0.00    -0.270 NA
ATOM     92  C   UNL A   1      39.274  29.392  27.451  1.00  0.00     0.001 A 
ATOM     93  C   UNL A   1      40.265  28.935  29.642  1.00  0.00     0.028 A 
ATOM     94  C   UNL A   1      39.379  29.603  28.887  1.00  0.00     0.002 A 
BRANCH  84  95
ATOM     95  C   UNL A   1      42.674  24.470  27.466  1.00  0.00     0.012 A 
ATOM     96  C   UNL A   1      43.132  23.672  26.410  1.00  0.00     0.010 A 
ATOM     97  C   UNL A   1      41.352  24.237  27.912  1.00  0.00     0.010 A 
ATOM     98  C   UNL A   1      42.369  22.597  25.930  1.00  0.00     0.001 A 
ATOM     99  C   UNL A   1      40.591  23.166  27.440  1.00  0.00     0.001 A 
ATOM    100  C   UNL A   1      41.112  22.327  26.463  1.00  0.00     0.000 A 
ENDBRANCH  84  95
ENDBRANCH  78  80
ENDBRANCH  77  78
ENDBRANCH  76  77
ENDBRANCH  75  76
ENDBRANCH  74  75
ENDBRANCH  73  74
ENDBRANCH  72  73
ENDBRANCH  71  72
ENDBRANCH   1  71
TORSDOF 24
ENDMDL
