MODEL 1
REMARK VINA RESULT:      -7.8      0.000      0.000
REMARK SMILES CCCCCCNC(=O)Oc1cccc(-c2ccc([C@@H](C)C(=O)OCCOCCOCCOCCOC(=O)c3ccc(-c4c5nc(c(-c6ccc(S(=O)(=O)[O-])cc6)c6ccc([nH]6)c(-c6ccc(S(=O)(=O)[O-])cc6)c6nc(c(-c7ccc(S(=O)(=O)[O-])cc7)c7ccc4[nH]7)C=C6)C=C5)cc3)cc2F)c1
REMARK SMILES IDX 27 1 26 2 25 3 24 4 22 5 23 6 20 7 21 8 19 9 16 10 17 11
REMARK SMILES IDX 100 12 18 13 99 14 101 15 15 16 11 17 12 18 102 19 13 20
REMARK SMILES IDX 14 21 10 22 8 23 7 24 9 26 6 27 5 28 4 29 3 30 2 31 1 32
REMARK SMILES IDX 28 33 29 34 30 35 31 36 32 37 33 38 34 39 35 40 36 41 37 42
REMARK SMILES IDX 38 43 39 44 40 45 98 46 41 47 97 48 42 49 43 50 44 51 91 52
REMARK SMILES IDX 45 53 96 54 90 55 92 56 46 57 95 58 89 59 88 60 47 62 77 63
REMARK SMILES IDX 58 64 76 65 59 66 62 67 75 68 93 69 60 70 61 71 74 73 94 74
REMARK SMILES IDX 63 75 48 76 49 77 57 78 50 79 56 80 51 81 52 82 53 83 54 84
REMARK SMILES IDX 55 85 78 86 79 87 87 88 80 89 86 90 81 91 82 92 83 93 84 94
REMARK SMILES IDX 85 95 64 96 65 97 73 98 66 99 72 100 67 101 68 102 69 103
REMARK SMILES IDX 70 104 71 105
REMARK H PARENT 7 25 92 61 62 72
REMARK Flexibility Score: inf
ROOT
ATOM      1  O   UNL A   1      37.707  22.360  25.828  1.00  0.00    -0.376 OA
ENDROOT
BRANCH   1   2
ATOM      2  C   UNL A   1      36.520  22.126  25.085  1.00  0.00     0.202 C 
BRANCH   2   3
ATOM      3  C   UNL A   1      35.974  20.698  24.889  1.00  0.00     0.261 C 
BRANCH   3   4
ATOM      4  O   UNL A   1      34.665  20.418  25.428  1.00  0.00    -0.463 OA
BRANCH   4   5
ATOM      5  C   UNL A   1      33.915  19.523  24.746  1.00  0.00     0.313 C 
ATOM      6  O   UNL A   1      34.284  18.375  24.501  1.00  0.00    -0.252 OA
BRANCH   5   7
ATOM      7  C   UNL A   1      32.555  20.022  24.258  1.00  0.00     0.126 C 
ATOM      8  C   UNL A   1      32.236  19.338  22.934  1.00  0.00     0.025 C 
BRANCH   7   9
ATOM      9  C   UNL A   1      32.221  21.513  24.204  1.00  0.00    -0.031 A 
ATOM     10  C   UNL A   1      31.683  24.330  23.994  1.00  0.00     0.018 A 
ATOM     11  C   UNL A   1      31.196  23.560  25.066  1.00  0.00     0.012 A 
ATOM     12  C   UNL A   1      32.429  23.653  23.025  1.00  0.00     0.131 A 
ATOM     13  C   UNL A   1      31.461  22.178  25.173  1.00  0.00     0.005 A 
ATOM     14  C   UNL A   1      32.706  22.283  23.128  1.00  0.00     0.044 A 
ATOM     15  F   UNL A   1      32.925  24.313  21.966  1.00  0.00    -0.206 F 
BRANCH  10  16
ATOM     16  C   UNL A   1      31.477  25.794  23.933  1.00  0.00    -0.012 A 
ATOM     17  C   UNL A   1      32.181  28.088  24.354  1.00  0.00     0.133 A 
ATOM     18  C   UNL A   1      30.962  28.580  23.891  1.00  0.00     0.047 A 
ATOM     19  C   UNL A   1      32.441  26.713  24.392  1.00  0.00     0.056 A 
ATOM     20  C   UNL A   1      30.000  27.687  23.433  1.00  0.00     0.004 A 
ATOM     21  C   UNL A   1      30.256  26.311  23.453  1.00  0.00     0.009 A 
BRANCH  17  22
ATOM     22  O   UNL A   1      33.071  29.033  24.899  1.00  0.00    -0.410 OA
BRANCH  22  23
ATOM     23  C   UNL A   1      32.585  29.903  25.864  1.00  0.00     0.412 C 
ATOM     24  N   UNL A   1      33.453  30.102  26.904  1.00  0.00    -0.321 N 
ATOM     25  H   UNL A   1      33.160  30.732  27.601  1.00  0.00     0.167 HD
ATOM     26  O   UNL A   1      31.494  30.462  25.844  1.00  0.00    -0.224 OA
BRANCH  24  27
ATOM     27  C   UNL A   1      34.754  29.490  27.098  1.00  0.00     0.119 C 
BRANCH  27  28
ATOM     28  C   UNL A   1      35.568  30.197  28.183  1.00  0.00     0.021 C 
BRANCH  28  29
ATOM     29  C   UNL A   1      35.344  31.712  28.279  1.00  0.00     0.002 C 
BRANCH  29  30
ATOM     30  C   UNL A   1      36.214  32.449  29.304  1.00  0.00    -0.000 C 
BRANCH  30  31
ATOM     31  C   UNL A   1      37.689  32.606  28.926  1.00  0.00    -0.003 C 
ATOM     32  C   UNL A   1      38.247  33.990  29.228  1.00  0.00     0.004 C 
ENDBRANCH  30  31
ENDBRANCH  29  30
ENDBRANCH  28  29
ENDBRANCH  27  28
ENDBRANCH  24  27
ENDBRANCH  22  23
ENDBRANCH  17  22
ENDBRANCH  10  16
ENDBRANCH   7   9
ENDBRANCH   5   7
ENDBRANCH   4   5
ENDBRANCH   3   4
ENDBRANCH   2   3
ENDBRANCH   1   2
BRANCH   1  33
ATOM     33  C   UNL A   1      38.795  21.446  25.768  1.00  0.00     0.188 C 
BRANCH  33  34
ATOM     34  C   UNL A   1      40.211  21.857  26.196  1.00  0.00     0.188 C 
BRANCH  34  35
ATOM     35  O   UNL A   1      40.524  21.616  27.550  1.00  0.00    -0.377 OA
BRANCH  35  36
ATOM     36  C   UNL A   1      41.516  22.447  28.131  1.00  0.00     0.188 C 
BRANCH  36  37
ATOM     37  C   UNL A   1      42.723  22.815  27.248  1.00  0.00     0.188 C 
BRANCH  37  38
ATOM     38  O   UNL A   1      42.768  24.188  26.870  1.00  0.00    -0.376 OA
BRANCH  38  39
ATOM     39  C   UNL A   1      42.861  24.507  25.487  1.00  0.00     0.202 C 
BRANCH  39  40
ATOM     40  C   UNL A   1      44.221  24.336  24.787  1.00  0.00     0.261 C 
BRANCH  40  41
ATOM     41  O   UNL A   1      45.125  25.445  24.860  1.00  0.00    -0.460 OA
BRANCH  41  42
ATOM     42  C   UNL A   1      45.981  25.508  25.902  1.00  0.00     0.338 C 
ATOM     43  O   UNL A   1      46.937  24.794  26.110  1.00  0.00    -0.246 OA
BRANCH  42  44
ATOM     44  C   UNL A   1      45.689  26.764  26.634  1.00  0.00     0.060 A 
ATOM     45  C   UNL A   1      44.947  27.763  25.989  1.00  0.00     0.016 A 
ATOM     46  C   UNL A   1      46.136  26.953  27.943  1.00  0.00     0.016 A 
ATOM     47  C   UNL A   1      44.686  28.972  26.635  1.00  0.00     0.010 A 
ATOM     48  C   UNL A   1      45.897  28.175  28.580  1.00  0.00     0.010 A 
ATOM     49  C   UNL A   1      45.204  29.204  27.916  1.00  0.00    -0.014 A 
BRANCH  49  50
ATOM     50  C   UNL A   1      45.205  30.583  28.468  1.00  0.00     0.031 A 
ATOM     51  C   UNL A   1      46.318  31.511  28.058  1.00  0.00     0.074 A 
ATOM     52  C   UNL A   1      44.233  31.018  29.289  1.00  0.00     0.049 A 
ATOM     53  N   UNL A   1      46.558  32.739  28.437  1.00  0.00    -0.248 NA
ATOM     54  C   UNL A   1      47.290  30.980  27.087  1.00  0.00     0.031 C 
ATOM     55  C   UNL A   1      43.069  30.242  29.714  1.00  0.00     0.029 A 
ATOM     56  N   UNL A   1      44.076  32.230  29.918  1.00  0.00    -0.354 N 
ATOM     57  C   UNL A   1      47.713  33.123  27.764  1.00  0.00     0.074 A 
ATOM     58  C   UNL A   1      48.140  31.989  26.973  1.00  0.00     0.031 C 
ATOM     59  C   UNL A   1      42.323  30.994  30.543  1.00  0.00     0.029 A 
ATOM     60  C   UNL A   1      42.974  32.289  30.738  1.00  0.00     0.049 A 
ATOM     61  H   UNL A   1      44.694  32.985  29.793  1.00  0.00     0.167 HD
ATOM     62  C   UNL A   1      48.360  34.312  27.797  1.00  0.00     0.031 A 
ATOM     63  C   UNL A   1      42.555  33.265  31.569  1.00  0.00     0.031 A 
ATOM     64  C   UNL A   1      47.945  35.432  28.599  1.00  0.00     0.049 A 
ATOM     65  C   UNL A   1      43.342  34.548  31.661  1.00  0.00     0.074 A 
ATOM     66  C   UNL A   1      48.529  36.682  28.696  1.00  0.00     0.029 A 
ATOM     67  N   UNL A   1      46.850  35.434  29.450  1.00  0.00    -0.354 N 
ATOM     68  N   UNL A   1      44.421  34.904  31.003  1.00  0.00    -0.248 NA
ATOM     69  C   UNL A   1      42.849  35.567  32.600  1.00  0.00     0.031 C 
ATOM     70  C   UNL A   1      47.827  37.417  29.656  1.00  0.00     0.029 A 
ATOM     71  C   UNL A   1      46.759  36.653  30.100  1.00  0.00     0.049 A 
ATOM     72  H   UNL A   1      46.228  34.680  29.573  1.00  0.00     0.167 HD
ATOM     73  C   UNL A   1      44.716  36.198  31.426  1.00  0.00     0.074 A 
ATOM     74  C   UNL A   1      43.694  36.566  32.385  1.00  0.00     0.031 C 
ATOM     75  C   UNL A   1      45.737  37.009  31.052  1.00  0.00     0.031 A 
BRANCH  62  76
ATOM     76  C   UNL A   1      49.614  34.445  26.972  1.00  0.00    -0.014 A 
ATOM     77  C   UNL A   1      50.886  34.212  27.527  1.00  0.00     0.010 A 
ATOM     78  C   UNL A   1      49.515  34.779  25.609  1.00  0.00     0.010 A 
ATOM     79  C   UNL A   1      52.035  34.345  26.744  1.00  0.00     0.020 A 
ATOM     80  C   UNL A   1      50.660  34.883  24.814  1.00  0.00     0.020 A 
ATOM     81  C   UNL A   1      51.915  34.681  25.391  1.00  0.00     0.054 A 
BRANCH  81  82
ATOM     82  S   UNL A   1      53.422  34.824  24.393  1.00  0.00     0.124 S 
ATOM     83  O   UNL A   1      54.231  35.737  25.197  1.00  0.00    -0.237 OA
ATOM     84  O   UNL A   1      53.900  33.444  24.339  1.00  0.00    -0.237 OA
ATOM     85  O   UNL A   1      52.949  35.368  23.123  1.00  0.00    -0.744 OA
ENDBRANCH  81  82
ENDBRANCH  62  76
BRANCH  63  86
ATOM     86  C   UNL A   1      41.337  33.061  32.407  1.00  0.00    -0.014 A 
ATOM     87  C   UNL A   1      40.099  33.603  32.024  1.00  0.00     0.010 A 
ATOM     88  C   UNL A   1      41.418  32.328  33.606  1.00  0.00     0.010 A 
ATOM     89  C   UNL A   1      38.968  33.430  32.830  1.00  0.00     0.020 A 
ATOM     90  C   UNL A   1      40.284  32.126  34.398  1.00  0.00     0.020 A 
ATOM     91  C   UNL A   1      39.067  32.687  34.009  1.00  0.00     0.054 A 
BRANCH  91  92
ATOM     92  S   UNL A   1      37.575  32.431  35.010  1.00  0.00     0.124 S 
ATOM     93  O   UNL A   1      37.345  33.761  35.562  1.00  0.00    -0.237 OA
ATOM     94  O   UNL A   1      36.605  31.981  34.015  1.00  0.00    -0.237 OA
ATOM     95  O   UNL A   1      37.982  31.413  35.976  1.00  0.00    -0.744 OA
ENDBRANCH  91  92
ENDBRANCH  63  86
BRANCH  75  96
ATOM     96  C   UNL A   1      45.784  38.396  31.641  1.00  0.00    -0.014 A 
ATOM     97  C   UNL A   1      45.417  39.528  30.891  1.00  0.00     0.010 A 
ATOM     98  C   UNL A   1      46.141  38.560  32.993  1.00  0.00     0.010 A 
ATOM     99  C   UNL A   1      45.439  40.799  31.474  1.00  0.00     0.020 A 
ATOM    100  C   UNL A   1      46.132  39.825  33.588  1.00  0.00     0.020 A 
ATOM    101  C   UNL A   1      45.794  40.939  32.819  1.00  0.00     0.054 A 
BRANCH 101 102
ATOM    102  S   UNL A   1      45.770  42.595  33.561  1.00  0.00     0.124 S 
ATOM    103  O   UNL A   1      44.859  42.411  34.687  1.00  0.00    -0.237 OA
ATOM    104  O   UNL A   1      47.172  42.806  33.914  1.00  0.00    -0.237 OA
ATOM    105  O   UNL A   1      45.268  43.450  32.487  1.00  0.00    -0.744 OA
ENDBRANCH 101 102
ENDBRANCH  75  96
ENDBRANCH  49  50
ENDBRANCH  42  44
ENDBRANCH  41  42
ENDBRANCH  40  41
ENDBRANCH  39  40
ENDBRANCH  38  39
ENDBRANCH  37  38
ENDBRANCH  36  37
ENDBRANCH  35  36
ENDBRANCH  34  35
ENDBRANCH  33  34
ENDBRANCH   1  33
TORSDOF 32
ENDMDL
MODEL 2
REMARK VINA RESULT:      -7.7      5.823      7.954
REMARK SMILES CCCCCCNC(=O)Oc1cccc(-c2ccc([C@@H](C)C(=O)OCCOCCOCCOCCOC(=O)c3ccc(-c4c5nc(c(-c6ccc(S(=O)(=O)[O-])cc6)c6ccc([nH]6)c(-c6ccc(S(=O)(=O)[O-])cc6)c6nc(c(-c7ccc(S(=O)(=O)[O-])cc7)c7ccc4[nH]7)C=C6)C=C5)cc3)cc2F)c1
REMARK SMILES IDX 27 1 26 2 25 3 24 4 22 5 23 6 20 7 21 8 19 9 16 10 17 11
REMARK SMILES IDX 100 12 18 13 99 14 101 15 15 16 11 17 12 18 102 19 13 20
REMARK SMILES IDX 14 21 10 22 8 23 7 24 9 26 6 27 5 28 4 29 3 30 2 31 1 32
REMARK SMILES IDX 28 33 29 34 30 35 31 36 32 37 33 38 34 39 35 40 36 41 37 42
REMARK SMILES IDX 38 43 39 44 40 45 98 46 41 47 97 48 42 49 43 50 44 51 91 52
REMARK SMILES IDX 45 53 96 54 90 55 92 56 46 57 95 58 89 59 88 60 47 62 77 63
REMARK SMILES IDX 58 64 76 65 59 66 62 67 75 68 93 69 60 70 61 71 74 73 94 74
REMARK SMILES IDX 63 75 48 76 49 77 57 78 50 79 56 80 51 81 52 82 53 83 54 84
REMARK SMILES IDX 55 85 78 86 79 87 87 88 80 89 86 90 81 91 82 92 83 93 84 94
REMARK SMILES IDX 85 95 64 96 65 97 73 98 66 99 72 100 67 101 68 102 69 103
REMARK SMILES IDX 70 104 71 105
REMARK H PARENT 7 25 92 61 62 72
REMARK Flexibility Score: inf
ROOT
ATOM      1  O   UNL A   1      35.487  22.120  24.217  1.00  0.00    -0.376 OA
ENDROOT
BRANCH   1   2
ATOM      2  C   UNL A   1      34.510  21.362  24.916  1.00  0.00     0.202 C 
BRANCH   2   3
ATOM      3  C   UNL A   1      33.293  22.045  25.569  1.00  0.00     0.261 C 
BRANCH   3   4
ATOM      4  O   UNL A   1      32.133  22.252  24.736  1.00  0.00    -0.463 OA
BRANCH   4   5
ATOM      5  C   UNL A   1      31.095  22.905  25.305  1.00  0.00     0.313 C 
ATOM      6  O   UNL A   1      30.347  22.396  26.140  1.00  0.00    -0.252 OA
BRANCH   5   7
ATOM      7  C   UNL A   1      30.868  24.341  24.835  1.00  0.00     0.126 C 
ATOM      8  C   UNL A   1      30.873  24.357  23.311  1.00  0.00     0.025 C 
BRANCH   7   9
ATOM      9  C   UNL A   1      31.678  25.508  25.402  1.00  0.00    -0.031 A 
ATOM     10  C   UNL A   1      33.081  27.753  26.527  1.00  0.00     0.018 A 
ATOM     11  C   UNL A   1      33.695  26.876  25.613  1.00  0.00     0.012 A 
ATOM     12  C   UNL A   1      31.757  27.468  26.874  1.00  0.00     0.131 A 
ATOM     13  C   UNL A   1      33.008  25.775  25.057  1.00  0.00     0.005 A 
ATOM     14  C   UNL A   1      31.063  26.384  26.319  1.00  0.00     0.044 A 
ATOM     15  F   UNL A   1      31.099  28.252  27.744  1.00  0.00    -0.206 F 
BRANCH  10  16
ATOM     16  C   UNL A   1      33.777  28.954  27.037  1.00  0.00    -0.012 A 
ATOM     17  C   UNL A   1      35.672  30.057  28.098  1.00  0.00     0.133 A 
ATOM     18  C   UNL A   1      35.001  31.278  28.099  1.00  0.00     0.047 A 
ATOM     19  C   UNL A   1      35.073  28.900  27.587  1.00  0.00     0.056 A 
ATOM     20  C   UNL A   1      33.722  31.350  27.557  1.00  0.00     0.004 A 
ATOM     21  C   UNL A   1      33.120  30.201  27.031  1.00  0.00     0.009 A 
BRANCH  17  22
ATOM     22  O   UNL A   1      36.919  30.029  28.751  1.00  0.00    -0.410 OA
BRANCH  22  23
ATOM     23  C   UNL A   1      36.927  30.049  30.138  1.00  0.00     0.412 C 
ATOM     24  N   UNL A   1      37.840  30.923  30.665  1.00  0.00    -0.321 N 
ATOM     25  H   UNL A   1      37.863  30.988  31.647  1.00  0.00     0.167 HD
ATOM     26  O   UNL A   1      36.216  29.371  30.870  1.00  0.00    -0.224 OA
BRANCH  24  27
ATOM     27  C   UNL A   1      38.777  31.762  29.943  1.00  0.00     0.119 C 
BRANCH  27  28
ATOM     28  C   UNL A   1      38.181  33.128  29.598  1.00  0.00     0.021 C 
BRANCH  28  29
ATOM     29  C   UNL A   1      38.854  34.322  30.288  1.00  0.00     0.002 C 
BRANCH  29  30
ATOM     30  C   UNL A   1      40.009  34.972  29.516  1.00  0.00    -0.000 C 
BRANCH  30  31
ATOM     31  C   UNL A   1      41.381  34.323  29.712  1.00  0.00    -0.003 C 
ATOM     32  C   UNL A   1      41.931  34.485  31.122  1.00  0.00     0.004 C 
ENDBRANCH  30  31
ENDBRANCH  29  30
ENDBRANCH  28  29
ENDBRANCH  27  28
ENDBRANCH  24  27
ENDBRANCH  22  23
ENDBRANCH  17  22
ENDBRANCH  10  16
ENDBRANCH   7   9
ENDBRANCH   5   7
ENDBRANCH   4   5
ENDBRANCH   3   4
ENDBRANCH   2   3
ENDBRANCH   1   2
BRANCH   1  33
ATOM     33  C   UNL A   1      36.256  23.111  24.888  1.00  0.00     0.188 C 
BRANCH  33  34
ATOM     34  C   UNL A   1      37.656  22.801  25.438  1.00  0.00     0.188 C 
BRANCH  34  35
ATOM     35  O   UNL A   1      37.785  21.556  26.088  1.00  0.00    -0.377 OA
BRANCH  35  36
ATOM     36  C   UNL A   1      38.646  20.607  25.479  1.00  0.00     0.188 C 
BRANCH  36  37
ATOM     37  C   UNL A   1      40.084  20.520  26.023  1.00  0.00     0.188 C 
BRANCH  37  38
ATOM     38  O   UNL A   1      40.246  21.070  27.327  1.00  0.00    -0.376 OA
BRANCH  38  39
ATOM     39  C   UNL A   1      41.098  22.198  27.485  1.00  0.00     0.202 C 
BRANCH  39  40
ATOM     40  C   UNL A   1      42.615  21.996  27.324  1.00  0.00     0.261 C 
BRANCH  40  41
ATOM     41  O   UNL A   1      43.371  23.132  26.886  1.00  0.00    -0.460 OA
BRANCH  41  42
ATOM     42  C   UNL A   1      44.593  23.336  27.424  1.00  0.00     0.338 C 
ATOM     43  O   UNL A   1      45.664  23.025  26.952  1.00  0.00    -0.246 OA
BRANCH  42  44
ATOM     44  C   UNL A   1      44.412  24.227  28.596  1.00  0.00     0.060 A 
ATOM     45  C   UNL A   1      44.773  25.576  28.478  1.00  0.00     0.016 A 
ATOM     46  C   UNL A   1      43.886  23.740  29.794  1.00  0.00     0.016 A 
ATOM     47  C   UNL A   1      44.651  26.433  29.572  1.00  0.00     0.010 A 
ATOM     48  C   UNL A   1      43.789  24.594  30.899  1.00  0.00     0.010 A 
ATOM     49  C   UNL A   1      44.206  25.934  30.804  1.00  0.00    -0.014 A 
BRANCH  49  50
ATOM     50  C   UNL A   1      44.378  26.751  32.032  1.00  0.00     0.031 A 
ATOM     51  C   UNL A   1      45.591  26.498  32.889  1.00  0.00     0.074 A 
ATOM     52  C   UNL A   1      43.502  27.714  32.371  1.00  0.00     0.049 A 
ATOM     53  N   UNL A   1      45.936  27.049  34.024  1.00  0.00    -0.248 NA
ATOM     54  C   UNL A   1      46.542  25.488  32.396  1.00  0.00     0.031 C 
ATOM     55  C   UNL A   1      42.322  28.100  31.599  1.00  0.00     0.029 A 
ATOM     56  N   UNL A   1      43.472  28.543  33.467  1.00  0.00    -0.354 N 
ATOM     57  C   UNL A   1      47.134  26.444  34.387  1.00  0.00     0.074 A 
ATOM     58  C   UNL A   1      47.443  25.467  33.366  1.00  0.00     0.031 C 
ATOM     59  C   UNL A   1      41.678  29.084  32.250  1.00  0.00     0.029 A 
ATOM     60  C   UNL A   1      42.375  29.371  33.504  1.00  0.00     0.049 A 
ATOM     61  H   UNL A   1      44.170  28.544  34.160  1.00  0.00     0.167 HD
ATOM     62  C   UNL A   1      47.911  26.681  35.470  1.00  0.00     0.031 A 
ATOM     63  C   UNL A   1      41.969  30.241  34.451  1.00  0.00     0.031 A 
ATOM     64  C   UNL A   1      47.593  27.640  36.494  1.00  0.00     0.049 A 
ATOM     65  C   UNL A   1      42.802  30.424  35.694  1.00  0.00     0.074 A 
ATOM     66  C   UNL A   1      48.319  27.959  37.628  1.00  0.00     0.029 A 
ATOM     67  N   UNL A   1      46.449  28.426  36.516  1.00  0.00    -0.354 N 
ATOM     68  N   UNL A   1      43.942  29.860  36.015  1.00  0.00    -0.248 NA
ATOM     69  C   UNL A   1      42.297  31.369  36.702  1.00  0.00     0.031 C 
ATOM     70  C   UNL A   1      47.583  28.888  38.369  1.00  0.00     0.029 A 
ATOM     71  C   UNL A   1      46.435  29.206  37.660  1.00  0.00     0.049 A 
ATOM     72  H   UNL A   1      45.752  28.428  35.821  1.00  0.00     0.167 HD
ATOM     73  C   UNL A   1      44.306  30.405  37.244  1.00  0.00     0.074 A 
ATOM     74  C   UNL A   1      43.271  31.353  37.601  1.00  0.00     0.031 C 
ATOM     75  C   UNL A   1      45.400  30.148  38.005  1.00  0.00     0.031 A 
BRANCH  62  76
ATOM     76  C   UNL A   1      49.162  25.855  35.625  1.00  0.00    -0.014 A 
ATOM     77  C   UNL A   1      50.430  26.377  35.309  1.00  0.00     0.010 A 
ATOM     78  C   UNL A   1      49.069  24.545  36.127  1.00  0.00     0.010 A 
ATOM     79  C   UNL A   1      51.576  25.591  35.458  1.00  0.00     0.020 A 
ATOM     80  C   UNL A   1      50.215  23.765  36.307  1.00  0.00     0.020 A 
ATOM     81  C   UNL A   1      51.461  24.288  35.956  1.00  0.00     0.054 A 
BRANCH  81  82
ATOM     82  S   UNL A   1      52.966  23.300  36.161  1.00  0.00     0.124 S 
ATOM     83  O   UNL A   1      52.878  22.902  37.564  1.00  0.00    -0.237 OA
ATOM     84  O   UNL A   1      52.776  22.224  35.191  1.00  0.00    -0.237 OA
ATOM     85  O   UNL A   1      54.044  24.235  35.848  1.00  0.00    -0.744 OA
ENDBRANCH  81  82
ENDBRANCH  62  76
BRANCH  63  86
ATOM     86  C   UNL A   1      40.693  30.994  34.275  1.00  0.00    -0.014 A 
ATOM     87  C   UNL A   1      39.451  30.357  34.440  1.00  0.00     0.010 A 
ATOM     88  C   UNL A   1      40.717  32.358  33.928  1.00  0.00     0.010 A 
ATOM     89  C   UNL A   1      38.259  31.064  34.246  1.00  0.00     0.020 A 
ATOM     90  C   UNL A   1      39.529  33.076  33.765  1.00  0.00     0.020 A 
ATOM     91  C   UNL A   1      38.306  32.421  33.915  1.00  0.00     0.054 A 
BRANCH  91  92
ATOM     92  S   UNL A   1      36.747  33.330  33.723  1.00  0.00     0.124 S 
ATOM     93  O   UNL A   1      36.078  32.569  32.674  1.00  0.00    -0.237 OA
ATOM     94  O   UNL A   1      36.158  33.226  35.056  1.00  0.00    -0.237 OA
ATOM     95  O   UNL A   1      37.179  34.673  33.345  1.00  0.00    -0.744 OA
ENDBRANCH  91  92
ENDBRANCH  63  86
BRANCH  75  96
ATOM     96  C   UNL A   1      45.566  30.932  39.282  1.00  0.00    -0.014 A 
ATOM     97  C   UNL A   1      44.926  30.544  40.473  1.00  0.00     0.010 A 
ATOM     98  C   UNL A   1      46.432  32.042  39.303  1.00  0.00     0.010 A 
ATOM     99  C   UNL A   1      45.124  31.271  41.651  1.00  0.00     0.020 A 
ATOM    100  C   UNL A   1      46.658  32.751  40.486  1.00  0.00     0.020 A 
ATOM    101  C   UNL A   1      45.991  32.369  41.650  1.00  0.00     0.054 A 
BRANCH 101 102
ATOM    102  S   UNL A   1      46.264  33.267  43.203  1.00  0.00     0.124 S 
ATOM    103  O   UNL A   1      44.941  33.826  43.468  1.00  0.00    -0.237 OA
ATOM    104  O   UNL A   1      46.693  32.208  44.113  1.00  0.00    -0.237 OA
ATOM    105  O   UNL A   1      47.296  34.244  42.863  1.00  0.00    -0.744 OA
ENDBRANCH 101 102
ENDBRANCH  75  96
ENDBRANCH  49  50
ENDBRANCH  42  44
ENDBRANCH  41  42
ENDBRANCH  40  41
ENDBRANCH  39  40
ENDBRANCH  38  39
ENDBRANCH  37  38
ENDBRANCH  36  37
ENDBRANCH  35  36
ENDBRANCH  34  35
ENDBRANCH  33  34
ENDBRANCH   1  33
TORSDOF 32
ENDMDL
MODEL 3
REMARK VINA RESULT:      -7.7      4.088      6.819
REMARK SMILES CCCCCCNC(=O)Oc1cccc(-c2ccc([C@@H](C)C(=O)OCCOCCOCCOCCOC(=O)c3ccc(-c4c5nc(c(-c6ccc(S(=O)(=O)[O-])cc6)c6ccc([nH]6)c(-c6ccc(S(=O)(=O)[O-])cc6)c6nc(c(-c7ccc(S(=O)(=O)[O-])cc7)c7ccc4[nH]7)C=C6)C=C5)cc3)cc2F)c1
REMARK SMILES IDX 27 1 26 2 25 3 24 4 22 5 23 6 20 7 21 8 19 9 16 10 17 11
REMARK SMILES IDX 100 12 18 13 99 14 101 15 15 16 11 17 12 18 102 19 13 20
REMARK SMILES IDX 14 21 10 22 8 23 7 24 9 26 6 27 5 28 4 29 3 30 2 31 1 32
REMARK SMILES IDX 28 33 29 34 30 35 31 36 32 37 33 38 34 39 35 40 36 41 37 42
REMARK SMILES IDX 38 43 39 44 40 45 98 46 41 47 97 48 42 49 43 50 44 51 91 52
REMARK SMILES IDX 45 53 96 54 90 55 92 56 46 57 95 58 89 59 88 60 47 62 77 63
REMARK SMILES IDX 58 64 76 65 59 66 62 67 75 68 93 69 60 70 61 71 74 73 94 74
REMARK SMILES IDX 63 75 48 76 49 77 57 78 50 79 56 80 51 81 52 82 53 83 54 84
REMARK SMILES IDX 55 85 78 86 79 87 87 88 80 89 86 90 81 91 82 92 83 93 84 94
REMARK SMILES IDX 85 95 64 96 65 97 73 98 66 99 72 100 67 101 68 102 69 103
REMARK SMILES IDX 70 104 71 105
REMARK H PARENT 7 25 92 61 62 72
REMARK Flexibility Score: inf
ROOT
ATOM      1  O   UNL A   1      38.149  23.052  25.820  1.00  0.00    -0.376 OA
ENDROOT
BRANCH   1   2
ATOM      2  C   UNL A   1      37.071  23.088  24.898  1.00  0.00     0.202 C 
BRANCH   2   3
ATOM      3  C   UNL A   1      35.677  22.556  25.285  1.00  0.00     0.261 C 
BRANCH   3   4
ATOM      4  O   UNL A   1      34.573  23.481  25.189  1.00  0.00    -0.463 OA
BRANCH   4   5
ATOM      5  C   UNL A   1      33.496  23.058  24.489  1.00  0.00     0.313 C 
ATOM      6  O   UNL A   1      33.208  21.871  24.337  1.00  0.00    -0.252 OA
BRANCH   5   7
ATOM      7  C   UNL A   1      32.637  24.152  23.857  1.00  0.00     0.126 C 
ATOM      8  C   UNL A   1      32.950  24.211  22.366  1.00  0.00     0.025 C 
BRANCH   7   9
ATOM      9  C   UNL A   1      32.553  25.554  24.459  1.00  0.00    -0.031 A 
ATOM     10  C   UNL A   1      32.504  28.232  25.508  1.00  0.00     0.018 A 
ATOM     11  C   UNL A   1      31.744  27.196  26.083  1.00  0.00     0.012 A 
ATOM     12  C   UNL A   1      33.273  27.898  24.390  1.00  0.00     0.131 A 
ATOM     13  C   UNL A   1      31.768  25.881  25.572  1.00  0.00     0.005 A 
ATOM     14  C   UNL A   1      33.312  26.593  23.882  1.00  0.00     0.044 A 
ATOM     15  F   UNL A   1      34.023  28.830  23.778  1.00  0.00    -0.206 F 
BRANCH  10  16
ATOM     16  C   UNL A   1      32.542  29.587  26.102  1.00  0.00    -0.012 A 
ATOM     17  C   UNL A   1      33.556  31.291  27.516  1.00  0.00     0.133 A 
ATOM     18  C   UNL A   1      32.488  32.157  27.293  1.00  0.00     0.047 A 
ATOM     19  C   UNL A   1      33.588  30.014  26.943  1.00  0.00     0.056 A 
ATOM     20  C   UNL A   1      31.448  31.752  26.463  1.00  0.00     0.004 A 
ATOM     21  C   UNL A   1      31.477  30.482  25.874  1.00  0.00     0.009 A 
BRANCH  17  22
ATOM     22  O   UNL A   1      34.524  31.718  28.445  1.00  0.00    -0.410 OA
BRANCH  22  23
ATOM     23  C   UNL A   1      34.862  33.064  28.459  1.00  0.00     0.412 C 
ATOM     24  N   UNL A   1      35.010  33.575  29.721  1.00  0.00    -0.321 N 
ATOM     25  H   UNL A   1      35.274  34.522  29.779  1.00  0.00     0.167 HD
ATOM     26  O   UNL A   1      35.019  33.776  27.474  1.00  0.00    -0.224 OA
BRANCH  24  27
ATOM     27  C   UNL A   1      34.822  32.882  30.981  1.00  0.00     0.119 C 
BRANCH  27  28
ATOM     28  C   UNL A   1      35.359  33.687  32.167  1.00  0.00     0.021 C 
BRANCH  28  29
ATOM     29  C   UNL A   1      36.728  33.233  32.691  1.00  0.00     0.002 C 
BRANCH  29  30
ATOM     30  C   UNL A   1      36.701  32.355  33.947  1.00  0.00    -0.000 C 
BRANCH  30  31
ATOM     31  C   UNL A   1      37.710  32.729  35.036  1.00  0.00    -0.003 C 
ATOM     32  C   UNL A   1      39.123  32.246  34.744  1.00  0.00     0.004 C 
ENDBRANCH  30  31
ENDBRANCH  29  30
ENDBRANCH  28  29
ENDBRANCH  27  28
ENDBRANCH  24  27
ENDBRANCH  22  23
ENDBRANCH  17  22
ENDBRANCH  10  16
ENDBRANCH   7   9
ENDBRANCH   5   7
ENDBRANCH   4   5
ENDBRANCH   3   4
ENDBRANCH   2   3
ENDBRANCH   1   2
BRANCH   1  33
ATOM     33  C   UNL A   1      38.943  21.881  25.966  1.00  0.00     0.188 C 
BRANCH  33  34
ATOM     34  C   UNL A   1      40.306  21.919  26.673  1.00  0.00     0.188 C 
BRANCH  34  35
ATOM     35  O   UNL A   1      40.540  20.868  27.583  1.00  0.00    -0.377 OA
BRANCH  35  36
ATOM     36  C   UNL A   1      41.817  20.251  27.528  1.00  0.00     0.188 C 
BRANCH  36  37
ATOM     37  C   UNL A   1      42.320  19.811  26.141  1.00  0.00     0.188 C 
BRANCH  37  38
ATOM     38  O   UNL A   1      43.540  20.429  25.743  1.00  0.00    -0.376 OA
BRANCH  38  39
ATOM     39  C   UNL A   1      43.479  21.680  25.070  1.00  0.00     0.202 C 
BRANCH  39  40
ATOM     40  C   UNL A   1      44.290  22.857  25.641  1.00  0.00     0.261 C 
BRANCH  40  41
ATOM     41  O   UNL A   1      44.586  22.814  27.043  1.00  0.00    -0.460 OA
BRANCH  41  42
ATOM     42  C   UNL A   1      44.280  23.891  27.797  1.00  0.00     0.338 C 
ATOM     43  O   UNL A   1      43.473  23.951  28.697  1.00  0.00    -0.246 OA
BRANCH  42  44
ATOM     44  C   UNL A   1      45.282  24.940  27.489  1.00  0.00     0.060 A 
ATOM     45  C   UNL A   1      45.943  25.573  28.551  1.00  0.00     0.016 A 
ATOM     46  C   UNL A   1      45.572  25.292  26.170  1.00  0.00     0.016 A 
ATOM     47  C   UNL A   1      46.864  26.590  28.299  1.00  0.00     0.010 A 
ATOM     48  C   UNL A   1      46.475  26.330  25.918  1.00  0.00     0.010 A 
ATOM     49  C   UNL A   1      47.097  27.009  26.982  1.00  0.00    -0.014 A 
BRANCH  49  50
ATOM     50  C   UNL A   1      47.819  28.284  26.734  1.00  0.00     0.031 A 
ATOM     51  C   UNL A   1      49.291  28.215  26.420  1.00  0.00     0.074 A 
ATOM     52  C   UNL A   1      47.189  29.471  26.757  1.00  0.00     0.049 A 
ATOM     53  N   UNL A   1      50.142  29.186  26.210  1.00  0.00    -0.248 NA
ATOM     54  C   UNL A   1      49.879  26.868  26.328  1.00  0.00     0.031 C 
ATOM     55  C   UNL A   1      45.760  29.671  26.989  1.00  0.00     0.029 A 
ATOM     56  N   UNL A   1      47.682  30.743  26.586  1.00  0.00    -0.354 N 
ATOM     57  C   UNL A   1      51.366  28.569  25.976  1.00  0.00     0.074 A 
ATOM     58  C   UNL A   1      51.153  27.143  26.095  1.00  0.00     0.031 C 
ATOM     59  C   UNL A   1      45.493  30.988  26.955  1.00  0.00     0.029 A 
ATOM     60  C   UNL A   1      46.736  31.728  26.739  1.00  0.00     0.049 A 
ATOM     61  H   UNL A   1      48.625  30.930  26.373  1.00  0.00     0.167 HD
ATOM     62  C   UNL A   1      52.560  29.137  25.685  1.00  0.00     0.031 A 
ATOM     63  C   UNL A   1      46.863  33.071  26.731  1.00  0.00     0.031 A 
ATOM     64  C   UNL A   1      52.774  30.556  25.585  1.00  0.00     0.049 A 
ATOM     65  C   UNL A   1      48.221  33.684  26.496  1.00  0.00     0.074 A 
ATOM     66  C   UNL A   1      53.945  31.230  25.289  1.00  0.00     0.029 A 
ATOM     67  N   UNL A   1      51.799  31.521  25.793  1.00  0.00    -0.354 N 
ATOM     68  N   UNL A   1      49.366  33.089  26.257  1.00  0.00    -0.248 NA
ATOM     69  C   UNL A   1      48.302  35.152  26.521  1.00  0.00     0.031 C 
ATOM     70  C   UNL A   1      53.695  32.602  25.383  1.00  0.00     0.029 A 
ATOM     71  C   UNL A   1      52.349  32.784  25.662  1.00  0.00     0.049 A 
ATOM     72  H   UNL A   1      50.855  31.333  26.002  1.00  0.00     0.167 HD
ATOM     73  C   UNL A   1      50.295  34.109  26.071  1.00  0.00     0.074 A 
ATOM     74  C   UNL A   1      49.576  35.359  26.213  1.00  0.00     0.031 C 
ATOM     75  C   UNL A   1      51.622  34.021  25.804  1.00  0.00     0.031 A 
BRANCH  62  76
ATOM     76  C   UNL A   1      53.741  28.218  25.496  1.00  0.00    -0.014 A 
ATOM     77  C   UNL A   1      54.654  27.974  26.539  1.00  0.00     0.010 A 
ATOM     78  C   UNL A   1      53.919  27.563  24.265  1.00  0.00     0.010 A 
ATOM     79  C   UNL A   1      55.743  27.121  26.340  1.00  0.00     0.020 A 
ATOM     80  C   UNL A   1      54.989  26.686  24.071  1.00  0.00     0.020 A 
ATOM     81  C   UNL A   1      55.904  26.483  25.106  1.00  0.00     0.054 A 
BRANCH  81  82
ATOM     82  S   UNL A   1      57.313  25.363  24.884  1.00  0.00     0.124 S 
ATOM     83  O   UNL A   1      58.158  25.711  26.024  1.00  0.00    -0.237 OA
ATOM     84  O   UNL A   1      56.686  24.045  24.947  1.00  0.00    -0.237 OA
ATOM     85  O   UNL A   1      57.850  25.733  23.577  1.00  0.00    -0.744 OA
ENDBRANCH  81  82
ENDBRANCH  62  76
BRANCH  63  86
ATOM     86  C   UNL A   1      45.674  33.935  26.979  1.00  0.00    -0.014 A 
ATOM     87  C   UNL A   1      44.846  34.345  25.919  1.00  0.00     0.010 A 
ATOM     88  C   UNL A   1      45.370  34.365  28.285  1.00  0.00     0.010 A 
ATOM     89  C   UNL A   1      43.748  35.179  26.157  1.00  0.00     0.020 A 
ATOM     90  C   UNL A   1      44.255  35.172  28.531  1.00  0.00     0.020 A 
ATOM     91  C   UNL A   1      43.456  35.583  27.463  1.00  0.00     0.054 A 
BRANCH  91  92
ATOM     92  S   UNL A   1      41.996  36.619  27.754  1.00  0.00     0.124 S 
ATOM     93  O   UNL A   1      42.380  37.359  28.951  1.00  0.00    -0.237 OA
ATOM     94  O   UNL A   1      41.918  37.402  26.523  1.00  0.00    -0.237 OA
ATOM     95  O   UNL A   1      40.918  35.649  27.935  1.00  0.00    -0.744 OA
ENDBRANCH  91  92
ENDBRANCH  63  86
BRANCH  75  96
ATOM     96  C   UNL A   1      52.385  35.306  25.599  1.00  0.00    -0.014 A 
ATOM     97  C   UNL A   1      52.422  35.949  24.349  1.00  0.00     0.010 A 
ATOM     98  C   UNL A   1      53.022  35.913  26.698  1.00  0.00     0.010 A 
ATOM     99  C   UNL A   1      53.110  37.157  24.196  1.00  0.00     0.020 A 
ATOM    100  C   UNL A   1      53.682  37.137  26.557  1.00  0.00     0.020 A 
ATOM    101  C   UNL A   1      53.734  37.744  25.302  1.00  0.00     0.054 A 
BRANCH 101 102
ATOM    102  S   UNL A   1      54.581  39.334  25.085  1.00  0.00     0.124 S 
ATOM    103  O   UNL A   1      53.926  39.867  23.894  1.00  0.00    -0.237 OA
ATOM    104  O   UNL A   1      54.278  40.030  26.333  1.00  0.00    -0.237 OA
ATOM    105  O   UNL A   1      55.983  38.960  24.910  1.00  0.00    -0.744 OA
ENDBRANCH 101 102
ENDBRANCH  75  96
ENDBRANCH  49  50
ENDBRANCH  42  44
ENDBRANCH  41  42
ENDBRANCH  40  41
ENDBRANCH  39  40
ENDBRANCH  38  39
ENDBRANCH  37  38
ENDBRANCH  36  37
ENDBRANCH  35  36
ENDBRANCH  34  35
ENDBRANCH  33  34
ENDBRANCH   1  33
TORSDOF 32
ENDMDL
