MODEL 1
REMARK VINA RESULT:     -10.5      0.000      0.000
REMARK SMILES O=C(OCCOCCOCCOCCOC(=O)c1nnn(-c2cccc(C(F)(F)F)c2)c1[C@@H]1COc2ccccc2O1)c1ccc(-c2c3nc(c(-c4ccc(S(=O)(=O)[O-])cc4)c4ccc([nH]4)c(-c4ccc(S(=O)(=O)[O-])cc4)c4nc(c(-c5ccc(S(=O)(=O)[O-])cc5)c5ccc2[nH]5)C=C4)C=C3)cc1
REMARK SMILES IDX 8 1 7 2 6 3 5 4 4 5 3 6 2 7 1 8 43 9 44 10 102 11 45 12
REMARK SMILES IDX 101 13 46 14 47 15 48 16 95 17 49 18 100 19 94 20 96 21
REMARK SMILES IDX 50 22 99 23 93 24 92 25 51 27 81 28 62 29 80 30 63 31 66 32
REMARK SMILES IDX 79 33 97 34 64 35 65 36 78 38 98 39 67 40 52 41 53 42 61 43
REMARK SMILES IDX 54 44 60 45 55 46 56 47 57 48 58 49 59 50 82 51 83 52 91 53
REMARK SMILES IDX 84 54 90 55 85 56 86 57 87 58 88 59 89 60 68 61 69 62 77 63
REMARK SMILES IDX 70 64 76 65 71 66 72 67 73 68 74 69 75 70 9 71 10 72 11 73
REMARK SMILES IDX 12 74 13 75 14 76 15 77 16 78 17 79 18 80 19 81 32 82 20 83
REMARK SMILES IDX 21 84 33 85 34 86 42 87 35 88 41 89 36 90 40 91 37 92 39 93
REMARK SMILES IDX 38 94 22 95 23 96 31 97 24 98 26 99 25 100 27 101 28 102
REMARK SMILES IDX 29 103 30 104
REMARK H PARENT 96 26 66 37
REMARK Flexibility Score: inf
ROOT
ATOM      1  C   UNL A   1      37.873  28.570  30.053  1.00  0.00     0.188 C 
ENDROOT
BRANCH   1   2
ATOM      2  C   UNL A   1      38.376  29.736  30.913  1.00  0.00     0.188 C 
BRANCH   2   3
ATOM      3  O   UNL A   1      37.332  30.654  31.183  1.00  0.00    -0.376 OA
BRANCH   3   4
ATOM      4  C   UNL A   1      36.806  31.486  30.169  1.00  0.00     0.202 C 
BRANCH   4   5
ATOM      5  C   UNL A   1      37.694  32.523  29.473  1.00  0.00     0.261 C 
BRANCH   5   6
ATOM      6  O   UNL A   1      38.913  32.932  30.117  1.00  0.00    -0.460 OA
BRANCH   6   7
ATOM      7  C   UNL A   1      39.403  34.124  30.507  1.00  0.00     0.338 C 
ATOM      8  O   UNL A   1      38.756  34.793  31.308  1.00  0.00    -0.246 OA
BRANCH   7   9
ATOM      9  C   UNL A   1      40.593  34.742  29.874  1.00  0.00     0.060 A 
ATOM     10  C   UNL A   1      41.825  34.916  30.500  1.00  0.00     0.016 A 
ATOM     11  C   UNL A   1      40.419  35.208  28.556  1.00  0.00     0.016 A 
ATOM     12  C   UNL A   1      42.859  35.564  29.836  1.00  0.00     0.010 A 
ATOM     13  C   UNL A   1      41.442  35.882  27.898  1.00  0.00     0.010 A 
ATOM     14  C   UNL A   1      42.646  36.101  28.565  1.00  0.00    -0.014 A 
BRANCH  14  15
ATOM     15  C   UNL A   1      43.646  37.047  28.085  1.00  0.00     0.031 A 
ATOM     16  C   UNL A   1      45.064  36.615  27.989  1.00  0.00     0.074 A 
ATOM     17  C   UNL A   1      43.304  38.311  27.767  1.00  0.00     0.049 A 
ATOM     18  N   UNL A   1      46.087  37.083  28.630  1.00  0.00    -0.248 NA
ATOM     19  C   UNL A   1      45.378  35.518  27.066  1.00  0.00     0.031 C 
ATOM     20  C   UNL A   1      41.957  38.846  27.545  1.00  0.00     0.029 A 
ATOM     21  N   UNL A   1      44.118  39.366  27.482  1.00  0.00    -0.354 N 
ATOM     22  C   UNL A   1      47.204  36.457  28.085  1.00  0.00     0.074 A 
ATOM     23  C   UNL A   1      46.706  35.447  27.182  1.00  0.00     0.031 C 
ATOM     24  C   UNL A   1      42.058  40.050  26.945  1.00  0.00     0.029 A 
ATOM     25  C   UNL A   1      43.460  40.425  26.882  1.00  0.00     0.049 A 
ATOM     26  H   UNL A   1      45.082  39.375  27.684  1.00  0.00     0.167 HD
ATOM     27  C   UNL A   1      48.479  36.894  28.285  1.00  0.00     0.031 A 
ATOM     28  C   UNL A   1      44.024  41.505  26.299  1.00  0.00     0.031 A 
ATOM     29  C   UNL A   1      48.598  37.814  29.378  1.00  0.00     0.049 A 
ATOM     30  C   UNL A   1      45.386  41.676  26.849  1.00  0.00     0.074 A 
ATOM     31  C   UNL A   1      48.418  37.742  30.744  1.00  0.00     0.029 A 
ATOM     32  N   UNL A   1      48.696  39.150  29.079  1.00  0.00    -0.354 N 
ATOM     33  N   UNL A   1      45.632  42.009  28.085  1.00  0.00    -0.248 NA
ATOM     34  C   UNL A   1      46.527  41.159  26.110  1.00  0.00     0.031 C 
ATOM     35  C   UNL A   1      47.996  39.042  31.142  1.00  0.00     0.029 A 
ATOM     36  C   UNL A   1      47.937  39.837  29.995  1.00  0.00     0.049 A 
ATOM     37  H   UNL A   1      49.214  39.545  28.341  1.00  0.00     0.167 HD
ATOM     38  C   UNL A   1      46.829  41.384  28.397  1.00  0.00     0.074 A 
ATOM     39  C   UNL A   1      47.399  41.008  27.110  1.00  0.00     0.031 C 
ATOM     40  C   UNL A   1      47.108  40.985  29.673  1.00  0.00     0.031 A 
BRANCH  27  41
ATOM     41  C   UNL A   1      49.593  36.679  27.295  1.00  0.00    -0.014 A 
ATOM     42  C   UNL A   1      50.767  36.004  27.686  1.00  0.00     0.010 A 
ATOM     43  C   UNL A   1      49.614  37.340  26.049  1.00  0.00     0.010 A 
ATOM     44  C   UNL A   1      51.910  36.003  26.872  1.00  0.00     0.020 A 
ATOM     45  C   UNL A   1      50.734  37.312  25.213  1.00  0.00     0.020 A 
ATOM     46  C   UNL A   1      51.886  36.667  25.644  1.00  0.00     0.054 A 
BRANCH  46  47
ATOM     47  S   UNL A   1      53.391  36.731  24.635  1.00  0.00     0.124 S 
ATOM     48  O   UNL A   1      53.080  35.783  23.570  1.00  0.00    -0.237 OA
ATOM     49  O   UNL A   1      53.445  38.136  24.237  1.00  0.00    -0.237 OA
ATOM     50  O   UNL A   1      54.441  36.313  25.563  1.00  0.00    -0.744 OA
ENDBRANCH  46  47
ENDBRANCH  27  41
BRANCH  28  51
ATOM     51  C   UNL A   1      43.536  42.177  25.074  1.00  0.00    -0.014 A 
ATOM     52  C   UNL A   1      44.304  43.153  24.420  1.00  0.00     0.010 A 
ATOM     53  C   UNL A   1      42.398  41.671  24.407  1.00  0.00     0.010 A 
ATOM     54  C   UNL A   1      43.970  43.573  23.122  1.00  0.00     0.020 A 
ATOM     55  C   UNL A   1      42.052  42.094  23.123  1.00  0.00     0.020 A 
ATOM     56  C   UNL A   1      42.854  43.028  22.477  1.00  0.00     0.054 A 
BRANCH  56  57
ATOM     57  S   UNL A   1      42.528  43.450  20.743  1.00  0.00     0.124 S 
ATOM     58  O   UNL A   1      41.178  44.001  20.808  1.00  0.00    -0.237 OA
ATOM     59  O   UNL A   1      43.590  44.408  20.446  1.00  0.00    -0.237 OA
ATOM     60  O   UNL A   1      42.643  42.167  20.050  1.00  0.00    -0.744 OA
ENDBRANCH  56  57
ENDBRANCH  28  51
BRANCH  40  61
ATOM     61  C   UNL A   1      46.264  41.548  30.796  1.00  0.00    -0.014 A 
ATOM     62  C   UNL A   1      46.675  42.646  31.578  1.00  0.00     0.010 A 
ATOM     63  C   UNL A   1      44.960  41.052  30.978  1.00  0.00     0.010 A 
ATOM     64  C   UNL A   1      45.819  43.214  32.532  1.00  0.00     0.020 A 
ATOM     65  C   UNL A   1      44.093  41.626  31.915  1.00  0.00     0.020 A 
ATOM     66  C   UNL A   1      44.531  42.700  32.693  1.00  0.00     0.054 A 
BRANCH  66  67
ATOM     67  S   UNL A   1      43.406  43.494  33.876  1.00  0.00     0.124 S 
ATOM     68  O   UNL A   1      43.386  42.541  34.983  1.00  0.00    -0.237 OA
ATOM     69  O   UNL A   1      44.071  44.765  34.155  1.00  0.00    -0.237 OA
ATOM     70  O   UNL A   1      42.151  43.613  33.137  1.00  0.00    -0.744 OA
ENDBRANCH  66  67
ENDBRANCH  40  61
ENDBRANCH  14  15
ENDBRANCH   7   9
ENDBRANCH   6   7
ENDBRANCH   5   6
ENDBRANCH   4   5
ENDBRANCH   3   4
ENDBRANCH   2   3
ENDBRANCH   1   2
BRANCH   1  71
ATOM     71  O   UNL A   1      38.795  28.177  29.027  1.00  0.00    -0.377 OA
BRANCH  71  72
ATOM     72  C   UNL A   1      39.573  27.025  29.340  1.00  0.00     0.188 C 
BRANCH  72  73
ATOM     73  C   UNL A   1      39.849  26.009  28.202  1.00  0.00     0.188 C 
BRANCH  73  74
ATOM     74  O   UNL A   1      38.845  25.423  27.378  1.00  0.00    -0.376 OA
BRANCH  74  75
ATOM     75  C   UNL A   1      38.737  24.020  27.238  1.00  0.00     0.202 C 
BRANCH  75  76
ATOM     76  C   UNL A   1      38.315  23.576  25.834  1.00  0.00     0.261 C 
BRANCH  76  77
ATOM     77  O   UNL A   1      36.961  23.104  25.773  1.00  0.00    -0.458 OA
BRANCH  77  78
ATOM     78  C   UNL A   1      36.589  22.563  24.571  1.00  0.00     0.361 C 
ATOM     79  O   UNL A   1      37.166  21.650  24.012  1.00  0.00    -0.244 OA
BRANCH  78  80
ATOM     80  C   UNL A   1      35.366  23.170  24.049  1.00  0.00     0.198 A 
ATOM     81  N   UNL A   1      35.432  24.077  23.019  1.00  0.00    -0.122 NA
ATOM     82  C   UNL A   1      34.029  22.928  24.350  1.00  0.00     0.123 A 
ATOM     83  N   UNL A   1      34.198  24.401  22.672  1.00  0.00    -0.061 NA
ATOM     84  N   UNL A   1      33.360  23.885  23.599  1.00  0.00    -0.213 N 
BRANCH  82  85
ATOM     85  C   UNL A   1      33.364  21.871  25.185  1.00  0.00     0.262 C 
ATOM     86  C   UNL A   1      34.311  21.113  26.129  1.00  0.00     0.281 C 
ATOM     87  O   UNL A   1      32.574  21.017  24.351  1.00  0.00    -0.477 OA
ATOM     88  O   UNL A   1      35.116  20.155  25.439  1.00  0.00    -0.485 OA
ATOM     89  C   UNL A   1      33.080  19.754  24.183  1.00  0.00     0.162 A 
ATOM     90  C   UNL A   1      34.319  19.343  24.679  1.00  0.00     0.161 A 
ATOM     91  C   UNL A   1      32.327  18.885  23.396  1.00  0.00     0.050 A 
ATOM     92  C   UNL A   1      34.828  18.087  24.352  1.00  0.00     0.050 A 
ATOM     93  C   UNL A   1      32.825  17.620  23.083  1.00  0.00     0.004 A 
ATOM     94  C   UNL A   1      34.078  17.224  23.553  1.00  0.00     0.004 A 
ENDBRANCH  82  85
BRANCH  84  95
ATOM     95  C   UNL A   1      32.266  24.685  23.974  1.00  0.00     0.067 A 
ATOM     96  C   UNL A   1      31.023  24.492  23.370  1.00  0.00     0.028 A 
ATOM     97  C   UNL A   1      32.483  25.739  24.872  1.00  0.00     0.041 A 
ATOM     98  C   UNL A   1      29.961  25.318  23.737  1.00  0.00     0.003 A 
ATOM     99  C   UNL A   1      31.433  26.603  25.199  1.00  0.00     0.058 A 
ATOM    100  C   UNL A   1      30.163  26.363  24.646  1.00  0.00     0.013 A 
BRANCH  99 101
ATOM    101  C   UNL A   1      31.660  27.761  26.135  1.00  0.00     0.416 C 
ATOM    102  F   UNL A   1      31.031  27.602  27.333  1.00  0.00    -0.166 F 
ATOM    103  F   UNL A   1      32.977  27.948  26.428  1.00  0.00    -0.166 F 
ATOM    104  F   UNL A   1      31.216  28.952  25.643  1.00  0.00    -0.166 F 
ENDBRANCH  99 101
ENDBRANCH  84  95
ENDBRANCH  78  80
ENDBRANCH  77  78
ENDBRANCH  76  77
ENDBRANCH  75  76
ENDBRANCH  74  75
ENDBRANCH  73  74
ENDBRANCH  72  73
ENDBRANCH  71  72
ENDBRANCH   1  71
TORSDOF 26
ENDMDL
MODEL 2
REMARK VINA RESULT:     -10.4      7.050     12.999
REMARK SMILES O=C(OCCOCCOCCOCCOC(=O)c1nnn(-c2cccc(C(F)(F)F)c2)c1[C@@H]1COc2ccccc2O1)c1ccc(-c2c3nc(c(-c4ccc(S(=O)(=O)[O-])cc4)c4ccc([nH]4)c(-c4ccc(S(=O)(=O)[O-])cc4)c4nc(c(-c5ccc(S(=O)(=O)[O-])cc5)c5ccc2[nH]5)C=C4)C=C3)cc1
REMARK SMILES IDX 8 1 7 2 6 3 5 4 4 5 3 6 2 7 1 8 43 9 44 10 102 11 45 12
REMARK SMILES IDX 101 13 46 14 47 15 48 16 95 17 49 18 100 19 94 20 96 21
REMARK SMILES IDX 50 22 99 23 93 24 92 25 51 27 81 28 62 29 80 30 63 31 66 32
REMARK SMILES IDX 79 33 97 34 64 35 65 36 78 38 98 39 67 40 52 41 53 42 61 43
REMARK SMILES IDX 54 44 60 45 55 46 56 47 57 48 58 49 59 50 82 51 83 52 91 53
REMARK SMILES IDX 84 54 90 55 85 56 86 57 87 58 88 59 89 60 68 61 69 62 77 63
REMARK SMILES IDX 70 64 76 65 71 66 72 67 73 68 74 69 75 70 9 71 10 72 11 73
REMARK SMILES IDX 12 74 13 75 14 76 15 77 16 78 17 79 18 80 19 81 32 82 20 83
REMARK SMILES IDX 21 84 33 85 34 86 42 87 35 88 41 89 36 90 40 91 37 92 39 93
REMARK SMILES IDX 38 94 22 95 23 96 31 97 24 98 26 99 25 100 27 101 28 102
REMARK SMILES IDX 29 103 30 104
REMARK H PARENT 96 26 66 37
REMARK Flexibility Score: inf
ROOT
ATOM      1  C   UNL A   1      32.769  25.799  25.420  1.00  0.00     0.188 C 
ENDROOT
BRANCH   1   2
ATOM      2  C   UNL A   1      33.056  27.248  25.834  1.00  0.00     0.188 C 
BRANCH   2   3
ATOM      3  O   UNL A   1      32.399  27.569  27.046  1.00  0.00    -0.376 OA
BRANCH   3   4
ATOM      4  C   UNL A   1      31.913  28.872  27.295  1.00  0.00     0.202 C 
BRANCH   4   5
ATOM      5  C   UNL A   1      32.790  30.098  27.016  1.00  0.00     0.261 C 
BRANCH   5   6
ATOM      6  O   UNL A   1      33.944  30.324  27.843  1.00  0.00    -0.460 OA
BRANCH   6   7
ATOM      7  C   UNL A   1      35.252  30.031  27.714  1.00  0.00     0.338 C 
ATOM      8  O   UNL A   1      35.613  29.366  26.746  1.00  0.00    -0.246 OA
BRANCH   7   9
ATOM      9  C   UNL A   1      36.242  30.317  28.781  1.00  0.00     0.060 A 
ATOM     10  C   UNL A   1      37.178  31.347  28.739  1.00  0.00     0.016 A 
ATOM     11  C   UNL A   1      36.231  29.441  29.884  1.00  0.00     0.016 A 
ATOM     12  C   UNL A   1      38.103  31.490  29.766  1.00  0.00     0.010 A 
ATOM     13  C   UNL A   1      37.171  29.563  30.900  1.00  0.00     0.010 A 
ATOM     14  C   UNL A   1      38.139  30.562  30.808  1.00  0.00    -0.014 A 
BRANCH  14  15
ATOM     15  C   UNL A   1      39.332  30.576  31.647  1.00  0.00     0.031 A 
ATOM     16  C   UNL A   1      39.427  31.561  32.754  1.00  0.00     0.074 A 
ATOM     17  C   UNL A   1      40.356  29.735  31.404  1.00  0.00     0.049 A 
ATOM     18  N   UNL A   1      40.286  32.520  32.899  1.00  0.00    -0.248 NA
ATOM     19  C   UNL A   1      38.435  31.468  33.832  1.00  0.00     0.031 C 
ATOM     20  C   UNL A   1      40.354  28.542  30.552  1.00  0.00     0.029 A 
ATOM     21  N   UNL A   1      41.602  29.730  31.957  1.00  0.00    -0.354 N 
ATOM     22  C   UNL A   1      40.052  33.061  34.161  1.00  0.00     0.074 A 
ATOM     23  C   UNL A   1      38.853  32.429  34.659  1.00  0.00     0.031 C 
ATOM     24  C   UNL A   1      41.455  27.810  30.820  1.00  0.00     0.029 A 
ATOM     25  C   UNL A   1      42.297  28.553  31.740  1.00  0.00     0.049 A 
ATOM     26  H   UNL A   1      41.972  30.490  32.462  1.00  0.00     0.167 HD
ATOM     27  C   UNL A   1      40.931  33.885  34.796  1.00  0.00     0.031 A 
ATOM     28  C   UNL A   1      43.449  28.171  32.332  1.00  0.00     0.031 A 
ATOM     29  C   UNL A   1      41.928  34.431  33.922  1.00  0.00     0.049 A 
ATOM     30  C   UNL A   1      44.144  29.380  32.827  1.00  0.00     0.074 A 
ATOM     31  C   UNL A   1      41.921  35.288  32.840  1.00  0.00     0.029 A 
ATOM     32  N   UNL A   1      43.178  33.865  33.949  1.00  0.00    -0.354 N 
ATOM     33  N   UNL A   1      44.654  30.293  32.049  1.00  0.00    -0.248 NA
ATOM     34  C   UNL A   1      44.003  29.766  34.222  1.00  0.00     0.031 C 
ATOM     35  C   UNL A   1      43.016  34.881  32.025  1.00  0.00     0.029 A 
ATOM     36  C   UNL A   1      43.629  33.795  32.653  1.00  0.00     0.049 A 
ATOM     37  H   UNL A   1      43.664  33.562  34.750  1.00  0.00     0.167 HD
ATOM     38  C   UNL A   1      44.528  31.480  32.752  1.00  0.00     0.074 A 
ATOM     39  C   UNL A   1      44.264  31.073  34.126  1.00  0.00     0.031 C 
ATOM     40  C   UNL A   1      44.372  32.673  32.106  1.00  0.00     0.031 A 
BRANCH  27  41
ATOM     41  C   UNL A   1      41.039  33.984  36.295  1.00  0.00    -0.014 A 
ATOM     42  C   UNL A   1      42.019  33.243  36.985  1.00  0.00     0.010 A 
ATOM     43  C   UNL A   1      40.037  34.608  37.068  1.00  0.00     0.010 A 
ATOM     44  C   UNL A   1      41.989  33.123  38.383  1.00  0.00     0.020 A 
ATOM     45  C   UNL A   1      40.021  34.527  38.464  1.00  0.00     0.020 A 
ATOM     46  C   UNL A   1      40.982  33.760  39.111  1.00  0.00     0.054 A 
BRANCH  46  47
ATOM     47  S   UNL A   1      40.901  33.534  40.907  1.00  0.00     0.124 S 
ATOM     48  O   UNL A   1      39.795  34.414  41.272  1.00  0.00    -0.237 OA
ATOM     49  O   UNL A   1      40.640  32.103  41.034  1.00  0.00    -0.237 OA
ATOM     50  O   UNL A   1      42.222  33.962  41.364  1.00  0.00    -0.744 OA
ENDBRANCH  46  47
ENDBRANCH  27  41
BRANCH  28  51
ATOM     51  C   UNL A   1      43.789  26.793  32.749  1.00  0.00    -0.014 A 
ATOM     52  C   UNL A   1      44.856  26.094  32.164  1.00  0.00     0.010 A 
ATOM     53  C   UNL A   1      43.200  26.252  33.914  1.00  0.00     0.010 A 
ATOM     54  C   UNL A   1      45.346  24.917  32.753  1.00  0.00     0.020 A 
ATOM     55  C   UNL A   1      43.673  25.075  34.495  1.00  0.00     0.020 A 
ATOM     56  C   UNL A   1      44.761  24.424  33.924  1.00  0.00     0.054 A 
BRANCH  56  57
ATOM     57  S   UNL A   1      45.505  23.002  34.769  1.00  0.00     0.124 S 
ATOM     58  O   UNL A   1      44.629  22.837  35.925  1.00  0.00    -0.237 OA
ATOM     59  O   UNL A   1      45.422  21.954  33.755  1.00  0.00    -0.237 OA
ATOM     60  O   UNL A   1      46.861  23.456  35.076  1.00  0.00    -0.744 OA
ENDBRANCH  56  57
ENDBRANCH  28  51
BRANCH  40  61
ATOM     61  C   UNL A   1      44.697  32.731  30.628  1.00  0.00    -0.014 A 
ATOM     62  C   UNL A   1      43.783  32.328  29.635  1.00  0.00     0.010 A 
ATOM     63  C   UNL A   1      45.898  33.341  30.222  1.00  0.00     0.010 A 
ATOM     64  C   UNL A   1      44.073  32.503  28.275  1.00  0.00     0.020 A 
ATOM     65  C   UNL A   1      46.185  33.537  28.866  1.00  0.00     0.020 A 
ATOM     66  C   UNL A   1      45.274  33.109  27.899  1.00  0.00     0.054 A 
BRANCH  66  67
ATOM     67  S   UNL A   1      45.601  33.401  26.137  1.00  0.00     0.124 S 
ATOM     68  O   UNL A   1      44.956  34.690  25.905  1.00  0.00    -0.237 OA
ATOM     69  O   UNL A   1      47.062  33.409  26.074  1.00  0.00    -0.237 OA
ATOM     70  O   UNL A   1      44.970  32.262  25.472  1.00  0.00    -0.744 OA
ENDBRANCH  66  67
ENDBRANCH  40  61
ENDBRANCH  14  15
ENDBRANCH   7   9
ENDBRANCH   6   7
ENDBRANCH   5   6
ENDBRANCH   4   5
ENDBRANCH   3   4
ENDBRANCH   2   3
ENDBRANCH   1   2
BRANCH   1  71
ATOM     71  O   UNL A   1      33.862  25.172  24.736  1.00  0.00    -0.377 OA
BRANCH  71  72
ATOM     72  C   UNL A   1      34.735  24.422  25.577  1.00  0.00     0.188 C 
BRANCH  72  73
ATOM     73  C   UNL A   1      35.828  23.560  24.895  1.00  0.00     0.188 C 
BRANCH  73  74
ATOM     74  O   UNL A   1      36.824  22.814  25.591  1.00  0.00    -0.376 OA
BRANCH  74  75
ATOM     75  C   UNL A   1      37.791  22.054  24.895  1.00  0.00     0.202 C 
BRANCH  75  76
ATOM     76  C   UNL A   1      38.656  21.181  25.808  1.00  0.00     0.261 C 
BRANCH  76  77
ATOM     77  O   UNL A   1      39.710  21.908  26.456  1.00  0.00    -0.458 OA
BRANCH  77  78
ATOM     78  C   UNL A   1      40.922  21.271  26.484  1.00  0.00     0.361 C 
ATOM     79  O   UNL A   1      41.089  20.111  26.808  1.00  0.00    -0.244 OA
BRANCH  78  80
ATOM     80  C   UNL A   1      42.007  22.132  26.019  1.00  0.00     0.198 A 
ATOM     81  N   UNL A   1      42.860  21.695  25.034  1.00  0.00    -0.122 NA
ATOM     82  C   UNL A   1      42.324  23.451  26.334  1.00  0.00     0.123 A 
ATOM     83  N   UNL A   1      43.683  22.684  24.728  1.00  0.00    -0.061 NA
ATOM     84  N   UNL A   1      43.510  23.662  25.645  1.00  0.00    -0.213 N 
BRANCH  82  85
ATOM     85  C   UNL A   1      41.592  24.494  27.129  1.00  0.00     0.262 C 
ATOM     86  C   UNL A   1      40.646  25.380  26.303  1.00  0.00     0.281 C 
ATOM     87  O   UNL A   1      42.519  25.232  27.933  1.00  0.00    -0.477 OA
ATOM     88  O   UNL A   1      41.348  26.361  25.536  1.00  0.00    -0.485 OA
ATOM     89  C   UNL A   1      42.736  26.520  27.520  1.00  0.00     0.162 A 
ATOM     90  C   UNL A   1      42.198  27.061  26.349  1.00  0.00     0.161 A 
ATOM     91  C   UNL A   1      43.613  27.279  28.291  1.00  0.00     0.050 A 
ATOM     92  C   UNL A   1      42.572  28.334  25.923  1.00  0.00     0.050 A 
ATOM     93  C   UNL A   1      43.975  28.561  27.877  1.00  0.00     0.004 A 
ATOM     94  C   UNL A   1      43.463  29.085  26.690  1.00  0.00     0.004 A 
ENDBRANCH  82  85
BRANCH  84  95
ATOM     95  C   UNL A   1      44.669  24.328  26.082  1.00  0.00     0.067 A 
ATOM     96  C   UNL A   1      45.303  23.924  27.257  1.00  0.00     0.028 A 
ATOM     97  C   UNL A   1      45.095  25.463  25.379  1.00  0.00     0.041 A 
ATOM     98  C   UNL A   1      46.433  24.619  27.686  1.00  0.00     0.003 A 
ATOM     99  C   UNL A   1      46.194  26.195  25.839  1.00  0.00     0.058 A 
ATOM    100  C   UNL A   1      46.877  25.745  26.982  1.00  0.00     0.013 A 
BRANCH  99 101
ATOM    101  C   UNL A   1      46.642  27.438  25.114  1.00  0.00     0.416 C 
ATOM    102  F   UNL A   1      46.667  28.538  25.917  1.00  0.00    -0.166 F 
ATOM    103  F   UNL A   1      47.899  27.322  24.601  1.00  0.00    -0.166 F 
ATOM    104  F   UNL A   1      45.841  27.771  24.062  1.00  0.00    -0.166 F 
ENDBRANCH  99 101
ENDBRANCH  84  95
ENDBRANCH  78  80
ENDBRANCH  77  78
ENDBRANCH  76  77
ENDBRANCH  75  76
ENDBRANCH  74  75
ENDBRANCH  73  74
ENDBRANCH  72  73
ENDBRANCH  71  72
ENDBRANCH   1  71
TORSDOF 26
ENDMDL
MODEL 3
REMARK VINA RESULT:      -9.6      5.866     10.355
REMARK SMILES O=C(OCCOCCOCCOCCOC(=O)c1nnn(-c2cccc(C(F)(F)F)c2)c1[C@@H]1COc2ccccc2O1)c1ccc(-c2c3nc(c(-c4ccc(S(=O)(=O)[O-])cc4)c4ccc([nH]4)c(-c4ccc(S(=O)(=O)[O-])cc4)c4nc(c(-c5ccc(S(=O)(=O)[O-])cc5)c5ccc2[nH]5)C=C4)C=C3)cc1
REMARK SMILES IDX 8 1 7 2 6 3 5 4 4 5 3 6 2 7 1 8 43 9 44 10 102 11 45 12
REMARK SMILES IDX 101 13 46 14 47 15 48 16 95 17 49 18 100 19 94 20 96 21
REMARK SMILES IDX 50 22 99 23 93 24 92 25 51 27 81 28 62 29 80 30 63 31 66 32
REMARK SMILES IDX 79 33 97 34 64 35 65 36 78 38 98 39 67 40 52 41 53 42 61 43
REMARK SMILES IDX 54 44 60 45 55 46 56 47 57 48 58 49 59 50 82 51 83 52 91 53
REMARK SMILES IDX 84 54 90 55 85 56 86 57 87 58 88 59 89 60 68 61 69 62 77 63
REMARK SMILES IDX 70 64 76 65 71 66 72 67 73 68 74 69 75 70 9 71 10 72 11 73
REMARK SMILES IDX 12 74 13 75 14 76 15 77 16 78 17 79 18 80 19 81 32 82 20 83
REMARK SMILES IDX 21 84 33 85 34 86 42 87 35 88 41 89 36 90 40 91 37 92 39 93
REMARK SMILES IDX 38 94 22 95 23 96 31 97 24 98 26 99 25 100 27 101 28 102
REMARK SMILES IDX 29 103 30 104
REMARK H PARENT 96 26 66 37
REMARK Flexibility Score: inf
ROOT
ATOM      1  C   UNL A   1      31.509  25.693  25.274  1.00  0.00     0.188 C 
ENDROOT
BRANCH   1   2
ATOM      2  C   UNL A   1      32.436  26.502  26.191  1.00  0.00     0.188 C 
BRANCH   2   3
ATOM      3  O   UNL A   1      31.714  27.501  26.888  1.00  0.00    -0.376 OA
BRANCH   3   4
ATOM      4  C   UNL A   1      31.861  28.869  26.568  1.00  0.00     0.202 C 
BRANCH   4   5
ATOM      5  C   UNL A   1      33.254  29.481  26.379  1.00  0.00     0.261 C 
BRANCH   5   6
ATOM      6  O   UNL A   1      34.156  29.501  27.499  1.00  0.00    -0.460 OA
BRANCH   6   7
ATOM      7  C   UNL A   1      34.715  30.488  28.224  1.00  0.00     0.338 C 
ATOM      8  O   UNL A   1      34.070  31.516  28.415  1.00  0.00    -0.246 OA
BRANCH   7   9
ATOM      9  C   UNL A   1      36.137  30.461  28.644  1.00  0.00     0.060 A 
ATOM     10  C   UNL A   1      36.724  29.447  29.397  1.00  0.00     0.016 A 
ATOM     11  C   UNL A   1      36.913  31.576  28.269  1.00  0.00     0.016 A 
ATOM     12  C   UNL A   1      38.052  29.550  29.790  1.00  0.00     0.010 A 
ATOM     13  C   UNL A   1      38.234  31.697  28.684  1.00  0.00     0.010 A 
ATOM     14  C   UNL A   1      38.783  30.700  29.489  1.00  0.00    -0.014 A 
BRANCH  14  15
ATOM     15  C   UNL A   1      40.034  30.881  30.216  1.00  0.00     0.031 A 
ATOM     16  C   UNL A   1      40.953  29.726  30.376  1.00  0.00     0.074 A 
ATOM     17  C   UNL A   1      40.343  32.070  30.771  1.00  0.00     0.049 A 
ATOM     18  N   UNL A   1      41.326  29.148  31.473  1.00  0.00    -0.248 NA
ATOM     19  C   UNL A   1      41.522  29.138  29.157  1.00  0.00     0.031 C 
ATOM     20  C   UNL A   1      39.718  33.370  30.512  1.00  0.00     0.029 A 
ATOM     21  N   UNL A   1      41.361  32.370  31.627  1.00  0.00    -0.354 N 
ATOM     22  C   UNL A   1      42.301  28.222  31.110  1.00  0.00     0.074 A 
ATOM     23  C   UNL A   1      42.326  28.202  29.667  1.00  0.00     0.031 C 
ATOM     24  C   UNL A   1      40.505  34.343  31.015  1.00  0.00     0.029 A 
ATOM     25  C   UNL A   1      41.597  33.728  31.750  1.00  0.00     0.049 A 
ATOM     26  H   UNL A   1      41.879  31.686  32.111  1.00  0.00     0.167 HD
ATOM     27  C   UNL A   1      43.140  27.630  32.004  1.00  0.00     0.031 A 
ATOM     28  C   UNL A   1      42.656  34.316  32.345  1.00  0.00     0.031 A 
ATOM     29  C   UNL A   1      42.703  27.759  33.364  1.00  0.00     0.049 A 
ATOM     30  C   UNL A   1      43.246  33.357  33.304  1.00  0.00     0.074 A 
ATOM     31  C   UNL A   1      41.622  27.308  34.093  1.00  0.00     0.029 A 
ATOM     32  N   UNL A   1      43.316  28.709  34.143  1.00  0.00    -0.354 N 
ATOM     33  N   UNL A   1      42.647  32.956  34.391  1.00  0.00    -0.248 NA
ATOM     34  C   UNL A   1      44.398  32.563  32.906  1.00  0.00     0.031 C 
ATOM     35  C   UNL A   1      41.392  28.301  35.088  1.00  0.00     0.029 A 
ATOM     36  C   UNL A   1      42.345  29.307  34.909  1.00  0.00     0.049 A 
ATOM     37  H   UNL A   1      44.277  28.924  34.151  1.00  0.00     0.167 HD
ATOM     38  C   UNL A   1      43.086  31.657  34.588  1.00  0.00     0.074 A 
ATOM     39  C   UNL A   1      44.263  31.528  33.740  1.00  0.00     0.031 C 
ATOM     40  C   UNL A   1      42.296  30.728  35.203  1.00  0.00     0.031 A 
BRANCH  27  41
ATOM     41  C   UNL A   1      44.524  27.151  31.651  1.00  0.00    -0.014 A 
ATOM     42  C   UNL A   1      45.018  25.950  32.198  1.00  0.00     0.010 A 
ATOM     43  C   UNL A   1      45.445  27.982  30.979  1.00  0.00     0.010 A 
ATOM     44  C   UNL A   1      46.374  25.606  32.087  1.00  0.00     0.020 A 
ATOM     45  C   UNL A   1      46.788  27.629  30.829  1.00  0.00     0.020 A 
ATOM     46  C   UNL A   1      47.252  26.455  31.410  1.00  0.00     0.054 A 
BRANCH  46  47
ATOM     47  S   UNL A   1      49.015  26.045  31.342  1.00  0.00     0.124 S 
ATOM     48  O   UNL A   1      49.636  27.355  31.513  1.00  0.00    -0.237 OA
ATOM     49  O   UNL A   1      49.168  25.119  32.461  1.00  0.00    -0.237 OA
ATOM     50  O   UNL A   1      49.174  25.443  30.019  1.00  0.00    -0.744 OA
ENDBRANCH  46  47
ENDBRANCH  27  41
BRANCH  28  51
ATOM     51  C   UNL A   1      43.339  35.541  31.876  1.00  0.00    -0.014 A 
ATOM     52  C   UNL A   1      43.621  35.747  30.517  1.00  0.00     0.010 A 
ATOM     53  C   UNL A   1      43.499  36.633  32.759  1.00  0.00     0.010 A 
ATOM     54  C   UNL A   1      44.004  37.015  30.050  1.00  0.00     0.020 A 
ATOM     55  C   UNL A   1      43.892  37.892  32.305  1.00  0.00     0.020 A 
ATOM     56  C   UNL A   1      44.121  38.083  30.947  1.00  0.00     0.054 A 
BRANCH  56  57
ATOM     57  S   UNL A   1      44.450  39.751  30.315  1.00  0.00     0.124 S 
ATOM     58  O   UNL A   1      43.239  40.471  30.700  1.00  0.00    -0.237 OA
ATOM     59  O   UNL A   1      45.666  40.127  31.032  1.00  0.00    -0.237 OA
ATOM     60  O   UNL A   1      44.620  39.547  28.877  1.00  0.00    -0.744 OA
ENDBRANCH  56  57
ENDBRANCH  28  51
BRANCH  40  61
ATOM     61  C   UNL A   1      41.093  31.219  35.980  1.00  0.00    -0.014 A 
ATOM     62  C   UNL A   1      41.198  32.143  37.038  1.00  0.00     0.010 A 
ATOM     63  C   UNL A   1      39.808  30.851  35.542  1.00  0.00     0.010 A 
ATOM     64  C   UNL A   1      40.054  32.663  37.659  1.00  0.00     0.020 A 
ATOM     65  C   UNL A   1      38.660  31.381  36.144  1.00  0.00     0.020 A 
ATOM     66  C   UNL A   1      38.790  32.279  37.206  1.00  0.00     0.054 A 
BRANCH  66  67
ATOM     67  S   UNL A   1      37.317  33.020  37.966  1.00  0.00     0.124 S 
ATOM     68  O   UNL A   1      37.894  34.000  38.883  1.00  0.00    -0.237 OA
ATOM     69  O   UNL A   1      36.604  33.578  36.819  1.00  0.00    -0.237 OA
ATOM     70  O   UNL A   1      36.650  31.889  38.607  1.00  0.00    -0.744 OA
ENDBRANCH  66  67
ENDBRANCH  40  61
ENDBRANCH  14  15
ENDBRANCH   7   9
ENDBRANCH   6   7
ENDBRANCH   5   6
ENDBRANCH   4   5
ENDBRANCH   3   4
ENDBRANCH   2   3
ENDBRANCH   1   2
BRANCH   1  71
ATOM     71  O   UNL A   1      32.206  24.769  24.428  1.00  0.00    -0.377 OA
BRANCH  71  72
ATOM     72  C   UNL A   1      33.502  24.400  24.895  1.00  0.00     0.188 C 
BRANCH  72  73
ATOM     73  C   UNL A   1      34.354  23.467  23.997  1.00  0.00     0.188 C 
BRANCH  73  74
ATOM     74  O   UNL A   1      34.782  22.158  24.363  1.00  0.00    -0.376 OA
BRANCH  74  75
ATOM     75  C   UNL A   1      36.147  21.792  24.316  1.00  0.00     0.202 C 
BRANCH  75  76
ATOM     76  C   UNL A   1      36.790  21.646  25.698  1.00  0.00     0.261 C 
BRANCH  76  77
ATOM     77  O   UNL A   1      38.076  22.276  25.794  1.00  0.00    -0.458 OA
BRANCH  77  78
ATOM     78  C   UNL A   1      38.050  23.597  26.153  1.00  0.00     0.361 C 
ATOM     79  O   UNL A   1      37.153  24.373  25.883  1.00  0.00    -0.244 OA
BRANCH  78  80
ATOM     80  C   UNL A   1      39.208  23.970  26.963  1.00  0.00     0.198 A 
ATOM     81  N   UNL A   1      39.075  24.892  27.973  1.00  0.00    -0.122 NA
ATOM     82  C   UNL A   1      40.508  23.473  26.977  1.00  0.00     0.123 A 
ATOM     83  N   UNL A   1      40.231  24.982  28.608  1.00  0.00    -0.061 NA
ATOM     84  N   UNL A   1      41.150  24.299  27.889  1.00  0.00    -0.213 N 
BRANCH  82  85
ATOM     85  C   UNL A   1      41.138  22.294  26.292  1.00  0.00     0.262 C 
ATOM     86  C   UNL A   1      41.936  21.366  27.222  1.00  0.00     0.281 C 
ATOM     87  O   UNL A   1      41.872  22.733  25.144  1.00  0.00    -0.477 OA
ATOM     88  O   UNL A   1      43.204  21.917  27.584  1.00  0.00    -0.485 OA
ATOM     89  C   UNL A   1      43.235  22.658  25.274  1.00  0.00     0.162 A 
ATOM     90  C   UNL A   1      43.883  22.294  26.458  1.00  0.00     0.161 A 
ATOM     91  C   UNL A   1      43.985  23.054  24.169  1.00  0.00     0.050 A 
ATOM     92  C   UNL A   1      45.271  22.372  26.554  1.00  0.00     0.050 A 
ATOM     93  C   UNL A   1      45.377  23.114  24.257  1.00  0.00     0.004 A 
ATOM     94  C   UNL A   1      46.019  22.783  25.450  1.00  0.00     0.004 A 
ENDBRANCH  82  85
BRANCH  84  95
ATOM     95  C   UNL A   1      42.432  24.869  27.802  1.00  0.00     0.067 A 
ATOM     96  C   UNL A   1      43.349  24.683  28.838  1.00  0.00     0.028 A 
ATOM     97  C   UNL A   1      42.720  25.711  26.719  1.00  0.00     0.041 A 
ATOM     98  C   UNL A   1      44.604  25.284  28.742  1.00  0.00     0.003 A 
ATOM     99  C   UNL A   1      43.957  26.360  26.650  1.00  0.00     0.058 A 
ATOM    100  C   UNL A   1      44.907  26.114  27.656  1.00  0.00     0.013 A 
BRANCH  99 101
ATOM    101  C   UNL A   1      44.266  27.295  25.510  1.00  0.00     0.416 C 
ATOM    102  F   UNL A   1      44.703  28.515  25.932  1.00  0.00    -0.166 F 
ATOM    103  F   UNL A   1      45.240  26.816  24.687  1.00  0.00    -0.166 F 
ATOM    104  F   UNL A   1      43.193  27.548  24.708  1.00  0.00    -0.166 F 
ENDBRANCH  99 101
ENDBRANCH  84  95
ENDBRANCH  78  80
ENDBRANCH  77  78
ENDBRANCH  76  77
ENDBRANCH  75  76
ENDBRANCH  74  75
ENDBRANCH  73  74
ENDBRANCH  72  73
ENDBRANCH  71  72
ENDBRANCH   1  71
TORSDOF 26
ENDMDL
