MODEL 1
REMARK VINA RESULT:      -6.6      0.000      0.000
REMARK SMILES O=C(OCCOCCOCCOCCOC(=O)c1ccc(-c2c3nc(c(-c4ccc(S(=O)(=O)[O-])cc4)c4ccc([nH]4)c(-c4ccc(S(=O)(=O)[O-])cc4)c4nc(c(-c5ccc(S(=O)(=O)[O-])cc5)c5ccc2[nH]5)C=C4)C=C3)cc1)C(=O)/C(=C/c1cnn(Cc2ccccc2Cl)c1)c1ccc2ccccc2n1
REMARK SMILES IDX 8 1 7 2 6 3 5 4 4 5 3 6 2 7 1 8 78 9 79 10 80 11 81 12 95 13
REMARK SMILES IDX 96 14 104 15 97 16 103 17 98 18 102 19 99 20 101 21 100 22
REMARK SMILES IDX 82 23 83 24 94 25 84 26 85 27 86 28 87 29 88 30 92 31 89 32
REMARK SMILES IDX 91 33 93 34 90 35 9 36 10 37 11 38 12 39 13 40 14 41 15 42
REMARK SMILES IDX 16 43 17 44 18 45 19 46 77 47 20 48 76 49 21 50 22 51 23 52
REMARK SMILES IDX 70 53 24 54 75 55 69 56 71 57 25 58 74 59 68 60 67 61 26 63
REMARK SMILES IDX 56 64 37 65 55 66 38 67 41 68 54 69 72 70 39 71 40 72 53 74
REMARK SMILES IDX 73 75 42 76 27 77 28 78 36 79 29 80 35 81 30 82 31 83 32 84
REMARK SMILES IDX 33 85 34 86 57 87 58 88 66 89 59 90 65 91 60 92 61 93 62 94
REMARK SMILES IDX 63 95 64 96 43 97 44 98 52 99 45 100 51 101 46 102 47 103
REMARK SMILES IDX 48 104 49 105 50 106
REMARK H PARENT 71 62 41 73
REMARK Flexibility Score: inf
ROOT
ATOM      1  C   UNL A   1      43.695  20.078  25.420  1.00  0.00     0.188 C 
ENDROOT
BRANCH   1   2
ATOM      2  C   UNL A   1      42.397  19.533  26.044  1.00  0.00     0.188 C 
BRANCH   2   3
ATOM      3  O   UNL A   1      41.870  20.086  27.225  1.00  0.00    -0.376 OA
BRANCH   3   4
ATOM      4  C   UNL A   1      40.760  20.947  27.216  1.00  0.00     0.202 C 
BRANCH   4   5
ATOM      5  C   UNL A   1      40.908  22.392  27.604  1.00  0.00     0.261 C 
BRANCH   5   6
ATOM      6  O   UNL A   1      40.334  23.364  26.717  1.00  0.00    -0.457 OA
BRANCH   6   7
ATOM      7  C   UNL A   1      40.339  24.696  26.725  1.00  0.00     0.379 C 
ATOM      8  O   UNL A   1      40.397  25.269  25.636  1.00  0.00    -0.242 OA
BRANCH   7   9
ATOM      9  C   UNL A   1      40.291  25.608  27.984  1.00  0.00     0.272 C 
ATOM     10  O   UNL A   1      39.260  25.471  28.656  1.00  0.00    -0.281 OA
BRANCH   9  11
ATOM     11  C   UNL A   1      41.368  26.677  28.452  1.00  0.00     0.056 C 
ATOM     12  C   UNL A   1      42.407  26.036  29.147  1.00  0.00     0.026 C 
BRANCH  11  13
ATOM     13  C   UNL A   1      41.027  28.073  27.529  1.00  0.00     0.075 A 
ATOM     14  C   UNL A   1      41.925  29.025  27.910  1.00  0.00     0.030 A 
ATOM     15  N   UNL A   1      39.749  28.594  27.206  1.00  0.00    -0.248 NA
ATOM     16  C   UNL A   1      41.511  29.601  29.066  1.00  0.00     0.012 A 
ATOM     17  C   UNL A   1      39.123  29.460  28.086  1.00  0.00     0.071 A 
ATOM     18  C   UNL A   1      40.165  29.390  29.322  1.00  0.00     0.000 A 
ATOM     19  C   UNL A   1      37.338  29.664  28.424  1.00  0.00     0.029 A 
ATOM     20  C   UNL A   1      39.585  28.837  30.853  1.00  0.00     0.010 A 
ATOM     21  C   UNL A   1      36.604  29.331  30.064  1.00  0.00     0.002 A 
ATOM     22  C   UNL A   1      37.748  28.779  31.370  1.00  0.00     0.001 A 
ENDBRANCH  11  13
BRANCH  12  23
ATOM     23  C   UNL A   1      43.890  26.132  29.369  1.00  0.00     0.013 A 
ATOM     24  C   UNL A   1      44.870  25.090  29.409  1.00  0.00     0.143 A 
ATOM     25  C   UNL A   1      44.746  27.256  29.494  1.00  0.00     0.117 A 
ATOM     26  N   UNL A   1      46.087  25.475  29.872  1.00  0.00    -0.181 NA
ATOM     27  N   UNL A   1      45.911  26.781  30.240  1.00  0.00    -0.268 N 
BRANCH  27  28
ATOM     28  C   UNL A   1      46.459  27.354  31.728  1.00  0.00     0.181 C 
BRANCH  28  29
ATOM     29  C   UNL A   1      46.457  29.100  32.354  1.00  0.00    -0.008 A 
ATOM     30  C   UNL A   1      47.739  29.635  32.203  1.00  0.00     0.007 A 
ATOM     31  C   UNL A   1      45.112  30.018  33.054  1.00  0.00     0.046 A 
ATOM     32  C   UNL A   1      47.966  30.905  32.719  1.00  0.00     0.000 A 
ATOM     33  C   UNL A   1      45.584  31.323  33.477  1.00  0.00     0.021 A 
ATOM     34  Cl  UNL A   1      42.912  28.881  33.377  1.00  0.00    -0.084 Cl
ATOM     35  C   UNL A   1      46.958  31.687  33.338  1.00  0.00     0.002 A 
ENDBRANCH  28  29
ENDBRANCH  27  28
ENDBRANCH  12  23
ENDBRANCH   9  11
ENDBRANCH   7   9
ENDBRANCH   6   7
ENDBRANCH   5   6
ENDBRANCH   4   5
ENDBRANCH   3   4
ENDBRANCH   2   3
ENDBRANCH   1   2
BRANCH   1  36
ATOM     36  O   UNL A   1      43.773  21.204  24.571  1.00  0.00    -0.377 OA
BRANCH  36  37
ATOM     37  C   UNL A   1      43.621  22.497  25.110  1.00  0.00     0.188 C 
BRANCH  37  38
ATOM     38  C   UNL A   1      44.589  22.809  26.287  1.00  0.00     0.188 C 
BRANCH  38  39
ATOM     39  O   UNL A   1      45.980  22.654  26.112  1.00  0.00    -0.376 OA
BRANCH  39  40
ATOM     40  C   UNL A   1      46.731  23.709  25.535  1.00  0.00     0.202 C 
BRANCH  40  41
ATOM     41  C   UNL A   1      46.222  25.167  25.375  1.00  0.00     0.261 C 
BRANCH  41  42
ATOM     42  O   UNL A   1      46.367  26.099  26.461  1.00  0.00    -0.460 OA
BRANCH  42  43
ATOM     43  C   UNL A   1      47.606  26.593  26.704  1.00  0.00     0.338 C 
ATOM     44  O   UNL A   1      48.666  26.062  26.421  1.00  0.00    -0.246 OA
BRANCH  43  45
ATOM     45  C   UNL A   1      47.475  28.021  27.118  1.00  0.00     0.060 A 
ATOM     46  C   UNL A   1      48.120  28.462  28.289  1.00  0.00     0.016 A 
ATOM     47  C   UNL A   1      46.761  28.930  26.339  1.00  0.00     0.016 A 
ATOM     48  C   UNL A   1      48.020  29.793  28.703  1.00  0.00     0.010 A 
ATOM     49  C   UNL A   1      46.624  30.254  26.779  1.00  0.00     0.010 A 
ATOM     50  C   UNL A   1      47.216  30.681  27.983  1.00  0.00    -0.014 A 
BRANCH  50  51
ATOM     51  C   UNL A   1      46.795  31.968  28.598  1.00  0.00     0.031 A 
ATOM     52  C   UNL A   1      47.686  33.167  28.399  1.00  0.00     0.074 A 
ATOM     53  C   UNL A   1      45.655  32.087  29.305  1.00  0.00     0.049 A 
ATOM     54  N   UNL A   1      47.587  34.370  28.904  1.00  0.00    -0.248 NA
ATOM     55  C   UNL A   1      48.851  32.979  27.519  1.00  0.00     0.031 C 
ATOM     56  C   UNL A   1      44.675  31.025  29.520  1.00  0.00     0.029 A 
ATOM     57  N   UNL A   1      45.140  33.163  29.986  1.00  0.00    -0.354 N 
ATOM     58  C   UNL A   1      48.688  35.071  28.424  1.00  0.00     0.074 A 
ATOM     59  C   UNL A   1      49.455  34.154  27.614  1.00  0.00     0.031 C 
ATOM     60  C   UNL A   1      43.683  31.499  30.294  1.00  0.00     0.029 A 
ATOM     61  C   UNL A   1      43.980  32.882  30.670  1.00  0.00     0.049 A 
ATOM     62  H   UNL A   1      45.563  34.053  29.986  1.00  0.00     0.167 HD
ATOM     63  C   UNL A   1      49.030  36.364  28.638  1.00  0.00     0.031 A 
ATOM     64  C   UNL A   1      43.259  33.639  31.522  1.00  0.00     0.031 A 
ATOM     65  C   UNL A   1      48.272  37.268  29.462  1.00  0.00     0.049 A 
ATOM     66  C   UNL A   1      43.709  35.048  31.821  1.00  0.00     0.074 A 
ATOM     67  C   UNL A   1      48.525  38.603  29.727  1.00  0.00     0.029 A 
ATOM     68  N   UNL A   1      47.125  36.931  30.164  1.00  0.00    -0.354 N 
ATOM     69  N   UNL A   1      44.738  35.707  31.340  1.00  0.00    -0.248 NA
ATOM     70  C   UNL A   1      42.895  35.820  32.771  1.00  0.00     0.031 C 
ATOM     71  C   UNL A   1      47.581  39.049  30.655  1.00  0.00     0.029 A 
ATOM     72  C   UNL A   1      46.681  38.021  30.894  1.00  0.00     0.049 A 
ATOM     73  H   UNL A   1      46.691  36.048  30.148  1.00  0.00     0.167 HD
ATOM     74  C   UNL A   1      44.670  36.980  31.900  1.00  0.00     0.074 A 
ATOM     75  C   UNL A   1      43.492  37.003  32.742  1.00  0.00     0.031 C 
ATOM     76  C   UNL A   1      45.504  38.035  31.729  1.00  0.00     0.031 A 
BRANCH  63  77
ATOM     77  C   UNL A   1      50.306  36.865  28.009  1.00  0.00    -0.014 A 
ATOM     78  C   UNL A   1      50.318  37.430  26.720  1.00  0.00     0.010 A 
ATOM     79  C   UNL A   1      51.507  36.810  28.740  1.00  0.00     0.010 A 
ATOM     80  C   UNL A   1      51.513  37.893  26.162  1.00  0.00     0.020 A 
ATOM     81  C   UNL A   1      52.696  37.308  28.202  1.00  0.00     0.020 A 
ATOM     82  C   UNL A   1      52.694  37.833  26.908  1.00  0.00     0.054 A 
BRANCH  82  83
ATOM     83  S   UNL A   1      54.220  38.475  26.170  1.00  0.00     0.124 S 
ATOM     84  O   UNL A   1      53.867  39.869  25.912  1.00  0.00    -0.237 OA
ATOM     85  O   UNL A   1      55.199  38.262  27.232  1.00  0.00    -0.237 OA
ATOM     86  O   UNL A   1      54.405  37.650  24.978  1.00  0.00    -0.744 OA
ENDBRANCH  82  83
ENDBRANCH  63  77
BRANCH  64  87
ATOM     87  C   UNL A   1      42.046  33.076  32.183  1.00  0.00    -0.014 A 
ATOM     88  C   UNL A   1      42.133  32.447  33.438  1.00  0.00     0.010 A 
ATOM     89  C   UNL A   1      40.791  33.153  31.548  1.00  0.00     0.010 A 
ATOM     90  C   UNL A   1      40.997  31.894  34.037  1.00  0.00     0.020 A 
ATOM     91  C   UNL A   1      39.646  32.637  32.160  1.00  0.00     0.020 A 
ATOM     92  C   UNL A   1      39.759  32.002  33.398  1.00  0.00     0.054 A 
BRANCH  92  93
ATOM     93  S   UNL A   1      38.289  31.331  34.224  1.00  0.00     0.124 S 
ATOM     94  O   UNL A   1      37.233  31.636  33.265  1.00  0.00    -0.237 OA
ATOM     95  O   UNL A   1      38.630  29.917  34.363  1.00  0.00    -0.237 OA
ATOM     96  O   UNL A   1      38.231  32.078  35.479  1.00  0.00    -0.744 OA
ENDBRANCH  92  93
ENDBRANCH  64  87
BRANCH  76  97
ATOM     97  C   UNL A   1      45.153  39.332  32.419  1.00  0.00    -0.014 A 
ATOM     98  C   UNL A   1      44.536  40.393  31.732  1.00  0.00     0.010 A 
ATOM     99  C   UNL A   1      45.389  39.462  33.801  1.00  0.00     0.010 A 
ATOM    100  C   UNL A   1      44.199  41.571  32.406  1.00  0.00     0.020 A 
ATOM    101  C   UNL A   1      45.017  40.619  34.486  1.00  0.00     0.020 A 
ATOM    102  C   UNL A   1      44.436  41.674  33.781  1.00  0.00     0.054 A 
BRANCH 102 103
ATOM    103  S   UNL A   1      43.942  43.193  34.639  1.00  0.00     0.124 S 
ATOM    104  O   UNL A   1      42.901  43.716  33.759  1.00  0.00    -0.237 OA
ATOM    105  O   UNL A   1      43.480  42.691  35.931  1.00  0.00    -0.237 OA
ATOM    106  O   UNL A   1      45.171  43.982  34.687  1.00  0.00    -0.744 OA
ENDBRANCH 102 103
ENDBRANCH  76  97
ENDBRANCH  50  51
ENDBRANCH  43  45
ENDBRANCH  42  43
ENDBRANCH  41  42
ENDBRANCH  40  41
ENDBRANCH  39  40
ENDBRANCH  38  39
ENDBRANCH  37  38
ENDBRANCH  36  37
ENDBRANCH   1  36
TORSDOF 28
ENDMDL
MODEL 2
REMARK VINA RESULT:      -6.5      4.253      9.751
REMARK SMILES O=C(OCCOCCOCCOCCOC(=O)c1ccc(-c2c3nc(c(-c4ccc(S(=O)(=O)[O-])cc4)c4ccc([nH]4)c(-c4ccc(S(=O)(=O)[O-])cc4)c4nc(c(-c5ccc(S(=O)(=O)[O-])cc5)c5ccc2[nH]5)C=C4)C=C3)cc1)C(=O)/C(=C/c1cnn(Cc2ccccc2Cl)c1)c1ccc2ccccc2n1
REMARK SMILES IDX 8 1 7 2 6 3 5 4 4 5 3 6 2 7 1 8 78 9 79 10 80 11 81 12 95 13
REMARK SMILES IDX 96 14 104 15 97 16 103 17 98 18 102 19 99 20 101 21 100 22
REMARK SMILES IDX 82 23 83 24 94 25 84 26 85 27 86 28 87 29 88 30 92 31 89 32
REMARK SMILES IDX 91 33 93 34 90 35 9 36 10 37 11 38 12 39 13 40 14 41 15 42
REMARK SMILES IDX 16 43 17 44 18 45 19 46 77 47 20 48 76 49 21 50 22 51 23 52
REMARK SMILES IDX 70 53 24 54 75 55 69 56 71 57 25 58 74 59 68 60 67 61 26 63
REMARK SMILES IDX 56 64 37 65 55 66 38 67 41 68 54 69 72 70 39 71 40 72 53 74
REMARK SMILES IDX 73 75 42 76 27 77 28 78 36 79 29 80 35 81 30 82 31 83 32 84
REMARK SMILES IDX 33 85 34 86 57 87 58 88 66 89 59 90 65 91 60 92 61 93 62 94
REMARK SMILES IDX 63 95 64 96 43 97 44 98 52 99 45 100 51 101 46 102 47 103
REMARK SMILES IDX 48 104 49 105 50 106
REMARK H PARENT 71 62 41 73
REMARK Flexibility Score: inf
ROOT
ATOM      1  C   UNL A   1      35.020  30.252  27.323  1.00  0.00     0.188 C 
ENDROOT
BRANCH   1   2
ATOM      2  C   UNL A   1      36.140  30.126  28.373  1.00  0.00     0.188 C 
BRANCH   2   3
ATOM      3  O   UNL A   1      37.467  30.474  28.065  1.00  0.00    -0.376 OA
BRANCH   3   4
ATOM      4  C   UNL A   1      38.566  29.787  28.607  1.00  0.00     0.202 C 
BRANCH   4   5
ATOM      5  C   UNL A   1      39.194  28.641  27.866  1.00  0.00     0.261 C 
BRANCH   5   6
ATOM      6  O   UNL A   1      40.283  28.956  26.984  1.00  0.00    -0.457 OA
BRANCH   6   7
ATOM      7  C   UNL A   1      41.520  28.474  26.881  1.00  0.00     0.379 C 
ATOM      8  O   UNL A   1      42.444  29.203  27.241  1.00  0.00    -0.242 OA
BRANCH   7   9
ATOM      9  C   UNL A   1      41.918  27.074  26.332  1.00  0.00     0.272 C 
ATOM     10  O   UNL A   1      41.255  26.721  25.348  1.00  0.00    -0.281 OA
BRANCH   9  11
ATOM     11  C   UNL A   1      43.014  26.080  26.907  1.00  0.00     0.056 C 
ATOM     12  C   UNL A   1      44.277  26.409  26.387  1.00  0.00     0.026 C 
BRANCH  11  13
ATOM     13  C   UNL A   1      42.264  25.328  28.245  1.00  0.00     0.075 A 
ATOM     14  C   UNL A   1      43.211  25.226  29.220  1.00  0.00     0.030 A 
ATOM     15  N   UNL A   1      41.356  24.241  28.218  1.00  0.00    -0.248 NA
ATOM     16  C   UNL A   1      44.002  24.151  28.971  1.00  0.00     0.012 A 
ATOM     17  C   UNL A   1      41.843  22.945  28.219  1.00  0.00     0.071 A 
ATOM     18  C   UNL A   1      43.427  23.252  28.088  1.00  0.00     0.000 A 
ATOM     19  C   UNL A   1      41.146  21.454  27.425  1.00  0.00     0.029 A 
ATOM     20  C   UNL A   1      44.274  22.618  26.721  1.00  0.00     0.010 A 
ATOM     21  C   UNL A   1      42.027  20.536  26.112  1.00  0.00     0.002 A 
ATOM     22  C   UNL A   1      43.657  21.184  25.622  1.00  0.00     0.001 A 
ENDBRANCH  11  13
BRANCH  12  23
ATOM     23  C   UNL A   1      45.729  26.421  26.777  1.00  0.00     0.013 A 
ATOM     24  C   UNL A   1      46.373  27.112  27.851  1.00  0.00     0.143 A 
ATOM     25  C   UNL A   1      46.837  25.689  26.277  1.00  0.00     0.117 A 
ATOM     26  N   UNL A   1      47.729  27.114  27.790  1.00  0.00    -0.181 NA
ATOM     27  N   UNL A   1      48.016  26.492  26.605  1.00  0.00    -0.268 N 
BRANCH  27  28
ATOM     28  C   UNL A   1      49.127  27.143  25.519  1.00  0.00     0.181 C 
BRANCH  28  29
ATOM     29  C   UNL A   1      50.804  26.493  25.067  1.00  0.00    -0.008 A 
ATOM     30  C   UNL A   1      51.237  25.622  26.071  1.00  0.00     0.007 A 
ATOM     31  C   UNL A   1      51.780  26.863  23.634  1.00  0.00     0.046 A 
ATOM     32  C   UNL A   1      52.526  25.115  25.965  1.00  0.00     0.000 A 
ATOM     33  C   UNL A   1      53.059  26.185  23.731  1.00  0.00     0.021 A 
ATOM     34  Cl  UNL A   1      50.925  28.537  21.990  1.00  0.00    -0.084 Cl
ATOM     35  C   UNL A   1      53.389  25.401  24.877  1.00  0.00     0.002 A 
ENDBRANCH  28  29
ENDBRANCH  27  28
ENDBRANCH  12  23
ENDBRANCH   9  11
ENDBRANCH   7   9
ENDBRANCH   6   7
ENDBRANCH   5   6
ENDBRANCH   4   5
ENDBRANCH   3   4
ENDBRANCH   2   3
ENDBRANCH   1   2
BRANCH   1  36
ATOM     36  O   UNL A   1      33.985  31.213  27.357  1.00  0.00    -0.377 OA
BRANCH  36  37
ATOM     37  C   UNL A   1      33.811  32.010  28.505  1.00  0.00     0.188 C 
BRANCH  37  38
ATOM     38  C   UNL A   1      33.635  33.526  28.203  1.00  0.00     0.188 C 
BRANCH  38  39
ATOM     39  O   UNL A   1      32.903  34.340  29.093  1.00  0.00    -0.376 OA
BRANCH  39  40
ATOM     40  C   UNL A   1      33.590  35.063  30.100  1.00  0.00     0.202 C 
BRANCH  40  41
ATOM     41  C   UNL A   1      34.314  34.416  31.312  1.00  0.00     0.261 C 
BRANCH  41  42
ATOM     42  O   UNL A   1      35.737  34.211  31.270  1.00  0.00    -0.460 OA
BRANCH  42  43
ATOM     43  C   UNL A   1      36.460  34.606  32.347  1.00  0.00     0.338 C 
ATOM     44  O   UNL A   1      36.037  35.190  33.329  1.00  0.00    -0.246 OA
BRANCH  43  45
ATOM     45  C   UNL A   1      37.806  33.965  32.275  1.00  0.00     0.060 A 
ATOM     46  C   UNL A   1      38.801  34.344  33.197  1.00  0.00     0.016 A 
ATOM     47  C   UNL A   1      38.076  32.968  31.338  1.00  0.00     0.016 A 
ATOM     48  C   UNL A   1      40.071  33.760  33.159  1.00  0.00     0.010 A 
ATOM     49  C   UNL A   1      39.363  32.417  31.273  1.00  0.00     0.010 A 
ATOM     50  C   UNL A   1      40.377  32.840  32.154  1.00  0.00    -0.014 A 
BRANCH  50  51
ATOM     51  C   UNL A   1      41.796  32.501  31.864  1.00  0.00     0.031 A 
ATOM     52  C   UNL A   1      42.608  33.492  31.070  1.00  0.00     0.074 A 
ATOM     53  C   UNL A   1      42.363  31.358  32.292  1.00  0.00     0.049 A 
ATOM     54  N   UNL A   1      43.829  33.391  30.614  1.00  0.00    -0.248 NA
ATOM     55  C   UNL A   1      41.947  34.766  30.740  1.00  0.00     0.031 C 
ATOM     56  C   UNL A   1      41.710  30.345  33.119  1.00  0.00     0.029 A 
ATOM     57  N   UNL A   1      43.622  30.854  32.074  1.00  0.00    -0.354 N 
ATOM     58  C   UNL A   1      44.072  34.573  29.922  1.00  0.00     0.074 A 
ATOM     59  C   UNL A   1      42.864  35.363  29.994  1.00  0.00     0.031 C 
ATOM     60  C   UNL A   1      42.571  29.332  33.326  1.00  0.00     0.029 A 
ATOM     61  C   UNL A   1      43.818  29.602  32.608  1.00  0.00     0.049 A 
ATOM     62  H   UNL A   1      44.320  31.344  31.580  1.00  0.00     0.167 HD
ATOM     63  C   UNL A   1      45.199  34.968  29.285  1.00  0.00     0.031 A 
ATOM     64  C   UNL A   1      44.865  28.758  32.505  1.00  0.00     0.031 A 
ATOM     65  C   UNL A   1      46.394  34.170  29.200  1.00  0.00     0.049 A 
ATOM     66  C   UNL A   1      46.078  29.178  31.710  1.00  0.00     0.074 A 
ATOM     67  C   UNL A   1      47.596  34.487  28.592  1.00  0.00     0.029 A 
ATOM     68  N   UNL A   1      46.535  32.893  29.723  1.00  0.00    -0.354 N 
ATOM     69  N   UNL A   1      46.304  30.310  31.084  1.00  0.00    -0.248 NA
ATOM     70  C   UNL A   1      47.182  28.211  31.617  1.00  0.00     0.031 C 
ATOM     71  C   UNL A   1      48.433  33.372  28.674  1.00  0.00     0.029 A 
ATOM     72  C   UNL A   1      47.790  32.394  29.418  1.00  0.00     0.049 A 
ATOM     73  H   UNL A   1      45.845  32.413  30.235  1.00  0.00     0.167 HD
ATOM     74  C   UNL A   1      47.588  30.203  30.556  1.00  0.00     0.074 A 
ATOM     75  C   UNL A   1      48.094  28.904  30.951  1.00  0.00     0.031 C 
ATOM     76  C   UNL A   1      48.287  31.100  29.817  1.00  0.00     0.031 A 
BRANCH  63  77
ATOM     77  C   UNL A   1      45.180  36.305  28.587  1.00  0.00    -0.014 A 
ATOM     78  C   UNL A   1      44.678  36.445  27.279  1.00  0.00     0.010 A 
ATOM     79  C   UNL A   1      45.631  37.450  29.269  1.00  0.00     0.010 A 
ATOM     80  C   UNL A   1      44.666  37.695  26.656  1.00  0.00     0.020 A 
ATOM     81  C   UNL A   1      45.584  38.708  28.665  1.00  0.00     0.020 A 
ATOM     82  C   UNL A   1      45.115  38.820  27.355  1.00  0.00     0.054 A 
BRANCH  82  83
ATOM     83  S   UNL A   1      45.051  40.434  26.531  1.00  0.00     0.124 S 
ATOM     84  O   UNL A   1      44.795  41.335  27.652  1.00  0.00    -0.237 OA
ATOM     85  O   UNL A   1      46.381  40.537  25.935  1.00  0.00    -0.237 OA
ATOM     86  O   UNL A   1      43.951  40.298  25.579  1.00  0.00    -0.744 OA
ENDBRANCH  82  83
ENDBRANCH  63  77
BRANCH  64  87
ATOM     87  C   UNL A   1      44.811  27.412  33.147  1.00  0.00    -0.014 A 
ATOM     88  C   UNL A   1      45.131  27.249  34.507  1.00  0.00     0.010 A 
ATOM     89  C   UNL A   1      44.453  26.278  32.393  1.00  0.00     0.010 A 
ATOM     90  C   UNL A   1      45.108  25.980  35.096  1.00  0.00     0.020 A 
ATOM     91  C   UNL A   1      44.391  25.015  32.986  1.00  0.00     0.020 A 
ATOM     92  C   UNL A   1      44.728  24.873  34.332  1.00  0.00     0.054 A 
BRANCH  92  93
ATOM     93  S   UNL A   1      44.648  23.247  35.134  1.00  0.00     0.124 S 
ATOM     94  O   UNL A   1      45.821  22.576  34.585  1.00  0.00    -0.237 OA
ATOM     95  O   UNL A   1      44.722  23.596  36.551  1.00  0.00    -0.237 OA
ATOM     96  O   UNL A   1      43.359  22.714  34.697  1.00  0.00    -0.744 OA
ENDBRANCH  92  93
ENDBRANCH  64  87
BRANCH  76  97
ATOM     97  C   UNL A   1      49.701  30.742  29.426  1.00  0.00    -0.014 A 
ATOM     98  C   UNL A   1      50.784  30.939  30.301  1.00  0.00     0.010 A 
ATOM     99  C   UNL A   1      49.936  30.138  28.176  1.00  0.00     0.010 A 
ATOM    100  C   UNL A   1      52.078  30.573  29.919  1.00  0.00     0.020 A 
ATOM    101  C   UNL A   1      51.221  29.732  27.807  1.00  0.00     0.020 A 
ATOM    102  C   UNL A   1      52.287  29.965  28.676  1.00  0.00     0.054 A 
BRANCH 102 103
ATOM    103  S   UNL A   1      53.968  29.455  28.227  1.00  0.00     0.124 S 
ATOM    104  O   UNL A   1      54.258  30.325  27.091  1.00  0.00    -0.237 OA
ATOM    105  O   UNL A   1      54.721  29.738  29.447  1.00  0.00    -0.237 OA
ATOM    106  O   UNL A   1      53.827  28.036  27.905  1.00  0.00    -0.744 OA
ENDBRANCH 102 103
ENDBRANCH  76  97
ENDBRANCH  50  51
ENDBRANCH  43  45
ENDBRANCH  42  43
ENDBRANCH  41  42
ENDBRANCH  40  41
ENDBRANCH  39  40
ENDBRANCH  38  39
ENDBRANCH  37  38
ENDBRANCH  36  37
ENDBRANCH   1  36
TORSDOF 28
ENDMDL
MODEL 3
REMARK VINA RESULT:      -6.5      5.557     10.423
REMARK SMILES O=C(OCCOCCOCCOCCOC(=O)c1ccc(-c2c3nc(c(-c4ccc(S(=O)(=O)[O-])cc4)c4ccc([nH]4)c(-c4ccc(S(=O)(=O)[O-])cc4)c4nc(c(-c5ccc(S(=O)(=O)[O-])cc5)c5ccc2[nH]5)C=C4)C=C3)cc1)C(=O)/C(=C/c1cnn(Cc2ccccc2Cl)c1)c1ccc2ccccc2n1
REMARK SMILES IDX 8 1 7 2 6 3 5 4 4 5 3 6 2 7 1 8 78 9 79 10 80 11 81 12 95 13
REMARK SMILES IDX 96 14 104 15 97 16 103 17 98 18 102 19 99 20 101 21 100 22
REMARK SMILES IDX 82 23 83 24 94 25 84 26 85 27 86 28 87 29 88 30 92 31 89 32
REMARK SMILES IDX 91 33 93 34 90 35 9 36 10 37 11 38 12 39 13 40 14 41 15 42
REMARK SMILES IDX 16 43 17 44 18 45 19 46 77 47 20 48 76 49 21 50 22 51 23 52
REMARK SMILES IDX 70 53 24 54 75 55 69 56 71 57 25 58 74 59 68 60 67 61 26 63
REMARK SMILES IDX 56 64 37 65 55 66 38 67 41 68 54 69 72 70 39 71 40 72 53 74
REMARK SMILES IDX 73 75 42 76 27 77 28 78 36 79 29 80 35 81 30 82 31 83 32 84
REMARK SMILES IDX 33 85 34 86 57 87 58 88 66 89 59 90 65 91 60 92 61 93 62 94
REMARK SMILES IDX 63 95 64 96 43 97 44 98 52 99 45 100 51 101 46 102 47 103
REMARK SMILES IDX 48 104 49 105 50 106
REMARK H PARENT 71 62 41 73
REMARK Flexibility Score: inf
ROOT
ATOM      1  C   UNL A   1      34.402  28.604  27.009  1.00  0.00     0.188 C 
ENDROOT
BRANCH   1   2
ATOM      2  C   UNL A   1      35.035  29.641  27.955  1.00  0.00     0.188 C 
BRANCH   2   3
ATOM      3  O   UNL A   1      36.047  30.510  27.510  1.00  0.00    -0.376 OA
BRANCH   3   4
ATOM      4  C   UNL A   1      37.288  30.609  28.160  1.00  0.00     0.202 C 
BRANCH   4   5
ATOM      5  C   UNL A   1      37.593  29.759  29.361  1.00  0.00     0.261 C 
BRANCH   5   6
ATOM      6  O   UNL A   1      38.568  28.719  29.189  1.00  0.00    -0.457 OA
BRANCH   6   7
ATOM      7  C   UNL A   1      39.682  28.416  29.854  1.00  0.00     0.379 C 
ATOM      8  O   UNL A   1      39.655  28.517  31.081  1.00  0.00    -0.242 OA
BRANCH   7   9
ATOM      9  C   UNL A   1      41.030  27.957  29.228  1.00  0.00     0.272 C 
ATOM     10  O   UNL A   1      42.015  28.556  29.679  1.00  0.00    -0.281 OA
BRANCH   9  11
ATOM     11  C   UNL A   1      41.254  26.872  28.091  1.00  0.00     0.056 C 
ATOM     12  C   UNL A   1      40.473  25.735  28.355  1.00  0.00     0.026 C 
BRANCH  11  13
ATOM     13  C   UNL A   1      41.999  27.726  26.812  1.00  0.00     0.075 A 
ATOM     14  C   UNL A   1      41.585  27.139  25.654  1.00  0.00     0.030 A 
ATOM     15  N   UNL A   1      43.332  28.203  26.764  1.00  0.00    -0.248 NA
ATOM     16  C   UNL A   1      42.319  26.020  25.428  1.00  0.00     0.012 A 
ATOM     17  C   UNL A   1      44.340  27.367  26.315  1.00  0.00     0.071 A 
ATOM     18  C   UNL A   1      43.499  25.993  26.154  1.00  0.00     0.000 A 
ATOM     19  C   UNL A   1      46.091  27.295  26.832  1.00  0.00     0.029 A 
ATOM     20  C   UNL A   1      43.992  24.617  27.077  1.00  0.00     0.010 A 
ATOM     21  C   UNL A   1      46.823  25.819  27.623  1.00  0.00     0.002 A 
ATOM     22  C   UNL A   1      45.711  24.398  27.877  1.00  0.00     0.001 A 
ENDBRANCH  11  13
BRANCH  12  23
ATOM     23  C   UNL A   1      39.700  24.663  27.640  1.00  0.00     0.013 A 
ATOM     24  C   UNL A   1      40.136  23.758  26.621  1.00  0.00     0.143 A 
ATOM     25  C   UNL A   1      38.382  24.174  27.832  1.00  0.00     0.117 A 
ATOM     26  N   UNL A   1      39.137  23.075  26.005  1.00  0.00    -0.181 NA
ATOM     27  N   UNL A   1      37.991  23.587  26.550  1.00  0.00    -0.268 N 
BRANCH  27  28
ATOM     28  C   UNL A   1      36.692  24.053  25.582  1.00  0.00     0.181 C 
BRANCH  28  29
ATOM     29  C   UNL A   1      34.882  23.791  25.890  1.00  0.00    -0.008 A 
ATOM     30  C   UNL A   1      34.727  23.033  27.053  1.00  0.00     0.007 A 
ATOM     31  C   UNL A   1      33.508  24.357  24.925  1.00  0.00     0.046 A 
ATOM     32  C   UNL A   1      33.439  22.638  27.392  1.00  0.00     0.000 A 
ATOM     33  C   UNL A   1      32.273  23.855  25.499  1.00  0.00     0.021 A 
ATOM     34  Cl  UNL A   1      33.950  25.594  22.801  1.00  0.00    -0.084 Cl
ATOM     35  C   UNL A   1      32.290  23.006  26.646  1.00  0.00     0.002 A 
ENDBRANCH  28  29
ENDBRANCH  27  28
ENDBRANCH  12  23
ENDBRANCH   9  11
ENDBRANCH   7   9
ENDBRANCH   6   7
ENDBRANCH   5   6
ENDBRANCH   4   5
ENDBRANCH   3   4
ENDBRANCH   2   3
ENDBRANCH   1   2
BRANCH   1  36
ATOM     36  O   UNL A   1      33.017  28.355  26.892  1.00  0.00    -0.377 OA
BRANCH  36  37
ATOM     37  C   UNL A   1      32.098  29.388  27.163  1.00  0.00     0.188 C 
BRANCH  37  38
ATOM     38  C   UNL A   1      31.940  30.413  26.004  1.00  0.00     0.188 C 
BRANCH  38  39
ATOM     39  O   UNL A   1      31.116  31.546  26.176  1.00  0.00    -0.376 OA
BRANCH  39  40
ATOM     40  C   UNL A   1      31.676  32.743  26.689  1.00  0.00     0.202 C 
BRANCH  40  41
ATOM     41  C   UNL A   1      32.855  32.801  27.698  1.00  0.00     0.261 C 
BRANCH  41  42
ATOM     42  O   UNL A   1      33.589  34.027  27.870  1.00  0.00    -0.460 OA
BRANCH  42  43
ATOM     43  C   UNL A   1      33.318  34.771  28.971  1.00  0.00     0.338 C 
ATOM     44  O   UNL A   1      32.298  35.403  29.185  1.00  0.00    -0.246 OA
BRANCH  43  45
ATOM     45  C   UNL A   1      34.346  34.471  30.011  1.00  0.00     0.060 A 
ATOM     46  C   UNL A   1      34.504  35.352  31.098  1.00  0.00     0.016 A 
ATOM     47  C   UNL A   1      35.118  33.313  29.943  1.00  0.00     0.016 A 
ATOM     48  C   UNL A   1      35.455  35.099  32.091  1.00  0.00     0.010 A 
ATOM     49  C   UNL A   1      36.101  33.083  30.915  1.00  0.00     0.010 A 
ATOM     50  C   UNL A   1      36.303  33.996  31.969  1.00  0.00    -0.014 A 
BRANCH  50  51
ATOM     51  C   UNL A   1      37.543  33.917  32.785  1.00  0.00     0.031 A 
ATOM     52  C   UNL A   1      38.866  33.990  32.065  1.00  0.00     0.074 A 
ATOM     53  C   UNL A   1      37.514  33.794  34.126  1.00  0.00     0.049 A 
ATOM     54  N   UNL A   1      40.078  33.856  32.536  1.00  0.00    -0.248 NA
ATOM     55  C   UNL A   1      38.809  34.240  30.615  1.00  0.00     0.031 C 
ATOM     56  C   UNL A   1      36.308  33.774  34.949  1.00  0.00     0.029 A 
ATOM     57  N   UNL A   1      38.540  33.648  35.027  1.00  0.00    -0.354 N 
ATOM     58  C   UNL A   1      40.924  33.978  31.440  1.00  0.00     0.074 A 
ATOM     59  C   UNL A   1      40.087  34.168  30.277  1.00  0.00     0.031 C 
ATOM     60  C   UNL A   1      36.663  33.611  36.237  1.00  0.00     0.029 A 
ATOM     61  C   UNL A   1      38.116  33.465  36.323  1.00  0.00     0.049 A 
ATOM     62  H   UNL A   1      39.491  33.673  34.770  1.00  0.00     0.167 HD
ATOM     63  C   UNL A   1      42.277  33.937  31.402  1.00  0.00     0.031 A 
ATOM     64  C   UNL A   1      38.814  33.183  37.442  1.00  0.00     0.031 A 
ATOM     65  C   UNL A   1      43.105  33.728  32.560  1.00  0.00     0.049 A 
ATOM     66  C   UNL A   1      40.316  33.048  37.363  1.00  0.00     0.074 A 
ATOM     67  C   UNL A   1      44.487  33.688  32.631  1.00  0.00     0.029 A 
ATOM     68  N   UNL A   1      42.633  33.510  33.846  1.00  0.00    -0.354 N 
ATOM     69  N   UNL A   1      41.105  33.192  36.324  1.00  0.00    -0.248 NA
ATOM     70  C   UNL A   1      41.022  32.722  38.611  1.00  0.00     0.031 C 
ATOM     71  C   UNL A   1      44.847  33.362  33.940  1.00  0.00     0.029 A 
ATOM     72  C   UNL A   1      43.695  33.295  34.709  1.00  0.00     0.049 A 
ATOM     73  H   UNL A   1      41.684  33.508  34.106  1.00  0.00     0.167 HD
ATOM     74  C   UNL A   1      42.400  33.011  36.802  1.00  0.00     0.074 A 
ATOM     75  C   UNL A   1      42.289  32.764  38.225  1.00  0.00     0.031 C 
ATOM     76  C   UNL A   1      43.575  33.052  36.126  1.00  0.00     0.031 A 
BRANCH  63  77
ATOM     77  C   UNL A   1      42.946  34.073  30.058  1.00  0.00    -0.014 A 
ATOM     78  C   UNL A   1      43.251  35.334  29.511  1.00  0.00     0.010 A 
ATOM     79  C   UNL A   1      43.317  32.916  29.347  1.00  0.00     0.010 A 
ATOM     80  C   UNL A   1      43.877  35.433  28.266  1.00  0.00     0.020 A 
ATOM     81  C   UNL A   1      43.978  33.010  28.121  1.00  0.00     0.020 A 
ATOM     82  C   UNL A   1      44.241  34.270  27.580  1.00  0.00     0.054 A 
BRANCH  82  83
ATOM     83  S   UNL A   1      45.084  34.433  25.984  1.00  0.00     0.124 S 
ATOM     84  O   UNL A   1      43.960  34.490  25.053  1.00  0.00    -0.237 OA
ATOM     85  O   UNL A   1      45.829  35.679  26.145  1.00  0.00    -0.237 OA
ATOM     86  O   UNL A   1      45.903  33.225  25.896  1.00  0.00    -0.744 OA
ENDBRANCH  82  83
ENDBRANCH  63  77
BRANCH  64  87
ATOM     87  C   UNL A   1      38.104  32.979  38.738  1.00  0.00    -0.014 A 
ATOM     88  C   UNL A   1      38.145  33.960  39.746  1.00  0.00     0.010 A 
ATOM     89  C   UNL A   1      37.391  31.789  38.979  1.00  0.00     0.010 A 
ATOM     90  C   UNL A   1      37.502  33.749  40.970  1.00  0.00     0.020 A 
ATOM     91  C   UNL A   1      36.715  31.590  40.185  1.00  0.00     0.020 A 
ATOM     92  C   UNL A   1      36.783  32.569  41.178  1.00  0.00     0.054 A 
BRANCH  92  93
ATOM     93  S   UNL A   1      35.907  32.346  42.751  1.00  0.00     0.124 S 
ATOM     94  O   UNL A   1      35.715  33.724  43.192  1.00  0.00    -0.237 OA
ATOM     95  O   UNL A   1      34.698  31.638  42.335  1.00  0.00    -0.237 OA
ATOM     96  O   UNL A   1      36.839  31.556  43.552  1.00  0.00    -0.744 OA
ENDBRANCH  92  93
ENDBRANCH  64  87
BRANCH  76  97
ATOM     97  C   UNL A   1      44.850  32.880  36.916  1.00  0.00    -0.014 A 
ATOM     98  C   UNL A   1      45.651  33.978  37.277  1.00  0.00     0.010 A 
ATOM     99  C   UNL A   1      45.217  31.595  37.359  1.00  0.00     0.010 A 
ATOM    100  C   UNL A   1      46.812  33.788  38.032  1.00  0.00     0.020 A 
ATOM    101  C   UNL A   1      46.353  31.405  38.148  1.00  0.00     0.020 A 
ATOM    102  C   UNL A   1      47.153  32.503  38.469  1.00  0.00     0.054 A 
BRANCH 102 103
ATOM    103  S   UNL A   1      48.636  32.293  39.489  1.00  0.00     0.124 S 
ATOM    104  O   UNL A   1      49.487  33.383  39.019  1.00  0.00    -0.237 OA
ATOM    105  O   UNL A   1      48.112  32.443  40.845  1.00  0.00    -0.237 OA
ATOM    106  O   UNL A   1      49.103  30.950  39.153  1.00  0.00    -0.744 OA
ENDBRANCH 102 103
ENDBRANCH  76  97
ENDBRANCH  50  51
ENDBRANCH  43  45
ENDBRANCH  42  43
ENDBRANCH  41  42
ENDBRANCH  40  41
ENDBRANCH  39  40
ENDBRANCH  38  39
ENDBRANCH  37  38
ENDBRANCH  36  37
ENDBRANCH   1  36
TORSDOF 28
ENDMDL
