MODEL 1
REMARK VINA RESULT:     -10.4      0.000      0.000
REMARK SMILES COc1ccc(N2C(=O)N=C(OCCOCCOCCOCCOC(=O)c3ccc(-c4c5nc(c(-c6ccc(S(=O)(=O)[O-])cc6)c6ccc([nH]6)c(-c6ccc(S(=O)(=O)[O-])cc6)c6nc(c(-c7ccc(S(=O)(=O)[O-])cc7)c7ccc4[nH]7)C=C6)C=C5)cc3)/C(=C\c3cc(Cl)c(OCC(=O)[O-])c(Cl)c3)C2=O)cc1
REMARK SMILES IDX 18 1 17 2 16 3 15 4 14 5 13 6 12 7 11 8 7 9 8 10 102 11 9 12
REMARK SMILES IDX 10 13 87 14 103 15 88 16 6 17 3 18 4 19 105 20 5 21 104 22
REMARK SMILES IDX 2 23 1 24 89 25 90 26 101 27 91 28 99 29 92 30 93 31 100 32
REMARK SMILES IDX 94 33 95 34 96 35 97 36 98 37 19 38 20 39 21 40 22 41 23 42
REMARK SMILES IDX 24 43 25 44 26 45 27 46 28 47 86 48 29 49 85 50 30 51 31 52
REMARK SMILES IDX 32 53 79 54 33 55 84 56 78 57 80 58 34 59 83 60 77 61 76 62
REMARK SMILES IDX 35 64 65 65 46 66 64 67 47 68 50 69 63 70 81 71 48 72 49 73
REMARK SMILES IDX 62 75 82 76 51 77 36 78 37 79 45 80 38 81 44 82 39 83 40 84
REMARK SMILES IDX 41 85 42 86 43 87 66 88 67 89 75 90 68 91 74 92 69 93 70 94
REMARK SMILES IDX 71 95 72 96 73 97 52 98 53 99 61 100 54 101 60 102 55 103
REMARK SMILES IDX 56 104 57 105 58 106 59 107
REMARK H PARENT 80 63 50 74
REMARK Flexibility Score: inf
ROOT
ATOM      1  O   UNL A   1      37.088  22.937  24.587  1.00  0.00    -0.377 OA
ENDROOT
BRANCH   1   2
ATOM      2  C   UNL A   1      35.917  23.492  24.003  1.00  0.00     0.188 C 
BRANCH   2   3
ATOM      3  C   UNL A   1      35.128  24.397  24.969  1.00  0.00     0.188 C 
BRANCH   3   4
ATOM      4  O   UNL A   1      34.303  25.433  24.439  1.00  0.00    -0.376 OA
BRANCH   4   5
ATOM      5  C   UNL A   1      33.851  26.412  25.363  1.00  0.00     0.201 C 
BRANCH   5   6
ATOM      6  C   UNL A   1      32.758  26.018  26.405  1.00  0.00     0.260 C 
BRANCH   6   7
ATOM      7  O   UNL A   1      31.536  25.542  25.805  1.00  0.00    -0.475 OA
BRANCH   7   8
ATOM      8  C   UNL A   1      31.572  24.203  25.742  1.00  0.00     0.231 C 
ATOM      9  N   UNL A   1      32.435  21.692  25.320  1.00  0.00    -0.226 N 
ATOM     10  C   UNL A   1      32.546  22.326  26.577  1.00  0.00     0.358 C 
ATOM     11  C   UNL A   1      31.819  22.282  24.197  1.00  0.00     0.272 C 
ATOM     12  O   UNL A   1      33.165  21.829  27.519  1.00  0.00    -0.245 OA
ATOM     13  N   UNL A   1      32.056  23.582  26.746  1.00  0.00    -0.156 NA
ATOM     14  C   UNL A   1      31.273  23.680  24.404  1.00  0.00     0.103 C 
ATOM     15  O   UNL A   1      31.704  21.744  23.094  1.00  0.00    -0.268 OA
ATOM     16  C   UNL A   1      30.775  24.418  23.364  1.00  0.00     0.027 C 
BRANCH   9  17
ATOM     17  C   UNL A   1      33.057  20.385  25.219  1.00  0.00     0.054 A 
ATOM     18  C   UNL A   1      34.316  17.864  24.805  1.00  0.00     0.119 A 
ATOM     19  C   UNL A   1      35.027  19.051  24.653  1.00  0.00     0.048 A 
ATOM     20  C   UNL A   1      32.967  17.934  25.156  1.00  0.00     0.048 A 
ATOM     21  C   UNL A   1      34.406  20.288  24.845  1.00  0.00     0.031 A 
ATOM     22  C   UNL A   1      32.345  19.187  25.382  1.00  0.00     0.031 A 
BRANCH  18  23
ATOM     23  O   UNL A   1      35.077  16.744  24.628  1.00  0.00    -0.497 OA
ATOM     24  C   UNL A   1      34.554  15.489  25.031  1.00  0.00     0.278 C 
ENDBRANCH  18  23
ENDBRANCH   9  17
BRANCH  16  25
ATOM     25  C   UNL A   1      30.506  25.900  23.271  1.00  0.00    -0.021 A 
ATOM     26  C   UNL A   1      31.497  26.842  22.991  1.00  0.00     0.032 A 
ATOM     27  C   UNL A   1      29.208  26.410  23.489  1.00  0.00     0.032 A 
ATOM     28  C   UNL A   1      31.174  28.212  22.830  1.00  0.00     0.085 A 
ATOM     29  C   UNL A   1      28.875  27.769  23.279  1.00  0.00     0.085 A 
ATOM     30  Cl  UNL A   1      32.486  29.326  22.624  1.00  0.00    -0.080 Cl
ATOM     31  C   UNL A   1      29.848  28.681  22.881  1.00  0.00     0.157 A 
ATOM     32  Cl  UNL A   1      27.253  28.251  23.641  1.00  0.00    -0.080 Cl
BRANCH  31  33
ATOM     33  O   UNL A   1      29.631  30.021  22.681  1.00  0.00    -0.485 OA
BRANCH  33  34
ATOM     34  C   UNL A   1      29.204  30.455  21.392  1.00  0.00     0.282 C 
BRANCH  34  35
ATOM     35  C   UNL A   1      28.078  31.476  21.221  1.00  0.00     0.079 C 
ATOM     36  O   UNL A   1      27.457  31.697  20.191  1.00  0.00    -0.546 OA
ATOM     37  O   UNL A   1      27.804  32.149  22.354  1.00  0.00    -0.546 OA
ENDBRANCH  34  35
ENDBRANCH  33  34
ENDBRANCH  31  33
ENDBRANCH  16  25
ENDBRANCH   7   8
ENDBRANCH   6   7
ENDBRANCH   5   6
ENDBRANCH   4   5
ENDBRANCH   3   4
ENDBRANCH   2   3
ENDBRANCH   1   2
BRANCH   1  38
ATOM     38  C   UNL A   1      37.426  23.418  25.887  1.00  0.00     0.188 C 
BRANCH  38  39
ATOM     39  C   UNL A   1      38.846  23.101  26.447  1.00  0.00     0.188 C 
BRANCH  39  40
ATOM     40  O   UNL A   1      39.618  22.017  25.961  1.00  0.00    -0.376 OA
BRANCH  40  41
ATOM     41  C   UNL A   1      40.690  21.443  26.681  1.00  0.00     0.202 C 
BRANCH  41  42
ATOM     42  C   UNL A   1      42.174  21.796  26.454  1.00  0.00     0.261 C 
BRANCH  42  43
ATOM     43  O   UNL A   1      42.680  22.942  27.148  1.00  0.00    -0.460 OA
BRANCH  43  44
ATOM     44  C   UNL A   1      42.674  24.108  26.450  1.00  0.00     0.338 C 
ATOM     45  O   UNL A   1      42.840  24.225  25.248  1.00  0.00    -0.246 OA
BRANCH  44  46
ATOM     46  C   UNL A   1      42.163  25.207  27.320  1.00  0.00     0.060 A 
ATOM     47  C   UNL A   1      42.934  26.377  27.414  1.00  0.00     0.016 A 
ATOM     48  C   UNL A   1      40.938  25.131  27.987  1.00  0.00     0.016 A 
ATOM     49  C   UNL A   1      42.513  27.446  28.207  1.00  0.00     0.010 A 
ATOM     50  C   UNL A   1      40.531  26.189  28.812  1.00  0.00     0.010 A 
ATOM     51  C   UNL A   1      41.339  27.333  28.960  1.00  0.00    -0.014 A 
BRANCH  51  52
ATOM     52  C   UNL A   1      41.116  28.265  30.097  1.00  0.00     0.031 A 
ATOM     53  C   UNL A   1      42.031  28.135  31.288  1.00  0.00     0.074 A 
ATOM     54  C   UNL A   1      40.170  29.222  30.081  1.00  0.00     0.049 A 
ATOM     55  N   UNL A   1      42.033  28.801  32.413  1.00  0.00    -0.248 NA
ATOM     56  C   UNL A   1      43.087  27.111  31.193  1.00  0.00     0.031 C 
ATOM     57  C   UNL A   1      39.254  29.494  28.976  1.00  0.00     0.029 A 
ATOM     58  N   UNL A   1      39.827  30.149  31.038  1.00  0.00    -0.354 N 
ATOM     59  C   UNL A   1      43.079  28.271  33.161  1.00  0.00     0.074 A 
ATOM     60  C   UNL A   1      43.677  27.218  32.373  1.00  0.00     0.031 C 
ATOM     61  C   UNL A   1      38.456  30.524  29.316  1.00  0.00     0.029 A 
ATOM     62  C   UNL A   1      38.775  30.959  30.677  1.00  0.00     0.049 A 
ATOM     63  H   UNL A   1      40.293  30.227  31.901  1.00  0.00     0.167 HD
ATOM     64  C   UNL A   1      43.507  28.624  34.395  1.00  0.00     0.031 A 
ATOM     65  C   UNL A   1      38.132  31.922  31.372  1.00  0.00     0.031 A 
ATOM     66  C   UNL A   1      42.895  29.646  35.200  1.00  0.00     0.049 A 
ATOM     67  C   UNL A   1      38.570  32.238  32.783  1.00  0.00     0.074 A 
ATOM     68  C   UNL A   1      43.243  30.060  36.473  1.00  0.00     0.029 A 
ATOM     69  N   UNL A   1      41.801  30.405  34.816  1.00  0.00    -0.354 N 
ATOM     70  N   UNL A   1      39.563  31.730  33.475  1.00  0.00    -0.248 NA
ATOM     71  C   UNL A   1      37.793  33.255  33.511  1.00  0.00     0.031 C 
ATOM     72  C   UNL A   1      42.322  31.029  36.882  1.00  0.00     0.029 A 
ATOM     73  C   UNL A   1      41.446  31.271  35.836  1.00  0.00     0.049 A 
ATOM     74  H   UNL A   1      41.344  30.340  33.947  1.00  0.00     0.167 HD
ATOM     75  C   UNL A   1      39.549  32.388  34.703  1.00  0.00     0.074 A 
ATOM     76  C   UNL A   1      38.459  33.340  34.655  1.00  0.00     0.031 C 
ATOM     77  C   UNL A   1      40.363  32.219  35.774  1.00  0.00     0.031 A 
BRANCH  64  78
ATOM     78  C   UNL A   1      44.669  27.858  34.969  1.00  0.00    -0.014 A 
ATOM     79  C   UNL A   1      44.474  26.654  35.669  1.00  0.00     0.010 A 
ATOM     80  C   UNL A   1      45.977  28.339  34.783  1.00  0.00     0.010 A 
ATOM     81  C   UNL A   1      45.566  25.963  36.203  1.00  0.00     0.020 A 
ATOM     82  C   UNL A   1      47.073  27.635  35.288  1.00  0.00     0.020 A 
ATOM     83  C   UNL A   1      46.858  26.459  36.008  1.00  0.00     0.054 A 
BRANCH  83  84
ATOM     84  S   UNL A   1      48.257  25.527  36.689  1.00  0.00     0.124 S 
ATOM     85  O   UNL A   1      48.039  25.667  38.128  1.00  0.00    -0.237 OA
ATOM     86  O   UNL A   1      48.041  24.188  36.149  1.00  0.00    -0.237 OA
ATOM     87  O   UNL A   1      49.428  26.226  36.167  1.00  0.00    -0.744 OA
ENDBRANCH  83  84
ENDBRANCH  64  78
BRANCH  65  88
ATOM     88  C   UNL A   1      36.976  32.649  30.768  1.00  0.00    -0.014 A 
ATOM     89  C   UNL A   1      35.657  32.207  30.977  1.00  0.00     0.010 A 
ATOM     90  C   UNL A   1      37.193  33.767  29.942  1.00  0.00     0.010 A 
ATOM     91  C   UNL A   1      34.582  32.853  30.357  1.00  0.00     0.020 A 
ATOM     92  C   UNL A   1      36.119  34.436  29.346  1.00  0.00     0.020 A 
ATOM     93  C   UNL A   1      34.820  33.965  29.546  1.00  0.00     0.054 A 
BRANCH  93  94
ATOM     94  S   UNL A   1      33.410  34.814  28.779  1.00  0.00     0.124 S 
ATOM     95  O   UNL A   1      34.044  35.992  28.198  1.00  0.00    -0.237 OA
ATOM     96  O   UNL A   1      32.926  33.818  27.826  1.00  0.00    -0.237 OA
ATOM     97  O   UNL A   1      32.516  35.073  29.906  1.00  0.00    -0.744 OA
ENDBRANCH  93  94
ENDBRANCH  65  88
BRANCH  77  98
ATOM     98  C   UNL A   1      40.148  33.111  36.972  1.00  0.00    -0.014 A 
ATOM     99  C   UNL A   1      39.181  32.811  37.948  1.00  0.00     0.010 A 
ATOM    100  C   UNL A   1      40.978  34.232  37.154  1.00  0.00     0.010 A 
ATOM    101  C   UNL A   1      39.029  33.635  39.069  1.00  0.00     0.020 A 
ATOM    102  C   UNL A   1      40.851  35.041  38.287  1.00  0.00     0.020 A 
ATOM    103  C   UNL A   1      39.866  34.744  39.232  1.00  0.00     0.054 A 
BRANCH 103 104
ATOM    104  S   UNL A   1      39.679  35.770  40.715  1.00  0.00     0.124 S 
ATOM    105  O   UNL A   1      41.048  36.225  40.946  1.00  0.00    -0.237 OA
ATOM    106  O   UNL A   1      38.740  36.799  40.277  1.00  0.00    -0.237 OA
ATOM    107  O   UNL A   1      39.155  34.843  41.716  1.00  0.00    -0.744 OA
ENDBRANCH 103 104
ENDBRANCH  77  98
ENDBRANCH  51  52
ENDBRANCH  44  46
ENDBRANCH  43  44
ENDBRANCH  42  43
ENDBRANCH  41  42
ENDBRANCH  40  41
ENDBRANCH  39  40
ENDBRANCH  38  39
ENDBRANCH   1  38
TORSDOF 28
ENDMDL
MODEL 2
REMARK VINA RESULT:     -10.0      1.737      2.414
REMARK SMILES COc1ccc(N2C(=O)N=C(OCCOCCOCCOCCOC(=O)c3ccc(-c4c5nc(c(-c6ccc(S(=O)(=O)[O-])cc6)c6ccc([nH]6)c(-c6ccc(S(=O)(=O)[O-])cc6)c6nc(c(-c7ccc(S(=O)(=O)[O-])cc7)c7ccc4[nH]7)C=C6)C=C5)cc3)/C(=C\c3cc(Cl)c(OCC(=O)[O-])c(Cl)c3)C2=O)cc1
REMARK SMILES IDX 18 1 17 2 16 3 15 4 14 5 13 6 12 7 11 8 7 9 8 10 102 11 9 12
REMARK SMILES IDX 10 13 87 14 103 15 88 16 6 17 3 18 4 19 105 20 5 21 104 22
REMARK SMILES IDX 2 23 1 24 89 25 90 26 101 27 91 28 99 29 92 30 93 31 100 32
REMARK SMILES IDX 94 33 95 34 96 35 97 36 98 37 19 38 20 39 21 40 22 41 23 42
REMARK SMILES IDX 24 43 25 44 26 45 27 46 28 47 86 48 29 49 85 50 30 51 31 52
REMARK SMILES IDX 32 53 79 54 33 55 84 56 78 57 80 58 34 59 83 60 77 61 76 62
REMARK SMILES IDX 35 64 65 65 46 66 64 67 47 68 50 69 63 70 81 71 48 72 49 73
REMARK SMILES IDX 62 75 82 76 51 77 36 78 37 79 45 80 38 81 44 82 39 83 40 84
REMARK SMILES IDX 41 85 42 86 43 87 66 88 67 89 75 90 68 91 74 92 69 93 70 94
REMARK SMILES IDX 71 95 72 96 73 97 52 98 53 99 61 100 54 101 60 102 55 103
REMARK SMILES IDX 56 104 57 105 58 106 59 107
REMARK H PARENT 80 63 50 74
REMARK Flexibility Score: inf
ROOT
ATOM      1  O   UNL A   1      37.485  21.861  24.448  1.00  0.00    -0.377 OA
ENDROOT
BRANCH   1   2
ATOM      2  C   UNL A   1      36.280  22.457  23.988  1.00  0.00     0.188 C 
BRANCH   2   3
ATOM      3  C   UNL A   1      35.792  23.611  24.886  1.00  0.00     0.188 C 
BRANCH   3   4
ATOM      4  O   UNL A   1      34.868  24.562  24.361  1.00  0.00    -0.376 OA
BRANCH   4   5
ATOM      5  C   UNL A   1      34.476  25.607  25.238  1.00  0.00     0.201 C 
BRANCH   5   6
ATOM      6  C   UNL A   1      33.332  25.341  26.267  1.00  0.00     0.260 C 
BRANCH   6   7
ATOM      7  O   UNL A   1      32.080  24.977  25.652  1.00  0.00    -0.475 OA
BRANCH   7   8
ATOM      8  C   UNL A   1      32.004  23.641  25.570  1.00  0.00     0.231 C 
ATOM      9  N   UNL A   1      32.651  21.075  25.098  1.00  0.00    -0.226 N 
ATOM     10  C   UNL A   1      32.832  21.677  26.362  1.00  0.00     0.358 C 
ATOM     11  C   UNL A   1      32.070  21.731  23.993  1.00  0.00     0.272 C 
ATOM     12  O   UNL A   1      33.420  21.117  27.288  1.00  0.00    -0.245 OA
ATOM     13  N   UNL A   1      32.449  22.967  26.557  1.00  0.00    -0.156 NA
ATOM     14  C   UNL A   1      31.644  23.166  24.229  1.00  0.00     0.103 C 
ATOM     15  O   UNL A   1      31.896  21.222  22.885  1.00  0.00    -0.268 OA
ATOM     16  C   UNL A   1      31.194  23.958  23.207  1.00  0.00     0.027 C 
BRANCH   9  17
ATOM     17  C   UNL A   1      33.161  19.723  24.968  1.00  0.00     0.054 A 
ATOM     18  C   UNL A   1      34.140  17.048  24.933  1.00  0.00     0.119 A 
ATOM     19  C   UNL A   1      32.836  17.326  25.332  1.00  0.00     0.048 A 
ATOM     20  C   UNL A   1      34.964  18.110  24.558  1.00  0.00     0.048 A 
ATOM     21  C   UNL A   1      32.359  18.640  25.361  1.00  0.00     0.031 A 
ATOM     22  C   UNL A   1      34.472  19.439  24.556  1.00  0.00     0.031 A 
BRANCH  18  23
ATOM     23  O   UNL A   1      34.434  15.715  24.917  1.00  0.00    -0.497 OA
ATOM     24  C   UNL A   1      33.405  14.783  25.209  1.00  0.00     0.278 C 
ENDBRANCH  18  23
ENDBRANCH   9  17
BRANCH  16  25
ATOM     25  C   UNL A   1      31.047  25.459  23.140  1.00  0.00    -0.021 A 
ATOM     26  C   UNL A   1      32.103  26.318  22.832  1.00  0.00     0.032 A 
ATOM     27  C   UNL A   1      29.806  26.072  23.412  1.00  0.00     0.032 A 
ATOM     28  C   UNL A   1      31.890  27.713  22.698  1.00  0.00     0.085 A 
ATOM     29  C   UNL A   1      29.580  27.457  23.229  1.00  0.00     0.085 A 
ATOM     30  Cl  UNL A   1      33.282  28.716  22.453  1.00  0.00    -0.080 Cl
ATOM     31  C   UNL A   1      30.611  28.290  22.803  1.00  0.00     0.157 A 
ATOM     32  Cl  UNL A   1      28.018  28.068  23.657  1.00  0.00    -0.080 Cl
BRANCH  31  33
ATOM     33  O   UNL A   1      30.500  29.646  22.625  1.00  0.00    -0.485 OA
BRANCH  33  34
ATOM     34  C   UNL A   1      29.816  30.126  21.471  1.00  0.00     0.282 C 
BRANCH  34  35
ATOM     35  C   UNL A   1      28.518  30.927  21.581  1.00  0.00     0.079 C 
ATOM     36  O   UNL A   1      28.250  31.747  22.447  1.00  0.00    -0.546 OA
ATOM     37  O   UNL A   1      27.644  30.648  20.595  1.00  0.00    -0.546 OA
ENDBRANCH  34  35
ENDBRANCH  33  34
ENDBRANCH  31  33
ENDBRANCH  16  25
ENDBRANCH   7   8
ENDBRANCH   6   7
ENDBRANCH   5   6
ENDBRANCH   4   5
ENDBRANCH   3   4
ENDBRANCH   2   3
ENDBRANCH   1   2
BRANCH   1  38
ATOM     38  C   UNL A   1      38.037  22.409  25.644  1.00  0.00     0.188 C 
BRANCH  38  39
ATOM     39  C   UNL A   1      39.351  21.786  26.207  1.00  0.00     0.188 C 
BRANCH  39  40
ATOM     40  O   UNL A   1      39.705  20.437  25.959  1.00  0.00    -0.376 OA
BRANCH  40  41
ATOM     41  C   UNL A   1      40.940  19.874  26.354  1.00  0.00     0.202 C 
BRANCH  41  42
ATOM     42  C   UNL A   1      42.255  20.030  25.562  1.00  0.00     0.261 C 
BRANCH  42  43
ATOM     43  O   UNL A   1      43.222  20.945  26.086  1.00  0.00    -0.460 OA
BRANCH  43  44
ATOM     44  C   UNL A   1      43.264  22.168  25.493  1.00  0.00     0.338 C 
ATOM     45  O   UNL A   1      43.389  22.381  24.300  1.00  0.00    -0.246 OA
BRANCH  44  46
ATOM     46  C   UNL A   1      42.861  23.214  26.477  1.00  0.00     0.060 A 
ATOM     47  C   UNL A   1      42.948  24.556  26.075  1.00  0.00     0.016 A 
ATOM     48  C   UNL A   1      42.356  22.902  27.743  1.00  0.00     0.016 A 
ATOM     49  C   UNL A   1      42.583  25.586  26.945  1.00  0.00     0.010 A 
ATOM     50  C   UNL A   1      42.023  23.936  28.630  1.00  0.00     0.010 A 
ATOM     51  C   UNL A   1      42.177  25.283  28.250  1.00  0.00    -0.014 A 
BRANCH  51  52
ATOM     52  C   UNL A   1      42.197  26.354  29.280  1.00  0.00     0.031 A 
ATOM     53  C   UNL A   1      43.326  26.333  30.279  1.00  0.00     0.074 A 
ATOM     54  C   UNL A   1      41.282  27.340  29.326  1.00  0.00     0.049 A 
ATOM     55  N   UNL A   1      43.560  27.129  31.289  1.00  0.00    -0.248 NA
ATOM     56  C   UNL A   1      44.325  25.262  30.113  1.00  0.00     0.031 C 
ATOM     57  C   UNL A   1      40.171  27.513  28.392  1.00  0.00     0.029 A 
ATOM     58  N   UNL A   1      41.149  28.390  30.205  1.00  0.00    -0.354 N 
ATOM     59  C   UNL A   1      44.724  26.653  31.882  1.00  0.00     0.074 A 
ATOM     60  C   UNL A   1      45.137  25.487  31.134  1.00  0.00     0.031 C 
ATOM     61  C   UNL A   1      39.472  28.608  28.747  1.00  0.00     0.029 A 
ATOM     62  C   UNL A   1      40.060  29.192  29.954  1.00  0.00     0.049 A 
ATOM     63  H   UNL A   1      41.776  28.553  30.945  1.00  0.00     0.167 HD
ATOM     64  C   UNL A   1      45.391  27.135  32.956  1.00  0.00     0.031 A 
ATOM     65  C   UNL A   1      39.581  30.257  30.631  1.00  0.00     0.031 A 
ATOM     66  C   UNL A   1      44.965  28.271  33.727  1.00  0.00     0.049 A 
ATOM     67  C   UNL A   1      40.292  30.724  31.880  1.00  0.00     0.074 A 
ATOM     68  C   UNL A   1      45.563  28.822  34.846  1.00  0.00     0.029 A 
ATOM     69  N   UNL A   1      43.830  29.022  33.468  1.00  0.00    -0.354 N 
ATOM     70  N   UNL A   1      41.394  30.264  32.426  1.00  0.00    -0.248 NA
ATOM     71  C   UNL A   1      39.691  31.853  32.609  1.00  0.00     0.031 C 
ATOM     72  C   UNL A   1      44.757  29.871  35.298  1.00  0.00     0.029 A 
ATOM     73  C   UNL A   1      43.697  30.018  34.419  1.00  0.00     0.049 A 
ATOM     74  H   UNL A   1      43.210  28.870  32.718  1.00  0.00     0.167 HD
ATOM     75  C   UNL A   1      41.632  31.066  33.540  1.00  0.00     0.074 A 
ATOM     76  C   UNL A   1      40.569  32.049  33.583  1.00  0.00     0.031 C 
ATOM     77  C   UNL A   1      42.638  30.995  34.447  1.00  0.00     0.031 A 
BRANCH  64  78
ATOM     78  C   UNL A   1      46.630  26.398  33.387  1.00  0.00    -0.014 A 
ATOM     79  C   UNL A   1      46.553  25.263  34.216  1.00  0.00     0.010 A 
ATOM     80  C   UNL A   1      47.889  26.832  32.937  1.00  0.00     0.010 A 
ATOM     81  C   UNL A   1      47.717  24.599  34.613  1.00  0.00     0.020 A 
ATOM     82  C   UNL A   1      49.052  26.153  33.307  1.00  0.00     0.020 A 
ATOM     83  C   UNL A   1      48.959  25.048  34.155  1.00  0.00     0.054 A 
BRANCH  83  84
ATOM     84  S   UNL A   1      50.449  24.150  34.666  1.00  0.00     0.124 S 
ATOM     85  O   UNL A   1      50.904  23.578  33.400  1.00  0.00    -0.237 OA
ATOM     86  O   UNL A   1      51.289  25.211  35.213  1.00  0.00    -0.237 OA
ATOM     87  O   UNL A   1      49.954  23.183  35.642  1.00  0.00    -0.744 OA
ENDBRANCH  83  84
ENDBRANCH  64  78
BRANCH  65  88
ATOM     88  C   UNL A   1      38.341  30.952  30.174  1.00  0.00    -0.014 A 
ATOM     89  C   UNL A   1      37.093  30.657  30.754  1.00  0.00     0.010 A 
ATOM     90  C   UNL A   1      38.396  31.886  29.123  1.00  0.00     0.010 A 
ATOM     91  C   UNL A   1      35.925  31.263  30.278  1.00  0.00     0.020 A 
ATOM     92  C   UNL A   1      37.236  32.519  28.667  1.00  0.00     0.020 A 
ATOM     93  C   UNL A   1      36.005  32.192  29.238  1.00  0.00     0.054 A 
BRANCH  93  94
ATOM     94  S   UNL A   1      34.483  32.996  28.659  1.00  0.00     0.124 S 
ATOM     95  O   UNL A   1      33.766  31.883  28.047  1.00  0.00    -0.237 OA
ATOM     96  O   UNL A   1      33.911  33.515  29.899  1.00  0.00    -0.237 OA
ATOM     97  O   UNL A   1      34.970  34.016  27.732  1.00  0.00    -0.744 OA
ENDBRANCH  93  94
ENDBRANCH  65  88
BRANCH  77  98
ATOM     98  C   UNL A   1      42.676  32.034  35.541  1.00  0.00    -0.014 A 
ATOM     99  C   UNL A   1      42.289  31.731  36.858  1.00  0.00     0.010 A 
ATOM    100  C   UNL A   1      43.175  33.318  35.254  1.00  0.00     0.010 A 
ATOM    101  C   UNL A   1      42.372  32.703  37.861  1.00  0.00     0.020 A 
ATOM    102  C   UNL A   1      43.288  34.283  36.259  1.00  0.00     0.020 A 
ATOM    103  C   UNL A   1      42.872  33.973  37.555  1.00  0.00     0.054 A 
BRANCH 103 104
ATOM    104  S   UNL A   1      43.012  35.201  38.882  1.00  0.00     0.124 S 
ATOM    105  O   UNL A   1      43.474  36.382  38.158  1.00  0.00    -0.237 OA
ATOM    106  O   UNL A   1      41.646  35.273  39.396  1.00  0.00    -0.237 OA
ATOM    107  O   UNL A   1      43.986  34.613  39.799  1.00  0.00    -0.744 OA
ENDBRANCH 103 104
ENDBRANCH  77  98
ENDBRANCH  51  52
ENDBRANCH  44  46
ENDBRANCH  43  44
ENDBRANCH  42  43
ENDBRANCH  41  42
ENDBRANCH  40  41
ENDBRANCH  39  40
ENDBRANCH  38  39
ENDBRANCH   1  38
TORSDOF 28
ENDMDL
MODEL 3
REMARK VINA RESULT:      -9.8      2.260      5.982
REMARK SMILES COc1ccc(N2C(=O)N=C(OCCOCCOCCOCCOC(=O)c3ccc(-c4c5nc(c(-c6ccc(S(=O)(=O)[O-])cc6)c6ccc([nH]6)c(-c6ccc(S(=O)(=O)[O-])cc6)c6nc(c(-c7ccc(S(=O)(=O)[O-])cc7)c7ccc4[nH]7)C=C6)C=C5)cc3)/C(=C\c3cc(Cl)c(OCC(=O)[O-])c(Cl)c3)C2=O)cc1
REMARK SMILES IDX 18 1 17 2 16 3 15 4 14 5 13 6 12 7 11 8 7 9 8 10 102 11 9 12
REMARK SMILES IDX 10 13 87 14 103 15 88 16 6 17 3 18 4 19 105 20 5 21 104 22
REMARK SMILES IDX 2 23 1 24 89 25 90 26 101 27 91 28 99 29 92 30 93 31 100 32
REMARK SMILES IDX 94 33 95 34 96 35 97 36 98 37 19 38 20 39 21 40 22 41 23 42
REMARK SMILES IDX 24 43 25 44 26 45 27 46 28 47 86 48 29 49 85 50 30 51 31 52
REMARK SMILES IDX 32 53 79 54 33 55 84 56 78 57 80 58 34 59 83 60 77 61 76 62
REMARK SMILES IDX 35 64 65 65 46 66 64 67 47 68 50 69 63 70 81 71 48 72 49 73
REMARK SMILES IDX 62 75 82 76 51 77 36 78 37 79 45 80 38 81 44 82 39 83 40 84
REMARK SMILES IDX 41 85 42 86 43 87 66 88 67 89 75 90 68 91 74 92 69 93 70 94
REMARK SMILES IDX 71 95 72 96 73 97 52 98 53 99 61 100 54 101 60 102 55 103
REMARK SMILES IDX 56 104 57 105 58 106 59 107
REMARK H PARENT 80 63 50 74
REMARK Flexibility Score: inf
ROOT
ATOM      1  O   UNL A   1      39.773  22.358  26.394  1.00  0.00    -0.377 OA
ENDROOT
BRANCH   1   2
ATOM      2  C   UNL A   1      38.818  21.507  25.777  1.00  0.00     0.188 C 
BRANCH   2   3
ATOM      3  C   UNL A   1      37.485  22.215  25.466  1.00  0.00     0.188 C 
BRANCH   3   4
ATOM      4  O   UNL A   1      37.044  22.310  24.113  1.00  0.00    -0.376 OA
BRANCH   4   5
ATOM      5  C   UNL A   1      36.026  23.264  23.850  1.00  0.00     0.201 C 
BRANCH   5   6
ATOM      6  C   UNL A   1      35.401  23.327  22.420  1.00  0.00     0.260 C 
BRANCH   6   7
ATOM      7  O   UNL A   1      34.018  22.919  22.379  1.00  0.00    -0.475 OA
BRANCH   7   8
ATOM      8  C   UNL A   1      33.240  23.983  22.622  1.00  0.00     0.231 C 
ATOM      9  N   UNL A   1      32.278  26.241  23.719  1.00  0.00    -0.226 N 
ATOM     10  C   UNL A   1      33.129  26.254  22.592  1.00  0.00     0.358 C 
ATOM     11  C   UNL A   1      31.811  25.061  24.335  1.00  0.00     0.272 C 
ATOM     12  O   UNL A   1      33.596  27.293  22.123  1.00  0.00    -0.245 OA
ATOM     13  N   UNL A   1      33.553  25.081  22.053  1.00  0.00    -0.156 NA
ATOM     14  C   UNL A   1      32.289  23.763  23.718  1.00  0.00     0.103 C 
ATOM     15  O   UNL A   1      31.063  25.028  25.313  1.00  0.00    -0.268 OA
ATOM     16  C   UNL A   1      32.023  22.552  24.298  1.00  0.00     0.027 C 
BRANCH   9  17
ATOM     17  C   UNL A   1      31.944  27.542  24.267  1.00  0.00     0.054 A 
ATOM     18  C   UNL A   1      31.327  30.181  25.143  1.00  0.00     0.119 A 
ATOM     19  C   UNL A   1      30.559  29.555  24.166  1.00  0.00     0.048 A 
ATOM     20  C   UNL A   1      32.414  29.492  25.681  1.00  0.00     0.048 A 
ATOM     21  C   UNL A   1      30.868  28.264  23.727  1.00  0.00     0.031 A 
ATOM     22  C   UNL A   1      32.710  28.171  25.261  1.00  0.00     0.031 A 
BRANCH  18  23
ATOM     23  O   UNL A   1      30.866  31.418  25.491  1.00  0.00    -0.497 OA
ATOM     24  C   UNL A   1      31.381  32.039  26.658  1.00  0.00     0.278 C 
ENDBRANCH  18  23
ENDBRANCH   9  17
BRANCH  16  25
ATOM     25  C   UNL A   1      32.662  21.205  24.063  1.00  0.00    -0.021 A 
ATOM     26  C   UNL A   1      33.832  20.791  24.702  1.00  0.00     0.032 A 
ATOM     27  C   UNL A   1      32.098  20.292  23.147  1.00  0.00     0.032 A 
ATOM     28  C   UNL A   1      34.342  19.483  24.509  1.00  0.00     0.085 A 
ATOM     29  C   UNL A   1      32.576  18.969  22.991  1.00  0.00     0.085 A 
ATOM     30  Cl  UNL A   1      35.871  19.105  25.231  1.00  0.00    -0.080 Cl
ATOM     31  C   UNL A   1      33.673  18.525  23.725  1.00  0.00     0.157 A 
ATOM     32  Cl  UNL A   1      31.813  17.987  21.789  1.00  0.00    -0.080 Cl
BRANCH  31  33
ATOM     33  O   UNL A   1      34.228  17.274  23.624  1.00  0.00    -0.485 OA
BRANCH  33  34
ATOM     34  C   UNL A   1      33.512  16.167  24.166  1.00  0.00     0.282 C 
BRANCH  34  35
ATOM     35  C   UNL A   1      34.195  15.124  25.051  1.00  0.00     0.079 C 
ATOM     36  O   UNL A   1      33.672  14.123  25.519  1.00  0.00    -0.546 OA
ATOM     37  O   UNL A   1      35.491  15.404  25.287  1.00  0.00    -0.546 OA
ENDBRANCH  34  35
ENDBRANCH  33  34
ENDBRANCH  31  33
ENDBRANCH  16  25
ENDBRANCH   7   8
ENDBRANCH   6   7
ENDBRANCH   5   6
ENDBRANCH   4   5
ENDBRANCH   3   4
ENDBRANCH   2   3
ENDBRANCH   1   2
BRANCH   1  38
ATOM     38  C   UNL A   1      40.485  21.802  27.498  1.00  0.00     0.188 C 
BRANCH  38  39
ATOM     39  C   UNL A   1      41.722  20.899  27.203  1.00  0.00     0.188 C 
BRANCH  39  40
ATOM     40  O   UNL A   1      42.516  21.073  26.043  1.00  0.00    -0.376 OA
BRANCH  40  41
ATOM     41  C   UNL A   1      43.700  21.845  26.022  1.00  0.00     0.202 C 
BRANCH  41  42
ATOM     42  C   UNL A   1      43.751  23.341  25.654  1.00  0.00     0.261 C 
BRANCH  42  43
ATOM     43  O   UNL A   1      43.063  24.247  26.523  1.00  0.00    -0.460 OA
BRANCH  43  44
ATOM     44  C   UNL A   1      42.562  25.366  25.937  1.00  0.00     0.338 C 
ATOM     45  O   UNL A   1      42.405  25.539  24.741  1.00  0.00    -0.246 OA
BRANCH  44  46
ATOM     46  C   UNL A   1      41.971  26.253  26.980  1.00  0.00     0.060 A 
ATOM     47  C   UNL A   1      42.146  27.639  26.835  1.00  0.00     0.016 A 
ATOM     48  C   UNL A   1      41.215  25.761  28.048  1.00  0.00     0.016 A 
ATOM     49  C   UNL A   1      41.617  28.527  27.773  1.00  0.00     0.010 A 
ATOM     50  C   UNL A   1      40.712  26.649  29.009  1.00  0.00     0.010 A 
ATOM     51  C   UNL A   1      40.949  28.033  28.899  1.00  0.00    -0.014 A 
BRANCH  51  52
ATOM     52  C   UNL A   1      40.764  28.921  30.077  1.00  0.00     0.031 A 
ATOM     53  C   UNL A   1      41.710  28.740  31.237  1.00  0.00     0.074 A 
ATOM     54  C   UNL A   1      39.823  29.882  30.125  1.00  0.00     0.049 A 
ATOM     55  N   UNL A   1      41.747  29.360  32.386  1.00  0.00    -0.248 NA
ATOM     56  C   UNL A   1      42.756  27.715  31.072  1.00  0.00     0.031 C 
ATOM     57  C   UNL A   1      38.879  30.202  29.057  1.00  0.00     0.029 A 
ATOM     58  N   UNL A   1      39.512  30.773  31.126  1.00  0.00    -0.354 N 
ATOM     59  C   UNL A   1      42.810  28.798  33.084  1.00  0.00     0.074 A 
ATOM     60  C   UNL A   1      43.379  27.773  32.239  1.00  0.00     0.031 C 
ATOM     61  C   UNL A   1      38.096  31.221  29.459  1.00  0.00     0.029 A 
ATOM     62  C   UNL A   1      38.455  31.601  30.827  1.00  0.00     0.049 A 
ATOM     63  H   UNL A   1      40.002  30.815  31.979  1.00  0.00     0.167 HD
ATOM     64  C   UNL A   1      43.273  29.100  34.318  1.00  0.00     0.031 A 
ATOM     65  C   UNL A   1      37.837  32.539  31.576  1.00  0.00     0.031 A 
ATOM     66  C   UNL A   1      42.690  30.092  35.179  1.00  0.00     0.049 A 
ATOM     67  C   UNL A   1      38.315  32.797  32.986  1.00  0.00     0.074 A 
ATOM     68  C   UNL A   1      43.075  30.455  36.457  1.00  0.00     0.029 A 
ATOM     69  N   UNL A   1      41.590  30.871  34.855  1.00  0.00    -0.354 N 
ATOM     70  N   UNL A   1      39.324  32.258  33.629  1.00  0.00    -0.248 NA
ATOM     71  C   UNL A   1      37.565  33.788  33.774  1.00  0.00     0.031 C 
ATOM     72  C   UNL A   1      42.172  31.411  36.929  1.00  0.00     0.029 A 
ATOM     73  C   UNL A   1      41.269  31.698  35.918  1.00  0.00     0.049 A 
ATOM     74  H   UNL A   1      41.109  30.842  33.997  1.00  0.00     0.167 HD
ATOM     75  C   UNL A   1      39.347  32.868  34.882  1.00  0.00     0.074 A 
ATOM     76  C   UNL A   1      38.262  33.826  34.901  1.00  0.00     0.031 C 
ATOM     77  C   UNL A   1      40.190  32.652  35.923  1.00  0.00     0.031 A 
BRANCH  64  78
ATOM     78  C   UNL A   1      44.446  28.306  34.830  1.00  0.00    -0.014 A 
ATOM     79  C   UNL A   1      44.288  26.988  35.294  1.00  0.00     0.010 A 
ATOM     80  C   UNL A   1      45.730  28.881  34.822  1.00  0.00     0.010 A 
ATOM     81  C   UNL A   1      45.388  26.272  35.773  1.00  0.00     0.020 A 
ATOM     82  C   UNL A   1      46.837  28.158  35.272  1.00  0.00     0.020 A 
ATOM     83  C   UNL A   1      46.656  26.862  35.759  1.00  0.00     0.054 A 
BRANCH  83  84
ATOM     84  S   UNL A   1      48.069  25.899  36.363  1.00  0.00     0.124 S 
ATOM     85  O   UNL A   1      47.430  24.646  36.763  1.00  0.00    -0.237 OA
ATOM     86  O   UNL A   1      48.926  25.817  35.184  1.00  0.00    -0.237 OA
ATOM     87  O   UNL A   1      48.596  26.705  37.460  1.00  0.00    -0.744 OA
ENDBRANCH  83  84
ENDBRANCH  64  78
BRANCH  65  88
ATOM     88  C   UNL A   1      36.669  33.294  31.033  1.00  0.00    -0.014 A 
ATOM     89  C   UNL A   1      35.480  33.417  31.776  1.00  0.00     0.010 A 
ATOM     90  C   UNL A   1      36.726  33.861  29.746  1.00  0.00     0.010 A 
ATOM     91  C   UNL A   1      34.367  34.071  31.236  1.00  0.00     0.020 A 
ATOM     92  C   UNL A   1      35.627  34.544  29.216  1.00  0.00     0.020 A 
ATOM     93  C   UNL A   1      34.448  34.632  29.960  1.00  0.00     0.054 A 
BRANCH  93  94
ATOM     94  S   UNL A   1      33.005  35.508  29.291  1.00  0.00     0.124 S 
ATOM     95  O   UNL A   1      32.136  35.595  30.459  1.00  0.00    -0.237 OA
ATOM     96  O   UNL A   1      33.587  36.769  28.837  1.00  0.00    -0.237 OA
ATOM     97  O   UNL A   1      32.538  34.627  28.224  1.00  0.00    -0.744 OA
ENDBRANCH  93  94
ENDBRANCH  65  88
BRANCH  77  98
ATOM     98  C   UNL A   1      40.012  33.498  37.160  1.00  0.00    -0.014 A 
ATOM     99  C   UNL A   1      40.854  34.592  37.430  1.00  0.00     0.010 A 
ATOM    100  C   UNL A   1      38.939  33.231  38.030  1.00  0.00     0.010 A 
ATOM    101  C   UNL A   1      40.643  35.383  38.565  1.00  0.00     0.020 A 
ATOM    102  C   UNL A   1      38.706  34.036  39.148  1.00  0.00     0.020 A 
ATOM    103  C   UNL A   1      39.569  35.100  39.416  1.00  0.00     0.054 A 
BRANCH 103 104
ATOM    104  S   UNL A   1      39.289  36.168  40.855  1.00  0.00     0.124 S 
ATOM    105  O   UNL A   1      38.411  37.197  40.305  1.00  0.00    -0.237 OA
ATOM    106  O   UNL A   1      38.668  35.258  41.813  1.00  0.00    -0.237 OA
ATOM    107  O   UNL A   1      40.630  36.624  41.216  1.00  0.00    -0.744 OA
ENDBRANCH 103 104
ENDBRANCH  77  98
ENDBRANCH  51  52
ENDBRANCH  44  46
ENDBRANCH  43  44
ENDBRANCH  42  43
ENDBRANCH  41  42
ENDBRANCH  40  41
ENDBRANCH  39  40
ENDBRANCH  38  39
ENDBRANCH   1  38
TORSDOF 28
ENDMDL
