MODEL 1
REMARK VINA RESULT:      -8.0      0.000      0.000
REMARK SMILES NS(=O)(=O)c1ccc(-n2nc(C(=O)NCCCC(=O)OCCOCCOCCOCCOC(=O)c3ccc(-c4c5nc(c(-c6ccc(S(=O)(=O)[O-])cc6)c6ccc([nH]6)c(-c6ccc(S(=O)(=O)[O-])cc6)c6nc(c(-c7ccc(S(=O)(=O)[O-])cc7)c7ccc4[nH]7)C=C6)C=C5)cc3)cc2-c2ccccc2)cc1
REMARK SMILES IDX 24 1 23 2 22 3 21 4 20 5 18 6 19 7 17 8 16 9 15 10 14 11
REMARK SMILES IDX 12 12 13 13 11 15 9 16 10 17 96 18 95 19 8 20 5 21 6 22
REMARK SMILES IDX 104 23 7 24 103 25 2 26 3 27 4 28 1 29 97 32 98 33 102 34
REMARK SMILES IDX 99 35 101 36 100 37 25 38 26 39 27 40 28 41 29 42 30 43
REMARK SMILES IDX 31 44 32 45 33 46 34 47 35 48 36 49 94 50 37 51 93 52 38 53
REMARK SMILES IDX 39 54 40 55 87 56 41 57 92 58 86 59 88 60 42 61 91 62 85 63
REMARK SMILES IDX 84 64 43 66 73 67 54 68 72 69 55 70 58 71 71 72 89 73 56 74
REMARK SMILES IDX 57 75 70 77 90 78 59 79 44 80 45 81 53 82 46 83 52 84 47 85
REMARK SMILES IDX 48 86 49 87 50 88 51 89 74 90 75 91 83 92 76 93 82 94 77 95
REMARK SMILES IDX 78 96 79 97 80 98 81 99 60 100 61 101 69 102 62 103 68 104
REMARK SMILES IDX 63 105 64 106 65 107 66 108 67 109
REMARK H PARENT 14 14 1 30 1 31 88 65 58 76
REMARK Flexibility Score: inf
ROOT
ATOM      1  C   UNL A   1      35.172  34.212  33.971  1.00  0.00     0.188 C 
ENDROOT
BRANCH   1   2
ATOM      2  O   UNL A   1      36.470  33.722  33.655  1.00  0.00    -0.376 OA
BRANCH   2   3
ATOM      3  C   UNL A   1      37.592  34.177  34.396  1.00  0.00     0.202 C 
BRANCH   3   4
ATOM      4  C   UNL A   1      38.095  33.316  35.560  1.00  0.00     0.261 C 
BRANCH   4   5
ATOM      5  O   UNL A   1      37.466  33.575  36.830  1.00  0.00    -0.463 OA
BRANCH   5   6
ATOM      6  C   UNL A   1      37.579  32.600  37.761  1.00  0.00     0.305 C 
ATOM      7  O   UNL A   1      37.846  31.429  37.514  1.00  0.00    -0.252 OA
BRANCH   6   8
ATOM      8  C   UNL A   1      37.277  33.047  39.180  1.00  0.00     0.124 C 
BRANCH   8   9
ATOM      9  C   UNL A   1      38.352  33.669  40.070  1.00  0.00     0.033 C 
BRANCH   9  10
ATOM     10  C   UNL A   1      39.727  33.927  39.449  1.00  0.00     0.117 C 
BRANCH  10  11
ATOM     11  N   UNL A   1      39.672  34.897  38.380  1.00  0.00    -0.351 N 
ATOM     12  C   UNL A   1      39.879  36.255  38.309  1.00  0.00     0.271 C 
ATOM     13  O   UNL A   1      39.660  36.738  37.191  1.00  0.00    -0.267 OA
ATOM     14  H   UNL A   1      39.434  34.498  37.512  1.00  0.00     0.163 HD
BRANCH  12  15
ATOM     15  C   UNL A   1      40.341  37.094  39.443  1.00  0.00     0.151 A 
ATOM     16  N   UNL A   1      40.324  38.845  40.691  1.00  0.00    -0.232 N 
ATOM     17  N   UNL A   1      39.566  38.134  39.831  1.00  0.00    -0.162 NA
ATOM     18  C   UNL A   1      41.399  38.106  41.150  1.00  0.00     0.075 A 
ATOM     19  C   UNL A   1      41.506  37.052  40.262  1.00  0.00     0.065 A 
BRANCH  16  20
ATOM     20  C   UNL A   1      40.009  40.187  41.022  1.00  0.00     0.065 A 
ATOM     21  C   UNL A   1      39.600  42.843  41.730  1.00  0.00     0.082 A 
ATOM     22  C   UNL A   1      40.131  42.546  40.474  1.00  0.00     0.024 A 
ATOM     23  C   UNL A   1      39.231  41.820  42.615  1.00  0.00     0.024 A 
ATOM     24  C   UNL A   1      40.342  41.216  40.125  1.00  0.00     0.030 A 
ATOM     25  C   UNL A   1      39.405  40.482  42.247  1.00  0.00     0.030 A 
BRANCH  21  26
ATOM     26  S   UNL A   1      39.451  44.533  42.232  1.00  0.00     0.238 S 
ATOM     27  O   UNL A   1      40.113  45.361  41.252  1.00  0.00    -0.207 OA
ATOM     28  O   UNL A   1      39.754  44.602  43.643  1.00  0.00    -0.207 OA
BRANCH  26  29
ATOM     29  N   UNL A   1      37.810  44.842  42.067  1.00  0.00    -0.225 NA
ATOM     30  H   UNL A   1      37.416  44.219  41.362  1.00  0.00     0.137 HD
ATOM     31  H   UNL A   1      37.675  45.811  41.778  1.00  0.00     0.137 HD
ENDBRANCH  26  29
ENDBRANCH  21  26
ENDBRANCH  16  20
BRANCH  18  32
ATOM     32  C   UNL A   1      42.167  38.452  42.342  1.00  0.00     0.000 A 
ATOM     33  C   UNL A   1      41.865  37.851  43.572  1.00  0.00     0.010 A 
ATOM     34  C   UNL A   1      43.128  39.462  42.297  1.00  0.00     0.010 A 
ATOM     35  C   UNL A   1      42.507  38.263  44.743  1.00  0.00     0.001 A 
ATOM     36  C   UNL A   1      43.752  39.885  43.474  1.00  0.00     0.001 A 
ATOM     37  C   UNL A   1      43.450  39.281  44.690  1.00  0.00     0.000 A 
ENDBRANCH  18  32
ENDBRANCH  12  15
ENDBRANCH  10  11
ENDBRANCH   9  10
ENDBRANCH   8   9
ENDBRANCH   6   8
ENDBRANCH   5   6
ENDBRANCH   4   5
ENDBRANCH   3   4
ENDBRANCH   2   3
ENDBRANCH   1   2
BRANCH   1  38
ATOM     38  C   UNL A   1      33.936  33.790  33.149  1.00  0.00     0.188 C 
BRANCH  38  39
ATOM     39  O   UNL A   1      34.040  33.932  31.743  1.00  0.00    -0.377 OA
BRANCH  39  40
ATOM     40  C   UNL A   1      33.967  35.284  31.291  1.00  0.00     0.188 C 
BRANCH  40  41
ATOM     41  C   UNL A   1      33.476  35.482  29.844  1.00  0.00     0.188 C 
BRANCH  41  42
ATOM     42  O   UNL A   1      32.745  34.363  29.335  1.00  0.00    -0.376 OA
BRANCH  42  43
ATOM     43  C   UNL A   1      33.184  33.793  28.107  1.00  0.00     0.202 C 
BRANCH  43  44
ATOM     44  C   UNL A   1      34.686  33.936  27.868  1.00  0.00     0.261 C 
BRANCH  44  45
ATOM     45  O   UNL A   1      35.475  32.947  28.523  1.00  0.00    -0.460 OA
BRANCH  45  46
ATOM     46  C   UNL A   1      36.532  33.382  29.242  1.00  0.00     0.338 C 
ATOM     47  O   UNL A   1      36.944  34.524  29.326  1.00  0.00    -0.246 OA
BRANCH  46  48
ATOM     48  C   UNL A   1      37.192  32.214  29.843  1.00  0.00     0.060 A 
ATOM     49  C   UNL A   1      38.108  32.468  30.865  1.00  0.00     0.016 A 
ATOM     50  C   UNL A   1      37.088  30.949  29.253  1.00  0.00     0.016 A 
ATOM     51  C   UNL A   1      39.099  31.538  31.104  1.00  0.00     0.010 A 
ATOM     52  C   UNL A   1      38.063  30.019  29.517  1.00  0.00     0.010 A 
ATOM     53  C   UNL A   1      39.124  30.373  30.337  1.00  0.00    -0.014 A 
BRANCH  53  54
ATOM     54  C   UNL A   1      40.336  29.587  30.311  1.00  0.00     0.031 A 
ATOM     55  C   UNL A   1      40.961  29.291  31.603  1.00  0.00     0.074 A 
ATOM     56  C   UNL A   1      40.852  29.073  29.179  1.00  0.00     0.049 A 
ATOM     57  N   UNL A   1      41.952  29.917  32.136  1.00  0.00    -0.248 NA
ATOM     58  C   UNL A   1      40.371  28.240  32.437  1.00  0.00     0.031 C 
ATOM     59  C   UNL A   1      40.221  28.933  27.864  1.00  0.00     0.029 A 
ATOM     60  N   UNL A   1      42.066  28.483  29.013  1.00  0.00    -0.354 N 
ATOM     61  C   UNL A   1      42.248  29.221  33.295  1.00  0.00     0.074 A 
ATOM     62  C   UNL A   1      41.148  28.312  33.519  1.00  0.00     0.031 C 
ATOM     63  C   UNL A   1      40.995  28.140  27.085  1.00  0.00     0.029 A 
ATOM     64  C   UNL A   1      42.234  27.851  27.792  1.00  0.00     0.049 A 
ATOM     65  H   UNL A   1      42.767  28.505  29.703  1.00  0.00     0.167 HD
ATOM     66  C   UNL A   1      43.479  29.276  33.870  1.00  0.00     0.031 A 
ATOM     67  C   UNL A   1      43.308  27.117  27.416  1.00  0.00     0.031 A 
ATOM     68  C   UNL A   1      44.324  30.274  33.271  1.00  0.00     0.049 A 
ATOM     69  C   UNL A   1      44.455  27.531  28.262  1.00  0.00     0.074 A 
ATOM     70  C   UNL A   1      44.262  31.645  33.118  1.00  0.00     0.029 A 
ATOM     71  N   UNL A   1      45.270  29.832  32.374  1.00  0.00    -0.354 N 
ATOM     72  N   UNL A   1      45.019  28.704  28.189  1.00  0.00    -0.248 NA
ATOM     73  C   UNL A   1      44.768  26.772  29.465  1.00  0.00     0.031 C 
ATOM     74  C   UNL A   1      44.858  31.911  31.851  1.00  0.00     0.029 A 
ATOM     75  C   UNL A   1      45.271  30.694  31.306  1.00  0.00     0.049 A 
ATOM     76  H   UNL A   1      45.843  29.038  32.481  1.00  0.00     0.167 HD
ATOM     77  C   UNL A   1      45.413  28.999  29.485  1.00  0.00     0.074 A 
ATOM     78  C   UNL A   1      45.357  27.726  30.192  1.00  0.00     0.031 C 
ATOM     79  C   UNL A   1      45.478  30.291  29.926  1.00  0.00     0.031 A 
BRANCH  66  80
ATOM     80  C   UNL A   1      44.029  28.183  34.736  1.00  0.00    -0.014 A 
ATOM     81  C   UNL A   1      45.010  27.322  34.213  1.00  0.00     0.010 A 
ATOM     82  C   UNL A   1      43.438  27.830  35.967  1.00  0.00     0.010 A 
ATOM     83  C   UNL A   1      45.362  26.144  34.881  1.00  0.00     0.020 A 
ATOM     84  C   UNL A   1      43.817  26.684  36.664  1.00  0.00     0.020 A 
ATOM     85  C   UNL A   1      44.753  25.829  36.097  1.00  0.00     0.054 A 
BRANCH  85  86
ATOM     86  S   UNL A   1      45.132  24.252  36.898  1.00  0.00     0.124 S 
ATOM     87  O   UNL A   1      44.390  23.312  36.064  1.00  0.00    -0.237 OA
ATOM     88  O   UNL A   1      46.586  24.188  36.790  1.00  0.00    -0.237 OA
ATOM     89  O   UNL A   1      44.618  24.428  38.254  1.00  0.00    -0.744 OA
ENDBRANCH  85  86
ENDBRANCH  66  80
BRANCH  67  90
ATOM     90  C   UNL A   1      43.343  25.923  26.542  1.00  0.00    -0.014 A 
ATOM     91  C   UNL A   1      44.318  25.786  25.540  1.00  0.00     0.010 A 
ATOM     92  C   UNL A   1      42.587  24.784  26.882  1.00  0.00     0.010 A 
ATOM     93  C   UNL A   1      44.581  24.536  24.957  1.00  0.00     0.020 A 
ATOM     94  C   UNL A   1      42.835  23.537  26.302  1.00  0.00     0.020 A 
ATOM     95  C   UNL A   1      43.853  23.414  25.362  1.00  0.00     0.054 A 
BRANCH  95  96
ATOM     96  S   UNL A   1      44.339  21.768  24.768  1.00  0.00     0.124 S 
ATOM     97  O   UNL A   1      44.418  21.971  23.325  1.00  0.00    -0.237 OA
ATOM     98  O   UNL A   1      45.612  21.549  25.449  1.00  0.00    -0.237 OA
ATOM     99  O   UNL A   1      43.246  20.907  25.217  1.00  0.00    -0.744 OA
ENDBRANCH  95  96
ENDBRANCH  67  90
BRANCH  79 100
ATOM    100  C   UNL A   1      45.477  31.395  28.890  1.00  0.00    -0.014 A 
ATOM    101  C   UNL A   1      44.298  31.948  28.353  1.00  0.00     0.010 A 
ATOM    102  C   UNL A   1      46.708  31.984  28.546  1.00  0.00     0.010 A 
ATOM    103  C   UNL A   1      44.349  33.041  27.477  1.00  0.00     0.020 A 
ATOM    104  C   UNL A   1      46.765  33.088  27.688  1.00  0.00     0.020 A 
ATOM    105  C   UNL A   1      45.585  33.607  27.152  1.00  0.00     0.054 A 
BRANCH 105 106
ATOM    106  S   UNL A   1      45.634  35.066  26.074  1.00  0.00     0.124 S 
ATOM    107  O   UNL A   1      46.913  35.677  26.426  1.00  0.00    -0.237 OA
ATOM    108  O   UNL A   1      45.564  34.481  24.736  1.00  0.00    -0.237 OA
ATOM    109  O   UNL A   1      44.453  35.830  26.469  1.00  0.00    -0.744 OA
ENDBRANCH 105 106
ENDBRANCH  79 100
ENDBRANCH  53  54
ENDBRANCH  46  48
ENDBRANCH  45  46
ENDBRANCH  44  45
ENDBRANCH  43  44
ENDBRANCH  42  43
ENDBRANCH  41  42
ENDBRANCH  40  41
ENDBRANCH  39  40
ENDBRANCH  38  39
ENDBRANCH   1  38
TORSDOF 31
ENDMDL
MODEL 2
REMARK VINA RESULT:      -7.8      3.762      4.558
REMARK SMILES NS(=O)(=O)c1ccc(-n2nc(C(=O)NCCCC(=O)OCCOCCOCCOCCOC(=O)c3ccc(-c4c5nc(c(-c6ccc(S(=O)(=O)[O-])cc6)c6ccc([nH]6)c(-c6ccc(S(=O)(=O)[O-])cc6)c6nc(c(-c7ccc(S(=O)(=O)[O-])cc7)c7ccc4[nH]7)C=C6)C=C5)cc3)cc2-c2ccccc2)cc1
REMARK SMILES IDX 24 1 23 2 22 3 21 4 20 5 18 6 19 7 17 8 16 9 15 10 14 11
REMARK SMILES IDX 12 12 13 13 11 15 9 16 10 17 96 18 95 19 8 20 5 21 6 22
REMARK SMILES IDX 104 23 7 24 103 25 2 26 3 27 4 28 1 29 97 32 98 33 102 34
REMARK SMILES IDX 99 35 101 36 100 37 25 38 26 39 27 40 28 41 29 42 30 43
REMARK SMILES IDX 31 44 32 45 33 46 34 47 35 48 36 49 94 50 37 51 93 52 38 53
REMARK SMILES IDX 39 54 40 55 87 56 41 57 92 58 86 59 88 60 42 61 91 62 85 63
REMARK SMILES IDX 84 64 43 66 73 67 54 68 72 69 55 70 58 71 71 72 89 73 56 74
REMARK SMILES IDX 57 75 70 77 90 78 59 79 44 80 45 81 53 82 46 83 52 84 47 85
REMARK SMILES IDX 48 86 49 87 50 88 51 89 74 90 75 91 83 92 76 93 82 94 77 95
REMARK SMILES IDX 78 96 79 97 80 98 81 99 60 100 61 101 69 102 62 103 68 104
REMARK SMILES IDX 63 105 64 106 65 107 66 108 67 109
REMARK H PARENT 14 14 1 30 1 31 88 65 58 76
REMARK Flexibility Score: inf
ROOT
ATOM      1  C   UNL A   1      35.179  34.181  33.927  1.00  0.00     0.188 C 
ENDROOT
BRANCH   1   2
ATOM      2  O   UNL A   1      36.438  33.651  33.526  1.00  0.00    -0.376 OA
BRANCH   2   3
ATOM      3  C   UNL A   1      37.615  34.043  34.215  1.00  0.00     0.202 C 
BRANCH   3   4
ATOM      4  C   UNL A   1      38.215  33.077  35.242  1.00  0.00     0.261 C 
BRANCH   4   5
ATOM      5  O   UNL A   1      37.759  33.262  36.596  1.00  0.00    -0.463 OA
BRANCH   5   6
ATOM      6  C   UNL A   1      38.070  32.276  37.470  1.00  0.00     0.305 C 
ATOM      7  O   UNL A   1      38.129  31.085  37.184  1.00  0.00    -0.252 OA
BRANCH   6   8
ATOM      8  C   UNL A   1      38.283  32.746  38.897  1.00  0.00     0.124 C 
BRANCH   8   9
ATOM      9  C   UNL A   1      39.479  33.615  39.284  1.00  0.00     0.033 C 
BRANCH   9  10
ATOM     10  C   UNL A   1      40.877  33.012  39.123  1.00  0.00     0.117 C 
BRANCH  10  11
ATOM     11  N   UNL A   1      41.022  32.290  37.881  1.00  0.00    -0.351 N 
ATOM     12  C   UNL A   1      41.647  32.561  36.685  1.00  0.00     0.271 C 
ATOM     13  O   UNL A   1      41.476  31.690  35.822  1.00  0.00    -0.267 OA
ATOM     14  H   UNL A   1      40.576  31.413  37.892  1.00  0.00     0.163 HD
BRANCH  12  15
ATOM     15  C   UNL A   1      42.474  33.766  36.423  1.00  0.00     0.151 A 
ATOM     16  N   UNL A   1      43.224  35.375  35.211  1.00  0.00    -0.232 N 
ATOM     17  N   UNL A   1      42.194  34.512  35.329  1.00  0.00    -0.162 NA
ATOM     18  C   UNL A   1      43.953  35.459  36.383  1.00  0.00     0.075 A 
ATOM     19  C   UNL A   1      43.580  34.343  37.109  1.00  0.00     0.065 A 
BRANCH  16  20
ATOM     20  C   UNL A   1      43.481  36.060  33.996  1.00  0.00     0.065 A 
ATOM     21  C   UNL A   1      44.194  37.416  31.678  1.00  0.00     0.082 A 
ATOM     22  C   UNL A   1      44.401  36.039  31.752  1.00  0.00     0.024 A 
ATOM     23  C   UNL A   1      43.593  38.112  32.737  1.00  0.00     0.024 A 
ATOM     24  C   UNL A   1      44.050  35.363  32.917  1.00  0.00     0.030 A 
ATOM     25  C   UNL A   1      43.203  37.425  33.890  1.00  0.00     0.030 A 
BRANCH  21  26
ATOM     26  S   UNL A   1      44.756  38.303  30.254  1.00  0.00     0.238 S 
ATOM     27  O   UNL A   1      45.516  37.400  29.424  1.00  0.00    -0.207 OA
ATOM     28  O   UNL A   1      45.278  39.573  30.703  1.00  0.00    -0.207 OA
BRANCH  26  29
ATOM     29  N   UNL A   1      43.340  38.624  29.413  1.00  0.00    -0.225 NA
ATOM     30  H   UNL A   1      42.641  37.918  29.645  1.00  0.00     0.137 HD
ATOM     31  H   UNL A   1      43.528  38.601  28.411  1.00  0.00     0.137 HD
ENDBRANCH  26  29
ENDBRANCH  21  26
ENDBRANCH  16  20
BRANCH  18  32
ATOM     32  C   UNL A   1      44.872  36.551  36.686  1.00  0.00     0.000 A 
ATOM     33  C   UNL A   1      44.451  37.623  37.487  1.00  0.00     0.010 A 
ATOM     34  C   UNL A   1      46.133  36.602  36.093  1.00  0.00     0.010 A 
ATOM     35  C   UNL A   1      45.276  38.733  37.683  1.00  0.00     0.001 A 
ATOM     36  C   UNL A   1      46.946  37.724  36.274  1.00  0.00     0.001 A 
ATOM     37  C   UNL A   1      46.523  38.781  37.073  1.00  0.00     0.000 A 
ENDBRANCH  18  32
ENDBRANCH  12  15
ENDBRANCH  10  11
ENDBRANCH   9  10
ENDBRANCH   8   9
ENDBRANCH   6   8
ENDBRANCH   5   6
ENDBRANCH   4   5
ENDBRANCH   3   4
ENDBRANCH   2   3
ENDBRANCH   1   2
BRANCH   1  38
ATOM     38  C   UNL A   1      33.886  33.839  33.157  1.00  0.00     0.188 C 
BRANCH  38  39
ATOM     39  O   UNL A   1      33.954  33.942  31.745  1.00  0.00    -0.377 OA
BRANCH  39  40
ATOM     40  C   UNL A   1      33.970  35.284  31.261  1.00  0.00     0.188 C 
BRANCH  40  41
ATOM     41  C   UNL A   1      33.511  35.478  29.804  1.00  0.00     0.188 C 
BRANCH  41  42
ATOM     42  O   UNL A   1      32.770  34.368  29.289  1.00  0.00    -0.376 OA
BRANCH  42  43
ATOM     43  C   UNL A   1      33.224  33.780  28.075  1.00  0.00     0.202 C 
BRANCH  43  44
ATOM     44  C   UNL A   1      34.727  33.927  27.848  1.00  0.00     0.261 C 
BRANCH  44  45
ATOM     45  O   UNL A   1      35.517  32.962  28.537  1.00  0.00    -0.460 OA
BRANCH  45  46
ATOM     46  C   UNL A   1      36.564  33.423  29.253  1.00  0.00     0.338 C 
ATOM     47  O   UNL A   1      36.959  34.572  29.321  1.00  0.00    -0.246 OA
BRANCH  46  48
ATOM     48  C   UNL A   1      37.239  32.275  29.874  1.00  0.00     0.060 A 
ATOM     49  C   UNL A   1      38.189  32.561  30.856  1.00  0.00     0.016 A 
ATOM     50  C   UNL A   1      37.111  30.989  29.334  1.00  0.00     0.016 A 
ATOM     51  C   UNL A   1      39.184  31.634  31.096  1.00  0.00     0.010 A 
ATOM     52  C   UNL A   1      38.090  30.065  29.600  1.00  0.00     0.010 A 
ATOM     53  C   UNL A   1      39.179  30.443  30.371  1.00  0.00    -0.014 A 
BRANCH  53  54
ATOM     54  C   UNL A   1      40.387  29.650  30.333  1.00  0.00     0.031 A 
ATOM     55  C   UNL A   1      41.006  29.326  31.622  1.00  0.00     0.074 A 
ATOM     56  C   UNL A   1      40.903  29.155  29.194  1.00  0.00     0.049 A 
ATOM     57  N   UNL A   1      41.999  29.936  32.170  1.00  0.00    -0.248 NA
ATOM     58  C   UNL A   1      40.407  28.263  32.435  1.00  0.00     0.031 C 
ATOM     59  C   UNL A   1      40.275  29.044  27.875  1.00  0.00     0.029 A 
ATOM     60  N   UNL A   1      42.114  28.561  29.021  1.00  0.00    -0.354 N 
ATOM     61  C   UNL A   1      42.287  29.217  33.316  1.00  0.00     0.074 A 
ATOM     62  C   UNL A   1      41.181  28.310  33.520  1.00  0.00     0.031 C 
ATOM     63  C   UNL A   1      41.048  28.261  27.084  1.00  0.00     0.029 A 
ATOM     64  C   UNL A   1      42.282  27.951  27.789  1.00  0.00     0.049 A 
ATOM     65  H   UNL A   1      42.814  28.566  29.713  1.00  0.00     0.167 HD
ATOM     66  C   UNL A   1      43.516  29.254  33.896  1.00  0.00     0.031 A 
ATOM     67  C   UNL A   1      43.353  27.218  27.402  1.00  0.00     0.031 A 
ATOM     68  C   UNL A   1      44.369  30.258  33.319  1.00  0.00     0.049 A 
ATOM     69  C   UNL A   1      44.500  27.609  28.259  1.00  0.00     0.074 A 
ATOM     70  C   UNL A   1      44.315  31.632  33.192  1.00  0.00     0.029 A 
ATOM     71  N   UNL A   1      45.315  29.827  32.417  1.00  0.00    -0.354 N 
ATOM     72  N   UNL A   1      45.071  28.780  28.210  1.00  0.00    -0.248 NA
ATOM     73  C   UNL A   1      44.805  26.826  29.448  1.00  0.00     0.031 C 
ATOM     74  C   UNL A   1      44.917  31.918  31.931  1.00  0.00     0.029 A 
ATOM     75  C   UNL A   1      45.325  30.709  31.364  1.00  0.00     0.049 A 
ATOM     76  H   UNL A   1      45.883  29.028  32.510  1.00  0.00     0.167 HD
ATOM     77  C   UNL A   1      45.463  29.049  29.513  1.00  0.00     0.074 A 
ATOM     78  C   UNL A   1      45.397  27.762  30.196  1.00  0.00     0.031 C 
ATOM     79  C   UNL A   1      45.534  30.331  29.978  1.00  0.00     0.031 A 
BRANCH  66  80
ATOM     80  C   UNL A   1      44.057  28.141  34.743  1.00  0.00    -0.014 A 
ATOM     81  C   UNL A   1      44.941  27.210  34.170  1.00  0.00     0.010 A 
ATOM     82  C   UNL A   1      43.536  27.847  36.020  1.00  0.00     0.010 A 
ATOM     83  C   UNL A   1      45.265  26.022  34.835  1.00  0.00     0.020 A 
ATOM     84  C   UNL A   1      43.891  26.690  36.712  1.00  0.00     0.020 A 
ATOM     85  C   UNL A   1      44.727  25.767  36.098  1.00  0.00     0.054 A 
BRANCH  85  86
ATOM     86  S   UNL A   1      45.062  24.182  36.902  1.00  0.00     0.124 S 
ATOM     87  O   UNL A   1      44.252  23.269  36.101  1.00  0.00    -0.237 OA
ATOM     88  O   UNL A   1      46.508  24.053  36.747  1.00  0.00    -0.237 OA
ATOM     89  O   UNL A   1      44.601  24.392  38.272  1.00  0.00    -0.744 OA
ENDBRANCH  85  86
ENDBRANCH  66  80
BRANCH  67  90
ATOM     90  C   UNL A   1      43.384  26.040  26.505  1.00  0.00    -0.014 A 
ATOM     91  C   UNL A   1      44.394  25.890  25.540  1.00  0.00     0.010 A 
ATOM     92  C   UNL A   1      42.578  24.921  26.792  1.00  0.00     0.010 A 
ATOM     93  C   UNL A   1      44.639  24.643  24.943  1.00  0.00     0.020 A 
ATOM     94  C   UNL A   1      42.809  23.678  26.197  1.00  0.00     0.020 A 
ATOM     95  C   UNL A   1      43.859  23.539  25.295  1.00  0.00     0.054 A 
BRANCH  95  96
ATOM     96  S   UNL A   1      44.313  21.889  24.687  1.00  0.00     0.124 S 
ATOM     97  O   UNL A   1      44.444  22.114  23.251  1.00  0.00    -0.237 OA
ATOM     98  O   UNL A   1      45.558  21.620  25.403  1.00  0.00    -0.237 OA
ATOM     99  O   UNL A   1      43.182  21.054  25.087  1.00  0.00    -0.744 OA
ENDBRANCH  95  96
ENDBRANCH  67  90
BRANCH  79 100
ATOM    100  C   UNL A   1      45.543  31.455  28.963  1.00  0.00    -0.014 A 
ATOM    101  C   UNL A   1      44.368  32.016  28.424  1.00  0.00     0.010 A 
ATOM    102  C   UNL A   1      46.776  32.051  28.644  1.00  0.00     0.010 A 
ATOM    103  C   UNL A   1      44.428  33.125  27.570  1.00  0.00     0.020 A 
ATOM    104  C   UNL A   1      46.841  33.171  27.808  1.00  0.00     0.020 A 
ATOM    105  C   UNL A   1      45.666  33.699  27.269  1.00  0.00     0.054 A 
BRANCH 105 106
ATOM    106  S   UNL A   1      45.726  35.178  26.219  1.00  0.00     0.124 S 
ATOM    107  O   UNL A   1      46.985  35.799  26.618  1.00  0.00    -0.237 OA
ATOM    108  O   UNL A   1      45.701  34.617  24.869  1.00  0.00    -0.237 OA
ATOM    109  O   UNL A   1      44.523  35.919  26.594  1.00  0.00    -0.744 OA
ENDBRANCH 105 106
ENDBRANCH  79 100
ENDBRANCH  53  54
ENDBRANCH  46  48
ENDBRANCH  45  46
ENDBRANCH  44  45
ENDBRANCH  43  44
ENDBRANCH  42  43
ENDBRANCH  41  42
ENDBRANCH  40  41
ENDBRANCH  39  40
ENDBRANCH  38  39
ENDBRANCH   1  38
TORSDOF 31
ENDMDL
MODEL 3
REMARK VINA RESULT:      -7.8      5.269     10.680
REMARK SMILES NS(=O)(=O)c1ccc(-n2nc(C(=O)NCCCC(=O)OCCOCCOCCOCCOC(=O)c3ccc(-c4c5nc(c(-c6ccc(S(=O)(=O)[O-])cc6)c6ccc([nH]6)c(-c6ccc(S(=O)(=O)[O-])cc6)c6nc(c(-c7ccc(S(=O)(=O)[O-])cc7)c7ccc4[nH]7)C=C6)C=C5)cc3)cc2-c2ccccc2)cc1
REMARK SMILES IDX 24 1 23 2 22 3 21 4 20 5 18 6 19 7 17 8 16 9 15 10 14 11
REMARK SMILES IDX 12 12 13 13 11 15 9 16 10 17 96 18 95 19 8 20 5 21 6 22
REMARK SMILES IDX 104 23 7 24 103 25 2 26 3 27 4 28 1 29 97 32 98 33 102 34
REMARK SMILES IDX 99 35 101 36 100 37 25 38 26 39 27 40 28 41 29 42 30 43
REMARK SMILES IDX 31 44 32 45 33 46 34 47 35 48 36 49 94 50 37 51 93 52 38 53
REMARK SMILES IDX 39 54 40 55 87 56 41 57 92 58 86 59 88 60 42 61 91 62 85 63
REMARK SMILES IDX 84 64 43 66 73 67 54 68 72 69 55 70 58 71 71 72 89 73 56 74
REMARK SMILES IDX 57 75 70 77 90 78 59 79 44 80 45 81 53 82 46 83 52 84 47 85
REMARK SMILES IDX 48 86 49 87 50 88 51 89 74 90 75 91 83 92 76 93 82 94 77 95
REMARK SMILES IDX 78 96 79 97 80 98 81 99 60 100 61 101 69 102 62 103 68 104
REMARK SMILES IDX 63 105 64 106 65 107 66 108 67 109
REMARK H PARENT 14 14 1 30 1 31 88 65 58 76
REMARK Flexibility Score: inf
ROOT
ATOM      1  C   UNL A   1      43.221  32.844  33.233  1.00  0.00     0.188 C 
ENDROOT
BRANCH   1   2
ATOM      2  O   UNL A   1      42.539  32.564  34.451  1.00  0.00    -0.376 OA
BRANCH   2   3
ATOM      3  C   UNL A   1      41.580  33.486  34.945  1.00  0.00     0.202 C 
BRANCH   3   4
ATOM      4  C   UNL A   1      42.080  34.786  35.584  1.00  0.00     0.261 C 
BRANCH   4   5
ATOM      5  O   UNL A   1      41.228  35.931  35.391  1.00  0.00    -0.463 OA
BRANCH   5   6
ATOM      6  C   UNL A   1      39.947  35.800  35.808  1.00  0.00     0.305 C 
ATOM      7  O   UNL A   1      38.980  35.690  35.062  1.00  0.00    -0.252 OA
BRANCH   6   8
ATOM      8  C   UNL A   1      39.767  35.866  37.314  1.00  0.00     0.124 C 
BRANCH   8   9
ATOM      9  C   UNL A   1      39.114  34.726  38.094  1.00  0.00     0.033 C 
BRANCH   9  10
ATOM     10  C   UNL A   1      39.813  33.365  38.082  1.00  0.00     0.117 C 
BRANCH  10  11
ATOM     11  N   UNL A   1      38.889  32.272  38.270  1.00  0.00    -0.351 N 
ATOM     12  C   UNL A   1      37.965  31.650  37.461  1.00  0.00     0.271 C 
ATOM     13  O   UNL A   1      37.305  30.775  38.035  1.00  0.00    -0.267 OA
ATOM     14  H   UNL A   1      38.927  31.888  39.176  1.00  0.00     0.163 HD
BRANCH  12  15
ATOM     15  C   UNL A   1      37.764  31.961  36.023  1.00  0.00     0.151 A 
ATOM     16  N   UNL A   1      36.811  32.950  34.369  1.00  0.00    -0.232 N 
ATOM     17  N   UNL A   1      37.026  33.048  35.697  1.00  0.00    -0.162 NA
ATOM     18  C   UNL A   1      37.685  32.057  33.778  1.00  0.00     0.075 A 
ATOM     19  C   UNL A   1      38.196  31.317  34.828  1.00  0.00     0.065 A 
BRANCH  16  20
ATOM     20  C   UNL A   1      35.782  33.686  33.729  1.00  0.00     0.065 A 
ATOM     21  C   UNL A   1      33.714  35.210  32.670  1.00  0.00     0.082 A 
ATOM     22  C   UNL A   1      34.955  35.807  32.893  1.00  0.00     0.024 A 
ATOM     23  C   UNL A   1      33.513  33.847  32.931  1.00  0.00     0.024 A 
ATOM     24  C   UNL A   1      35.987  35.043  33.430  1.00  0.00     0.030 A 
ATOM     25  C   UNL A   1      34.563  33.071  33.432  1.00  0.00     0.030 A 
BRANCH  21  26
ATOM     26  S   UNL A   1      32.361  36.203  32.110  1.00  0.00     0.238 S 
ATOM     27  O   UNL A   1      32.606  37.571  32.501  1.00  0.00    -0.207 OA
ATOM     28  O   UNL A   1      31.138  35.507  32.437  1.00  0.00    -0.207 OA
BRANCH  26  29
ATOM     29  N   UNL A   1      32.517  36.165  30.440  1.00  0.00    -0.225 NA
ATOM     30  H   UNL A   1      33.400  36.600  30.171  1.00  0.00     0.137 HD
ATOM     31  H   UNL A   1      31.743  36.674  30.015  1.00  0.00     0.137 HD
ENDBRANCH  26  29
ENDBRANCH  21  26
ENDBRANCH  16  20
BRANCH  18  32
ATOM     32  C   UNL A   1      37.948  32.013  32.343  1.00  0.00     0.000 A 
ATOM     33  C   UNL A   1      37.400  30.989  31.558  1.00  0.00     0.010 A 
ATOM     34  C   UNL A   1      38.834  32.916  31.757  1.00  0.00     0.010 A 
ATOM     35  C   UNL A   1      37.743  30.862  30.210  1.00  0.00     0.001 A 
ATOM     36  C   UNL A   1      39.191  32.773  30.414  1.00  0.00     0.001 A 
ATOM     37  C   UNL A   1      38.640  31.757  29.641  1.00  0.00     0.000 A 
ENDBRANCH  18  32
ENDBRANCH  12  15
ENDBRANCH  10  11
ENDBRANCH   9  10
ENDBRANCH   8   9
ENDBRANCH   6   8
ENDBRANCH   5   6
ENDBRANCH   4   5
ENDBRANCH   3   4
ENDBRANCH   2   3
ENDBRANCH   1   2
BRANCH   1  38
ATOM     38  C   UNL A   1      42.749  32.237  31.895  1.00  0.00     0.188 C 
BRANCH  38  39
ATOM     39  O   UNL A   1      43.759  31.977  30.935  1.00  0.00    -0.377 OA
BRANCH  39  40
ATOM     40  C   UNL A   1      44.289  33.150  30.319  1.00  0.00     0.188 C 
BRANCH  40  41
ATOM     41  C   UNL A   1      43.257  34.100  29.683  1.00  0.00     0.188 C 
BRANCH  41  42
ATOM     42  O   UNL A   1      43.332  34.146  28.255  1.00  0.00    -0.376 OA
BRANCH  42  43
ATOM     43  C   UNL A   1      44.625  34.097  27.663  1.00  0.00     0.202 C 
BRANCH  43  44
ATOM     44  C   UNL A   1      45.373  35.428  27.714  1.00  0.00     0.261 C 
BRANCH  44  45
ATOM     45  O   UNL A   1      46.733  35.347  27.295  1.00  0.00    -0.460 OA
BRANCH  45  46
ATOM     46  C   UNL A   1      47.674  35.340  28.263  1.00  0.00     0.338 C 
ATOM     47  O   UNL A   1      47.815  36.153  29.156  1.00  0.00    -0.246 OA
BRANCH  46  48
ATOM     48  C   UNL A   1      48.593  34.223  28.003  1.00  0.00     0.060 A 
ATOM     49  C   UNL A   1      48.257  33.366  26.954  1.00  0.00     0.016 A 
ATOM     50  C   UNL A   1      49.608  33.901  28.912  1.00  0.00     0.016 A 
ATOM     51  C   UNL A   1      48.745  32.075  26.979  1.00  0.00     0.010 A 
ATOM     52  C   UNL A   1      50.108  32.623  28.913  1.00  0.00     0.010 A 
ATOM     53  C   UNL A   1      49.577  31.693  28.032  1.00  0.00    -0.014 A 
BRANCH  53  54
ATOM     54  C   UNL A   1      49.784  30.284  28.274  1.00  0.00     0.031 A 
ATOM     55  C   UNL A   1      50.937  29.662  27.618  1.00  0.00     0.074 A 
ATOM     56  C   UNL A   1      49.018  29.564  29.115  1.00  0.00     0.049 A 
ATOM     57  N   UNL A   1      50.921  28.978  26.527  1.00  0.00    -0.248 NA
ATOM     58  C   UNL A   1      52.270  29.893  28.185  1.00  0.00     0.031 C 
ATOM     59  C   UNL A   1      48.072  30.039  30.127  1.00  0.00     0.029 A 
ATOM     60  N   UNL A   1      49.007  28.214  29.278  1.00  0.00    -0.354 N 
ATOM     61  C   UNL A   1      52.216  28.519  26.359  1.00  0.00     0.074 A 
ATOM     62  C   UNL A   1      53.033  29.245  27.303  1.00  0.00     0.031 C 
ATOM     63  C   UNL A   1      47.711  28.999  30.917  1.00  0.00     0.029 A 
ATOM     64  C   UNL A   1      48.278  27.775  30.371  1.00  0.00     0.049 A 
ATOM     65  H   UNL A   1      49.477  27.600  28.669  1.00  0.00     0.167 HD
ATOM     66  C   UNL A   1      52.495  27.415  25.616  1.00  0.00     0.031 A 
ATOM     67  C   UNL A   1      48.183  26.495  30.803  1.00  0.00     0.031 A 
ATOM     68  C   UNL A   1      51.352  26.939  24.883  1.00  0.00     0.049 A 
ATOM     69  C   UNL A   1      48.518  25.608  29.662  1.00  0.00     0.074 A 
ATOM     70  C   UNL A   1      50.525  27.465  23.911  1.00  0.00     0.029 A 
ATOM     71  N   UNL A   1      50.686  25.854  25.406  1.00  0.00    -0.354 N 
ATOM     72  N   UNL A   1      47.770  25.483  28.602  1.00  0.00    -0.248 NA
ATOM     73  C   UNL A   1      49.880  25.113  29.515  1.00  0.00     0.031 C 
ATOM     74  C   UNL A   1      49.231  26.934  24.188  1.00  0.00     0.029 A 
ATOM     75  C   UNL A   1      49.339  26.097  25.300  1.00  0.00     0.049 A 
ATOM     76  H   UNL A   1      51.102  25.047  25.788  1.00  0.00     0.167 HD
ATOM     77  C   UNL A   1      48.655  25.283  27.553  1.00  0.00     0.074 A 
ATOM     78  C   UNL A   1      49.917  24.930  28.192  1.00  0.00     0.031 C 
ATOM     79  C   UNL A   1      48.351  25.692  26.285  1.00  0.00     0.031 A 
BRANCH  66  80
ATOM     80  C   UNL A   1      53.711  26.566  25.835  1.00  0.00    -0.014 A 
ATOM     81  C   UNL A   1      54.848  27.137  26.432  1.00  0.00     0.010 A 
ATOM     82  C   UNL A   1      53.849  25.288  25.254  1.00  0.00     0.010 A 
ATOM     83  C   UNL A   1      56.078  26.469  26.421  1.00  0.00     0.020 A 
ATOM     84  C   UNL A   1      55.057  24.593  25.282  1.00  0.00     0.020 A 
ATOM     85  C   UNL A   1      56.174  25.206  25.835  1.00  0.00     0.054 A 
BRANCH  85  86
ATOM     86  S   UNL A   1      57.789  24.398  25.727  1.00  0.00     0.124 S 
ATOM     87  O   UNL A   1      57.567  23.437  24.650  1.00  0.00    -0.237 OA
ATOM     88  O   UNL A   1      58.676  25.513  25.413  1.00  0.00    -0.237 OA
ATOM     89  O   UNL A   1      57.968  23.818  27.056  1.00  0.00    -0.744 OA
ENDBRANCH  85  86
ENDBRANCH  66  80
BRANCH  67  90
ATOM     90  C   UNL A   1      48.056  26.003  32.194  1.00  0.00    -0.014 A 
ATOM     91  C   UNL A   1      46.808  25.971  32.840  1.00  0.00     0.010 A 
ATOM     92  C   UNL A   1      49.121  25.298  32.787  1.00  0.00     0.010 A 
ATOM     93  C   UNL A   1      46.616  25.195  33.995  1.00  0.00     0.020 A 
ATOM     94  C   UNL A   1      48.942  24.530  33.940  1.00  0.00     0.020 A 
ATOM     95  C   UNL A   1      47.680  24.460  34.523  1.00  0.00     0.054 A 
BRANCH  95  96
ATOM     96  S   UNL A   1      47.377  23.293  35.882  1.00  0.00     0.124 S 
ATOM     97  O   UNL A   1      47.910  24.015  37.033  1.00  0.00    -0.237 OA
ATOM     98  O   UNL A   1      45.925  23.138  35.846  1.00  0.00    -0.237 OA
ATOM     99  O   UNL A   1      48.132  22.106  35.486  1.00  0.00    -0.744 OA
ENDBRANCH  95  96
ENDBRANCH  67  90
BRANCH  79 100
ATOM    100  C   UNL A   1      46.907  26.023  25.973  1.00  0.00    -0.014 A 
ATOM    101  C   UNL A   1      45.960  25.054  25.587  1.00  0.00     0.010 A 
ATOM    102  C   UNL A   1      46.462  27.337  26.208  1.00  0.00     0.010 A 
ATOM    103  C   UNL A   1      44.612  25.395  25.414  1.00  0.00     0.020 A 
ATOM    104  C   UNL A   1      45.113  27.679  26.057  1.00  0.00     0.020 A 
ATOM    105  C   UNL A   1      44.196  26.707  25.653  1.00  0.00     0.054 A 
BRANCH 105 106
ATOM    106  S   UNL A   1      42.436  27.121  25.496  1.00  0.00     0.124 S 
ATOM    107  O   UNL A   1      41.872  25.899  24.929  1.00  0.00    -0.237 OA
ATOM    108  O   UNL A   1      42.048  27.412  26.874  1.00  0.00    -0.237 OA
ATOM    109  O   UNL A   1      42.429  28.277  24.602  1.00  0.00    -0.744 OA
ENDBRANCH 105 106
ENDBRANCH  79 100
ENDBRANCH  53  54
ENDBRANCH  46  48
ENDBRANCH  45  46
ENDBRANCH  44  45
ENDBRANCH  43  44
ENDBRANCH  42  43
ENDBRANCH  41  42
ENDBRANCH  40  41
ENDBRANCH  39  40
ENDBRANCH  38  39
ENDBRANCH   1  38
TORSDOF 31
ENDMDL
