MODEL 1
REMARK VINA RESULT:      -7.6      0.000      0.000
REMARK SMILES NC(=O)c1c(-c2ccc(Cl)cc2)csc1NC(=O)[C@H]1[C@@H](C(=O)OCCOCCOCCOCCOC(=O)c2ccc(-c3c4nc(c(-c5ccc(S(=O)(=O)[O-])cc5)c5ccc([nH]5)c(-c5ccc(S(=O)(=O)[O-])cc5)c5nc(c(-c6ccc(S(=O)(=O)[O-])cc6)c6ccc3[nH]6)C=C5)C=C4)cc2)[C@@H]2CC[C@H]1O2
REMARK SMILES IDX 29 1 28 2 27 3 26 4 25 5 24 6 23 7 21 8 22 9 20 10 19 11
REMARK SMILES IDX 101 12 98 13 100 14 102 15 99 16 17 17 16 18 18 20 15 21
REMARK SMILES IDX 4 22 5 23 13 24 14 25 2 26 1 27 3 30 6 31 7 32 12 33 8 34
REMARK SMILES IDX 11 35 9 36 10 37 30 38 31 39 32 40 33 41 34 42 35 43 36 44
REMARK SMILES IDX 37 45 38 46 39 47 97 48 40 49 96 50 41 51 42 52 43 53 90 54
REMARK SMILES IDX 44 55 95 56 89 57 91 58 45 59 94 60 88 61 87 62 46 64 76 65
REMARK SMILES IDX 57 66 75 67 58 68 61 69 74 70 92 71 59 72 60 73 73 75 93 76
REMARK SMILES IDX 62 77 47 78 48 79 56 80 49 81 55 82 50 83 51 84 52 85 53 86
REMARK SMILES IDX 54 87 77 88 78 89 86 90 79 91 85 92 80 93 81 94 82 95 83 96
REMARK SMILES IDX 84 97 63 98 64 99 72 100 65 101 71 102 66 103 67 104 68 105
REMARK SMILES IDX 69 106 70 107
REMARK H PARENT 16 19 1 28 1 29 91 63 61 74
REMARK Flexibility Score: inf
ROOT
ATOM      1  O   UNL A   1      53.081  22.501  36.060  1.00  0.00    -0.377 OA
ENDROOT
BRANCH   1   2
ATOM      2  C   UNL A   1      53.672  21.396  35.410  1.00  0.00     0.188 C 
BRANCH   2   3
ATOM      3  C   UNL A   1      52.771  20.221  34.985  1.00  0.00     0.188 C 
BRANCH   3   4
ATOM      4  O   UNL A   1      52.839  19.081  35.836  1.00  0.00    -0.376 OA
BRANCH   4   5
ATOM      5  C   UNL A   1      51.704  18.853  36.665  1.00  0.00     0.202 C 
BRANCH   5   6
ATOM      6  C   UNL A   1      50.448  19.599  36.198  1.00  0.00     0.261 C 
BRANCH   6   7
ATOM      7  O   UNL A   1      49.901  20.484  37.186  1.00  0.00    -0.463 OA
BRANCH   7   8
ATOM      8  C   UNL A   1      49.228  21.573  36.726  1.00  0.00     0.312 C 
ATOM      9  O   UNL A   1      49.211  21.916  35.553  1.00  0.00    -0.252 OA
BRANCH   8  10
ATOM     10  C   UNL A   1      48.284  22.077  37.801  1.00  0.00     0.143 C 
ATOM     11  C   UNL A   1      47.003  21.283  38.069  1.00  0.00     0.124 C 
ATOM     12  C   UNL A   1      45.915  22.298  37.707  1.00  0.00     0.132 C 
ATOM     13  C   UNL A   1      47.731  23.470  37.500  1.00  0.00     0.133 C 
ATOM     14  C   UNL A   1      45.764  23.305  38.848  1.00  0.00     0.035 C 
ATOM     15  O   UNL A   1      46.561  23.135  36.724  1.00  0.00    -0.373 OA
ATOM     16  C   UNL A   1      47.087  24.074  38.758  1.00  0.00     0.036 C 
BRANCH  11  17
ATOM     17  C   UNL A   1      46.845  19.984  37.304  1.00  0.00     0.231 C 
ATOM     18  N   UNL A   1      47.162  18.816  37.953  1.00  0.00    -0.317 N 
ATOM     19  H   UNL A   1      47.902  18.289  37.573  1.00  0.00     0.170 HD
ATOM     20  O   UNL A   1      46.573  19.954  36.104  1.00  0.00    -0.274 OA
BRANCH  18  21
ATOM     21  C   UNL A   1      46.551  18.300  39.091  1.00  0.00     0.108 A 
ATOM     22  C   UNL A   1      47.089  18.268  40.375  1.00  0.00     0.082 A 
ATOM     23  C   UNL A   1      46.264  17.461  41.253  1.00  0.00     0.007 A 
ATOM     24  C   UNL A   1      45.108  17.038  40.629  1.00  0.00     0.076 A 
ATOM     25  S   UNL A   1      45.088  17.439  38.984  1.00  0.00    -0.125 S 
BRANCH  22  26
ATOM     26  C   UNL A   1      48.358  18.916  40.688  1.00  0.00     0.252 C 
ATOM     27  N   UNL A   1      49.458  18.434  40.046  1.00  0.00    -0.365 N 
ATOM     28  H   UNL A   1      50.342  18.833  40.218  1.00  0.00     0.159 HD
ATOM     29  H   UNL A   1      49.369  17.688  39.410  1.00  0.00     0.159 HD
ATOM     30  O   UNL A   1      48.454  19.882  41.440  1.00  0.00    -0.269 OA
ENDBRANCH  22  26
BRANCH  23  31
ATOM     31  C   UNL A   1      46.528  17.016  42.614  1.00  0.00    -0.017 A 
ATOM     32  C   UNL A   1      46.520  17.969  43.646  1.00  0.00     0.010 A 
ATOM     33  C   UNL A   1      46.756  15.671  42.916  1.00  0.00     0.010 A 
ATOM     34  C   UNL A   1      46.737  17.583  44.967  1.00  0.00     0.021 A 
ATOM     35  C   UNL A   1      46.971  15.285  44.244  1.00  0.00     0.021 A 
ATOM     36  C   UNL A   1      46.960  16.241  45.262  1.00  0.00     0.041 A 
ATOM     37  Cl  UNL A   1      47.218  15.762  46.893  1.00  0.00    -0.084 Cl
ENDBRANCH  23  31
ENDBRANCH  18  21
ENDBRANCH  11  17
ENDBRANCH   8  10
ENDBRANCH   7   8
ENDBRANCH   6   7
ENDBRANCH   5   6
ENDBRANCH   4   5
ENDBRANCH   3   4
ENDBRANCH   2   3
ENDBRANCH   1   2
BRANCH   1  38
ATOM     38  C   UNL A   1      52.780  23.670  35.309  1.00  0.00     0.188 C 
BRANCH  38  39
ATOM     39  C   UNL A   1      51.615  24.603  35.704  1.00  0.00     0.188 C 
BRANCH  39  40
ATOM     40  O   UNL A   1      51.083  25.397  34.650  1.00  0.00    -0.376 OA
BRANCH  40  41
ATOM     41  C   UNL A   1      50.330  26.536  35.045  1.00  0.00     0.202 C 
BRANCH  41  42
ATOM     42  C   UNL A   1      49.644  26.373  36.405  1.00  0.00     0.261 C 
BRANCH  42  43
ATOM     43  O   UNL A   1      49.260  27.604  37.034  1.00  0.00    -0.460 OA
BRANCH  43  44
ATOM     44  C   UNL A   1      48.177  27.571  37.842  1.00  0.00     0.338 C 
ATOM     45  O   UNL A   1      48.157  27.454  39.052  1.00  0.00    -0.246 OA
BRANCH  44  46
ATOM     46  C   UNL A   1      47.006  27.887  37.006  1.00  0.00     0.060 A 
ATOM     47  C   UNL A   1      47.068  28.974  36.124  1.00  0.00     0.016 A 
ATOM     48  C   UNL A   1      45.866  27.085  37.080  1.00  0.00     0.016 A 
ATOM     49  C   UNL A   1      45.967  29.280  35.325  1.00  0.00     0.010 A 
ATOM     50  C   UNL A   1      44.758  27.407  36.304  1.00  0.00     0.010 A 
ATOM     51  C   UNL A   1      44.794  28.524  35.450  1.00  0.00    -0.014 A 
BRANCH  51  52
ATOM     52  C   UNL A   1      43.515  29.018  34.897  1.00  0.00     0.031 A 
ATOM     53  C   UNL A   1      43.116  28.526  33.535  1.00  0.00     0.074 A 
ATOM     54  C   UNL A   1      42.780  29.940  35.540  1.00  0.00     0.049 A 
ATOM     55  N   UNL A   1      42.147  28.929  32.760  1.00  0.00    -0.248 NA
ATOM     56  C   UNL A   1      43.935  27.440  32.968  1.00  0.00     0.031 C 
ATOM     57  C   UNL A   1      43.054  30.465  36.877  1.00  0.00     0.029 A 
ATOM     58  N   UNL A   1      41.663  30.623  35.130  1.00  0.00    -0.354 N 
ATOM     59  C   UNL A   1      42.253  28.164  31.604  1.00  0.00     0.074 A 
ATOM     60  C   UNL A   1      43.382  27.279  31.777  1.00  0.00     0.031 C 
ATOM     61  C   UNL A   1      42.145  31.413  37.165  1.00  0.00     0.029 A 
ATOM     62  C   UNL A   1      41.255  31.589  36.018  1.00  0.00     0.049 A 
ATOM     63  H   UNL A   1      41.199  30.438  34.281  1.00  0.00     0.167 HD
ATOM     64  C   UNL A   1      41.486  28.207  30.491  1.00  0.00     0.031 A 
ATOM     65  C   UNL A   1      40.298  32.530  35.895  1.00  0.00     0.031 A 
ATOM     66  C   UNL A   1      40.389  29.114  30.313  1.00  0.00     0.049 A 
ATOM     67  C   UNL A   1      39.492  32.602  34.624  1.00  0.00     0.074 A 
ATOM     68  C   UNL A   1      39.540  29.235  29.229  1.00  0.00     0.029 A 
ATOM     69  N   UNL A   1      39.999  30.069  31.240  1.00  0.00    -0.354 N 
ATOM     70  N   UNL A   1      39.580  31.855  33.550  1.00  0.00    -0.248 NA
ATOM     71  C   UNL A   1      38.457  33.645  34.547  1.00  0.00     0.031 C 
ATOM     72  C   UNL A   1      38.665  30.296  29.481  1.00  0.00     0.029 A 
ATOM     73  C   UNL A   1      38.935  30.799  30.745  1.00  0.00     0.049 A 
ATOM     74  H   UNL A   1      40.418  30.205  32.121  1.00  0.00     0.167 HD
ATOM     75  C   UNL A   1      38.595  32.317  32.682  1.00  0.00     0.074 A 
ATOM     76  C   UNL A   1      37.923  33.409  33.356  1.00  0.00     0.031 C 
ATOM     77  C   UNL A   1      38.272  31.873  31.442  1.00  0.00     0.031 A 
BRANCH  64  78
ATOM     78  C   UNL A   1      41.858  27.280  29.369  1.00  0.00    -0.014 A 
ATOM     79  C   UNL A   1      41.026  26.207  29.004  1.00  0.00     0.010 A 
ATOM     80  C   UNL A   1      43.067  27.479  28.678  1.00  0.00     0.010 A 
ATOM     81  C   UNL A   1      41.419  25.321  27.998  1.00  0.00     0.020 A 
ATOM     82  C   UNL A   1      43.451  26.610  27.655  1.00  0.00     0.020 A 
ATOM     83  C   UNL A   1      42.634  25.524  27.336  1.00  0.00     0.054 A 
BRANCH  83  84
ATOM     84  S   UNL A   1      43.126  24.357  26.037  1.00  0.00     0.124 S 
ATOM     85  O   UNL A   1      43.060  25.193  24.842  1.00  0.00    -0.237 OA
ATOM     86  O   UNL A   1      44.469  23.961  26.452  1.00  0.00    -0.237 OA
ATOM     87  O   UNL A   1      42.117  23.303  26.118  1.00  0.00    -0.744 OA
ENDBRANCH  83  84
ENDBRANCH  64  78
BRANCH  65  88
ATOM     88  C   UNL A   1      40.073  33.501  37.001  1.00  0.00    -0.014 A 
ATOM     89  C   UNL A   1      40.897  34.631  37.139  1.00  0.00     0.010 A 
ATOM     90  C   UNL A   1      39.015  33.312  37.909  1.00  0.00     0.010 A 
ATOM     91  C   UNL A   1      40.671  35.550  38.168  1.00  0.00     0.020 A 
ATOM     92  C   UNL A   1      38.772  34.240  38.925  1.00  0.00     0.020 A 
ATOM     93  C   UNL A   1      39.607  35.351  39.053  1.00  0.00     0.054 A 
BRANCH  93  94
ATOM     94  S   UNL A   1      39.294  36.591  40.340  1.00  0.00     0.124 S 
ATOM     95  O   UNL A   1      38.469  35.846  41.286  1.00  0.00    -0.237 OA
ATOM     96  O   UNL A   1      40.643  36.918  40.799  1.00  0.00    -0.237 OA
ATOM     97  O   UNL A   1      38.610  37.664  39.622  1.00  0.00    -0.744 OA
ENDBRANCH  93  94
ENDBRANCH  65  88
BRANCH  77  98
ATOM     98  C   UNL A   1      37.113  32.525  30.739  1.00  0.00    -0.014 A 
ATOM     99  C   UNL A   1      37.288  33.686  29.968  1.00  0.00     0.010 A 
ATOM    100  C   UNL A   1      35.857  31.889  30.754  1.00  0.00     0.010 A 
ATOM    101  C   UNL A   1      36.221  34.206  29.227  1.00  0.00     0.020 A 
ATOM    102  C   UNL A   1      34.797  32.393  29.998  1.00  0.00     0.020 A 
ATOM    103  C   UNL A   1      34.984  33.551  29.242  1.00  0.00     0.054 A 
BRANCH 103 104
ATOM    104  S   UNL A   1      33.643  34.190  28.199  1.00  0.00     0.124 S 
ATOM    105  O   UNL A   1      34.380  34.867  27.137  1.00  0.00    -0.237 OA
ATOM    106  O   UNL A   1      32.939  32.974  27.800  1.00  0.00    -0.237 OA
ATOM    107  O   UNL A   1      32.896  35.067  29.097  1.00  0.00    -0.744 OA
ENDBRANCH 103 104
ENDBRANCH  77  98
ENDBRANCH  51  52
ENDBRANCH  44  46
ENDBRANCH  43  44
ENDBRANCH  42  43
ENDBRANCH  41  42
ENDBRANCH  40  41
ENDBRANCH  39  40
ENDBRANCH  38  39
ENDBRANCH   1  38
TORSDOF 27
ENDMDL
MODEL 2
REMARK VINA RESULT:      -7.4      1.235      7.630
REMARK SMILES NC(=O)c1c(-c2ccc(Cl)cc2)csc1NC(=O)[C@H]1[C@@H](C(=O)OCCOCCOCCOCCOC(=O)c2ccc(-c3c4nc(c(-c5ccc(S(=O)(=O)[O-])cc5)c5ccc([nH]5)c(-c5ccc(S(=O)(=O)[O-])cc5)c5nc(c(-c6ccc(S(=O)(=O)[O-])cc6)c6ccc3[nH]6)C=C5)C=C4)cc2)[C@@H]2CC[C@H]1O2
REMARK SMILES IDX 29 1 28 2 27 3 26 4 25 5 24 6 23 7 21 8 22 9 20 10 19 11
REMARK SMILES IDX 101 12 98 13 100 14 102 15 99 16 17 17 16 18 18 20 15 21
REMARK SMILES IDX 4 22 5 23 13 24 14 25 2 26 1 27 3 30 6 31 7 32 12 33 8 34
REMARK SMILES IDX 11 35 9 36 10 37 30 38 31 39 32 40 33 41 34 42 35 43 36 44
REMARK SMILES IDX 37 45 38 46 39 47 97 48 40 49 96 50 41 51 42 52 43 53 90 54
REMARK SMILES IDX 44 55 95 56 89 57 91 58 45 59 94 60 88 61 87 62 46 64 76 65
REMARK SMILES IDX 57 66 75 67 58 68 61 69 74 70 92 71 59 72 60 73 73 75 93 76
REMARK SMILES IDX 62 77 47 78 48 79 56 80 49 81 55 82 50 83 51 84 52 85 53 86
REMARK SMILES IDX 54 87 77 88 78 89 86 90 79 91 85 92 80 93 81 94 82 95 83 96
REMARK SMILES IDX 84 97 63 98 64 99 72 100 65 101 71 102 66 103 67 104 68 105
REMARK SMILES IDX 69 106 70 107
REMARK H PARENT 16 19 1 28 1 29 91 63 61 74
REMARK Flexibility Score: inf
ROOT
ATOM      1  O   UNL A   1      53.358  23.231  35.750  1.00  0.00    -0.377 OA
ENDROOT
BRANCH   1   2
ATOM      2  C   UNL A   1      53.779  22.019  35.160  1.00  0.00     0.188 C 
BRANCH   2   3
ATOM      3  C   UNL A   1      52.728  20.927  34.886  1.00  0.00     0.188 C 
BRANCH   3   4
ATOM      4  O   UNL A   1      52.853  19.763  35.696  1.00  0.00    -0.376 OA
BRANCH   4   5
ATOM      5  C   UNL A   1      51.657  19.305  36.318  1.00  0.00     0.202 C 
BRANCH   5   6
ATOM      6  C   UNL A   1      50.397  19.568  35.485  1.00  0.00     0.261 C 
BRANCH   6   7
ATOM      7  O   UNL A   1      49.387  20.312  36.183  1.00  0.00    -0.463 OA
BRANCH   7   8
ATOM      8  C   UNL A   1      48.702  21.238  35.460  1.00  0.00     0.312 C 
ATOM      9  O   UNL A   1      48.678  21.266  34.239  1.00  0.00    -0.252 OA
BRANCH   8  10
ATOM     10  C   UNL A   1      47.757  21.995  36.374  1.00  0.00     0.143 C 
ATOM     11  C   UNL A   1      46.499  21.276  36.869  1.00  0.00     0.124 C 
ATOM     12  C   UNL A   1      45.382  22.130  36.263  1.00  0.00     0.132 C 
ATOM     13  C   UNL A   1      47.165  23.242  35.715  1.00  0.00     0.133 C 
ATOM     14  C   UNL A   1      45.217  23.405  37.090  1.00  0.00     0.035 C 
ATOM     15  O   UNL A   1      45.996  22.682  35.079  1.00  0.00    -0.373 OA
ATOM     16  C   UNL A   1      46.518  24.150  36.772  1.00  0.00     0.036 C 
BRANCH  11  17
ATOM     17  C   UNL A   1      46.367  19.815  36.488  1.00  0.00     0.231 C 
ATOM     18  N   UNL A   1      46.883  18.879  37.351  1.00  0.00    -0.317 N 
ATOM     19  H   UNL A   1      47.612  18.316  37.004  1.00  0.00     0.170 HD
ATOM     20  O   UNL A   1      45.939  19.454  35.392  1.00  0.00    -0.274 OA
BRANCH  18  21
ATOM     21  C   UNL A   1      46.487  18.644  38.664  1.00  0.00     0.108 A 
ATOM     22  C   UNL A   1      47.111  19.120  39.813  1.00  0.00     0.082 A 
ATOM     23  C   UNL A   1      46.553  18.492  40.995  1.00  0.00     0.007 A 
ATOM     24  C   UNL A   1      45.475  17.686  40.688  1.00  0.00     0.076 A 
ATOM     25  S   UNL A   1      45.245  17.536  39.017  1.00  0.00    -0.125 S 
BRANCH  22  26
ATOM     26  C   UNL A   1      48.227  20.058  39.744  1.00  0.00     0.252 C 
ATOM     27  N   UNL A   1      48.005  21.300  40.253  1.00  0.00    -0.365 N 
ATOM     28  H   UNL A   1      48.722  21.975  40.234  1.00  0.00     0.159 HD
ATOM     29  H   UNL A   1      47.129  21.524  40.642  1.00  0.00     0.159 HD
ATOM     30  O   UNL A   1      49.335  19.755  39.309  1.00  0.00    -0.269 OA
ENDBRANCH  22  26
BRANCH  23  31
ATOM     31  C   UNL A   1      47.008  18.556  42.376  1.00  0.00    -0.017 A 
ATOM     32  C   UNL A   1      46.050  18.501  43.402  1.00  0.00     0.010 A 
ATOM     33  C   UNL A   1      48.364  18.640  42.699  1.00  0.00     0.010 A 
ATOM     34  C   UNL A   1      46.443  18.529  44.738  1.00  0.00     0.021 A 
ATOM     35  C   UNL A   1      48.757  18.665  44.042  1.00  0.00     0.021 A 
ATOM     36  C   UNL A   1      47.797  18.609  45.054  1.00  0.00     0.041 A 
ATOM     37  Cl  UNL A   1      48.283  18.633  46.703  1.00  0.00    -0.084 Cl
ENDBRANCH  23  31
ENDBRANCH  18  21
ENDBRANCH  11  17
ENDBRANCH   8  10
ENDBRANCH   7   8
ENDBRANCH   6   7
ENDBRANCH   5   6
ENDBRANCH   4   5
ENDBRANCH   3   4
ENDBRANCH   2   3
ENDBRANCH   1   2
BRANCH   1  38
ATOM     38  C   UNL A   1      53.050  24.339  34.915  1.00  0.00     0.188 C 
BRANCH  38  39
ATOM     39  C   UNL A   1      51.849  25.264  35.214  1.00  0.00     0.188 C 
BRANCH  39  40
ATOM     40  O   UNL A   1      51.274  25.905  34.082  1.00  0.00    -0.376 OA
BRANCH  40  41
ATOM     41  C   UNL A   1      50.253  26.856  34.355  1.00  0.00     0.202 C 
BRANCH  41  42
ATOM     42  C   UNL A   1      49.345  26.458  35.523  1.00  0.00     0.261 C 
BRANCH  42  43
ATOM     43  O   UNL A   1      49.152  27.482  36.508  1.00  0.00    -0.460 OA
BRANCH  43  44
ATOM     44  C   UNL A   1      48.121  27.324  37.368  1.00  0.00     0.338 C 
ATOM     45  O   UNL A   1      48.142  26.795  38.463  1.00  0.00    -0.246 OA
BRANCH  44  46
ATOM     46  C   UNL A   1      46.981  28.075  36.817  1.00  0.00     0.060 A 
ATOM     47  C   UNL A   1      45.713  27.478  36.796  1.00  0.00     0.016 A 
ATOM     48  C   UNL A   1      47.169  29.378  36.354  1.00  0.00     0.016 A 
ATOM     49  C   UNL A   1      44.626  28.182  36.281  1.00  0.00     0.010 A 
ATOM     50  C   UNL A   1      46.090  30.070  35.814  1.00  0.00     0.010 A 
ATOM     51  C   UNL A   1      44.824  29.462  35.746  1.00  0.00    -0.014 A 
BRANCH  51  52
ATOM     52  C   UNL A   1      43.797  30.088  34.887  1.00  0.00     0.031 A 
ATOM     53  C   UNL A   1      42.894  31.107  35.523  1.00  0.00     0.074 A 
ATOM     54  C   UNL A   1      43.612  29.701  33.615  1.00  0.00     0.049 A 
ATOM     55  N   UNL A   1      41.816  31.670  35.048  1.00  0.00    -0.248 NA
ATOM     56  C   UNL A   1      43.251  31.534  36.887  1.00  0.00     0.031 C 
ATOM     57  C   UNL A   1      44.447  28.747  32.887  1.00  0.00     0.029 A 
ATOM     58  N   UNL A   1      42.632  30.048  32.719  1.00  0.00    -0.354 N 
ATOM     59  C   UNL A   1      41.353  32.500  36.062  1.00  0.00     0.074 A 
ATOM     60  C   UNL A   1      42.261  32.362  37.178  1.00  0.00     0.031 C 
ATOM     61  C   UNL A   1      43.923  28.560  31.662  1.00  0.00     0.029 A 
ATOM     62  C   UNL A   1      42.697  29.349  31.538  1.00  0.00     0.049 A 
ATOM     63  H   UNL A   1      41.949  30.733  32.905  1.00  0.00     0.167 HD
ATOM     64  C   UNL A   1      40.259  33.295  36.068  1.00  0.00     0.031 A 
ATOM     65  C   UNL A   1      41.841  29.322  30.498  1.00  0.00     0.031 A 
ATOM     66  C   UNL A   1      39.343  33.398  34.969  1.00  0.00     0.049 A 
ATOM     67  C   UNL A   1      40.595  30.169  30.545  1.00  0.00     0.074 A 
ATOM     68  C   UNL A   1      38.208  34.181  34.865  1.00  0.00     0.029 A 
ATOM     69  N   UNL A   1      39.450  32.683  33.786  1.00  0.00    -0.354 N 
ATOM     70  N   UNL A   1      40.182  30.973  31.496  1.00  0.00    -0.248 NA
ATOM     71  C   UNL A   1      39.699  30.106  29.381  1.00  0.00     0.031 C 
ATOM     72  C   UNL A   1      37.601  33.903  33.637  1.00  0.00     0.029 A 
ATOM     73  C   UNL A   1      38.390  32.988  32.953  1.00  0.00     0.049 A 
ATOM     74  H   UNL A   1      40.175  32.052  33.571  1.00  0.00     0.167 HD
ATOM     75  C   UNL A   1      38.995  31.533  31.033  1.00  0.00     0.074 A 
ATOM     76  C   UNL A   1      38.755  30.976  29.718  1.00  0.00     0.031 C 
ATOM     77  C   UNL A   1      38.180  32.432  31.640  1.00  0.00     0.031 A 
BRANCH  64  78
ATOM     78  C   UNL A   1      39.978  34.061  37.329  1.00  0.00    -0.014 A 
ATOM     79  C   UNL A   1      39.475  33.419  38.474  1.00  0.00     0.010 A 
ATOM     80  C   UNL A   1      40.209  35.448  37.363  1.00  0.00     0.010 A 
ATOM     81  C   UNL A   1      39.163  34.159  39.618  1.00  0.00     0.020 A 
ATOM     82  C   UNL A   1      39.922  36.188  38.512  1.00  0.00     0.020 A 
ATOM     83  C   UNL A   1      39.381  35.541  39.625  1.00  0.00     0.054 A 
BRANCH  83  84
ATOM     84  S   UNL A   1      38.963  36.482  41.118  1.00  0.00     0.124 S 
ATOM     85  O   UNL A   1      40.175  36.327  41.920  1.00  0.00    -0.237 OA
ATOM     86  O   UNL A   1      38.724  37.825  40.596  1.00  0.00    -0.237 OA
ATOM     87  O   UNL A   1      37.780  35.800  41.638  1.00  0.00    -0.744 OA
ENDBRANCH  83  84
ENDBRANCH  64  78
BRANCH  65  88
ATOM     88  C   UNL A   1      42.120  28.437  29.335  1.00  0.00    -0.014 A 
ATOM     89  C   UNL A   1      42.422  28.985  28.076  1.00  0.00     0.010 A 
ATOM     90  C   UNL A   1      42.110  27.038  29.486  1.00  0.00     0.010 A 
ATOM     91  C   UNL A   1      42.701  28.151  26.989  1.00  0.00     0.020 A 
ATOM     92  C   UNL A   1      42.412  26.201  28.407  1.00  0.00     0.020 A 
ATOM     93  C   UNL A   1      42.699  26.763  27.162  1.00  0.00     0.054 A 
BRANCH  93  94
ATOM     94  S   UNL A   1      43.129  25.703  25.754  1.00  0.00     0.124 S 
ATOM     95  O   UNL A   1      44.519  26.073  25.509  1.00  0.00    -0.237 OA
ATOM     96  O   UNL A   1      42.918  24.361  26.293  1.00  0.00    -0.237 OA
ATOM     97  O   UNL A   1      42.181  26.108  24.719  1.00  0.00    -0.744 OA
ENDBRANCH  93  94
ENDBRANCH  65  88
BRANCH  77  98
ATOM     98  C   UNL A   1      36.975  32.916  30.881  1.00  0.00    -0.014 A 
ATOM     99  C   UNL A   1      35.683  32.467  31.201  1.00  0.00     0.010 A 
ATOM    100  C   UNL A   1      37.135  33.928  29.917  1.00  0.00     0.010 A 
ATOM    101  C   UNL A   1      34.568  33.021  30.564  1.00  0.00     0.020 A 
ATOM    102  C   UNL A   1      36.022  34.499  29.294  1.00  0.00     0.020 A 
ATOM    103  C   UNL A   1      34.745  34.038  29.619  1.00  0.00     0.054 A 
BRANCH 103 104
ATOM    104  S   UNL A   1      33.279  34.806  28.874  1.00  0.00     0.124 S 
ATOM    105  O   UNL A   1      32.391  34.943  30.024  1.00  0.00    -0.237 OA
ATOM    106  O   UNL A   1      33.810  36.057  28.337  1.00  0.00    -0.237 OA
ATOM    107  O   UNL A   1      32.854  33.835  27.869  1.00  0.00    -0.744 OA
ENDBRANCH 103 104
ENDBRANCH  77  98
ENDBRANCH  51  52
ENDBRANCH  44  46
ENDBRANCH  43  44
ENDBRANCH  42  43
ENDBRANCH  41  42
ENDBRANCH  40  41
ENDBRANCH  39  40
ENDBRANCH  38  39
ENDBRANCH   1  38
TORSDOF 27
ENDMDL
MODEL 3
REMARK VINA RESULT:      -6.8      5.907     11.946
REMARK SMILES NC(=O)c1c(-c2ccc(Cl)cc2)csc1NC(=O)[C@H]1[C@@H](C(=O)OCCOCCOCCOCCOC(=O)c2ccc(-c3c4nc(c(-c5ccc(S(=O)(=O)[O-])cc5)c5ccc([nH]5)c(-c5ccc(S(=O)(=O)[O-])cc5)c5nc(c(-c6ccc(S(=O)(=O)[O-])cc6)c6ccc3[nH]6)C=C5)C=C4)cc2)[C@@H]2CC[C@H]1O2
REMARK SMILES IDX 29 1 28 2 27 3 26 4 25 5 24 6 23 7 21 8 22 9 20 10 19 11
REMARK SMILES IDX 101 12 98 13 100 14 102 15 99 16 17 17 16 18 18 20 15 21
REMARK SMILES IDX 4 22 5 23 13 24 14 25 2 26 1 27 3 30 6 31 7 32 12 33 8 34
REMARK SMILES IDX 11 35 9 36 10 37 30 38 31 39 32 40 33 41 34 42 35 43 36 44
REMARK SMILES IDX 37 45 38 46 39 47 97 48 40 49 96 50 41 51 42 52 43 53 90 54
REMARK SMILES IDX 44 55 95 56 89 57 91 58 45 59 94 60 88 61 87 62 46 64 76 65
REMARK SMILES IDX 57 66 75 67 58 68 61 69 74 70 92 71 59 72 60 73 73 75 93 76
REMARK SMILES IDX 62 77 47 78 48 79 56 80 49 81 55 82 50 83 51 84 52 85 53 86
REMARK SMILES IDX 54 87 77 88 78 89 86 90 79 91 85 92 80 93 81 94 82 95 83 96
REMARK SMILES IDX 84 97 63 98 64 99 72 100 65 101 71 102 66 103 67 104 68 105
REMARK SMILES IDX 69 106 70 107
REMARK H PARENT 16 19 1 28 1 29 91 63 61 74
REMARK Flexibility Score: inf
ROOT
ATOM      1  O   UNL A   1      45.187  31.360  35.530  1.00  0.00    -0.377 OA
ENDROOT
BRANCH   1   2
ATOM      2  C   UNL A   1      44.403  30.515  36.346  1.00  0.00     0.188 C 
BRANCH   2   3
ATOM      3  C   UNL A   1      44.949  29.120  36.705  1.00  0.00     0.188 C 
BRANCH   3   4
ATOM      4  O   UNL A   1      44.202  28.427  37.699  1.00  0.00    -0.376 OA
BRANCH   4   5
ATOM      5  C   UNL A   1      44.868  27.339  38.333  1.00  0.00     0.202 C 
BRANCH   5   6
ATOM      6  C   UNL A   1      46.168  26.928  37.631  1.00  0.00     0.261 C 
BRANCH   6   7
ATOM      7  O   UNL A   1      46.081  25.669  36.945  1.00  0.00    -0.463 OA
BRANCH   7   8
ATOM      8  C   UNL A   1      46.446  25.661  35.635  1.00  0.00     0.312 C 
ATOM      9  O   UNL A   1      47.177  26.499  35.127  1.00  0.00    -0.252 OA
BRANCH   8  10
ATOM     10  C   UNL A   1      46.080  24.326  35.016  1.00  0.00     0.143 C 
ATOM     11  C   UNL A   1      45.031  24.310  33.901  1.00  0.00     0.124 C 
ATOM     12  C   UNL A   1      43.914  23.466  34.524  1.00  0.00     0.132 C 
ATOM     13  C   UNL A   1      45.478  23.348  36.026  1.00  0.00     0.133 C 
ATOM     14  C   UNL A   1      44.299  21.988  34.453  1.00  0.00     0.035 C 
ATOM     15  O   UNL A   1      44.080  23.696  35.940  1.00  0.00    -0.373 OA
ATOM     16  C   UNL A   1      45.463  21.924  35.448  1.00  0.00     0.036 C 
BRANCH  11  17
ATOM     17  C   UNL A   1      44.528  25.660  33.432  1.00  0.00     0.231 C 
ATOM     18  N   UNL A   1      45.355  26.407  32.629  1.00  0.00    -0.317 N 
ATOM     19  H   UNL A   1      45.647  27.276  32.987  1.00  0.00     0.170 HD
ATOM     20  O   UNL A   1      43.479  26.154  33.846  1.00  0.00    -0.274 OA
BRANCH  18  21
ATOM     21  C   UNL A   1      45.824  26.066  31.365  1.00  0.00     0.108 A 
ATOM     22  C   UNL A   1      47.144  26.133  30.928  1.00  0.00     0.082 A 
ATOM     23  C   UNL A   1      47.220  25.913  29.497  1.00  0.00     0.007 A 
ATOM     24  C   UNL A   1      45.993  25.576  28.962  1.00  0.00     0.076 A 
ATOM     25  S   UNL A   1      44.746  25.695  30.103  1.00  0.00    -0.125 S 
BRANCH  22  26
ATOM     26  C   UNL A   1      48.234  26.469  31.838  1.00  0.00     0.252 C 
ATOM     27  N   UNL A   1      48.928  25.423  32.364  1.00  0.00    -0.365 N 
ATOM     28  H   UNL A   1      49.674  25.589  32.985  1.00  0.00     0.159 HD
ATOM     29  H   UNL A   1      48.685  24.500  32.123  1.00  0.00     0.159 HD
ATOM     30  O   UNL A   1      48.569  27.623  32.091  1.00  0.00    -0.269 OA
ENDBRANCH  22  26
BRANCH  23  31
ATOM     31  C   UNL A   1      48.357  26.061  28.600  1.00  0.00    -0.017 A 
ATOM     32  C   UNL A   1      48.828  27.354  28.319  1.00  0.00     0.010 A 
ATOM     33  C   UNL A   1      49.004  24.954  28.044  1.00  0.00     0.010 A 
ATOM     34  C   UNL A   1      49.932  27.541  27.491  1.00  0.00     0.021 A 
ATOM     35  C   UNL A   1      50.114  25.143  27.215  1.00  0.00     0.021 A 
ATOM     36  C   UNL A   1      50.573  26.433  26.943  1.00  0.00     0.041 A 
ATOM     37  Cl  UNL A   1      51.943  26.662  25.929  1.00  0.00    -0.084 Cl
ENDBRANCH  23  31
ENDBRANCH  18  21
ENDBRANCH  11  17
ENDBRANCH   8  10
ENDBRANCH   7   8
ENDBRANCH   6   7
ENDBRANCH   5   6
ENDBRANCH   4   5
ENDBRANCH   3   4
ENDBRANCH   2   3
ENDBRANCH   1   2
BRANCH   1  38
ATOM     38  C   UNL A   1      46.402  31.888  36.043  1.00  0.00     0.188 C 
BRANCH  38  39
ATOM     39  C   UNL A   1      47.026  33.178  35.467  1.00  0.00     0.188 C 
BRANCH  39  40
ATOM     40  O   UNL A   1      46.398  34.392  35.864  1.00  0.00    -0.376 OA
BRANCH  40  41
ATOM     41  C   UNL A   1      47.123  35.585  35.600  1.00  0.00     0.202 C 
BRANCH  41  42
ATOM     42  C   UNL A   1      47.492  35.763  34.125  1.00  0.00     0.261 C 
BRANCH  42  43
ATOM     43  O   UNL A   1      48.703  35.106  33.726  1.00  0.00    -0.460 OA
BRANCH  43  44
ATOM     44  C   UNL A   1      49.107  35.281  32.448  1.00  0.00     0.338 C 
ATOM     45  O   UNL A   1      50.016  35.983  32.047  1.00  0.00    -0.246 OA
BRANCH  44  46
ATOM     46  C   UNL A   1      48.359  34.318  31.623  1.00  0.00     0.060 A 
ATOM     47  C   UNL A   1      47.572  34.791  30.564  1.00  0.00     0.016 A 
ATOM     48  C   UNL A   1      48.465  32.952  31.885  1.00  0.00     0.016 A 
ATOM     49  C   UNL A   1      46.863  33.888  29.773  1.00  0.00     0.010 A 
ATOM     50  C   UNL A   1      47.735  32.053  31.114  1.00  0.00     0.010 A 
ATOM     51  C   UNL A   1      46.907  32.521  30.078  1.00  0.00    -0.014 A 
BRANCH  51  52
ATOM     52  C   UNL A   1      45.915  31.587  29.505  1.00  0.00     0.031 A 
ATOM     53  C   UNL A   1      44.664  31.338  30.298  1.00  0.00     0.074 A 
ATOM     54  C   UNL A   1      46.156  30.915  28.368  1.00  0.00     0.049 A 
ATOM     55  N   UNL A   1      43.728  30.447  30.111  1.00  0.00    -0.248 NA
ATOM     56  C   UNL A   1      44.452  32.204  31.471  1.00  0.00     0.031 C 
ATOM     57  C   UNL A   1      47.319  31.100  27.502  1.00  0.00     0.029 A 
ATOM     58  N   UNL A   1      45.440  29.910  27.766  1.00  0.00    -0.354 N 
ATOM     59  C   UNL A   1      42.828  30.630  31.155  1.00  0.00     0.074 A 
ATOM     60  C   UNL A   1      43.332  31.709  31.973  1.00  0.00     0.031 C 
ATOM     61  C   UNL A   1      47.253  30.212  26.493  1.00  0.00     0.029 A 
ATOM     62  C   UNL A   1      46.067  29.374  26.668  1.00  0.00     0.049 A 
ATOM     63  H   UNL A   1      44.562  29.605  28.091  1.00  0.00     0.167 HD
ATOM     64  C   UNL A   1      41.690  29.948  31.416  1.00  0.00     0.031 A 
ATOM     65  C   UNL A   1      45.739  28.303  25.919  1.00  0.00     0.031 A 
ATOM     66  C   UNL A   1      41.215  28.854  30.618  1.00  0.00     0.049 A 
ATOM     67  C   UNL A   1      44.498  27.517  26.260  1.00  0.00     0.074 A 
ATOM     68  C   UNL A   1      40.069  28.099  30.788  1.00  0.00     0.029 A 
ATOM     69  N   UNL A   1      41.872  28.347  29.507  1.00  0.00    -0.354 N 
ATOM     70  N   UNL A   1      43.638  27.716  27.230  1.00  0.00    -0.248 NA
ATOM     71  C   UNL A   1      44.183  26.361  25.405  1.00  0.00     0.031 C 
ATOM     72  C   UNL A   1      40.058  27.104  29.805  1.00  0.00     0.029 A 
ATOM     73  C   UNL A   1      41.168  27.276  28.991  1.00  0.00     0.049 A 
ATOM     74  H   UNL A   1      42.715  28.700  29.139  1.00  0.00     0.167 HD
ATOM     75  C   UNL A   1      42.666  26.731  27.086  1.00  0.00     0.074 A 
ATOM     76  C   UNL A   1      43.043  25.936  25.935  1.00  0.00     0.031 C 
ATOM     77  C   UNL A   1      41.557  26.508  27.835  1.00  0.00     0.031 A 
BRANCH  64  78
ATOM     78  C   UNL A   1      40.925  30.340  32.648  1.00  0.00    -0.014 A 
ATOM     79  C   UNL A   1      41.399  30.021  33.932  1.00  0.00     0.010 A 
ATOM     80  C   UNL A   1      39.706  31.029  32.516  1.00  0.00     0.010 A 
ATOM     81  C   UNL A   1      40.644  30.341  35.063  1.00  0.00     0.020 A 
ATOM     82  C   UNL A   1      38.960  31.374  33.645  1.00  0.00     0.020 A 
ATOM     83  C   UNL A   1      39.424  31.008  34.910  1.00  0.00     0.054 A 
BRANCH  83  84
ATOM     84  S   UNL A   1      38.458  31.409  36.392  1.00  0.00     0.124 S 
ATOM     85  O   UNL A   1      37.449  32.319  35.855  1.00  0.00    -0.237 OA
ATOM     86  O   UNL A   1      37.961  30.103  36.817  1.00  0.00    -0.237 OA
ATOM     87  O   UNL A   1      39.436  32.022  37.288  1.00  0.00    -0.744 OA
ENDBRANCH  83  84
ENDBRANCH  64  78
BRANCH  65  88
ATOM     88  C   UNL A   1      46.617  27.894  24.789  1.00  0.00    -0.014 A 
ATOM     89  C   UNL A   1      47.465  26.780  24.910  1.00  0.00     0.010 A 
ATOM     90  C   UNL A   1      46.592  28.605  23.575  1.00  0.00     0.010 A 
ATOM     91  C   UNL A   1      48.276  26.389  23.841  1.00  0.00     0.020 A 
ATOM     92  C   UNL A   1      47.384  28.203  22.496  1.00  0.00     0.020 A 
ATOM     93  C   UNL A   1      48.228  27.101  22.638  1.00  0.00     0.054 A 
BRANCH  93  94
ATOM     94  S   UNL A   1      49.240  26.534  21.243  1.00  0.00     0.124 S 
ATOM     95  O   UNL A   1      48.742  27.362  20.150  1.00  0.00    -0.237 OA
ATOM     96  O   UNL A   1      50.597  26.835  21.695  1.00  0.00    -0.237 OA
ATOM     97  O   UNL A   1      48.924  25.111  21.147  1.00  0.00    -0.744 OA
ENDBRANCH  93  94
ENDBRANCH  65  88
BRANCH  77  98
ATOM     98  C   UNL A   1      40.636  25.394  27.418  1.00  0.00    -0.014 A 
ATOM     99  C   UNL A   1      39.316  25.652  27.014  1.00  0.00     0.010 A 
ATOM    100  C   UNL A   1      41.146  24.086  27.315  1.00  0.00     0.010 A 
ATOM    101  C   UNL A   1      38.517  24.617  26.516  1.00  0.00     0.020 A 
ATOM    102  C   UNL A   1      40.359  23.055  26.799  1.00  0.00     0.020 A 
ATOM    103  C   UNL A   1      39.047  23.326  26.406  1.00  0.00     0.054 A 
BRANCH 103 104
ATOM    104  S   UNL A   1      38.024  22.020  25.671  1.00  0.00     0.124 S 
ATOM    105  O   UNL A   1      38.919  20.869  25.722  1.00  0.00    -0.237 OA
ATOM    106  O   UNL A   1      36.877  21.964  26.574  1.00  0.00    -0.237 OA
ATOM    107  O   UNL A   1      37.729  22.524  24.332  1.00  0.00    -0.744 OA
ENDBRANCH 103 104
ENDBRANCH  77  98
ENDBRANCH  51  52
ENDBRANCH  44  46
ENDBRANCH  43  44
ENDBRANCH  42  43
ENDBRANCH  41  42
ENDBRANCH  40  41
ENDBRANCH  39  40
ENDBRANCH  38  39
ENDBRANCH   1  38
TORSDOF 27
ENDMDL
