MODEL 1
REMARK VINA RESULT:     -10.9      0.000      0.000
REMARK SMILES Cc1ccc(S(=O)(=O)n2cc(C(=O)C(=O)N[C@@H](Cc3cnc[nH]3)C(=O)OCCOCCOCCOCCOC(=O)c3ccc(-c4c5nc(c(-c6ccc(S(=O)(=O)[O-])cc6)c6ccc([nH]6)c(-c6ccc(S(=O)(=O)[O-])cc6)c6nc(c(-c7ccc(S(=O)(=O)[O-])cc7)c7ccc4[nH]7)C=C6)C=C5)cc3)c3ccccc32)cc1
REMARK SMILES IDX 31 1 30 2 29 3 28 4 27 5 26 6 24 7 25 8 17 9 16 10 14 11
REMARK SMILES IDX 15 12 12 14 13 15 11 16 9 17 10 18 106 19 101 20 105 21
REMARK SMILES IDX 102 22 104 23 103 24 6 25 7 26 8 27 5 28 1 29 2 30 3 31
REMARK SMILES IDX 108 32 4 33 107 34 18 35 19 36 20 37 23 38 21 39 22 40 32 42
REMARK SMILES IDX 33 43 34 44 35 45 36 46 37 47 38 48 39 49 40 50 41 51 42 52
REMARK SMILES IDX 100 53 43 54 99 55 44 56 45 57 46 58 93 59 47 60 98 61 92 62
REMARK SMILES IDX 94 63 48 64 97 65 91 66 90 67 49 69 79 70 60 71 78 72 61 73
REMARK SMILES IDX 64 74 77 75 95 76 62 77 63 78 76 80 96 81 65 82 50 83 51 84
REMARK SMILES IDX 59 85 52 86 58 87 53 88 54 89 55 90 56 91 57 92 80 93 81 94
REMARK SMILES IDX 89 95 82 96 88 97 83 98 84 99 85 100 86 101 87 102 66 103
REMARK SMILES IDX 67 104 75 105 68 106 74 107 69 108 70 109 71 110 72 111
REMARK SMILES IDX 73 112
REMARK H PARENT 16 13 23 41 94 68 64 79
REMARK Flexibility Score: inf
ROOT
ATOM      1  C   UNL A   1      42.275  19.348  26.028  1.00  0.00     0.188 C 
ENDROOT
BRANCH   1   2
ATOM      2  C   UNL A   1      41.465  20.519  26.597  1.00  0.00     0.188 C 
BRANCH   2   3
ATOM      3  O   UNL A   1      40.539  21.196  25.752  1.00  0.00    -0.376 OA
BRANCH   3   4
ATOM      4  C   UNL A   1      39.205  21.300  26.229  1.00  0.00     0.202 C 
BRANCH   4   5
ATOM      5  C   UNL A   1      38.317  22.224  25.431  1.00  0.00     0.261 C 
BRANCH   5   6
ATOM      6  O   UNL A   1      37.268  21.452  24.825  1.00  0.00    -0.462 OA
BRANCH   6   7
ATOM      7  C   UNL A   1      36.410  22.145  24.048  1.00  0.00     0.329 C 
ATOM      8  O   UNL A   1      36.717  22.741  23.023  1.00  0.00    -0.250 OA
BRANCH   7   9
ATOM      9  C   UNL A   1      35.021  22.245  24.690  1.00  0.00     0.198 C 
BRANCH   9  10
ATOM     10  N   UNL A   1      33.874  22.492  23.794  1.00  0.00    -0.335 N 
ATOM     11  C   UNL A   1      32.738  23.245  24.069  1.00  0.00     0.293 C 
ATOM     12  O   UNL A   1      31.773  23.218  23.317  1.00  0.00    -0.265 OA
ATOM     13  H   UNL A   1      33.918  22.078  22.903  1.00  0.00     0.164 HD
BRANCH  11  14
ATOM     14  C   UNL A   1      32.742  24.179  25.299  1.00  0.00     0.252 C 
ATOM     15  O   UNL A   1      32.909  23.643  26.393  1.00  0.00    -0.283 OA
BRANCH  14  16
ATOM     16  C   UNL A   1      32.597  25.635  25.264  1.00  0.00     0.054 A 
ATOM     17  N   UNL A   1      32.313  27.790  25.756  1.00  0.00    -0.240 N 
ATOM     18  C   UNL A   1      32.107  26.508  26.219  1.00  0.00     0.117 A 
ATOM     19  C   UNL A   1      32.929  27.787  24.523  1.00  0.00     0.065 A 
ATOM     20  C   UNL A   1      33.002  26.447  24.142  1.00  0.00     0.012 A 
ATOM     21  C   UNL A   1      33.415  28.815  23.690  1.00  0.00     0.028 A 
ATOM     22  C   UNL A   1      33.483  26.137  22.849  1.00  0.00     0.011 A 
ATOM     23  C   UNL A   1      33.911  28.469  22.428  1.00  0.00     0.002 A 
ATOM     24  C   UNL A   1      33.925  27.150  22.001  1.00  0.00     0.001 A 
BRANCH  17  25
ATOM     25  S   UNL A   1      31.973  29.188  26.669  1.00  0.00     0.268 S 
ATOM     26  O   UNL A   1      31.299  28.678  27.870  1.00  0.00    -0.201 OA
ATOM     27  O   UNL A   1      31.338  30.117  25.786  1.00  0.00    -0.201 OA
BRANCH  25  28
ATOM     28  C   UNL A   1      33.504  29.908  27.210  1.00  0.00     0.088 A 
ATOM     29  C   UNL A   1      37.390  31.469  28.206  1.00  0.00     0.044 C 
ATOM     30  C   UNL A   1      36.031  30.927  27.875  1.00  0.00    -0.051 A 
ATOM     31  C   UNL A   1      35.881  29.575  27.546  1.00  0.00     0.005 A 
ATOM     32  C   UNL A   1      34.899  31.753  27.902  1.00  0.00     0.005 A 
ATOM     33  C   UNL A   1      34.624  29.068  27.208  1.00  0.00     0.022 A 
ATOM     34  C   UNL A   1      33.634  31.245  27.586  1.00  0.00     0.022 A 
ENDBRANCH  25  28
ENDBRANCH  17  25
ENDBRANCH  14  16
ENDBRANCH  11  14
ENDBRANCH   9  10
BRANCH   9  35
ATOM     35  C   UNL A   1      34.832  21.057  25.646  1.00  0.00     0.092 C 
BRANCH  35  36
ATOM     36  C   UNL A   1      34.000  19.916  25.172  1.00  0.00     0.037 A 
ATOM     37  C   UNL A   1      32.647  19.664  25.270  1.00  0.00     0.134 A 
ATOM     38  N   UNL A   1      34.516  18.781  24.600  1.00  0.00    -0.348 N 
ATOM     39  N   UNL A   1      32.353  18.392  24.860  1.00  0.00    -0.245 NA
ATOM     40  C   UNL A   1      33.502  17.870  24.497  1.00  0.00     0.196 A 
ATOM     41  H   UNL A   1      35.448  18.646  24.315  1.00  0.00     0.167 HD
ENDBRANCH  35  36
ENDBRANCH   9  35
ENDBRANCH   7   9
ENDBRANCH   6   7
ENDBRANCH   5   6
ENDBRANCH   4   5
ENDBRANCH   3   4
ENDBRANCH   2   3
ENDBRANCH   1   2
BRANCH   1  42
ATOM     42  O   UNL A   1      43.149  19.574  24.951  1.00  0.00    -0.377 OA
BRANCH  42  43
ATOM     43  C   UNL A   1      44.417  20.130  25.170  1.00  0.00     0.188 C 
BRANCH  43  44
ATOM     44  C   UNL A   1      44.591  21.564  24.660  1.00  0.00     0.188 C 
BRANCH  44  45
ATOM     45  O   UNL A   1      43.441  22.305  24.298  1.00  0.00    -0.376 OA
BRANCH  45  46
ATOM     46  C   UNL A   1      43.374  23.642  24.787  1.00  0.00     0.202 C 
BRANCH  46  47
ATOM     47  C   UNL A   1      42.803  23.965  26.199  1.00  0.00     0.261 C 
BRANCH  47  48
ATOM     48  O   UNL A   1      41.638  24.820  26.286  1.00  0.00    -0.460 OA
BRANCH  48  49
ATOM     49  C   UNL A   1      40.738  24.641  27.305  1.00  0.00     0.338 C 
ATOM     50  O   UNL A   1      40.705  23.758  28.142  1.00  0.00    -0.246 OA
BRANCH  49  51
ATOM     51  C   UNL A   1      40.007  25.935  27.447  1.00  0.00     0.060 A 
ATOM     52  C   UNL A   1      40.303  27.052  26.668  1.00  0.00     0.016 A 
ATOM     53  C   UNL A   1      39.346  26.103  28.658  1.00  0.00     0.016 A 
ATOM     54  C   UNL A   1      40.276  28.319  27.259  1.00  0.00     0.010 A 
ATOM     55  C   UNL A   1      39.463  27.326  29.293  1.00  0.00     0.010 A 
ATOM     56  C   UNL A   1      40.067  28.403  28.640  1.00  0.00    -0.014 A 
BRANCH  56  57
ATOM     57  C   UNL A   1      40.813  29.360  29.490  1.00  0.00     0.031 A 
ATOM     58  C   UNL A   1      40.121  30.191  30.515  1.00  0.00     0.074 A 
ATOM     59  C   UNL A   1      42.168  29.221  29.516  1.00  0.00     0.049 A 
ATOM     60  N   UNL A   1      40.711  31.055  31.264  1.00  0.00    -0.248 NA
ATOM     61  C   UNL A   1      38.703  30.076  30.854  1.00  0.00     0.031 C 
ATOM     62  C   UNL A   1      43.163  29.840  30.392  1.00  0.00     0.029 A 
ATOM     63  N   UNL A   1      42.967  28.467  28.658  1.00  0.00    -0.354 N 
ATOM     64  C   UNL A   1      39.861  31.454  32.276  1.00  0.00     0.074 A 
ATOM     65  C   UNL A   1      38.616  30.796  31.980  1.00  0.00     0.031 C 
ATOM     66  C   UNL A   1      44.406  29.523  30.000  1.00  0.00     0.029 A 
ATOM     67  C   UNL A   1      44.279  28.954  28.685  1.00  0.00     0.049 A 
ATOM     68  H   UNL A   1      42.655  27.707  28.116  1.00  0.00     0.167 HD
ATOM     69  C   UNL A   1      40.354  32.251  33.272  1.00  0.00     0.031 A 
ATOM     70  C   UNL A   1      44.681  29.675  27.597  1.00  0.00     0.031 A 
ATOM     71  C   UNL A   1      41.668  32.826  32.886  1.00  0.00     0.049 A 
ATOM     72  C   UNL A   1      44.560  31.225  27.825  1.00  0.00     0.074 A 
ATOM     73  C   UNL A   1      42.901  33.017  33.484  1.00  0.00     0.029 A 
ATOM     74  N   UNL A   1      41.856  33.209  31.547  1.00  0.00    -0.354 N 
ATOM     75  N   UNL A   1      43.887  31.776  28.829  1.00  0.00    -0.248 NA
ATOM     76  C   UNL A   1      45.257  32.273  27.081  1.00  0.00     0.031 C 
ATOM     77  C   UNL A   1      43.833  33.383  32.460  1.00  0.00     0.029 A 
ATOM     78  C   UNL A   1      43.188  33.395  31.227  1.00  0.00     0.049 A 
ATOM     79  H   UNL A   1      41.119  33.332  30.906  1.00  0.00     0.167 HD
ATOM     80  C   UNL A   1      44.060  33.136  28.911  1.00  0.00     0.074 A 
ATOM     81  C   UNL A   1      44.922  33.394  27.765  1.00  0.00     0.031 C 
ATOM     82  C   UNL A   1      43.549  33.953  29.906  1.00  0.00     0.031 A 
BRANCH  69  83
ATOM     83  C   UNL A   1      39.697  32.431  34.650  1.00  0.00    -0.014 A 
ATOM     84  C   UNL A   1      39.137  31.320  35.322  1.00  0.00     0.010 A 
ATOM     85  C   UNL A   1      39.513  33.671  35.307  1.00  0.00     0.010 A 
ATOM     86  C   UNL A   1      38.452  31.432  36.551  1.00  0.00     0.020 A 
ATOM     87  C   UNL A   1      38.863  33.795  36.555  1.00  0.00     0.020 A 
ATOM     88  C   UNL A   1      38.330  32.671  37.171  1.00  0.00     0.054 A 
BRANCH  88  89
ATOM     89  S   UNL A   1      37.497  32.782  38.784  1.00  0.00     0.124 S 
ATOM     90  O   UNL A   1      36.088  32.861  38.408  1.00  0.00    -0.237 OA
ATOM     91  O   UNL A   1      37.905  31.541  39.437  1.00  0.00    -0.237 OA
ATOM     92  O   UNL A   1      38.047  34.000  39.377  1.00  0.00    -0.744 OA
ENDBRANCH  88  89
ENDBRANCH  69  83
BRANCH  70  93
ATOM     93  C   UNL A   1      44.865  28.671  26.466  1.00  0.00    -0.014 A 
ATOM     94  C   UNL A   1      45.991  28.933  25.632  1.00  0.00     0.010 A 
ATOM     95  C   UNL A   1      44.554  27.299  26.637  1.00  0.00     0.010 A 
ATOM     96  C   UNL A   1      46.879  27.917  25.205  1.00  0.00     0.020 A 
ATOM     97  C   UNL A   1      45.428  26.272  26.178  1.00  0.00     0.020 A 
ATOM     98  C   UNL A   1      46.615  26.589  25.515  1.00  0.00     0.054 A 
BRANCH  98  99
ATOM     99  S   UNL A   1      47.898  25.313  25.225  1.00  0.00     0.124 S 
ATOM    100  O   UNL A   1      47.278  24.113  25.775  1.00  0.00    -0.237 OA
ATOM    101  O   UNL A   1      48.063  25.322  23.774  1.00  0.00    -0.237 OA
ATOM    102  O   UNL A   1      49.044  25.822  25.976  1.00  0.00    -0.744 OA
ENDBRANCH  98  99
ENDBRANCH  70  93
BRANCH  82 103
ATOM    103  C   UNL A   1      43.291  35.462  29.797  1.00  0.00    -0.014 A 
ATOM    104  C   UNL A   1      43.888  36.440  30.596  1.00  0.00     0.010 A 
ATOM    105  C   UNL A   1      42.521  35.949  28.695  1.00  0.00     0.010 A 
ATOM    106  C   UNL A   1      43.721  37.809  30.320  1.00  0.00     0.020 A 
ATOM    107  C   UNL A   1      42.389  37.301  28.379  1.00  0.00     0.020 A 
ATOM    108  C   UNL A   1      42.985  38.230  29.209  1.00  0.00     0.054 A 
BRANCH 108 109
ATOM    109  S   UNL A   1      42.873  39.991  28.828  1.00  0.00     0.124 S 
ATOM    110  O   UNL A   1      41.434  40.165  28.644  1.00  0.00    -0.237 OA
ATOM    111  O   UNL A   1      43.435  40.608  30.026  1.00  0.00    -0.237 OA
ATOM    112  O   UNL A   1      43.680  40.140  27.619  1.00  0.00    -0.744 OA
ENDBRANCH 108 109
ENDBRANCH  82 103
ENDBRANCH  56  57
ENDBRANCH  49  51
ENDBRANCH  48  49
ENDBRANCH  47  48
ENDBRANCH  46  47
ENDBRANCH  45  46
ENDBRANCH  44  45
ENDBRANCH  43  44
ENDBRANCH  42  43
ENDBRANCH   1  42
TORSDOF 30
ENDMDL
MODEL 2
REMARK VINA RESULT:     -10.8      5.570     10.971
REMARK SMILES Cc1ccc(S(=O)(=O)n2cc(C(=O)C(=O)N[C@@H](Cc3cnc[nH]3)C(=O)OCCOCCOCCOCCOC(=O)c3ccc(-c4c5nc(c(-c6ccc(S(=O)(=O)[O-])cc6)c6ccc([nH]6)c(-c6ccc(S(=O)(=O)[O-])cc6)c6nc(c(-c7ccc(S(=O)(=O)[O-])cc7)c7ccc4[nH]7)C=C6)C=C5)cc3)c3ccccc32)cc1
REMARK SMILES IDX 31 1 30 2 29 3 28 4 27 5 26 6 24 7 25 8 17 9 16 10 14 11
REMARK SMILES IDX 15 12 12 14 13 15 11 16 9 17 10 18 106 19 101 20 105 21
REMARK SMILES IDX 102 22 104 23 103 24 6 25 7 26 8 27 5 28 1 29 2 30 3 31
REMARK SMILES IDX 108 32 4 33 107 34 18 35 19 36 20 37 23 38 21 39 22 40 32 42
REMARK SMILES IDX 33 43 34 44 35 45 36 46 37 47 38 48 39 49 40 50 41 51 42 52
REMARK SMILES IDX 100 53 43 54 99 55 44 56 45 57 46 58 93 59 47 60 98 61 92 62
REMARK SMILES IDX 94 63 48 64 97 65 91 66 90 67 49 69 79 70 60 71 78 72 61 73
REMARK SMILES IDX 64 74 77 75 95 76 62 77 63 78 76 80 96 81 65 82 50 83 51 84
REMARK SMILES IDX 59 85 52 86 58 87 53 88 54 89 55 90 56 91 57 92 80 93 81 94
REMARK SMILES IDX 89 95 82 96 88 97 83 98 84 99 85 100 86 101 87 102 66 103
REMARK SMILES IDX 67 104 75 105 68 106 74 107 69 108 70 109 71 110 72 111
REMARK SMILES IDX 73 112
REMARK H PARENT 16 13 23 41 94 68 64 79
REMARK Flexibility Score: inf
ROOT
ATOM      1  C   UNL A   1      43.517  18.413  25.945  1.00  0.00     0.188 C 
ENDROOT
BRANCH   1   2
ATOM      2  C   UNL A   1      42.335  19.387  25.873  1.00  0.00     0.188 C 
BRANCH   2   3
ATOM      3  O   UNL A   1      41.026  18.912  26.177  1.00  0.00    -0.376 OA
BRANCH   3   4
ATOM      4  C   UNL A   1      39.946  19.767  25.831  1.00  0.00     0.202 C 
BRANCH   4   5
ATOM      5  C   UNL A   1      38.776  19.076  25.174  1.00  0.00     0.261 C 
BRANCH   5   6
ATOM      6  O   UNL A   1      37.868  20.071  24.675  1.00  0.00    -0.462 OA
BRANCH   6   7
ATOM      7  C   UNL A   1      36.559  19.823  24.886  1.00  0.00     0.329 C 
ATOM      8  O   UNL A   1      36.015  18.739  24.714  1.00  0.00    -0.250 OA
BRANCH   7   9
ATOM      9  C   UNL A   1      35.784  21.107  25.206  1.00  0.00     0.198 C 
BRANCH   9  10
ATOM     10  N   UNL A   1      35.258  21.259  26.577  1.00  0.00    -0.335 N 
ATOM     11  C   UNL A   1      33.964  21.604  26.949  1.00  0.00     0.293 C 
ATOM     12  O   UNL A   1      33.701  21.885  28.110  1.00  0.00    -0.265 OA
ATOM     13  H   UNL A   1      35.895  21.099  27.310  1.00  0.00     0.164 HD
BRANCH  11  14
ATOM     14  C   UNL A   1      32.844  21.552  25.886  1.00  0.00     0.252 C 
ATOM     15  O   UNL A   1      32.497  20.435  25.510  1.00  0.00    -0.283 OA
BRANCH  14  16
ATOM     16  C   UNL A   1      32.151  22.712  25.323  1.00  0.00     0.054 A 
ATOM     17  N   UNL A   1      30.964  24.569  24.995  1.00  0.00    -0.240 N 
ATOM     18  C   UNL A   1      31.194  23.539  25.882  1.00  0.00     0.117 A 
ATOM     19  C   UNL A   1      31.745  24.445  23.866  1.00  0.00     0.065 A 
ATOM     20  C   UNL A   1      32.404  23.222  23.997  1.00  0.00     0.012 A 
ATOM     21  C   UNL A   1      31.934  25.263  22.734  1.00  0.00     0.028 A 
ATOM     22  C   UNL A   1      33.193  22.760  22.919  1.00  0.00     0.011 A 
ATOM     23  C   UNL A   1      32.745  24.788  21.699  1.00  0.00     0.002 A 
ATOM     24  C   UNL A   1      33.351  23.542  21.777  1.00  0.00     0.001 A 
BRANCH  17  25
ATOM     25  S   UNL A   1      29.945  25.892  25.330  1.00  0.00     0.268 S 
ATOM     26  O   UNL A   1      29.183  25.469  26.512  1.00  0.00    -0.201 OA
ATOM     27  O   UNL A   1      29.299  26.241  24.103  1.00  0.00    -0.201 OA
BRANCH  25  28
ATOM     28  C   UNL A   1      30.943  27.274  25.833  1.00  0.00     0.088 A 
ATOM     29  C   UNL A   1      33.089  30.859  26.868  1.00  0.00     0.044 C 
ATOM     30  C   UNL A   1      32.355  29.600  26.509  1.00  0.00    -0.051 A 
ATOM     31  C   UNL A   1      31.877  29.420  25.206  1.00  0.00     0.005 A 
ATOM     32  C   UNL A   1      32.150  28.589  27.458  1.00  0.00     0.005 A 
ATOM     33  C   UNL A   1      31.167  28.265  24.871  1.00  0.00     0.022 A 
ATOM     34  C   UNL A   1      31.460  27.420  27.121  1.00  0.00     0.022 A 
ENDBRANCH  25  28
ENDBRANCH  17  25
ENDBRANCH  14  16
ENDBRANCH  11  14
ENDBRANCH   9  10
BRANCH   9  35
ATOM     35  C   UNL A   1      36.594  22.311  24.702  1.00  0.00     0.092 C 
BRANCH  35  36
ATOM     36  C   UNL A   1      37.446  23.031  25.689  1.00  0.00     0.037 A 
ATOM     37  C   UNL A   1      37.541  24.368  26.015  1.00  0.00     0.134 A 
ATOM     38  N   UNL A   1      38.437  22.431  26.423  1.00  0.00    -0.348 N 
ATOM     39  N   UNL A   1      38.604  24.597  26.846  1.00  0.00    -0.245 NA
ATOM     40  C   UNL A   1      39.147  23.419  27.046  1.00  0.00     0.196 A 
ATOM     41  H   UNL A   1      38.605  21.464  26.491  1.00  0.00     0.167 HD
ENDBRANCH  35  36
ENDBRANCH   9  35
ENDBRANCH   7   9
ENDBRANCH   6   7
ENDBRANCH   5   6
ENDBRANCH   4   5
ENDBRANCH   3   4
ENDBRANCH   2   3
ENDBRANCH   1   2
BRANCH   1  42
ATOM     42  O   UNL A   1      44.445  18.378  24.890  1.00  0.00    -0.377 OA
BRANCH  42  43
ATOM     43  C   UNL A   1      45.783  18.737  25.108  1.00  0.00     0.188 C 
BRANCH  43  44
ATOM     44  C   UNL A   1      46.163  20.140  24.622  1.00  0.00     0.188 C 
BRANCH  44  45
ATOM     45  O   UNL A   1      45.140  21.009  24.175  1.00  0.00    -0.376 OA
BRANCH  45  46
ATOM     46  C   UNL A   1      45.380  22.403  24.346  1.00  0.00     0.202 C 
BRANCH  46  47
ATOM     47  C   UNL A   1      45.231  23.093  25.734  1.00  0.00     0.261 C 
BRANCH  47  48
ATOM     48  O   UNL A   1      44.114  23.991  25.935  1.00  0.00    -0.460 OA
BRANCH  48  49
ATOM     49  C   UNL A   1      43.052  23.593  26.707  1.00  0.00     0.338 C 
ATOM     50  O   UNL A   1      42.369  22.591  26.600  1.00  0.00    -0.246 OA
BRANCH  49  51
ATOM     51  C   UNL A   1      43.102  24.425  27.945  1.00  0.00     0.060 A 
ATOM     52  C   UNL A   1      43.356  25.795  27.918  1.00  0.00     0.016 A 
ATOM     53  C   UNL A   1      43.324  23.713  29.118  1.00  0.00     0.016 A 
ATOM     54  C   UNL A   1      44.159  26.357  28.916  1.00  0.00     0.010 A 
ATOM     55  C   UNL A   1      44.240  24.222  30.020  1.00  0.00     0.010 A 
ATOM     56  C   UNL A   1      44.774  25.500  29.834  1.00  0.00    -0.014 A 
BRANCH  56  57
ATOM     57  C   UNL A   1      46.167  25.709  30.293  1.00  0.00     0.031 A 
ATOM     58  C   UNL A   1      47.329  25.404  29.412  1.00  0.00     0.074 A 
ATOM     59  C   UNL A   1      46.330  26.473  31.409  1.00  0.00     0.049 A 
ATOM     60  N   UNL A   1      48.559  25.542  29.765  1.00  0.00    -0.248 NA
ATOM     61  C   UNL A   1      47.222  24.986  28.015  1.00  0.00     0.031 C 
ATOM     62  C   UNL A   1      47.545  27.042  31.993  1.00  0.00     0.029 A 
ATOM     63  N   UNL A   1      45.355  26.873  32.321  1.00  0.00    -0.354 N 
ATOM     64  C   UNL A   1      49.377  25.440  28.657  1.00  0.00     0.074 A 
ATOM     65  C   UNL A   1      48.483  25.106  27.580  1.00  0.00     0.031 C 
ATOM     66  C   UNL A   1      47.277  27.632  33.168  1.00  0.00     0.029 A 
ATOM     67  C   UNL A   1      45.956  27.201  33.542  1.00  0.00     0.049 A 
ATOM     68  H   UNL A   1      44.390  26.920  32.134  1.00  0.00     0.167 HD
ATOM     69  C   UNL A   1      50.709  25.716  28.796  1.00  0.00     0.031 A 
ATOM     70  C   UNL A   1      45.805  26.299  34.555  1.00  0.00     0.031 A 
ATOM     71  C   UNL A   1      51.093  25.751  30.230  1.00  0.00     0.049 A 
ATOM     72  C   UNL A   1      47.041  25.339  34.696  1.00  0.00     0.074 A 
ATOM     73  C   UNL A   1      51.857  26.562  31.050  1.00  0.00     0.029 A 
ATOM     74  N   UNL A   1      50.492  24.827  31.101  1.00  0.00    -0.354 N 
ATOM     75  N   UNL A   1      47.993  25.218  33.778  1.00  0.00    -0.248 NA
ATOM     76  C   UNL A   1      47.408  24.557  35.876  1.00  0.00     0.031 C 
ATOM     77  C   UNL A   1      51.592  26.189  32.407  1.00  0.00     0.029 A 
ATOM     78  C   UNL A   1      50.647  25.166  32.431  1.00  0.00     0.049 A 
ATOM     79  H   UNL A   1      50.012  24.023  30.796  1.00  0.00     0.167 HD
ATOM     80  C   UNL A   1      49.049  24.445  34.196  1.00  0.00     0.074 A 
ATOM     81  C   UNL A   1      48.610  24.039  35.525  1.00  0.00     0.031 C 
ATOM     82  C   UNL A   1      50.213  24.220  33.480  1.00  0.00     0.031 A 
BRANCH  69  83
ATOM     83  C   UNL A   1      51.654  26.061  27.633  1.00  0.00    -0.014 A 
ATOM     84  C   UNL A   1      52.357  27.288  27.629  1.00  0.00     0.010 A 
ATOM     85  C   UNL A   1      51.834  25.273  26.472  1.00  0.00     0.010 A 
ATOM     86  C   UNL A   1      53.177  27.698  26.555  1.00  0.00     0.020 A 
ATOM     87  C   UNL A   1      52.680  25.652  25.405  1.00  0.00     0.020 A 
ATOM     88  C   UNL A   1      53.347  26.869  25.450  1.00  0.00     0.054 A 
BRANCH  88  89
ATOM     89  S   UNL A   1      54.457  27.390  24.108  1.00  0.00     0.124 S 
ATOM     90  O   UNL A   1      54.538  26.190  23.280  1.00  0.00    -0.237 OA
ATOM     91  O   UNL A   1      53.733  28.513  23.517  1.00  0.00    -0.237 OA
ATOM     92  O   UNL A   1      55.694  27.750  24.799  1.00  0.00    -0.744 OA
ENDBRANCH  88  89
ENDBRANCH  69  83
BRANCH  70  93
ATOM     93  C   UNL A   1      44.355  26.412  35.011  1.00  0.00    -0.014 A 
ATOM     94  C   UNL A   1      44.140  27.383  36.032  1.00  0.00     0.010 A 
ATOM     95  C   UNL A   1      43.279  26.252  34.102  1.00  0.00     0.010 A 
ATOM     96  C   UNL A   1      43.053  28.289  36.009  1.00  0.00     0.020 A 
ATOM     97  C   UNL A   1      42.167  27.143  34.097  1.00  0.00     0.020 A 
ATOM     98  C   UNL A   1      42.089  28.191  35.015  1.00  0.00     0.054 A 
BRANCH  98  99
ATOM     99  S   UNL A   1      40.855  29.530  34.807  1.00  0.00     0.124 S 
ATOM    100  O   UNL A   1      39.783  28.860  34.081  1.00  0.00    -0.237 OA
ATOM    101  O   UNL A   1      40.537  29.914  36.179  1.00  0.00    -0.237 OA
ATOM    102  O   UNL A   1      41.588  30.538  34.043  1.00  0.00    -0.744 OA
ENDBRANCH  98  99
ENDBRANCH  70  93
BRANCH  82 103
ATOM    103  C   UNL A   1      51.167  23.029  33.653  1.00  0.00    -0.014 A 
ATOM    104  C   UNL A   1      52.506  23.122  34.038  1.00  0.00     0.010 A 
ATOM    105  C   UNL A   1      50.633  21.706  33.588  1.00  0.00     0.010 A 
ATOM    106  C   UNL A   1      53.262  21.972  34.330  1.00  0.00     0.020 A 
ATOM    107  C   UNL A   1      51.354  20.561  33.925  1.00  0.00     0.020 A 
ATOM    108  C   UNL A   1      52.679  20.703  34.285  1.00  0.00     0.054 A 
BRANCH 108 109
ATOM    109  S   UNL A   1      53.650  19.256  34.761  1.00  0.00     0.124 S 
ATOM    110  O   UNL A   1      52.797  18.647  35.778  1.00  0.00    -0.237 OA
ATOM    111  O   UNL A   1      53.756  18.521  33.504  1.00  0.00    -0.237 OA
ATOM    112  O   UNL A   1      54.904  19.823  35.254  1.00  0.00    -0.744 OA
ENDBRANCH 108 109
ENDBRANCH  82 103
ENDBRANCH  56  57
ENDBRANCH  49  51
ENDBRANCH  48  49
ENDBRANCH  47  48
ENDBRANCH  46  47
ENDBRANCH  45  46
ENDBRANCH  44  45
ENDBRANCH  43  44
ENDBRANCH  42  43
ENDBRANCH   1  42
TORSDOF 30
ENDMDL
MODEL 3
REMARK VINA RESULT:      -9.6      1.464      2.262
REMARK SMILES Cc1ccc(S(=O)(=O)n2cc(C(=O)C(=O)N[C@@H](Cc3cnc[nH]3)C(=O)OCCOCCOCCOCCOC(=O)c3ccc(-c4c5nc(c(-c6ccc(S(=O)(=O)[O-])cc6)c6ccc([nH]6)c(-c6ccc(S(=O)(=O)[O-])cc6)c6nc(c(-c7ccc(S(=O)(=O)[O-])cc7)c7ccc4[nH]7)C=C6)C=C5)cc3)c3ccccc32)cc1
REMARK SMILES IDX 31 1 30 2 29 3 28 4 27 5 26 6 24 7 25 8 17 9 16 10 14 11
REMARK SMILES IDX 15 12 12 14 13 15 11 16 9 17 10 18 106 19 101 20 105 21
REMARK SMILES IDX 102 22 104 23 103 24 6 25 7 26 8 27 5 28 1 29 2 30 3 31
REMARK SMILES IDX 108 32 4 33 107 34 18 35 19 36 20 37 23 38 21 39 22 40 32 42
REMARK SMILES IDX 33 43 34 44 35 45 36 46 37 47 38 48 39 49 40 50 41 51 42 52
REMARK SMILES IDX 100 53 43 54 99 55 44 56 45 57 46 58 93 59 47 60 98 61 92 62
REMARK SMILES IDX 94 63 48 64 97 65 91 66 90 67 49 69 79 70 60 71 78 72 61 73
REMARK SMILES IDX 64 74 77 75 95 76 62 77 63 78 76 80 96 81 65 82 50 83 51 84
REMARK SMILES IDX 59 85 52 86 58 87 53 88 54 89 55 90 56 91 57 92 80 93 81 94
REMARK SMILES IDX 89 95 82 96 88 97 83 98 84 99 85 100 86 101 87 102 66 103
REMARK SMILES IDX 67 104 75 105 68 106 74 107 69 108 70 109 71 110 72 111
REMARK SMILES IDX 73 112
REMARK H PARENT 16 13 23 41 94 68 64 79
REMARK Flexibility Score: inf
ROOT
ATOM      1  C   UNL A   1      41.491  19.478  26.090  1.00  0.00     0.188 C 
ENDROOT
BRANCH   1   2
ATOM      2  C   UNL A   1      40.802  20.795  26.468  1.00  0.00     0.188 C 
BRANCH   2   3
ATOM      3  O   UNL A   1      39.621  21.183  25.772  1.00  0.00    -0.376 OA
BRANCH   3   4
ATOM      4  C   UNL A   1      38.770  22.106  26.437  1.00  0.00     0.202 C 
BRANCH   4   5
ATOM      5  C   UNL A   1      37.592  22.583  25.621  1.00  0.00     0.261 C 
BRANCH   5   6
ATOM      6  O   UNL A   1      36.583  21.560  25.621  1.00  0.00    -0.462 OA
BRANCH   6   7
ATOM      7  C   UNL A   1      35.796  21.520  24.526  1.00  0.00     0.329 C 
ATOM      8  O   UNL A   1      35.773  22.373  23.648  1.00  0.00    -0.250 OA
BRANCH   7   9
ATOM      9  C   UNL A   1      34.800  20.355  24.588  1.00  0.00     0.198 C 
BRANCH   9  10
ATOM     10  N   UNL A   1      33.862  20.202  23.458  1.00  0.00    -0.335 N 
ATOM     11  C   UNL A   1      32.506  20.509  23.442  1.00  0.00     0.293 C 
ATOM     12  O   UNL A   1      31.797  20.159  22.508  1.00  0.00    -0.265 OA
ATOM     13  H   UNL A   1      34.238  19.842  22.623  1.00  0.00     0.164 HD
BRANCH  11  14
ATOM     14  C   UNL A   1      31.922  21.368  24.585  1.00  0.00     0.252 C 
ATOM     15  O   UNL A   1      31.522  20.760  25.576  1.00  0.00    -0.283 OA
BRANCH  14  16
ATOM     16  C   UNL A   1      31.838  22.829  24.596  1.00  0.00     0.054 A 
ATOM     17  N   UNL A   1      31.978  25.004  24.130  1.00  0.00    -0.240 N 
ATOM     18  C   UNL A   1      32.518  23.768  23.842  1.00  0.00     0.117 A 
ATOM     19  C   UNL A   1      30.958  24.905  25.051  1.00  0.00     0.065 A 
ATOM     20  C   UNL A   1      30.938  23.567  25.449  1.00  0.00     0.012 A 
ATOM     21  C   UNL A   1      30.060  25.845  25.596  1.00  0.00     0.028 A 
ATOM     22  C   UNL A   1      30.064  23.184  26.491  1.00  0.00     0.011 A 
ATOM     23  C   UNL A   1      29.189  25.425  26.606  1.00  0.00     0.002 A 
ATOM     24  C   UNL A   1      29.203  24.116  27.066  1.00  0.00     0.001 A 
BRANCH  17  25
ATOM     25  S   UNL A   1      32.431  26.440  23.333  1.00  0.00     0.268 S 
ATOM     26  O   UNL A   1      31.232  26.825  22.578  1.00  0.00    -0.201 OA
ATOM     27  O   UNL A   1      33.679  26.180  22.685  1.00  0.00    -0.201 OA
BRANCH  25  28
ATOM     28  C   UNL A   1      32.700  27.710  24.546  1.00  0.00     0.088 A 
ATOM     29  C   UNL A   1      33.748  30.736  27.423  1.00  0.00     0.044 C 
ATOM     30  C   UNL A   1      33.368  29.680  26.428  1.00  0.00    -0.051 A 
ATOM     31  C   UNL A   1      34.031  28.447  26.432  1.00  0.00     0.005 A 
ATOM     32  C   UNL A   1      32.343  29.900  25.497  1.00  0.00     0.005 A 
ATOM     33  C   UNL A   1      33.705  27.469  25.491  1.00  0.00     0.022 A 
ATOM     34  C   UNL A   1      31.996  28.914  24.567  1.00  0.00     0.022 A 
ENDBRANCH  25  28
ENDBRANCH  17  25
ENDBRANCH  14  16
ENDBRANCH  11  14
ENDBRANCH   9  10
BRANCH   9  35
ATOM     35  C   UNL A   1      35.561  19.073  24.956  1.00  0.00     0.092 C 
BRANCH  35  36
ATOM     36  C   UNL A   1      34.924  17.771  24.617  1.00  0.00     0.037 A 
ATOM     37  C   UNL A   1      34.438  17.270  23.426  1.00  0.00     0.134 A 
ATOM     38  N   UNL A   1      34.595  16.817  25.545  1.00  0.00    -0.348 N 
ATOM     39  N   UNL A   1      33.759  16.099  23.627  1.00  0.00    -0.245 NA
ATOM     40  C   UNL A   1      33.837  15.869  24.917  1.00  0.00     0.196 A 
ATOM     41  H   UNL A   1      34.858  16.815  26.494  1.00  0.00     0.167 HD
ENDBRANCH  35  36
ENDBRANCH   9  35
ENDBRANCH   7   9
ENDBRANCH   6   7
ENDBRANCH   5   6
ENDBRANCH   4   5
ENDBRANCH   3   4
ENDBRANCH   2   3
ENDBRANCH   1   2
BRANCH   1  42
ATOM     42  O   UNL A   1      42.556  19.496  25.174  1.00  0.00    -0.377 OA
BRANCH  42  43
ATOM     43  C   UNL A   1      43.860  19.778  25.606  1.00  0.00     0.188 C 
BRANCH  43  44
ATOM     44  C   UNL A   1      44.466  21.063  25.033  1.00  0.00     0.188 C 
BRANCH  44  45
ATOM     45  O   UNL A   1      43.648  21.918  24.257  1.00  0.00    -0.376 OA
BRANCH  45  46
ATOM     46  C   UNL A   1      43.585  23.279  24.676  1.00  0.00     0.202 C 
BRANCH  46  47
ATOM     47  C   UNL A   1      43.147  23.668  26.118  1.00  0.00     0.261 C 
BRANCH  47  48
ATOM     48  O   UNL A   1      42.185  24.739  26.276  1.00  0.00    -0.460 OA
BRANCH  48  49
ATOM     49  C   UNL A   1      41.224  24.653  27.250  1.00  0.00     0.338 C 
ATOM     50  O   UNL A   1      41.124  23.835  28.146  1.00  0.00    -0.246 OA
BRANCH  49  51
ATOM     51  C   UNL A   1      40.514  25.965  27.252  1.00  0.00     0.060 A 
ATOM     52  C   UNL A   1      40.879  27.016  26.412  1.00  0.00     0.016 A 
ATOM     53  C   UNL A   1      39.786  26.234  28.405  1.00  0.00     0.016 A 
ATOM     54  C   UNL A   1      40.843  28.324  26.907  1.00  0.00     0.010 A 
ATOM     55  C   UNL A   1      39.890  27.498  28.955  1.00  0.00     0.010 A 
ATOM     56  C   UNL A   1      40.555  28.514  28.262  1.00  0.00    -0.014 A 
BRANCH  56  57
ATOM     57  C   UNL A   1      41.268  29.519  29.084  1.00  0.00     0.031 A 
ATOM     58  C   UNL A   1      40.558  30.322  30.118  1.00  0.00     0.074 A 
ATOM     59  C   UNL A   1      42.629  29.455  29.076  1.00  0.00     0.049 A 
ATOM     60  N   UNL A   1      41.119  31.225  30.844  1.00  0.00    -0.248 NA
ATOM     61  C   UNL A   1      39.157  30.134  30.495  1.00  0.00     0.031 C 
ATOM     62  C   UNL A   1      43.611  30.136  29.920  1.00  0.00     0.029 A 
ATOM     63  N   UNL A   1      43.446  28.736  28.204  1.00  0.00    -0.354 N 
ATOM     64  C   UNL A   1      40.274  31.588  31.874  1.00  0.00     0.074 A 
ATOM     65  C   UNL A   1      39.060  30.860  31.616  1.00  0.00     0.031 C 
ATOM     66  C   UNL A   1      44.858  29.883  29.498  1.00  0.00     0.029 A 
ATOM     67  C   UNL A   1      44.730  29.293  28.192  1.00  0.00     0.049 A 
ATOM     68  H   UNL A   1      43.162  27.954  27.678  1.00  0.00     0.167 HD
ATOM     69  C   UNL A   1      40.748  32.421  32.849  1.00  0.00     0.031 A 
ATOM     70  C   UNL A   1      45.064  30.024  27.088  1.00  0.00     0.031 A 
ATOM     71  C   UNL A   1      42.018  33.063  32.423  1.00  0.00     0.049 A 
ATOM     72  C   UNL A   1      44.864  31.567  27.305  1.00  0.00     0.074 A 
ATOM     73  C   UNL A   1      43.253  33.327  32.987  1.00  0.00     0.029 A 
ATOM     74  N   UNL A   1      42.151  33.441  31.077  1.00  0.00    -0.354 N 
ATOM     75  N   UNL A   1      44.187  32.091  28.320  1.00  0.00    -0.248 NA
ATOM     76  C   UNL A   1      45.483  32.644  26.533  1.00  0.00     0.031 C 
ATOM     77  C   UNL A   1      44.138  33.732  31.937  1.00  0.00     0.029 A 
ATOM     78  C   UNL A   1      43.462  33.696  30.720  1.00  0.00     0.049 A 
ATOM     79  H   UNL A   1      41.393  33.517  30.454  1.00  0.00     0.167 HD
ATOM     80  C   UNL A   1      44.288  33.460  28.385  1.00  0.00     0.074 A 
ATOM     81  C   UNL A   1      45.105  33.752  27.214  1.00  0.00     0.031 C 
ATOM     82  C   UNL A   1      43.758  34.258  29.386  1.00  0.00     0.031 A 
BRANCH  69  83
ATOM     83  C   UNL A   1      40.117  32.580  34.242  1.00  0.00    -0.014 A 
ATOM     84  C   UNL A   1      39.783  31.438  35.006  1.00  0.00     0.010 A 
ATOM     85  C   UNL A   1      39.743  33.812  34.829  1.00  0.00     0.010 A 
ATOM     86  C   UNL A   1      39.132  31.515  36.256  1.00  0.00     0.020 A 
ATOM     87  C   UNL A   1      39.124  33.908  36.096  1.00  0.00     0.020 A 
ATOM     88  C   UNL A   1      38.817  32.754  36.803  1.00  0.00     0.054 A 
BRANCH  88  89
ATOM     89  S   UNL A   1      38.033  32.831  38.443  1.00  0.00     0.124 S 
ATOM     90  O   UNL A   1      36.832  32.022  38.258  1.00  0.00    -0.237 OA
ATOM     91  O   UNL A   1      39.055  32.249  39.309  1.00  0.00    -0.237 OA
ATOM     92  O   UNL A   1      37.792  34.258  38.647  1.00  0.00    -0.744 OA
ENDBRANCH  88  89
ENDBRANCH  69  83
BRANCH  70  93
ATOM     93  C   UNL A   1      45.273  29.019  25.961  1.00  0.00    -0.014 A 
ATOM     94  C   UNL A   1      46.611  28.963  25.473  1.00  0.00     0.010 A 
ATOM     95  C   UNL A   1      44.573  27.788  25.929  1.00  0.00     0.010 A 
ATOM     96  C   UNL A   1      47.277  27.743  25.205  1.00  0.00     0.020 A 
ATOM     97  C   UNL A   1      45.232  26.561  25.627  1.00  0.00     0.020 A 
ATOM     98  C   UNL A   1      46.594  26.539  25.323  1.00  0.00     0.054 A 
BRANCH  98  99
ATOM     99  S   UNL A   1      47.518  24.958  25.267  1.00  0.00     0.124 S 
ATOM    100  O   UNL A   1      48.869  25.395  24.937  1.00  0.00    -0.237 OA
ATOM    101  O   UNL A   1      47.347  24.418  26.613  1.00  0.00    -0.237 OA
ATOM    102  O   UNL A   1      46.831  24.211  24.215  1.00  0.00    -0.744 OA
ENDBRANCH  98  99
ENDBRANCH  70  93
BRANCH  82 103
ATOM    103  C   UNL A   1      43.415  35.750  29.269  1.00  0.00    -0.014 A 
ATOM    104  C   UNL A   1      44.107  36.786  29.901  1.00  0.00     0.010 A 
ATOM    105  C   UNL A   1      42.430  36.156  28.316  1.00  0.00     0.010 A 
ATOM    106  C   UNL A   1      43.828  38.133  29.610  1.00  0.00     0.020 A 
ATOM    107  C   UNL A   1      42.179  37.486  27.979  1.00  0.00     0.020 A 
ATOM    108  C   UNL A   1      42.878  38.474  28.643  1.00  0.00     0.054 A 
BRANCH 108 109
ATOM    109  S   UNL A   1      42.615  40.210  28.222  1.00  0.00     0.124 S 
ATOM    110  O   UNL A   1      43.243  40.296  26.907  1.00  0.00    -0.237 OA
ATOM    111  O   UNL A   1      41.159  40.319  28.235  1.00  0.00    -0.237 OA
ATOM    112  O   UNL A   1      43.298  40.936  29.291  1.00  0.00    -0.744 OA
ENDBRANCH 108 109
ENDBRANCH  82 103
ENDBRANCH  56  57
ENDBRANCH  49  51
ENDBRANCH  48  49
ENDBRANCH  47  48
ENDBRANCH  46  47
ENDBRANCH  45  46
ENDBRANCH  44  45
ENDBRANCH  43  44
ENDBRANCH  42  43
ENDBRANCH   1  42
TORSDOF 30
ENDMDL
