MODEL 1
REMARK VINA RESULT:      -9.1      0.000      0.000
REMARK SMILES C[C@@H](C(=O)OCCOCCOCCOCCOC(=O)c1ccc(-c2c3nc(c(-c4ccc(S(=O)(=O)[O-])cc4)c4ccc([nH]4)c(-c4ccc(S(=O)(=O)[O-])cc4)c4nc(c(-c5ccc(S(=O)(=O)[O-])cc5)c5ccc2[nH]5)C=C4)C=C3)cc1)c1ccc(C[C@H]2CCC[C@H]2O)cc1
REMARK SMILES IDX 10 1 9 2 8 3 7 4 6 5 5 6 3 7 4 8 2 9 1 10 80 11 81 12 92 13
REMARK SMILES IDX 82 14 91 15 83 16 84 17 85 18 86 19 89 20 87 21 88 22 90 23
REMARK SMILES IDX 11 25 12 26 13 27 14 28 15 29 16 30 17 31 18 32 19 33 20 34
REMARK SMILES IDX 21 35 79 36 22 37 78 38 23 39 24 40 25 41 72 42 26 43 77 44
REMARK SMILES IDX 71 45 73 46 27 47 76 48 70 49 69 50 28 52 58 53 39 54 57 55
REMARK SMILES IDX 40 56 43 57 56 58 74 59 41 60 42 61 55 63 75 64 44 65 29 66
REMARK SMILES IDX 30 67 38 68 31 69 37 70 32 71 33 72 34 73 35 74 36 75 59 76
REMARK SMILES IDX 60 77 68 78 61 79 67 80 62 81 63 82 64 83 65 84 66 85 45 86
REMARK SMILES IDX 46 87 54 88 47 89 53 90 48 91 49 92 50 93 51 94 52 95
REMARK H PARENT 90 24 73 51 43 62
REMARK Flexibility Score: inf
ROOT
ATOM      1  C   UNL A   1      43.538  21.367  26.046  1.00  0.00     0.188 C 
ENDROOT
BRANCH   1   2
ATOM      2  C   UNL A   1      42.126  21.465  26.658  1.00  0.00     0.188 C 
BRANCH   2   3
ATOM      3  O   UNL A   1      41.052  21.922  25.856  1.00  0.00    -0.376 OA
BRANCH   3   4
ATOM      4  C   UNL A   1      39.714  21.674  26.262  1.00  0.00     0.202 C 
BRANCH   4   5
ATOM      5  C   UNL A   1      38.536  22.612  25.915  1.00  0.00     0.261 C 
BRANCH   5   6
ATOM      6  O   UNL A   1      37.192  22.130  26.115  1.00  0.00    -0.463 OA
BRANCH   6   7
ATOM      7  C   UNL A   1      36.374  22.101  25.028  1.00  0.00     0.313 C 
ATOM      8  O   UNL A   1      36.778  22.222  23.874  1.00  0.00    -0.252 OA
BRANCH   7   9
ATOM      9  C   UNL A   1      34.876  21.908  25.367  1.00  0.00     0.126 C 
ATOM     10  C   UNL A   1      34.102  20.783  24.676  1.00  0.00     0.025 C 
BRANCH   9  11
ATOM     11  C   UNL A   1      34.121  23.240  25.307  1.00  0.00    -0.034 A 
ATOM     12  C   UNL A   1      32.753  23.315  25.012  1.00  0.00     0.005 A 
ATOM     13  C   UNL A   1      34.818  24.442  25.454  1.00  0.00     0.005 A 
ATOM     14  C   UNL A   1      32.138  24.527  24.705  1.00  0.00     0.004 A 
ATOM     15  C   UNL A   1      34.200  25.662  25.158  1.00  0.00     0.004 A 
ATOM     16  C   UNL A   1      32.881  25.703  24.692  1.00  0.00    -0.048 A 
BRANCH  16  17
ATOM     17  C   UNL A   1      32.295  26.961  24.102  1.00  0.00     0.041 C 
BRANCH  17  18
ATOM     18  C   UNL A   1      31.779  28.017  25.103  1.00  0.00     0.022 C 
ATOM     19  C   UNL A   1      31.551  27.530  26.545  1.00  0.00     0.007 C 
ATOM     20  C   UNL A   1      32.566  29.330  25.261  1.00  0.00     0.117 C 
ATOM     21  C   UNL A   1      31.759  28.748  27.449  1.00  0.00     0.003 C 
ATOM     22  C   UNL A   1      31.951  29.939  26.518  1.00  0.00     0.032 C 
BRANCH  20  23
ATOM     23  O   UNL A   1      33.959  29.172  25.459  1.00  0.00    -0.393 OA
ATOM     24  H   UNL A   1      34.350  30.026  25.699  1.00  0.00     0.210 HD
ENDBRANCH  20  23
ENDBRANCH  17  18
ENDBRANCH  16  17
ENDBRANCH   9  11
ENDBRANCH   7   9
ENDBRANCH   6   7
ENDBRANCH   5   6
ENDBRANCH   4   5
ENDBRANCH   3   4
ENDBRANCH   2   3
ENDBRANCH   1   2
BRANCH   1  25
ATOM     25  O   UNL A   1      43.611  21.649  24.669  1.00  0.00    -0.377 OA
BRANCH  25  26
ATOM     26  C   UNL A   1      44.902  21.662  24.083  1.00  0.00     0.188 C 
BRANCH  26  27
ATOM     27  C   UNL A   1      46.001  22.539  24.715  1.00  0.00     0.188 C 
BRANCH  27  28
ATOM     28  O   UNL A   1      45.910  23.925  24.399  1.00  0.00    -0.376 OA
BRANCH  28  29
ATOM     29  C   UNL A   1      45.208  24.789  25.280  1.00  0.00     0.202 C 
BRANCH  29  30
ATOM     30  C   UNL A   1      43.748  25.124  24.934  1.00  0.00     0.261 C 
BRANCH  30  31
ATOM     31  O   UNL A   1      42.778  24.902  25.966  1.00  0.00    -0.460 OA
BRANCH  31  32
ATOM     32  C   UNL A   1      41.709  25.726  26.021  1.00  0.00     0.338 C 
ATOM     33  O   UNL A   1      40.810  25.817  25.202  1.00  0.00    -0.246 OA
BRANCH  32  34
ATOM     34  C   UNL A   1      41.700  26.356  27.357  1.00  0.00     0.060 A 
ATOM     35  C   UNL A   1      40.668  26.037  28.250  1.00  0.00     0.016 A 
ATOM     36  C   UNL A   1      42.722  27.227  27.739  1.00  0.00     0.016 A 
ATOM     37  C   UNL A   1      40.637  26.618  29.518  1.00  0.00     0.010 A 
ATOM     38  C   UNL A   1      42.674  27.831  28.998  1.00  0.00     0.010 A 
ATOM     39  C   UNL A   1      41.613  27.556  29.878  1.00  0.00    -0.014 A 
BRANCH  39  40
ATOM     40  C   UNL A   1      41.401  28.411  31.070  1.00  0.00     0.031 A 
ATOM     41  C   UNL A   1      40.276  29.410  31.028  1.00  0.00     0.074 A 
ATOM     42  C   UNL A   1      42.167  28.294  32.170  1.00  0.00     0.049 A 
ATOM     43  N   UNL A   1      39.920  30.297  31.919  1.00  0.00    -0.248 NA
ATOM     44  C   UNL A   1      39.442  29.408  29.813  1.00  0.00     0.031 C 
ATOM     45  C   UNL A   1      43.247  27.326  32.353  1.00  0.00     0.029 A 
ATOM     46  N   UNL A   1      42.150  29.006  33.343  1.00  0.00    -0.354 N 
ATOM     47  C   UNL A   1      38.834  30.967  31.368  1.00  0.00     0.074 A 
ATOM     48  C   UNL A   1      38.605  30.404  30.057  1.00  0.00     0.031 C 
ATOM     49  C   UNL A   1      43.794  27.511  33.569  1.00  0.00     0.029 A 
ATOM     50  C   UNL A   1      43.131  28.633  34.231  1.00  0.00     0.049 A 
ATOM     51  H   UNL A   1      41.496  29.718  33.532  1.00  0.00     0.167 HD
ATOM     52  C   UNL A   1      38.091  31.963  31.906  1.00  0.00     0.031 A 
ATOM     53  C   UNL A   1      43.467  29.153  35.428  1.00  0.00     0.031 A 
ATOM     54  C   UNL A   1      38.333  32.529  33.206  1.00  0.00     0.049 A 
ATOM     55  C   UNL A   1      42.679  30.321  35.971  1.00  0.00     0.074 A 
ATOM     56  C   UNL A   1      37.628  33.530  33.851  1.00  0.00     0.029 A 
ATOM     57  N   UNL A   1      39.363  32.153  34.055  1.00  0.00    -0.354 N 
ATOM     58  N   UNL A   1      41.639  30.929  35.451  1.00  0.00    -0.248 NA
ATOM     59  C   UNL A   1      43.108  30.868  37.266  1.00  0.00     0.031 C 
ATOM     60  C   UNL A   1      38.275  33.808  35.059  1.00  0.00     0.029 A 
ATOM     61  C   UNL A   1      39.335  32.927  35.203  1.00  0.00     0.049 A 
ATOM     62  H   UNL A   1      40.018  31.442  33.869  1.00  0.00     0.167 HD
ATOM     63  C   UNL A   1      41.268  31.906  36.372  1.00  0.00     0.074 A 
ATOM     64  C   UNL A   1      42.188  31.797  37.485  1.00  0.00     0.031 C 
ATOM     65  C   UNL A   1      40.256  32.806  36.306  1.00  0.00     0.031 A 
BRANCH  52  66
ATOM     66  C   UNL A   1      36.980  32.537  31.069  1.00  0.00    -0.014 A 
ATOM     67  C   UNL A   1      35.655  32.081  31.192  1.00  0.00     0.010 A 
ATOM     68  C   UNL A   1      37.263  33.581  30.168  1.00  0.00     0.010 A 
ATOM     69  C   UNL A   1      34.640  32.634  30.406  1.00  0.00     0.020 A 
ATOM     70  C   UNL A   1      36.246  34.158  29.403  1.00  0.00     0.020 A 
ATOM     71  C   UNL A   1      34.943  33.671  29.517  1.00  0.00     0.054 A 
BRANCH  71  72
ATOM     72  S   UNL A   1      33.601  34.392  28.534  1.00  0.00     0.124 S 
ATOM     73  O   UNL A   1      32.685  34.861  29.571  1.00  0.00    -0.237 OA
ATOM     74  O   UNL A   1      34.285  35.440  27.780  1.00  0.00    -0.237 OA
ATOM     75  O   UNL A   1      33.113  33.271  27.734  1.00  0.00    -0.744 OA
ENDBRANCH  71  72
ENDBRANCH  52  66
BRANCH  53  76
ATOM     76  C   UNL A   1      44.617  28.593  36.195  1.00  0.00    -0.014 A 
ATOM     77  C   UNL A   1      44.454  27.456  37.006  1.00  0.00     0.010 A 
ATOM     78  C   UNL A   1      45.881  29.208  36.129  1.00  0.00     0.010 A 
ATOM     79  C   UNL A   1      45.528  26.955  37.749  1.00  0.00     0.020 A 
ATOM     80  C   UNL A   1      46.964  28.692  36.846  1.00  0.00     0.020 A 
ATOM     81  C   UNL A   1      46.777  27.575  37.662  1.00  0.00     0.054 A 
BRANCH  81  82
ATOM     82  S   UNL A   1      48.167  26.879  38.600  1.00  0.00     0.124 S 
ATOM     83  O   UNL A   1      47.642  26.874  39.962  1.00  0.00    -0.237 OA
ATOM     84  O   UNL A   1      48.335  25.566  37.982  1.00  0.00    -0.237 OA
ATOM     85  O   UNL A   1      49.255  27.821  38.350  1.00  0.00    -0.744 OA
ENDBRANCH  81  82
ENDBRANCH  53  76
BRANCH  65  86
ATOM     86  C   UNL A   1      40.053  33.720  37.486  1.00  0.00    -0.014 A 
ATOM     87  C   UNL A   1      39.284  33.330  38.598  1.00  0.00     0.010 A 
ATOM     88  C   UNL A   1      40.699  34.971  37.509  1.00  0.00     0.010 A 
ATOM     89  C   UNL A   1      39.139  34.188  39.692  1.00  0.00     0.020 A 
ATOM     90  C   UNL A   1      40.585  35.816  38.615  1.00  0.00     0.020 A 
ATOM     91  C   UNL A   1      39.792  35.424  39.695  1.00  0.00     0.054 A 
BRANCH  91  92
ATOM     92  S   UNL A   1      39.623  36.497  41.147  1.00  0.00     0.124 S 
ATOM     93  O   UNL A   1      40.419  35.789  42.145  1.00  0.00    -0.237 OA
ATOM     94  O   UNL A   1      40.185  37.761  40.677  1.00  0.00    -0.237 OA
ATOM     95  O   UNL A   1      38.184  36.517  41.399  1.00  0.00    -0.744 OA
ENDBRANCH  91  92
ENDBRANCH  65  86
ENDBRANCH  39  40
ENDBRANCH  32  34
ENDBRANCH  31  32
ENDBRANCH  30  31
ENDBRANCH  29  30
ENDBRANCH  28  29
ENDBRANCH  27  28
ENDBRANCH  26  27
ENDBRANCH  25  26
ENDBRANCH   1  25
TORSDOF 27
ENDMDL
MODEL 2
REMARK VINA RESULT:      -8.0      7.905     15.012
REMARK SMILES C[C@@H](C(=O)OCCOCCOCCOCCOC(=O)c1ccc(-c2c3nc(c(-c4ccc(S(=O)(=O)[O-])cc4)c4ccc([nH]4)c(-c4ccc(S(=O)(=O)[O-])cc4)c4nc(c(-c5ccc(S(=O)(=O)[O-])cc5)c5ccc2[nH]5)C=C4)C=C3)cc1)c1ccc(C[C@H]2CCC[C@H]2O)cc1
REMARK SMILES IDX 10 1 9 2 8 3 7 4 6 5 5 6 3 7 4 8 2 9 1 10 80 11 81 12 92 13
REMARK SMILES IDX 82 14 91 15 83 16 84 17 85 18 86 19 89 20 87 21 88 22 90 23
REMARK SMILES IDX 11 25 12 26 13 27 14 28 15 29 16 30 17 31 18 32 19 33 20 34
REMARK SMILES IDX 21 35 79 36 22 37 78 38 23 39 24 40 25 41 72 42 26 43 77 44
REMARK SMILES IDX 71 45 73 46 27 47 76 48 70 49 69 50 28 52 58 53 39 54 57 55
REMARK SMILES IDX 40 56 43 57 56 58 74 59 41 60 42 61 55 63 75 64 44 65 29 66
REMARK SMILES IDX 30 67 38 68 31 69 37 70 32 71 33 72 34 73 35 74 36 75 59 76
REMARK SMILES IDX 60 77 68 78 61 79 67 80 62 81 63 82 64 83 65 84 66 85 45 86
REMARK SMILES IDX 46 87 54 88 47 89 53 90 48 91 49 92 50 93 51 94 52 95
REMARK H PARENT 90 24 73 51 43 62
REMARK Flexibility Score: inf
ROOT
ATOM      1  C   UNL A   1      39.623  34.139  31.877  1.00  0.00     0.188 C 
ENDROOT
BRANCH   1   2
ATOM      2  C   UNL A   1      41.022  34.036  31.238  1.00  0.00     0.188 C 
BRANCH   2   3
ATOM      3  O   UNL A   1      41.145  34.072  29.828  1.00  0.00    -0.376 OA
BRANCH   3   4
ATOM      4  C   UNL A   1      40.767  35.241  29.116  1.00  0.00     0.202 C 
BRANCH   4   5
ATOM      5  C   UNL A   1      41.726  36.011  28.180  1.00  0.00     0.261 C 
BRANCH   5   6
ATOM      6  O   UNL A   1      42.048  37.379  28.501  1.00  0.00    -0.463 OA
BRANCH   6   7
ATOM      7  C   UNL A   1      42.657  38.118  27.535  1.00  0.00     0.313 C 
ATOM      8  O   UNL A   1      43.175  37.628  26.534  1.00  0.00    -0.252 OA
BRANCH   7   9
ATOM      9  C   UNL A   1      42.652  39.642  27.804  1.00  0.00     0.126 C 
ATOM     10  C   UNL A   1      41.570  40.226  28.716  1.00  0.00     0.025 C 
BRANCH   9  11
ATOM     11  C   UNL A   1      42.786  40.434  26.500  1.00  0.00    -0.034 A 
ATOM     12  C   UNL A   1      43.981  41.061  26.121  1.00  0.00     0.005 A 
ATOM     13  C   UNL A   1      41.666  40.633  25.688  1.00  0.00     0.005 A 
ATOM     14  C   UNL A   1      44.022  41.985  25.078  1.00  0.00     0.004 A 
ATOM     15  C   UNL A   1      41.707  41.551  24.633  1.00  0.00     0.004 A 
ATOM     16  C   UNL A   1      42.862  42.302  24.381  1.00  0.00    -0.048 A 
BRANCH  16  17
ATOM     17  C   UNL A   1      42.840  43.485  23.447  1.00  0.00     0.041 C 
BRANCH  17  18
ATOM     18  C   UNL A   1      43.980  43.565  22.409  1.00  0.00     0.022 C 
ATOM     19  C   UNL A   1      45.332  42.967  22.837  1.00  0.00     0.007 C 
ATOM     20  C   UNL A   1      43.737  42.994  21.001  1.00  0.00     0.117 C 
ATOM     21  C   UNL A   1      46.023  42.501  21.554  1.00  0.00     0.003 C 
ATOM     22  C   UNL A   1      45.140  42.970  20.403  1.00  0.00     0.032 C 
BRANCH  20  23
ATOM     23  O   UNL A   1      43.199  41.685  20.972  1.00  0.00    -0.393 OA
ATOM     24  H   UNL A   1      43.371  41.284  20.105  1.00  0.00     0.210 HD
ENDBRANCH  20  23
ENDBRANCH  17  18
ENDBRANCH  16  17
ENDBRANCH   9  11
ENDBRANCH   7   9
ENDBRANCH   6   7
ENDBRANCH   5   6
ENDBRANCH   4   5
ENDBRANCH   3   4
ENDBRANCH   2   3
ENDBRANCH   1   2
BRANCH   1  25
ATOM     25  O   UNL A   1      39.028  32.907  32.208  1.00  0.00    -0.377 OA
BRANCH  25  26
ATOM     26  C   UNL A   1      39.626  32.166  33.258  1.00  0.00     0.188 C 
BRANCH  26  27
ATOM     27  C   UNL A   1      38.977  30.840  33.702  1.00  0.00     0.188 C 
BRANCH  27  28
ATOM     28  O   UNL A   1      37.586  30.733  33.413  1.00  0.00    -0.376 OA
BRANCH  28  29
ATOM     29  C   UNL A   1      37.150  29.773  32.464  1.00  0.00     0.202 C 
BRANCH  29  30
ATOM     30  C   UNL A   1      36.560  30.295  31.144  1.00  0.00     0.261 C 
BRANCH  30  31
ATOM     31  O   UNL A   1      37.479  30.473  30.058  1.00  0.00    -0.460 OA
BRANCH  31  32
ATOM     32  C   UNL A   1      37.396  29.625  29.010  1.00  0.00     0.338 C 
ATOM     33  O   UNL A   1      36.390  29.314  28.396  1.00  0.00    -0.246 OA
BRANCH  32  34
ATOM     34  C   UNL A   1      38.775  29.298  28.592  1.00  0.00     0.060 A 
ATOM     35  C   UNL A   1      39.711  28.932  29.569  1.00  0.00     0.016 A 
ATOM     36  C   UNL A   1      39.133  29.318  27.243  1.00  0.00     0.016 A 
ATOM     37  C   UNL A   1      41.019  28.619  29.201  1.00  0.00     0.010 A 
ATOM     38  C   UNL A   1      40.451  29.032  26.878  1.00  0.00     0.010 A 
ATOM     39  C   UNL A   1      41.407  28.716  27.859  1.00  0.00    -0.014 A 
BRANCH  39  40
ATOM     40  C   UNL A   1      42.848  28.712  27.512  1.00  0.00     0.031 A 
ATOM     41  C   UNL A   1      43.433  27.445  26.950  1.00  0.00     0.074 A 
ATOM     42  C   UNL A   1      43.616  29.806  27.667  1.00  0.00     0.049 A 
ATOM     43  N   UNL A   1      44.667  27.177  26.615  1.00  0.00    -0.248 NA
ATOM     44  C   UNL A   1      42.496  26.327  26.741  1.00  0.00     0.031 C 
ATOM     45  C   UNL A   1      43.152  31.107  28.146  1.00  0.00     0.029 A 
ATOM     46  N   UNL A   1      44.957  29.988  27.438  1.00  0.00    -0.354 N 
ATOM     47  C   UNL A   1      44.659  25.860  26.171  1.00  0.00     0.074 A 
ATOM     48  C   UNL A   1      43.304  25.373  26.304  1.00  0.00     0.031 C 
ATOM     49  C   UNL A   1      44.198  31.954  28.180  1.00  0.00     0.029 A 
ATOM     50  C   UNL A   1      45.407  31.245  27.766  1.00  0.00     0.049 A 
ATOM     51  H   UNL A   1      45.542  29.285  27.074  1.00  0.00     0.167 HD
ATOM     52  C   UNL A   1      45.688  25.119  25.695  1.00  0.00     0.031 A 
ATOM     53  C   UNL A   1      46.656  31.754  27.754  1.00  0.00     0.031 A 
ATOM     54  C   UNL A   1      47.036  25.604  25.579  1.00  0.00     0.049 A 
ATOM     55  C   UNL A   1      47.802  30.883  27.300  1.00  0.00     0.074 A 
ATOM     56  C   UNL A   1      48.148  24.940  25.092  1.00  0.00     0.029 A 
ATOM     57  N   UNL A   1      47.459  26.868  25.962  1.00  0.00    -0.354 N 
ATOM     58  N   UNL A   1      47.777  29.646  26.860  1.00  0.00    -0.248 NA
ATOM     59  C   UNL A   1      49.145  31.479  27.336  1.00  0.00     0.031 C 
ATOM     60  C   UNL A   1      49.257  25.777  25.248  1.00  0.00     0.029 A 
ATOM     61  C   UNL A   1      48.823  26.991  25.757  1.00  0.00     0.049 A 
ATOM     62  H   UNL A   1      46.877  27.573  26.327  1.00  0.00     0.167 HD
ATOM     63  C   UNL A   1      49.093  29.331  26.533  1.00  0.00     0.074 A 
ATOM     64  C   UNL A   1      49.885  30.510  26.815  1.00  0.00     0.031 C 
ATOM     65  C   UNL A   1      49.599  28.173  26.040  1.00  0.00     0.031 A 
BRANCH  52  66
ATOM     66  C   UNL A   1      45.402  23.692  25.311  1.00  0.00    -0.014 A 
ATOM     67  C   UNL A   1      44.962  23.352  24.019  1.00  0.00     0.010 A 
ATOM     68  C   UNL A   1      45.617  22.668  26.252  1.00  0.00     0.010 A 
ATOM     69  C   UNL A   1      44.709  22.018  23.686  1.00  0.00     0.020 A 
ATOM     70  C   UNL A   1      45.395  21.330  25.914  1.00  0.00     0.020 A 
ATOM     71  C   UNL A   1      44.929  21.015  24.637  1.00  0.00     0.054 A 
BRANCH  71  72
ATOM     72  S   UNL A   1      44.624  19.291  24.167  1.00  0.00     0.124 S 
ATOM     73  O   UNL A   1      45.763  18.606  24.776  1.00  0.00    -0.237 OA
ATOM     74  O   UNL A   1      43.327  19.018  24.779  1.00  0.00    -0.237 OA
ATOM     75  O   UNL A   1      44.627  19.322  22.706  1.00  0.00    -0.744 OA
ENDBRANCH  71  72
ENDBRANCH  52  66
BRANCH  53  76
ATOM     76  C   UNL A   1      46.901  33.155  28.204  1.00  0.00    -0.014 A 
ATOM     77  C   UNL A   1      46.674  34.238  27.336  1.00  0.00     0.010 A 
ATOM     78  C   UNL A   1      47.379  33.410  29.503  1.00  0.00     0.010 A 
ATOM     79  C   UNL A   1      46.939  35.547  27.753  1.00  0.00     0.020 A 
ATOM     80  C   UNL A   1      47.614  34.719  29.933  1.00  0.00     0.020 A 
ATOM     81  C   UNL A   1      47.404  35.779  29.049  1.00  0.00     0.054 A 
BRANCH  81  82
ATOM     82  S   UNL A   1      47.694  37.490  29.582  1.00  0.00     0.124 S 
ATOM     83  O   UNL A   1      47.228  37.461  30.965  1.00  0.00    -0.237 OA
ATOM     84  O   UNL A   1      49.137  37.633  29.403  1.00  0.00    -0.237 OA
ATOM     85  O   UNL A   1      46.878  38.279  28.662  1.00  0.00    -0.744 OA
ENDBRANCH  81  82
ENDBRANCH  53  76
BRANCH  65  86
ATOM     86  C   UNL A   1      51.073  28.131  25.726  1.00  0.00    -0.014 A 
ATOM     87  C   UNL A   1      52.014  27.672  26.664  1.00  0.00     0.010 A 
ATOM     88  C   UNL A   1      51.514  28.499  24.440  1.00  0.00     0.010 A 
ATOM     89  C   UNL A   1      53.371  27.615  26.333  1.00  0.00     0.020 A 
ATOM     90  C   UNL A   1      52.865  28.410  24.095  1.00  0.00     0.020 A 
ATOM     91  C   UNL A   1      53.788  27.982  25.050  1.00  0.00     0.054 A 
BRANCH  91  92
ATOM     92  S   UNL A   1      55.548  27.855  24.634  1.00  0.00     0.124 S 
ATOM     93  O   UNL A   1      55.673  26.449  24.260  1.00  0.00    -0.237 OA
ATOM     94  O   UNL A   1      55.686  28.811  23.538  1.00  0.00    -0.237 OA
ATOM     95  O   UNL A   1      56.226  28.233  25.873  1.00  0.00    -0.744 OA
ENDBRANCH  91  92
ENDBRANCH  65  86
ENDBRANCH  39  40
ENDBRANCH  32  34
ENDBRANCH  31  32
ENDBRANCH  30  31
ENDBRANCH  29  30
ENDBRANCH  28  29
ENDBRANCH  27  28
ENDBRANCH  26  27
ENDBRANCH  25  26
ENDBRANCH   1  25
TORSDOF 27
ENDMDL
MODEL 3
REMARK VINA RESULT:      -7.9      6.639      9.878
REMARK SMILES C[C@@H](C(=O)OCCOCCOCCOCCOC(=O)c1ccc(-c2c3nc(c(-c4ccc(S(=O)(=O)[O-])cc4)c4ccc([nH]4)c(-c4ccc(S(=O)(=O)[O-])cc4)c4nc(c(-c5ccc(S(=O)(=O)[O-])cc5)c5ccc2[nH]5)C=C4)C=C3)cc1)c1ccc(C[C@H]2CCC[C@H]2O)cc1
REMARK SMILES IDX 10 1 9 2 8 3 7 4 6 5 5 6 3 7 4 8 2 9 1 10 80 11 81 12 92 13
REMARK SMILES IDX 82 14 91 15 83 16 84 17 85 18 86 19 89 20 87 21 88 22 90 23
REMARK SMILES IDX 11 25 12 26 13 27 14 28 15 29 16 30 17 31 18 32 19 33 20 34
REMARK SMILES IDX 21 35 79 36 22 37 78 38 23 39 24 40 25 41 72 42 26 43 77 44
REMARK SMILES IDX 71 45 73 46 27 47 76 48 70 49 69 50 28 52 58 53 39 54 57 55
REMARK SMILES IDX 40 56 43 57 56 58 74 59 41 60 42 61 55 63 75 64 44 65 29 66
REMARK SMILES IDX 30 67 38 68 31 69 37 70 32 71 33 72 34 73 35 74 36 75 59 76
REMARK SMILES IDX 60 77 68 78 61 79 67 80 62 81 63 82 64 83 65 84 66 85 45 86
REMARK SMILES IDX 46 87 54 88 47 89 53 90 48 91 49 92 50 93 51 94 52 95
REMARK H PARENT 90 24 73 51 43 62
REMARK Flexibility Score: inf
ROOT
ATOM      1  C   UNL A   1      39.357  27.647  29.182  1.00  0.00     0.188 C 
ENDROOT
BRANCH   1   2
ATOM      2  C   UNL A   1      38.562  28.446  28.131  1.00  0.00     0.188 C 
BRANCH   2   3
ATOM      3  O   UNL A   1      37.563  29.354  28.559  1.00  0.00    -0.376 OA
BRANCH   3   4
ATOM      4  C   UNL A   1      36.544  29.759  27.656  1.00  0.00     0.202 C 
BRANCH   4   5
ATOM      5  C   UNL A   1      35.071  29.314  27.789  1.00  0.00     0.261 C 
BRANCH   5   6
ATOM      6  O   UNL A   1      34.181  29.545  26.678  1.00  0.00    -0.463 OA
BRANCH   6   7
ATOM      7  C   UNL A   1      32.915  29.058  26.784  1.00  0.00     0.313 C 
ATOM      8  O   UNL A   1      32.013  29.642  27.380  1.00  0.00    -0.252 OA
BRANCH   7   9
ATOM      9  C   UNL A   1      32.702  27.689  26.093  1.00  0.00     0.126 C 
ATOM     10  C   UNL A   1      33.928  26.894  25.638  1.00  0.00     0.025 C 
BRANCH   9  11
ATOM     11  C   UNL A   1      31.644  27.787  24.989  1.00  0.00    -0.034 A 
ATOM     12  C   UNL A   1      31.664  28.796  24.016  1.00  0.00     0.005 A 
ATOM     13  C   UNL A   1      30.559  26.906  24.985  1.00  0.00     0.005 A 
ATOM     14  C   UNL A   1      30.570  29.030  23.185  1.00  0.00     0.004 A 
ATOM     15  C   UNL A   1      29.464  27.132  24.143  1.00  0.00     0.004 A 
ATOM     16  C   UNL A   1      29.425  28.251  23.303  1.00  0.00    -0.048 A 
BRANCH  16  17
ATOM     17  C   UNL A   1      28.153  28.666  22.608  1.00  0.00     0.041 C 
BRANCH  17  18
ATOM     18  C   UNL A   1      27.873  30.182  22.529  1.00  0.00     0.022 C 
ATOM     19  C   UNL A   1      28.473  31.042  23.655  1.00  0.00     0.007 C 
ATOM     20  C   UNL A   1      28.237  30.933  21.237  1.00  0.00     0.117 C 
ATOM     21  C   UNL A   1      28.714  32.430  23.056  1.00  0.00     0.003 C 
ATOM     22  C   UNL A   1      28.116  32.396  21.655  1.00  0.00     0.032 C 
BRANCH  20  23
ATOM     23  O   UNL A   1      29.548  30.697  20.758  1.00  0.00    -0.393 OA
ATOM     24  H   UNL A   1      30.146  30.557  21.508  1.00  0.00     0.210 HD
ENDBRANCH  20  23
ENDBRANCH  17  18
ENDBRANCH  16  17
ENDBRANCH   9  11
ENDBRANCH   7   9
ENDBRANCH   6   7
ENDBRANCH   5   6
ENDBRANCH   4   5
ENDBRANCH   3   4
ENDBRANCH   2   3
ENDBRANCH   1   2
BRANCH   1  25
ATOM     25  O   UNL A   1      39.729  26.348  28.785  1.00  0.00    -0.377 OA
BRANCH  25  26
ATOM     26  C   UNL A   1      41.074  26.162  28.375  1.00  0.00     0.188 C 
BRANCH  26  27
ATOM     27  C   UNL A   1      41.553  24.744  28.004  1.00  0.00     0.188 C 
BRANCH  27  28
ATOM     28  O   UNL A   1      42.607  24.706  27.046  1.00  0.00    -0.376 OA
BRANCH  28  29
ATOM     29  C   UNL A   1      42.868  23.493  26.356  1.00  0.00     0.202 C 
BRANCH  29  30
ATOM     30  C   UNL A   1      44.037  22.629  26.854  1.00  0.00     0.261 C 
BRANCH  30  31
ATOM     31  O   UNL A   1      45.075  23.309  27.572  1.00  0.00    -0.460 OA
BRANCH  31  32
ATOM     32  C   UNL A   1      46.107  23.818  26.865  1.00  0.00     0.338 C 
ATOM     33  O   UNL A   1      46.802  23.230  26.054  1.00  0.00    -0.246 OA
BRANCH  32  34
ATOM     34  C   UNL A   1      46.119  25.279  27.085  1.00  0.00     0.060 A 
ATOM     35  C   UNL A   1      46.644  25.781  28.284  1.00  0.00     0.016 A 
ATOM     36  C   UNL A   1      45.646  26.149  26.101  1.00  0.00     0.016 A 
ATOM     37  C   UNL A   1      46.666  27.155  28.516  1.00  0.00     0.010 A 
ATOM     38  C   UNL A   1      45.642  27.525  26.346  1.00  0.00     0.010 A 
ATOM     39  C   UNL A   1      46.119  28.030  27.568  1.00  0.00    -0.014 A 
BRANCH  39  40
ATOM     40  C   UNL A   1      45.839  29.436  27.946  1.00  0.00     0.031 A 
ATOM     41  C   UNL A   1      46.907  30.462  27.682  1.00  0.00     0.074 A 
ATOM     42  C   UNL A   1      44.663  29.801  28.488  1.00  0.00     0.049 A 
ATOM     43  N   UNL A   1      46.920  31.738  27.962  1.00  0.00    -0.248 NA
ATOM     44  C   UNL A   1      48.127  29.980  27.011  1.00  0.00     0.031 C 
ATOM     45  C   UNL A   1      43.531  28.911  28.739  1.00  0.00     0.029 A 
ATOM     46  N   UNL A   1      44.233  31.027  28.930  1.00  0.00    -0.354 N 
ATOM     47  C   UNL A   1      48.150  32.208  27.518  1.00  0.00     0.074 A 
ATOM     48  C   UNL A   1      48.868  31.077  26.973  1.00  0.00     0.031 C 
ATOM     49  C   UNL A   1      42.534  29.623  29.297  1.00  0.00     0.029 A 
ATOM     50  C   UNL A   1      42.972  31.006  29.480  1.00  0.00     0.049 A 
ATOM     51  H   UNL A   1      44.775  31.846  28.861  1.00  0.00     0.167 HD
ATOM     52  C   UNL A   1      48.641  33.470  27.559  1.00  0.00     0.031 A 
ATOM     53  C   UNL A   1      42.266  31.985  30.081  1.00  0.00     0.031 A 
ATOM     54  C   UNL A   1      47.928  34.588  28.116  1.00  0.00     0.049 A 
ATOM     55  C   UNL A   1      42.869  33.364  30.192  1.00  0.00     0.074 A 
ATOM     56  C   UNL A   1      48.329  35.910  28.190  1.00  0.00     0.029 A 
ATOM     57  N   UNL A   1      46.674  34.515  28.701  1.00  0.00    -0.354 N 
ATOM     58  N   UNL A   1      44.024  33.801  29.747  1.00  0.00    -0.248 NA
ATOM     59  C   UNL A   1      42.068  34.385  30.884  1.00  0.00     0.031 C 
ATOM     60  C   UNL A   1      47.348  36.623  28.885  1.00  0.00     0.029 A 
ATOM     61  C   UNL A   1      46.300  35.762  29.173  1.00  0.00     0.049 A 
ATOM     62  H   UNL A   1      46.129  33.698  28.773  1.00  0.00     0.167 HD
ATOM     63  C   UNL A   1      44.071  35.154  30.072  1.00  0.00     0.074 A 
ATOM     64  C   UNL A   1      42.824  35.465  30.740  1.00  0.00     0.031 C 
ATOM     65  C   UNL A   1      45.054  36.059  29.834  1.00  0.00     0.031 A 
BRANCH  52  66
ATOM     66  C   UNL A   1      50.033  33.695  27.032  1.00  0.00    -0.014 A 
ATOM     67  C   UNL A   1      51.158  33.621  27.872  1.00  0.00     0.010 A 
ATOM     68  C   UNL A   1      50.219  33.947  25.660  1.00  0.00     0.010 A 
ATOM     69  C   UNL A   1      52.441  33.830  27.356  1.00  0.00     0.020 A 
ATOM     70  C   UNL A   1      51.502  34.125  25.134  1.00  0.00     0.020 A 
ATOM     71  C   UNL A   1      52.604  34.079  25.989  1.00  0.00     0.054 A 
BRANCH  71  72
ATOM     72  S   UNL A   1      54.281  34.312  25.342  1.00  0.00     0.124 S 
ATOM     73  O   UNL A   1      54.761  35.435  26.144  1.00  0.00    -0.237 OA
ATOM     74  O   UNL A   1      54.913  33.026  25.621  1.00  0.00    -0.237 OA
ATOM     75  O   UNL A   1      54.071  34.605  23.926  1.00  0.00    -0.744 OA
ENDBRANCH  71  72
ENDBRANCH  52  66
BRANCH  53  76
ATOM     76  C   UNL A   1      40.916  31.699  30.646  1.00  0.00    -0.014 A 
ATOM     77  C   UNL A   1      40.773  31.238  31.967  1.00  0.00     0.010 A 
ATOM     78  C   UNL A   1      39.765  31.871  29.855  1.00  0.00     0.010 A 
ATOM     79  C   UNL A   1      39.506  30.938  32.479  1.00  0.00     0.020 A 
ATOM     80  C   UNL A   1      38.495  31.602  30.375  1.00  0.00     0.020 A 
ATOM     81  C   UNL A   1      38.375  31.125  31.681  1.00  0.00     0.054 A 
BRANCH  81  82
ATOM     82  S   UNL A   1      36.739  30.775  32.384  1.00  0.00     0.124 S 
ATOM     83  O   UNL A   1      36.755  31.575  33.605  1.00  0.00    -0.237 OA
ATOM     84  O   UNL A   1      35.840  31.242  31.332  1.00  0.00    -0.237 OA
ATOM     85  O   UNL A   1      36.755  29.327  32.583  1.00  0.00    -0.744 OA
ENDBRANCH  81  82
ENDBRANCH  53  76
BRANCH  65  86
ATOM     86  C   UNL A   1      44.810  37.485  30.255  1.00  0.00    -0.014 A 
ATOM     87  C   UNL A   1      44.086  38.379  29.447  1.00  0.00     0.010 A 
ATOM     88  C   UNL A   1      45.262  37.917  31.517  1.00  0.00     0.010 A 
ATOM     89  C   UNL A   1      43.850  39.688  29.879  1.00  0.00     0.020 A 
ATOM     90  C   UNL A   1      44.997  39.213  31.967  1.00  0.00     0.020 A 
ATOM     91  C   UNL A   1      44.304  40.096  31.136  1.00  0.00     0.054 A 
BRANCH  91  92
ATOM     92  S   UNL A   1      43.944  41.785  31.689  1.00  0.00     0.124 S 
ATOM     93  O   UNL A   1      42.869  42.180  30.783  1.00  0.00    -0.237 OA
ATOM     94  O   UNL A   1      43.550  41.587  33.082  1.00  0.00    -0.237 OA
ATOM     95  O   UNL A   1      45.210  42.490  31.499  1.00  0.00    -0.744 OA
ENDBRANCH  91  92
ENDBRANCH  65  86
ENDBRANCH  39  40
ENDBRANCH  32  34
ENDBRANCH  31  32
ENDBRANCH  30  31
ENDBRANCH  29  30
ENDBRANCH  28  29
ENDBRANCH  27  28
ENDBRANCH  26  27
ENDBRANCH  25  26
ENDBRANCH   1  25
TORSDOF 27
ENDMDL
