MODEL 1
REMARK VINA RESULT:      -6.6      0.000      0.000
REMARK SMILES Cc1nc(-c2ccc(S(=O)(=O)N3CC[NH2+][C@H](C(=O)OCCOCCOCCOCCOC(=O)c4ccc(-c5c6nc(c(-c7ccc(S(=O)(=O)[O-])cc7)c7ccc([nH]7)c(-c7ccc(S(=O)(=O)[O-])cc7)c7nc(c(-c8ccc(S(=O)(=O)[O-])cc8)c8ccc5[nH]8)C=C7)C=C6)cc4)C3)s2)cs1
REMARK SMILES IDX 25 1 24 2 23 3 22 4 21 5 20 6 19 7 17 8 18 9 16 10 12 11
REMARK SMILES IDX 13 12 94 13 14 14 15 15 9 18 10 19 11 20 8 21 5 22 6 23
REMARK SMILES IDX 95 24 7 25 4 26 1 27 2 28 3 29 97 30 96 31 26 32 27 33 28 34
REMARK SMILES IDX 29 35 30 36 31 37 32 38 33 39 34 40 35 41 93 42 36 43 92 44
REMARK SMILES IDX 37 45 38 46 39 47 86 48 40 49 91 50 85 51 87 52 41 53 90 54
REMARK SMILES IDX 84 55 83 56 42 58 72 59 53 60 71 61 54 62 57 63 70 64 88 65
REMARK SMILES IDX 55 66 56 67 69 69 89 70 58 71 43 72 44 73 52 74 45 75 51 76
REMARK SMILES IDX 46 77 47 78 48 79 49 80 50 81 73 82 74 83 82 84 75 85 81 86
REMARK SMILES IDX 76 87 77 88 78 89 79 90 80 91 59 92 60 93 68 94 61 95 67 96
REMARK SMILES IDX 62 97 63 98 64 99 65 100 66 101
REMARK H PARENT 15 16 15 17 87 57 57 68
REMARK Flexibility Score: inf
ROOT
ATOM      1  O   UNL A   1      38.999  32.616  36.709  1.00  0.00    -0.377 OA
ENDROOT
BRANCH   1   2
ATOM      2  C   UNL A   1      38.933  33.955  37.155  1.00  0.00     0.188 C 
BRANCH   2   3
ATOM      3  C   UNL A   1      39.725  34.228  38.456  1.00  0.00     0.188 C 
BRANCH   3   4
ATOM      4  O   UNL A   1      41.137  34.425  38.457  1.00  0.00    -0.376 OA
BRANCH   4   5
ATOM      5  C   UNL A   1      41.909  34.120  39.604  1.00  0.00     0.202 C 
BRANCH   5   6
ATOM      6  C   UNL A   1      42.260  32.641  39.830  1.00  0.00     0.261 C 
BRANCH   6   7
ATOM      7  O   UNL A   1      41.968  31.751  38.737  1.00  0.00    -0.459 OA
BRANCH   7   8
ATOM      8  C   UNL A   1      43.009  31.517  37.895  1.00  0.00     0.366 C 
ATOM      9  O   UNL A   1      44.169  31.852  38.115  1.00  0.00    -0.245 OA
BRANCH   8  10
ATOM     10  C   UNL A   1      42.609  30.748  36.632  1.00  0.00     0.308 C 
ATOM     11  N   UNL A   1      43.147  29.080  34.929  1.00  0.00    -0.185 NA
ATOM     12  C   UNL A   1      42.414  29.795  33.861  1.00  0.00     0.164 C 
ATOM     13  C   UNL A   1      43.749  30.034  35.909  1.00  0.00     0.180 C 
ATOM     14  C   UNL A   1      41.463  30.884  34.396  1.00  0.00     0.278 C 
ATOM     15  N   UNL A   1      41.693  31.498  35.716  1.00  0.00    -0.332 N 
ATOM     16  H   UNL A   1      40.790  31.587  36.182  1.00  0.00     0.347 HD
ATOM     17  H   UNL A   1      42.154  32.389  35.533  1.00  0.00     0.347 HD
BRANCH  11  18
ATOM     18  S   UNL A   1      42.546  27.594  35.509  1.00  0.00     0.253 S 
ATOM     19  O   UNL A   1      41.199  27.465  34.981  1.00  0.00    -0.206 OA
ATOM     20  O   UNL A   1      42.810  27.530  36.926  1.00  0.00    -0.206 OA
BRANCH  18  21
ATOM     21  C   UNL A   1      43.461  26.194  34.843  1.00  0.00     0.135 A 
ATOM     22  C   UNL A   1      44.716  24.060  34.711  1.00  0.00     0.055 A 
ATOM     23  C   UNL A   1      44.413  24.564  33.468  1.00  0.00     0.023 A 
ATOM     24  S   UNL A   1      44.088  25.036  35.959  1.00  0.00    -0.121 S 
ATOM     25  C   UNL A   1      43.777  25.827  33.547  1.00  0.00     0.034 A 
BRANCH  22  26
ATOM     26  C   UNL A   1      45.551  22.824  34.845  1.00  0.00     0.091 A 
ATOM     27  C   UNL A   1      45.387  19.217  35.337  1.00  0.00     0.079 C 
ATOM     28  C   UNL A   1      45.777  20.637  35.130  1.00  0.00     0.090 A 
ATOM     29  N   UNL A   1      44.919  21.628  35.154  1.00  0.00    -0.241 NA
ATOM     30  S   UNL A   1      47.404  21.086  34.818  1.00  0.00    -0.127 S 
ATOM     31  C   UNL A   1      46.910  22.726  34.642  1.00  0.00     0.096 A 
ENDBRANCH  22  26
ENDBRANCH  18  21
ENDBRANCH  11  18
ENDBRANCH   8  10
ENDBRANCH   7   8
ENDBRANCH   6   7
ENDBRANCH   5   6
ENDBRANCH   4   5
ENDBRANCH   3   4
ENDBRANCH   2   3
ENDBRANCH   1   2
BRANCH   1  32
ATOM     32  C   UNL A   1      37.841  32.132  36.054  1.00  0.00     0.188 C 
BRANCH  32  33
ATOM     33  C   UNL A   1      37.352  32.965  34.863  1.00  0.00     0.188 C 
BRANCH  33  34
ATOM     34  O   UNL A   1      35.924  33.058  34.810  1.00  0.00    -0.376 OA
BRANCH  34  35
ATOM     35  C   UNL A   1      35.378  34.332  34.490  1.00  0.00     0.202 C 
BRANCH  35  36
ATOM     36  C   UNL A   1      34.502  34.320  33.228  1.00  0.00     0.261 C 
BRANCH  36  37
ATOM     37  O   UNL A   1      35.215  34.466  31.990  1.00  0.00    -0.460 OA
BRANCH  37  38
ATOM     38  C   UNL A   1      34.955  33.550  31.029  1.00  0.00     0.338 C 
ATOM     39  O   UNL A   1      33.921  33.428  30.400  1.00  0.00    -0.246 OA
BRANCH  38  40
ATOM     40  C   UNL A   1      36.216  32.856  30.695  1.00  0.00     0.060 A 
ATOM     41  C   UNL A   1      36.663  31.854  31.566  1.00  0.00     0.016 A 
ATOM     42  C   UNL A   1      36.940  33.170  29.540  1.00  0.00     0.016 A 
ATOM     43  C   UNL A   1      37.870  31.205  31.317  1.00  0.00     0.010 A 
ATOM     44  C   UNL A   1      38.165  32.537  29.306  1.00  0.00     0.010 A 
ATOM     45  C   UNL A   1      38.654  31.590  30.221  1.00  0.00    -0.014 A 
BRANCH  45  46
ATOM     46  C   UNL A   1      40.087  31.214  30.215  1.00  0.00     0.031 A 
ATOM     47  C   UNL A   1      41.059  32.181  30.838  1.00  0.00     0.074 A 
ATOM     48  C   UNL A   1      40.512  30.036  29.730  1.00  0.00     0.049 A 
ATOM     49  N   UNL A   1      42.346  32.056  31.030  1.00  0.00    -0.248 NA
ATOM     50  C   UNL A   1      40.499  33.458  31.317  1.00  0.00     0.031 C 
ATOM     51  C   UNL A   1      39.665  29.005  29.132  1.00  0.00     0.029 A 
ATOM     52  N   UNL A   1      41.778  29.507  29.675  1.00  0.00    -0.354 N 
ATOM     53  C   UNL A   1      42.745  33.229  31.661  1.00  0.00     0.074 A 
ATOM     54  C   UNL A   1      41.574  34.069  31.787  1.00  0.00     0.031 C 
ATOM     55  C   UNL A   1      40.439  27.964  28.768  1.00  0.00     0.029 A 
ATOM     56  C   UNL A   1      41.832  28.262  29.097  1.00  0.00     0.049 A 
ATOM     57  H   UNL A   1      42.572  29.977  30.019  1.00  0.00     0.167 HD
ATOM     58  C   UNL A   1      43.974  33.577  32.108  1.00  0.00     0.031 A 
ATOM     59  C   UNL A   1      42.890  27.460  28.862  1.00  0.00     0.031 A 
ATOM     60  C   UNL A   1      45.144  32.761  31.952  1.00  0.00     0.049 A 
ATOM     61  C   UNL A   1      44.263  27.898  29.305  1.00  0.00     0.074 A 
ATOM     62  C   UNL A   1      46.438  33.025  32.363  1.00  0.00     0.029 A 
ATOM     63  N   UNL A   1      45.164  31.526  31.324  1.00  0.00    -0.354 N 
ATOM     64  N   UNL A   1      44.618  28.994  29.935  1.00  0.00    -0.248 NA
ATOM     65  C   UNL A   1      45.376  26.982  29.018  1.00  0.00     0.031 C 
ATOM     66  C   UNL A   1      47.251  31.966  31.941  1.00  0.00     0.029 A 
ATOM     67  C   UNL A   1      46.451  31.022  31.316  1.00  0.00     0.049 A 
ATOM     68  H   UNL A   1      44.378  31.075  30.940  1.00  0.00     0.167 HD
ATOM     69  C   UNL A   1      45.989  28.884  30.144  1.00  0.00     0.074 A 
ATOM     70  C   UNL A   1      46.397  27.612  29.584  1.00  0.00     0.031 C 
ATOM     71  C   UNL A   1      46.836  29.754  30.750  1.00  0.00     0.031 A 
BRANCH  58  72
ATOM     72  C   UNL A   1      44.103  34.918  32.775  1.00  0.00    -0.014 A 
ATOM     73  C   UNL A   1      44.420  36.069  32.030  1.00  0.00     0.010 A 
ATOM     74  C   UNL A   1      43.908  35.029  34.162  1.00  0.00     0.010 A 
ATOM     75  C   UNL A   1      44.579  37.301  32.670  1.00  0.00     0.020 A 
ATOM     76  C   UNL A   1      44.043  36.263  34.802  1.00  0.00     0.020 A 
ATOM     77  C   UNL A   1      44.396  37.389  34.052  1.00  0.00     0.054 A 
BRANCH  77  78
ATOM     78  S   UNL A   1      44.602  39.001  34.858  1.00  0.00     0.124 S 
ATOM     79  O   UNL A   1      43.454  39.742  34.343  1.00  0.00    -0.237 OA
ATOM     80  O   UNL A   1      44.544  38.660  36.276  1.00  0.00    -0.237 OA
ATOM     81  O   UNL A   1      45.905  39.461  34.383  1.00  0.00    -0.744 OA
ENDBRANCH  77  78
ENDBRANCH  58  72
BRANCH  59  82
ATOM     82  C   UNL A   1      42.697  26.155  28.170  1.00  0.00    -0.014 A 
ATOM     83  C   UNL A   1      42.230  25.031  28.872  1.00  0.00     0.010 A 
ATOM     84  C   UNL A   1      42.995  26.031  26.801  1.00  0.00     0.010 A 
ATOM     85  C   UNL A   1      42.078  23.802  28.222  1.00  0.00     0.020 A 
ATOM     86  C   UNL A   1      42.823  24.811  26.142  1.00  0.00     0.020 A 
ATOM     87  C   UNL A   1      42.376  23.701  26.860  1.00  0.00     0.054 A 
BRANCH  87  88
ATOM     88  S   UNL A   1      42.126  22.109  26.023  1.00  0.00     0.124 S 
ATOM     89  O   UNL A   1      42.788  22.333  24.743  1.00  0.00    -0.237 OA
ATOM     90  O   UNL A   1      42.789  21.171  26.925  1.00  0.00    -0.237 OA
ATOM     91  O   UNL A   1      40.671  21.982  25.965  1.00  0.00    -0.744 OA
ENDBRANCH  87  88
ENDBRANCH  59  82
BRANCH  71  92
ATOM     92  C   UNL A   1      48.280  29.347  30.870  1.00  0.00    -0.014 A 
ATOM     93  C   UNL A   1      49.196  29.594  29.834  1.00  0.00     0.010 A 
ATOM     94  C   UNL A   1      48.735  28.757  32.063  1.00  0.00     0.010 A 
ATOM     95  C   UNL A   1      50.536  29.224  29.973  1.00  0.00     0.020 A 
ATOM     96  C   UNL A   1      50.079  28.409  32.218  1.00  0.00     0.020 A 
ATOM     97  C   UNL A   1      50.968  28.630  31.164  1.00  0.00     0.054 A 
BRANCH  97  98
ATOM     98  S   UNL A   1      52.719  28.187  31.338  1.00  0.00     0.124 S 
ATOM     99  O   UNL A   1      53.277  29.393  31.941  1.00  0.00    -0.237 OA
ATOM    100  O   UNL A   1      52.671  27.014  32.205  1.00  0.00    -0.237 OA
ATOM    101  O   UNL A   1      53.145  27.922  29.965  1.00  0.00    -0.744 OA
ENDBRANCH  97  98
ENDBRANCH  71  92
ENDBRANCH  45  46
ENDBRANCH  38  40
ENDBRANCH  37  38
ENDBRANCH  36  37
ENDBRANCH  35  36
ENDBRANCH  34  35
ENDBRANCH  33  34
ENDBRANCH  32  33
ENDBRANCH   1  32
TORSDOF 26
ENDMDL
MODEL 2
REMARK VINA RESULT:      -6.6      1.675      2.144
REMARK SMILES Cc1nc(-c2ccc(S(=O)(=O)N3CC[NH2+][C@H](C(=O)OCCOCCOCCOCCOC(=O)c4ccc(-c5c6nc(c(-c7ccc(S(=O)(=O)[O-])cc7)c7ccc([nH]7)c(-c7ccc(S(=O)(=O)[O-])cc7)c7nc(c(-c8ccc(S(=O)(=O)[O-])cc8)c8ccc5[nH]8)C=C7)C=C6)cc4)C3)s2)cs1
REMARK SMILES IDX 25 1 24 2 23 3 22 4 21 5 20 6 19 7 17 8 18 9 16 10 12 11
REMARK SMILES IDX 13 12 94 13 14 14 15 15 9 18 10 19 11 20 8 21 5 22 6 23
REMARK SMILES IDX 95 24 7 25 4 26 1 27 2 28 3 29 97 30 96 31 26 32 27 33 28 34
REMARK SMILES IDX 29 35 30 36 31 37 32 38 33 39 34 40 35 41 93 42 36 43 92 44
REMARK SMILES IDX 37 45 38 46 39 47 86 48 40 49 91 50 85 51 87 52 41 53 90 54
REMARK SMILES IDX 84 55 83 56 42 58 72 59 53 60 71 61 54 62 57 63 70 64 88 65
REMARK SMILES IDX 55 66 56 67 69 69 89 70 58 71 43 72 44 73 52 74 45 75 51 76
REMARK SMILES IDX 46 77 47 78 48 79 49 80 50 81 73 82 74 83 82 84 75 85 81 86
REMARK SMILES IDX 76 87 77 88 78 89 79 90 80 91 59 92 60 93 68 94 61 95 67 96
REMARK SMILES IDX 62 97 63 98 64 99 65 100 66 101
REMARK H PARENT 15 16 15 17 87 57 57 68
REMARK Flexibility Score: inf
ROOT
ATOM      1  O   UNL A   1      39.326  32.344  36.634  1.00  0.00    -0.377 OA
ENDROOT
BRANCH   1   2
ATOM      2  C   UNL A   1      39.325  33.732  36.896  1.00  0.00     0.188 C 
BRANCH   2   3
ATOM      3  C   UNL A   1      40.087  34.134  38.180  1.00  0.00     0.188 C 
BRANCH   3   4
ATOM      4  O   UNL A   1      41.505  34.277  38.208  1.00  0.00    -0.376 OA
BRANCH   4   5
ATOM      5  C   UNL A   1      42.244  33.938  39.366  1.00  0.00     0.202 C 
BRANCH   5   6
ATOM      6  C   UNL A   1      42.467  32.441  39.634  1.00  0.00     0.261 C 
BRANCH   6   7
ATOM      7  O   UNL A   1      42.127  31.552  38.553  1.00  0.00    -0.459 OA
BRANCH   7   8
ATOM      8  C   UNL A   1      43.080  31.425  37.593  1.00  0.00     0.366 C 
ATOM      9  O   UNL A   1      44.205  31.911  37.665  1.00  0.00    -0.245 OA
BRANCH   8  10
ATOM     10  C   UNL A   1      42.637  30.571  36.402  1.00  0.00     0.308 C 
ATOM     11  N   UNL A   1      43.122  28.804  34.786  1.00  0.00    -0.185 NA
ATOM     12  C   UNL A   1      42.331  29.440  33.709  1.00  0.00     0.164 C 
ATOM     13  C   UNL A   1      43.753  29.827  35.674  1.00  0.00     0.180 C 
ATOM     14  C   UNL A   1      41.389  30.550  34.216  1.00  0.00     0.278 C 
ATOM     15  N   UNL A   1      41.669  31.250  35.484  1.00  0.00    -0.332 N 
ATOM     16  H   UNL A   1      40.786  31.358  35.983  1.00  0.00     0.347 HD
ATOM     17  H   UNL A   1      42.108  32.133  35.223  1.00  0.00     0.347 HD
BRANCH  11  18
ATOM     18  S   UNL A   1      42.570  27.351  35.487  1.00  0.00     0.253 S 
ATOM     19  O   UNL A   1      41.260  27.094  34.913  1.00  0.00    -0.206 OA
ATOM     20  O   UNL A   1      42.764  27.444  36.913  1.00  0.00    -0.206 OA
BRANCH  18  21
ATOM     21  C   UNL A   1      43.590  25.946  35.009  1.00  0.00     0.135 A 
ATOM     22  C   UNL A   1      45.161  24.033  35.146  1.00  0.00     0.055 A 
ATOM     23  C   UNL A   1      44.563  24.129  33.912  1.00  0.00     0.023 A 
ATOM     24  S   UNL A   1      44.594  25.231  36.217  1.00  0.00    -0.121 S 
ATOM     25  C   UNL A   1      43.737  25.275  33.809  1.00  0.00     0.034 A 
BRANCH  22  26
ATOM     26  C   UNL A   1      46.211  22.998  35.401  1.00  0.00     0.091 A 
ATOM     27  C   UNL A   1      47.753  19.990  34.036  1.00  0.00     0.079 C 
ATOM     28  C   UNL A   1      47.337  21.172  34.837  1.00  0.00     0.090 A 
ATOM     29  N   UNL A   1      46.306  21.921  34.530  1.00  0.00    -0.241 NA
ATOM     30  S   UNL A   1      48.206  21.661  36.233  1.00  0.00    -0.127 S 
ATOM     31  C   UNL A   1      47.156  23.016  36.404  1.00  0.00     0.096 A 
ENDBRANCH  22  26
ENDBRANCH  18  21
ENDBRANCH  11  18
ENDBRANCH   8  10
ENDBRANCH   7   8
ENDBRANCH   6   7
ENDBRANCH   5   6
ENDBRANCH   4   5
ENDBRANCH   3   4
ENDBRANCH   2   3
ENDBRANCH   1   2
BRANCH   1  32
ATOM     32  C   UNL A   1      38.095  31.804  36.191  1.00  0.00     0.188 C 
BRANCH  32  33
ATOM     33  C   UNL A   1      37.578  32.336  34.850  1.00  0.00     0.188 C 
BRANCH  33  34
ATOM     34  O   UNL A   1      36.306  32.983  34.972  1.00  0.00    -0.376 OA
BRANCH  34  35
ATOM     35  C   UNL A   1      36.203  34.298  34.435  1.00  0.00     0.202 C 
BRANCH  35  36
ATOM     36  C   UNL A   1      35.262  34.390  33.224  1.00  0.00     0.261 C 
BRANCH  36  37
ATOM     37  O   UNL A   1      35.803  33.888  31.993  1.00  0.00    -0.460 OA
BRANCH  37  38
ATOM     38  C   UNL A   1      35.326  32.697  31.562  1.00  0.00     0.338 C 
ATOM     39  O   UNL A   1      34.157  32.375  31.460  1.00  0.00    -0.246 OA
BRANCH  38  40
ATOM     40  C   UNL A   1      36.454  31.916  31.012  1.00  0.00     0.060 A 
ATOM     41  C   UNL A   1      37.194  31.122  31.898  1.00  0.00     0.016 A 
ATOM     42  C   UNL A   1      36.770  31.947  29.651  1.00  0.00     0.016 A 
ATOM     43  C   UNL A   1      38.295  30.405  31.434  1.00  0.00     0.010 A 
ATOM     44  C   UNL A   1      37.891  31.249  29.190  1.00  0.00     0.010 A 
ATOM     45  C   UNL A   1      38.682  30.518  30.092  1.00  0.00    -0.014 A 
BRANCH  45  46
ATOM     46  C   UNL A   1      40.059  30.116  29.722  1.00  0.00     0.031 A 
ATOM     47  C   UNL A   1      41.147  31.147  29.875  1.00  0.00     0.074 A 
ATOM     48  C   UNL A   1      40.353  28.868  29.320  1.00  0.00     0.049 A 
ATOM     49  N   UNL A   1      42.436  31.026  29.697  1.00  0.00    -0.248 NA
ATOM     50  C   UNL A   1      40.719  32.493  30.296  1.00  0.00     0.031 C 
ATOM     51  C   UNL A   1      39.395  27.775  29.163  1.00  0.00     0.029 A 
ATOM     52  N   UNL A   1      41.560  28.311  28.977  1.00  0.00    -0.354 N 
ATOM     53  C   UNL A   1      42.973  32.273  29.995  1.00  0.00     0.074 A 
ATOM     54  C   UNL A   1      41.870  33.146  30.330  1.00  0.00     0.031 C 
ATOM     55  C   UNL A   1      40.054  26.675  28.752  1.00  0.00     0.029 A 
ATOM     56  C   UNL A   1      41.474  26.991  28.606  1.00  0.00     0.049 A 
ATOM     57  H   UNL A   1      42.408  28.811  28.995  1.00  0.00     0.167 HD
ATOM     58  C   UNL A   1      44.269  32.660  30.002  1.00  0.00     0.031 A 
ATOM     59  C   UNL A   1      42.436  26.140  28.196  1.00  0.00     0.031 A 
ATOM     60  C   UNL A   1      45.363  31.806  29.636  1.00  0.00     0.049 A 
ATOM     61  C   UNL A   1      43.866  26.612  28.143  1.00  0.00     0.074 A 
ATOM     62  C   UNL A   1      46.713  32.102  29.602  1.00  0.00     0.029 A 
ATOM     63  N   UNL A   1      45.228  30.488  29.226  1.00  0.00    -0.354 N 
ATOM     64  N   UNL A   1      44.363  27.785  28.465  1.00  0.00    -0.248 NA
ATOM     65  C   UNL A   1      44.870  25.640  27.685  1.00  0.00     0.031 C 
ATOM     66  C   UNL A   1      47.393  30.974  29.127  1.00  0.00     0.029 A 
ATOM     67  C   UNL A   1      46.469  29.962  28.917  1.00  0.00     0.049 A 
ATOM     68  H   UNL A   1      44.376  30.000  29.165  1.00  0.00     0.167 HD
ATOM     69  C   UNL A   1      45.738  27.680  28.275  1.00  0.00     0.074 A 
ATOM     70  C   UNL A   1      45.995  26.328  27.822  1.00  0.00     0.031 C 
ATOM     71  C   UNL A   1      46.702  28.615  28.464  1.00  0.00     0.031 A 
BRANCH  58  72
ATOM     72  C   UNL A   1      44.555  34.085  30.387  1.00  0.00    -0.014 A 
ATOM     73  C   UNL A   1      44.456  35.124  29.443  1.00  0.00     0.010 A 
ATOM     74  C   UNL A   1      44.927  34.388  31.707  1.00  0.00     0.010 A 
ATOM     75  C   UNL A   1      44.766  36.437  29.805  1.00  0.00     0.020 A 
ATOM     76  C   UNL A   1      45.215  35.704  32.079  1.00  0.00     0.020 A 
ATOM     77  C   UNL A   1      45.149  36.718  31.119  1.00  0.00     0.054 A 
BRANCH  77  78
ATOM     78  S   UNL A   1      45.540  38.431  31.566  1.00  0.00     0.124 S 
ATOM     79  O   UNL A   1      46.697  38.257  32.439  1.00  0.00    -0.237 OA
ATOM     80  O   UNL A   1      45.817  39.046  30.271  1.00  0.00    -0.237 OA
ATOM     81  O   UNL A   1      44.325  38.901  32.228  1.00  0.00    -0.744 OA
ENDBRANCH  77  78
ENDBRANCH  58  72
BRANCH  59  82
ATOM     82  C   UNL A   1      42.082  24.749  27.800  1.00  0.00    -0.014 A 
ATOM     83  C   UNL A   1      42.062  23.714  28.750  1.00  0.00     0.010 A 
ATOM     84  C   UNL A   1      41.774  24.453  26.460  1.00  0.00     0.010 A 
ATOM     85  C   UNL A   1      41.756  22.404  28.365  1.00  0.00     0.020 A 
ATOM     86  C   UNL A   1      41.444  23.150  26.075  1.00  0.00     0.020 A 
ATOM     87  C   UNL A   1      41.449  22.131  27.030  1.00  0.00     0.054 A 
BRANCH  87  88
ATOM     88  S   UNL A   1      41.007  20.435  26.559  1.00  0.00     0.124 S 
ATOM     89  O   UNL A   1      42.074  20.090  25.627  1.00  0.00    -0.237 OA
ATOM     90  O   UNL A   1      41.034  19.735  27.841  1.00  0.00    -0.237 OA
ATOM     91  O   UNL A   1      39.678  20.583  25.967  1.00  0.00    -0.744 OA
ENDBRANCH  87  88
ENDBRANCH  59  82
BRANCH  71  92
ATOM     92  C   UNL A   1      48.128  28.201  28.215  1.00  0.00    -0.014 A 
ATOM     93  C   UNL A   1      48.730  28.378  26.957  1.00  0.00     0.010 A 
ATOM     94  C   UNL A   1      48.891  27.677  29.274  1.00  0.00     0.010 A 
ATOM     95  C   UNL A   1      50.060  28.003  26.753  1.00  0.00     0.020 A 
ATOM     96  C   UNL A   1      50.229  27.325  29.082  1.00  0.00     0.020 A 
ATOM     97  C   UNL A   1      50.801  27.475  27.816  1.00  0.00     0.054 A 
BRANCH  97  98
ATOM     98  S   UNL A   1      52.536  27.026  27.538  1.00  0.00     0.124 S 
ATOM     99  O   UNL A   1      52.436  25.600  27.245  1.00  0.00    -0.237 OA
ATOM    100  O   UNL A   1      52.913  27.875  26.411  1.00  0.00    -0.237 OA
ATOM    101  O   UNL A   1      53.185  27.359  28.804  1.00  0.00    -0.744 OA
ENDBRANCH  97  98
ENDBRANCH  71  92
ENDBRANCH  45  46
ENDBRANCH  38  40
ENDBRANCH  37  38
ENDBRANCH  36  37
ENDBRANCH  35  36
ENDBRANCH  34  35
ENDBRANCH  33  34
ENDBRANCH  32  33
ENDBRANCH   1  32
TORSDOF 26
ENDMDL
MODEL 3
REMARK VINA RESULT:      -5.8      4.106      6.405
REMARK SMILES Cc1nc(-c2ccc(S(=O)(=O)N3CC[NH2+][C@H](C(=O)OCCOCCOCCOCCOC(=O)c4ccc(-c5c6nc(c(-c7ccc(S(=O)(=O)[O-])cc7)c7ccc([nH]7)c(-c7ccc(S(=O)(=O)[O-])cc7)c7nc(c(-c8ccc(S(=O)(=O)[O-])cc8)c8ccc5[nH]8)C=C7)C=C6)cc4)C3)s2)cs1
REMARK SMILES IDX 25 1 24 2 23 3 22 4 21 5 20 6 19 7 17 8 18 9 16 10 12 11
REMARK SMILES IDX 13 12 94 13 14 14 15 15 9 18 10 19 11 20 8 21 5 22 6 23
REMARK SMILES IDX 95 24 7 25 4 26 1 27 2 28 3 29 97 30 96 31 26 32 27 33 28 34
REMARK SMILES IDX 29 35 30 36 31 37 32 38 33 39 34 40 35 41 93 42 36 43 92 44
REMARK SMILES IDX 37 45 38 46 39 47 86 48 40 49 91 50 85 51 87 52 41 53 90 54
REMARK SMILES IDX 84 55 83 56 42 58 72 59 53 60 71 61 54 62 57 63 70 64 88 65
REMARK SMILES IDX 55 66 56 67 69 69 89 70 58 71 43 72 44 73 52 74 45 75 51 76
REMARK SMILES IDX 46 77 47 78 48 79 49 80 50 81 73 82 74 83 82 84 75 85 81 86
REMARK SMILES IDX 76 87 77 88 78 89 79 90 80 91 59 92 60 93 68 94 61 95 67 96
REMARK SMILES IDX 62 97 63 98 64 99 65 100 66 101
REMARK H PARENT 15 16 15 17 87 57 57 68
REMARK Flexibility Score: inf
ROOT
ATOM      1  O   UNL A   1      41.754  28.647  33.680  1.00  0.00    -0.377 OA
ENDROOT
BRANCH   1   2
ATOM      2  C   UNL A   1      42.463  27.626  34.351  1.00  0.00     0.188 C 
BRANCH   2   3
ATOM      3  C   UNL A   1      43.874  27.354  33.778  1.00  0.00     0.188 C 
BRANCH   3   4
ATOM      4  O   UNL A   1      44.073  26.848  32.461  1.00  0.00    -0.376 OA
BRANCH   4   5
ATOM      5  C   UNL A   1      45.252  26.138  32.129  1.00  0.00     0.202 C 
BRANCH   5   6
ATOM      6  C   UNL A   1      46.534  26.966  31.950  1.00  0.00     0.261 C 
BRANCH   6   7
ATOM      7  O   UNL A   1      47.640  26.601  32.797  1.00  0.00    -0.459 OA
BRANCH   7   8
ATOM      8  C   UNL A   1      48.460  25.645  32.289  1.00  0.00     0.366 C 
ATOM      9  O   UNL A   1      48.919  25.658  31.150  1.00  0.00    -0.245 OA
BRANCH   8  10
ATOM     10  C   UNL A   1      48.804  24.540  33.293  1.00  0.00     0.308 C 
ATOM     11  N   UNL A   1      48.516  23.549  35.507  1.00  0.00    -0.185 NA
ATOM     12  C   UNL A   1      49.908  23.051  35.570  1.00  0.00     0.164 C 
ATOM     13  C   UNL A   1      48.431  24.831  34.744  1.00  0.00     0.180 C 
ATOM     14  C   UNL A   1      50.622  23.058  34.204  1.00  0.00     0.278 C 
ATOM     15  N   UNL A   1      50.174  23.962  33.129  1.00  0.00    -0.332 N 
ATOM     16  H   UNL A   1      50.191  23.439  32.253  1.00  0.00     0.347 HD
ATOM     17  H   UNL A   1      50.814  24.756  33.148  1.00  0.00     0.347 HD
BRANCH  11  18
ATOM     18  S   UNL A   1      47.231  22.436  35.370  1.00  0.00     0.253 S 
ATOM     19  O   UNL A   1      47.719  21.352  34.534  1.00  0.00    -0.206 OA
ATOM     20  O   UNL A   1      46.039  23.174  35.030  1.00  0.00    -0.206 OA
BRANCH  18  21
ATOM     21  C   UNL A   1      46.827  21.680  36.953  1.00  0.00     0.135 A 
ATOM     22  C   UNL A   1      46.686  20.025  38.794  1.00  0.00     0.055 A 
ATOM     23  C   UNL A   1      46.205  21.260  39.164  1.00  0.00     0.023 A 
ATOM     24  S   UNL A   1      47.280  20.032  37.197  1.00  0.00    -0.121 S 
ATOM     25  C   UNL A   1      46.203  22.175  38.084  1.00  0.00     0.034 A 
BRANCH  22  26
ATOM     26  C   UNL A   1      46.603  18.866  39.737  1.00  0.00     0.091 A 
ATOM     27  C   UNL A   1      44.277  16.661  41.472  1.00  0.00     0.079 C 
ATOM     28  C   UNL A   1      45.453  17.382  40.917  1.00  0.00     0.090 A 
ATOM     29  N   UNL A   1      45.353  18.466  40.187  1.00  0.00    -0.241 NA
ATOM     30  S   UNL A   1      47.054  16.822  41.177  1.00  0.00    -0.127 S 
ATOM     31  C   UNL A   1      47.654  18.097  40.186  1.00  0.00     0.096 A 
ENDBRANCH  22  26
ENDBRANCH  18  21
ENDBRANCH  11  18
ENDBRANCH   8  10
ENDBRANCH   7   8
ENDBRANCH   6   7
ENDBRANCH   5   6
ENDBRANCH   4   5
ENDBRANCH   3   4
ENDBRANCH   2   3
ENDBRANCH   1   2
BRANCH   1  32
ATOM     32  C   UNL A   1      40.414  28.343  33.344  1.00  0.00     0.188 C 
BRANCH  32  33
ATOM     33  C   UNL A   1      39.502  29.547  33.082  1.00  0.00     0.188 C 
BRANCH  33  34
ATOM     34  O   UNL A   1      38.187  29.365  33.618  1.00  0.00    -0.376 OA
BRANCH  34  35
ATOM     35  C   UNL A   1      37.121  29.268  32.679  1.00  0.00     0.202 C 
BRANCH  35  36
ATOM     36  C   UNL A   1      37.590  29.313  31.217  1.00  0.00     0.261 C 
BRANCH  36  37
ATOM     37  O   UNL A   1      37.541  30.610  30.601  1.00  0.00    -0.460 OA
BRANCH  37  38
ATOM     38  C   UNL A   1      37.645  30.645  29.253  1.00  0.00     0.338 C 
ATOM     39  O   UNL A   1      36.939  31.271  28.485  1.00  0.00    -0.246 OA
BRANCH  38  40
ATOM     40  C   UNL A   1      38.906  29.979  28.866  1.00  0.00     0.060 A 
ATOM     41  C   UNL A   1      39.918  29.881  29.829  1.00  0.00     0.016 A 
ATOM     42  C   UNL A   1      39.088  29.446  27.586  1.00  0.00     0.016 A 
ATOM     43  C   UNL A   1      41.141  29.304  29.496  1.00  0.00     0.010 A 
ATOM     44  C   UNL A   1      40.325  28.891  27.244  1.00  0.00     0.010 A 
ATOM     45  C   UNL A   1      41.368  28.865  28.184  1.00  0.00    -0.014 A 
BRANCH  45  46
ATOM     46  C   UNL A   1      42.768  28.664  27.743  1.00  0.00     0.031 A 
ATOM     47  C   UNL A   1      43.721  29.817  27.917  1.00  0.00     0.074 A 
ATOM     48  C   UNL A   1      43.201  27.487  27.260  1.00  0.00     0.049 A 
ATOM     49  N   UNL A   1      45.006  29.873  27.687  1.00  0.00    -0.248 NA
ATOM     50  C   UNL A   1      43.145  31.073  28.429  1.00  0.00     0.031 C 
ATOM     51  C   UNL A   1      42.383  26.289  27.076  1.00  0.00     0.029 A 
ATOM     52  N   UNL A   1      44.453  27.109  26.844  1.00  0.00    -0.354 N 
ATOM     53  C   UNL A   1      45.393  31.161  28.037  1.00  0.00     0.074 A 
ATOM     54  C   UNL A   1      44.203  31.867  28.460  1.00  0.00     0.031 C 
ATOM     55  C   UNL A   1      43.158  25.307  26.579  1.00  0.00     0.029 A 
ATOM     56  C   UNL A   1      44.519  25.810  26.402  1.00  0.00     0.049 A 
ATOM     57  H   UNL A   1      45.231  27.713  26.861  1.00  0.00     0.167 HD
ATOM     58  C   UNL A   1      46.629  31.712  28.020  1.00  0.00     0.031 A 
ATOM     59  C   UNL A   1      45.563  25.114  25.910  1.00  0.00     0.031 A 
ATOM     60  C   UNL A   1      47.806  31.026  27.567  1.00  0.00     0.049 A 
ATOM     61  C   UNL A   1      46.919  25.768  25.833  1.00  0.00     0.074 A 
ATOM     62  C   UNL A   1      49.105  31.496  27.503  1.00  0.00     0.029 A 
ATOM     63  N   UNL A   1      47.822  29.725  27.088  1.00  0.00    -0.354 N 
ATOM     64  N   UNL A   1      47.275  26.976  26.204  1.00  0.00    -0.248 NA
ATOM     65  C   UNL A   1      48.017  24.959  25.285  1.00  0.00     0.031 C 
ATOM     66  C   UNL A   1      49.901  30.491  26.940  1.00  0.00     0.029 A 
ATOM     67  C   UNL A   1      49.105  29.381  26.705  1.00  0.00     0.049 A 
ATOM     68  H   UNL A   1      47.037  29.135  27.029  1.00  0.00     0.167 HD
ATOM     69  C   UNL A   1      48.644  27.060  25.960  1.00  0.00     0.074 A 
ATOM     70  C   UNL A   1      49.051  25.778  25.422  1.00  0.00     0.031 C 
ATOM     71  C   UNL A   1      49.488  28.100  26.168  1.00  0.00     0.031 A 
BRANCH  58  72
ATOM     72  C   UNL A   1      46.747  33.139  28.476  1.00  0.00    -0.014 A 
ATOM     73  C   UNL A   1      47.014  33.448  29.823  1.00  0.00     0.010 A 
ATOM     74  C   UNL A   1      46.588  34.183  27.550  1.00  0.00     0.010 A 
ATOM     75  C   UNL A   1      47.080  34.780  30.241  1.00  0.00     0.020 A 
ATOM     76  C   UNL A   1      46.677  35.516  27.959  1.00  0.00     0.020 A 
ATOM     77  C   UNL A   1      46.905  35.805  29.308  1.00  0.00     0.054 A 
BRANCH  77  78
ATOM     78  S   UNL A   1      47.001  37.525  29.874  1.00  0.00     0.124 S 
ATOM     79  O   UNL A   1      46.716  37.387  31.300  1.00  0.00    -0.237 OA
ATOM     80  O   UNL A   1      48.373  37.897  29.542  1.00  0.00    -0.237 OA
ATOM     81  O   UNL A   1      45.968  38.204  29.095  1.00  0.00    -0.744 OA
ENDBRANCH  77  78
ENDBRANCH  58  72
BRANCH  59  82
ATOM     82  C   UNL A   1      45.372  23.710  25.448  1.00  0.00    -0.014 A 
ATOM     83  C   UNL A   1      44.939  23.436  24.139  1.00  0.00     0.010 A 
ATOM     84  C   UNL A   1      45.614  22.639  26.326  1.00  0.00     0.010 A 
ATOM     85  C   UNL A   1      44.736  22.117  23.722  1.00  0.00     0.020 A 
ATOM     86  C   UNL A   1      45.434  21.318  25.907  1.00  0.00     0.020 A 
ATOM     87  C   UNL A   1      44.984  21.066  24.609  1.00  0.00     0.054 A 
BRANCH  87  88
ATOM     88  S   UNL A   1      44.761  19.359  24.033  1.00  0.00     0.124 S 
ATOM     89  O   UNL A   1      43.601  18.928  24.805  1.00  0.00    -0.237 OA
ATOM     90  O   UNL A   1      44.539  19.536  22.600  1.00  0.00    -0.237 OA
ATOM     91  O   UNL A   1      46.025  18.715  24.385  1.00  0.00    -0.744 OA
ENDBRANCH  87  88
ENDBRANCH  59  82
BRANCH  71  92
ATOM     92  C   UNL A   1      50.943  27.887  25.846  1.00  0.00    -0.014 A 
ATOM     93  C   UNL A   1      51.466  28.214  24.582  1.00  0.00     0.010 A 
ATOM     94  C   UNL A   1      51.810  27.404  26.843  1.00  0.00     0.010 A 
ATOM     95  C   UNL A   1      52.823  28.025  24.310  1.00  0.00     0.020 A 
ATOM     96  C   UNL A   1      53.172  27.238  26.584  1.00  0.00     0.020 A 
ATOM     97  C   UNL A   1      53.667  27.534  25.312  1.00  0.00     0.054 A 
BRANCH  97  98
ATOM     98  S   UNL A   1      55.432  27.328  24.948  1.00  0.00     0.124 S 
ATOM     99  O   UNL A   1      55.636  28.301  23.879  1.00  0.00    -0.237 OA
ATOM    100  O   UNL A   1      56.065  27.651  26.223  1.00  0.00    -0.237 OA
ATOM    101  O   UNL A   1      55.539  25.927  24.545  1.00  0.00    -0.744 OA
ENDBRANCH  97  98
ENDBRANCH  71  92
ENDBRANCH  45  46
ENDBRANCH  38  40
ENDBRANCH  37  38
ENDBRANCH  36  37
ENDBRANCH  35  36
ENDBRANCH  34  35
ENDBRANCH  33  34
ENDBRANCH  32  33
ENDBRANCH   1  32
TORSDOF 26
ENDMDL
