MODEL 1
REMARK VINA RESULT:     -10.4      0.000      0.000
REMARK SMILES O=C(OCCOCCOCCOCCOC(=O)c1ccc([C@@H]2CC(O)=Nc3c2ncn3-c2cccc(Cl)c2)cc1)c1ccc(-c2c3nc(c(-c4ccc(S(=O)(=O)[O-])cc4)c4ccc([nH]4)c(-c4ccc(S(=O)(=O)[O-])cc4)c4nc(c(-c5ccc(S(=O)(=O)[O-])cc5)c5ccc2[nH]5)C=C4)C=C3)cc1
REMARK SMILES IDX 8 1 7 2 6 3 5 4 4 5 3 6 2 7 1 8 41 9 42 10 100 11 43 12
REMARK SMILES IDX 99 13 44 14 45 15 46 16 93 17 47 18 98 19 92 20 94 21 48 22
REMARK SMILES IDX 97 23 91 24 90 25 49 27 79 28 60 29 78 30 61 31 64 32 77 33
REMARK SMILES IDX 95 34 62 35 63 36 76 38 96 39 65 40 50 41 51 42 59 43 52 44
REMARK SMILES IDX 58 45 53 46 54 47 55 48 56 49 57 50 80 51 81 52 89 53 82 54
REMARK SMILES IDX 88 55 83 56 84 57 85 58 86 59 87 60 66 61 67 62 75 63 68 64
REMARK SMILES IDX 74 65 69 66 70 67 71 68 72 69 73 70 9 71 10 72 11 73 12 74
REMARK SMILES IDX 13 75 14 76 15 77 16 78 17 79 18 80 19 81 40 82 20 83 39 84
REMARK SMILES IDX 21 85 22 86 23 87 28 88 24 89 27 90 29 91 26 92 31 93 30 94
REMARK SMILES IDX 25 95 32 97 33 98 38 99 34 100 36 101 35 102 37 103
REMARK H PARENT 94 26 64 37 25 96
REMARK Flexibility Score: inf
ROOT
ATOM      1  C   UNL A   1      40.455  30.165  31.867  1.00  0.00     0.188 C 
ENDROOT
BRANCH   1   2
ATOM      2  C   UNL A   1      39.379  30.141  32.964  1.00  0.00     0.188 C 
BRANCH   2   3
ATOM      3  O   UNL A   1      39.553  29.697  34.301  1.00  0.00    -0.376 OA
BRANCH   3   4
ATOM      4  C   UNL A   1      40.330  30.258  35.333  1.00  0.00     0.202 C 
BRANCH   4   5
ATOM      5  C   UNL A   1      41.266  29.462  36.242  1.00  0.00     0.261 C 
BRANCH   5   6
ATOM      6  O   UNL A   1      40.950  28.093  36.464  1.00  0.00    -0.460 OA
BRANCH   6   7
ATOM      7  C   UNL A   1      41.738  27.004  36.372  1.00  0.00     0.338 C 
ATOM      8  O   UNL A   1      41.960  26.363  37.400  1.00  0.00    -0.246 OA
BRANCH   7   9
ATOM      9  C   UNL A   1      42.449  26.593  35.134  1.00  0.00     0.060 A 
ATOM     10  C   UNL A   1      43.048  25.354  34.908  1.00  0.00     0.016 A 
ATOM     11  C   UNL A   1      42.552  27.591  34.142  1.00  0.00     0.016 A 
ATOM     12  C   UNL A   1      43.860  25.165  33.808  1.00  0.00     0.010 A 
ATOM     13  C   UNL A   1      43.348  27.401  33.026  1.00  0.00     0.010 A 
ATOM     14  C   UNL A   1      44.070  26.220  32.924  1.00  0.00    -0.014 A 
BRANCH  14  15
ATOM     15  C   UNL A   1      45.157  26.055  31.981  1.00  0.00     0.031 A 
ATOM     16  C   UNL A   1      46.518  25.993  32.560  1.00  0.00     0.074 A 
ATOM     17  C   UNL A   1      44.913  26.005  30.658  1.00  0.00     0.049 A 
ATOM     18  N   UNL A   1      47.483  26.843  32.423  1.00  0.00    -0.248 NA
ATOM     19  C   UNL A   1      46.797  24.906  33.506  1.00  0.00     0.031 C 
ATOM     20  C   UNL A   1      43.618  25.836  29.988  1.00  0.00     0.029 A 
ATOM     21  N   UNL A   1      45.800  25.980  29.631  1.00  0.00    -0.354 N 
ATOM     22  C   UNL A   1      48.568  26.295  33.102  1.00  0.00     0.074 A 
ATOM     23  C   UNL A   1      48.047  25.192  33.870  1.00  0.00     0.031 C 
ATOM     24  C   UNL A   1      43.833  25.471  28.706  1.00  0.00     0.029 A 
ATOM     25  C   UNL A   1      45.258  25.526  28.439  1.00  0.00     0.049 A 
ATOM     26  H   UNL A   1      46.740  26.257  29.725  1.00  0.00     0.167 HD
ATOM     27  C   UNL A   1      49.852  26.635  32.801  1.00  0.00     0.031 A 
ATOM     28  C   UNL A   1      45.946  25.131  27.342  1.00  0.00     0.031 A 
ATOM     29  C   UNL A   1      49.931  27.876  32.077  1.00  0.00     0.049 A 
ATOM     30  C   UNL A   1      47.296  25.739  27.420  1.00  0.00     0.074 A 
ATOM     31  C   UNL A   1      49.573  29.182  32.340  1.00  0.00     0.029 A 
ATOM     32  N   UNL A   1      50.139  27.807  30.719  1.00  0.00    -0.354 N 
ATOM     33  N   UNL A   1      47.511  27.023  27.332  1.00  0.00    -0.248 NA
ATOM     34  C   UNL A   1      48.373  24.974  28.030  1.00  0.00     0.031 C 
ATOM     35  C   UNL A   1      49.137  29.708  31.089  1.00  0.00     0.029 A 
ATOM     36  C   UNL A   1      49.295  28.709  30.126  1.00  0.00     0.049 A 
ATOM     37  H   UNL A   1      50.779  27.217  30.258  1.00  0.00     0.167 HD
ATOM     38  C   UNL A   1      48.535  27.281  28.233  1.00  0.00     0.074 A 
ATOM     39  C   UNL A   1      49.096  25.970  28.547  1.00  0.00     0.031 C 
ATOM     40  C   UNL A   1      48.650  28.497  28.845  1.00  0.00     0.031 A 
BRANCH  27  41
ATOM     41  C   UNL A   1      50.982  25.629  32.798  1.00  0.00    -0.014 A 
ATOM     42  C   UNL A   1      50.867  24.473  31.997  1.00  0.00     0.010 A 
ATOM     43  C   UNL A   1      52.000  25.627  33.775  1.00  0.00     0.010 A 
ATOM     44  C   UNL A   1      51.653  23.339  32.240  1.00  0.00     0.020 A 
ATOM     45  C   UNL A   1      52.819  24.520  33.995  1.00  0.00     0.020 A 
ATOM     46  C   UNL A   1      52.606  23.365  33.260  1.00  0.00     0.054 A 
BRANCH  46  47
ATOM     47  S   UNL A   1      53.496  21.849  33.686  1.00  0.00     0.124 S 
ATOM     48  O   UNL A   1      53.187  20.993  32.546  1.00  0.00    -0.237 OA
ATOM     49  O   UNL A   1      54.878  22.315  33.775  1.00  0.00    -0.237 OA
ATOM     50  O   UNL A   1      52.897  21.447  34.956  1.00  0.00    -0.744 OA
ENDBRANCH  46  47
ENDBRANCH  27  41
BRANCH  28  51
ATOM     51  C   UNL A   1      45.606  23.979  26.473  1.00  0.00    -0.014 A 
ATOM     52  C   UNL A   1      46.334  23.711  25.301  1.00  0.00     0.010 A 
ATOM     53  C   UNL A   1      44.713  22.986  26.934  1.00  0.00     0.010 A 
ATOM     54  C   UNL A   1      46.211  22.474  24.646  1.00  0.00     0.020 A 
ATOM     55  C   UNL A   1      44.577  21.759  26.281  1.00  0.00     0.020 A 
ATOM     56  C   UNL A   1      45.345  21.499  25.151  1.00  0.00     0.054 A 
BRANCH  56  57
ATOM     57  S   UNL A   1      45.316  19.846  24.399  1.00  0.00     0.124 S 
ATOM     58  O   UNL A   1      46.734  19.582  24.178  1.00  0.00    -0.237 OA
ATOM     59  O   UNL A   1      44.676  19.038  25.433  1.00  0.00    -0.237 OA
ATOM     60  O   UNL A   1      44.524  20.033  23.185  1.00  0.00    -0.744 OA
ENDBRANCH  56  57
ENDBRANCH  28  51
BRANCH  40  61
ATOM     61  C   UNL A   1      47.835  29.654  28.313  1.00  0.00    -0.014 A 
ATOM     62  C   UNL A   1      48.233  30.437  27.212  1.00  0.00     0.010 A 
ATOM     63  C   UNL A   1      46.546  29.846  28.841  1.00  0.00     0.010 A 
ATOM     64  C   UNL A   1      47.370  31.401  26.669  1.00  0.00     0.020 A 
ATOM     65  C   UNL A   1      45.676  30.792  28.294  1.00  0.00     0.020 A 
ATOM     66  C   UNL A   1      46.093  31.571  27.214  1.00  0.00     0.054 A 
BRANCH  66  67
ATOM     67  S   UNL A   1      44.957  32.771  26.464  1.00  0.00     0.124 S 
ATOM     68  O   UNL A   1      44.046  31.919  25.707  1.00  0.00    -0.237 OA
ATOM     69  O   UNL A   1      44.375  33.439  27.628  1.00  0.00    -0.237 OA
ATOM     70  O   UNL A   1      45.831  33.618  25.652  1.00  0.00    -0.744 OA
ENDBRANCH  66  67
ENDBRANCH  40  61
ENDBRANCH  14  15
ENDBRANCH   7   9
ENDBRANCH   6   7
ENDBRANCH   5   6
ENDBRANCH   4   5
ENDBRANCH   3   4
ENDBRANCH   2   3
ENDBRANCH   1   2
BRANCH   1  71
ATOM     71  O   UNL A   1      40.611  28.978  31.110  1.00  0.00    -0.377 OA
BRANCH  71  72
ATOM     72  C   UNL A   1      39.466  28.159  31.081  1.00  0.00     0.188 C 
BRANCH  72  73
ATOM     73  C   UNL A   1      38.591  28.343  29.825  1.00  0.00     0.188 C 
BRANCH  73  74
ATOM     74  O   UNL A   1      38.045  29.602  29.460  1.00  0.00    -0.376 OA
BRANCH  74  75
ATOM     75  C   UNL A   1      37.712  29.891  28.113  1.00  0.00     0.202 C 
BRANCH  75  76
ATOM     76  C   UNL A   1      36.389  30.599  27.795  1.00  0.00     0.261 C 
BRANCH  76  77
ATOM     77  O   UNL A   1      35.194  29.858  28.078  1.00  0.00    -0.460 OA
BRANCH  77  78
ATOM     78  C   UNL A   1      34.055  30.338  27.527  1.00  0.00     0.338 C 
ATOM     79  O   UNL A   1      33.704  31.503  27.427  1.00  0.00    -0.246 OA
BRANCH  78  80
ATOM     80  C   UNL A   1      33.325  29.223  26.896  1.00  0.00     0.060 A 
ATOM     81  C   UNL A   1      33.824  28.685  25.706  1.00  0.00     0.016 A 
ATOM     82  C   UNL A   1      32.162  28.709  27.467  1.00  0.00     0.016 A 
ATOM     83  C   UNL A   1      33.173  27.617  25.097  1.00  0.00     0.005 A 
ATOM     84  C   UNL A   1      31.474  27.680  26.818  1.00  0.00     0.005 A 
ATOM     85  C   UNL A   1      31.969  27.120  25.624  1.00  0.00    -0.038 A 
BRANCH  85  86
ATOM     86  C   UNL A   1      31.198  26.127  24.767  1.00  0.00     0.081 C 
ATOM     87  C   UNL A   1      30.029  25.542  25.587  1.00  0.00     0.111 C 
ATOM     88  C   UNL A   1      32.112  25.055  24.314  1.00  0.00     0.093 A 
ATOM     89  C   UNL A   1      30.331  24.188  26.207  1.00  0.00     0.188 C 
ATOM     90  C   UNL A   1      32.008  23.773  24.809  1.00  0.00     0.164 A 
ATOM     91  N   UNL A   1      33.153  25.182  23.440  1.00  0.00    -0.238 NA
ATOM     92  N   UNL A   1      31.200  23.319  25.800  1.00  0.00    -0.198 NA
ATOM     93  N   UNL A   1      33.043  23.075  24.218  1.00  0.00    -0.283 N 
ATOM     94  C   UNL A   1      33.721  23.993  23.438  1.00  0.00     0.206 A 
BRANCH  89  95
ATOM     95  O   UNL A   1      29.544  23.865  27.251  1.00  0.00    -0.496 OA
ATOM     96  H   UNL A   1      28.910  23.181  27.166  1.00  0.00     0.294 HD
ENDBRANCH  89  95
BRANCH  93  97
ATOM     97  C   UNL A   1      33.361  21.710  24.396  1.00  0.00     0.050 A 
ATOM     98  C   UNL A   1      32.346  20.746  24.389  1.00  0.00     0.027 A 
ATOM     99  C   UNL A   1      34.700  21.329  24.557  1.00  0.00     0.047 A 
ATOM    100  C   UNL A   1      32.683  19.395  24.500  1.00  0.00     0.004 A 
ATOM    101  C   UNL A   1      35.016  19.984  24.717  1.00  0.00     0.043 A 
ATOM    102  C   UNL A   1      34.016  19.014  24.672  1.00  0.00     0.020 A 
ATOM    103  Cl  UNL A   1      36.650  19.515  24.983  1.00  0.00    -0.084 Cl
ENDBRANCH  93  97
ENDBRANCH  85  86
ENDBRANCH  78  80
ENDBRANCH  77  78
ENDBRANCH  76  77
ENDBRANCH  75  76
ENDBRANCH  74  75
ENDBRANCH  73  74
ENDBRANCH  72  73
ENDBRANCH  71  72
ENDBRANCH   1  71
TORSDOF 26
ENDMDL
MODEL 2
REMARK VINA RESULT:     -10.0      3.667      7.799
REMARK SMILES O=C(OCCOCCOCCOCCOC(=O)c1ccc([C@@H]2CC(O)=Nc3c2ncn3-c2cccc(Cl)c2)cc1)c1ccc(-c2c3nc(c(-c4ccc(S(=O)(=O)[O-])cc4)c4ccc([nH]4)c(-c4ccc(S(=O)(=O)[O-])cc4)c4nc(c(-c5ccc(S(=O)(=O)[O-])cc5)c5ccc2[nH]5)C=C4)C=C3)cc1
REMARK SMILES IDX 8 1 7 2 6 3 5 4 4 5 3 6 2 7 1 8 41 9 42 10 100 11 43 12
REMARK SMILES IDX 99 13 44 14 45 15 46 16 93 17 47 18 98 19 92 20 94 21 48 22
REMARK SMILES IDX 97 23 91 24 90 25 49 27 79 28 60 29 78 30 61 31 64 32 77 33
REMARK SMILES IDX 95 34 62 35 63 36 76 38 96 39 65 40 50 41 51 42 59 43 52 44
REMARK SMILES IDX 58 45 53 46 54 47 55 48 56 49 57 50 80 51 81 52 89 53 82 54
REMARK SMILES IDX 88 55 83 56 84 57 85 58 86 59 87 60 66 61 67 62 75 63 68 64
REMARK SMILES IDX 74 65 69 66 70 67 71 68 72 69 73 70 9 71 10 72 11 73 12 74
REMARK SMILES IDX 13 75 14 76 15 77 16 78 17 79 18 80 19 81 40 82 20 83 39 84
REMARK SMILES IDX 21 85 22 86 23 87 28 88 24 89 27 90 29 91 26 92 31 93 30 94
REMARK SMILES IDX 25 95 32 97 33 98 38 99 34 100 36 101 35 102 37 103
REMARK H PARENT 94 26 64 37 25 96
REMARK Flexibility Score: inf
ROOT
ATOM      1  C   UNL A   1      35.234  30.753  27.709  1.00  0.00     0.188 C 
ENDROOT
BRANCH   1   2
ATOM      2  C   UNL A   1      34.387  31.844  28.381  1.00  0.00     0.188 C 
BRANCH   2   3
ATOM      3  O   UNL A   1      34.879  32.966  29.099  1.00  0.00    -0.376 OA
BRANCH   3   4
ATOM      4  C   UNL A   1      34.707  33.302  30.456  1.00  0.00     0.202 C 
BRANCH   4   5
ATOM      5  C   UNL A   1      35.810  33.224  31.512  1.00  0.00     0.261 C 
BRANCH   5   6
ATOM      6  O   UNL A   1      37.123  33.594  31.112  1.00  0.00    -0.460 OA
BRANCH   6   7
ATOM      7  C   UNL A   1      37.946  33.010  30.219  1.00  0.00     0.338 C 
ATOM      8  O   UNL A   1      37.771  33.255  29.026  1.00  0.00    -0.246 OA
BRANCH   7   9
ATOM      9  C   UNL A   1      38.978  32.000  30.574  1.00  0.00     0.060 A 
ATOM     10  C   UNL A   1      39.757  31.999  31.731  1.00  0.00     0.016 A 
ATOM     11  C   UNL A   1      39.196  31.000  29.604  1.00  0.00     0.016 A 
ATOM     12  C   UNL A   1      40.825  31.134  31.848  1.00  0.00     0.010 A 
ATOM     13  C   UNL A   1      40.254  30.116  29.724  1.00  0.00     0.010 A 
ATOM     14  C   UNL A   1      41.114  30.260  30.804  1.00  0.00    -0.014 A 
BRANCH  14  15
ATOM     15  C   UNL A   1      42.407  29.609  30.856  1.00  0.00     0.031 A 
ATOM     16  C   UNL A   1      43.479  30.222  30.039  1.00  0.00     0.074 A 
ATOM     17  C   UNL A   1      42.581  28.490  31.583  1.00  0.00     0.049 A 
ATOM     18  N   UNL A   1      44.074  29.729  29.002  1.00  0.00    -0.248 NA
ATOM     19  C   UNL A   1      43.847  31.610  30.346  1.00  0.00     0.031 C 
ATOM     20  C   UNL A   1      41.677  27.921  32.589  1.00  0.00     0.029 A 
ATOM     21  N   UNL A   1      43.670  27.682  31.652  1.00  0.00    -0.354 N 
ATOM     22  C   UNL A   1      45.044  30.660  28.645  1.00  0.00     0.074 A 
ATOM     23  C   UNL A   1      44.757  31.853  29.402  1.00  0.00     0.031 C 
ATOM     24  C   UNL A   1      42.360  27.029  33.338  1.00  0.00     0.029 A 
ATOM     25  C   UNL A   1      43.685  26.864  32.770  1.00  0.00     0.049 A 
ATOM     26  H   UNL A   1      44.382  27.679  30.973  1.00  0.00     0.167 HD
ATOM     27  C   UNL A   1      46.152  30.311  27.934  1.00  0.00     0.031 A 
ATOM     28  C   UNL A   1      44.748  26.175  33.249  1.00  0.00     0.031 A 
ATOM     29  C   UNL A   1      45.985  29.057  27.249  1.00  0.00     0.049 A 
ATOM     30  C   UNL A   1      45.712  26.015  32.134  1.00  0.00     0.074 A 
ATOM     31  C   UNL A   1      45.127  28.584  26.277  1.00  0.00     0.029 A 
ATOM     32  N   UNL A   1      46.579  27.946  27.803  1.00  0.00    -0.354 N 
ATOM     33  N   UNL A   1      45.471  25.290  31.076  1.00  0.00    -0.248 NA
ATOM     34  C   UNL A   1      46.772  26.999  31.980  1.00  0.00     0.031 C 
ATOM     35  C   UNL A   1      44.905  27.216  26.611  1.00  0.00     0.029 A 
ATOM     36  C   UNL A   1      45.673  26.920  27.739  1.00  0.00     0.049 A 
ATOM     37  H   UNL A   1      47.488  27.898  28.176  1.00  0.00     0.167 HD
ATOM     38  C   UNL A   1      46.038  25.992  30.021  1.00  0.00     0.074 A 
ATOM     39  C   UNL A   1      46.916  26.973  30.652  1.00  0.00     0.031 C 
ATOM     40  C   UNL A   1      45.534  25.894  28.754  1.00  0.00     0.031 A 
BRANCH  27  41
ATOM     41  C   UNL A   1      47.518  30.900  28.211  1.00  0.00    -0.014 A 
ATOM     42  C   UNL A   1      48.270  31.418  27.135  1.00  0.00     0.010 A 
ATOM     43  C   UNL A   1      48.208  30.684  29.423  1.00  0.00     0.010 A 
ATOM     44  C   UNL A   1      49.655  31.600  27.238  1.00  0.00     0.020 A 
ATOM     45  C   UNL A   1      49.579  30.905  29.550  1.00  0.00     0.020 A 
ATOM     46  C   UNL A   1      50.302  31.314  28.441  1.00  0.00     0.054 A 
BRANCH  46  47
ATOM     47  S   UNL A   1      52.108  31.383  28.520  1.00  0.00     0.124 S 
ATOM     48  O   UNL A   1      52.402  30.344  29.501  1.00  0.00    -0.237 OA
ATOM     49  O   UNL A   1      52.492  31.084  27.143  1.00  0.00    -0.237 OA
ATOM     50  O   UNL A   1      52.378  32.752  28.954  1.00  0.00    -0.744 OA
ENDBRANCH  46  47
ENDBRANCH  27  41
BRANCH  28  51
ATOM     51  C   UNL A   1      45.101  26.006  34.679  1.00  0.00    -0.014 A 
ATOM     52  C   UNL A   1      45.804  27.001  35.378  1.00  0.00     0.010 A 
ATOM     53  C   UNL A   1      44.518  24.961  35.430  1.00  0.00     0.010 A 
ATOM     54  C   UNL A   1      45.877  26.977  36.781  1.00  0.00     0.020 A 
ATOM     55  C   UNL A   1      44.596  24.925  36.825  1.00  0.00     0.020 A 
ATOM     56  C   UNL A   1      45.257  25.947  37.496  1.00  0.00     0.054 A 
BRANCH  56  57
ATOM     57  S   UNL A   1      45.212  26.014  39.311  1.00  0.00     0.124 S 
ATOM     58  O   UNL A   1      44.054  26.867  39.560  1.00  0.00    -0.237 OA
ATOM     59  O   UNL A   1      45.053  24.609  39.676  1.00  0.00    -0.237 OA
ATOM     60  O   UNL A   1      46.502  26.601  39.667  1.00  0.00    -0.744 OA
ENDBRANCH  56  57
ENDBRANCH  28  51
BRANCH  40  61
ATOM     61  C   UNL A   1      44.547  24.790  28.452  1.00  0.00    -0.014 A 
ATOM     62  C   UNL A   1      43.153  24.944  28.578  1.00  0.00     0.010 A 
ATOM     63  C   UNL A   1      45.042  23.612  27.864  1.00  0.00     0.010 A 
ATOM     64  C   UNL A   1      42.278  23.935  28.144  1.00  0.00     0.020 A 
ATOM     65  C   UNL A   1      44.175  22.612  27.414  1.00  0.00     0.020 A 
ATOM     66  C   UNL A   1      42.797  22.775  27.562  1.00  0.00     0.054 A 
BRANCH  66  67
ATOM     67  S   UNL A   1      41.658  21.505  26.941  1.00  0.00     0.124 S 
ATOM     68  O   UNL A   1      41.009  21.035  28.161  1.00  0.00    -0.237 OA
ATOM     69  O   UNL A   1      40.804  22.255  26.021  1.00  0.00    -0.237 OA
ATOM     70  O   UNL A   1      42.540  20.532  26.295  1.00  0.00    -0.744 OA
ENDBRANCH  66  67
ENDBRANCH  40  61
ENDBRANCH  14  15
ENDBRANCH   7   9
ENDBRANCH   6   7
ENDBRANCH   5   6
ENDBRANCH   4   5
ENDBRANCH   3   4
ENDBRANCH   2   3
ENDBRANCH   1   2
BRANCH   1  71
ATOM     71  O   UNL A   1      34.986  29.420  28.118  1.00  0.00    -0.377 OA
BRANCH  71  72
ATOM     72  C   UNL A   1      34.381  28.618  27.131  1.00  0.00     0.188 C 
BRANCH  72  73
ATOM     73  C   UNL A   1      32.891  28.321  27.388  1.00  0.00     0.188 C 
BRANCH  73  74
ATOM     74  O   UNL A   1      31.866  29.250  27.066  1.00  0.00    -0.376 OA
BRANCH  74  75
ATOM     75  C   UNL A   1      31.959  30.070  25.914  1.00  0.00     0.202 C 
BRANCH  75  76
ATOM     76  C   UNL A   1      30.992  29.846  24.744  1.00  0.00     0.261 C 
BRANCH  76  77
ATOM     77  O   UNL A   1      31.592  29.490  23.491  1.00  0.00    -0.460 OA
BRANCH  77  78
ATOM     78  C   UNL A   1      31.198  28.309  22.960  1.00  0.00     0.338 C 
ATOM     79  O   UNL A   1      30.446  28.127  22.015  1.00  0.00    -0.246 OA
BRANCH  78  80
ATOM     80  C   UNL A   1      31.950  27.220  23.608  1.00  0.00     0.060 A 
ATOM     81  C   UNL A   1      31.244  26.275  24.360  1.00  0.00     0.016 A 
ATOM     82  C   UNL A   1      33.334  27.124  23.479  1.00  0.00     0.016 A 
ATOM     83  C   UNL A   1      31.920  25.221  24.966  1.00  0.00     0.005 A 
ATOM     84  C   UNL A   1      34.018  26.101  24.143  1.00  0.00     0.005 A 
ATOM     85  C   UNL A   1      33.321  25.136  24.896  1.00  0.00    -0.038 A 
BRANCH  85  86
ATOM     86  C   UNL A   1      33.995  24.103  25.786  1.00  0.00     0.081 C 
ATOM     87  C   UNL A   1      35.495  24.022  25.432  1.00  0.00     0.111 C 
ATOM     88  C   UNL A   1      33.338  22.790  25.600  1.00  0.00     0.093 A 
ATOM     89  C   UNL A   1      35.843  22.879  24.493  1.00  0.00     0.188 C 
ATOM     90  C   UNL A   1      33.982  21.755  24.955  1.00  0.00     0.164 A 
ATOM     91  N   UNL A   1      32.068  22.451  25.967  1.00  0.00    -0.238 NA
ATOM     92  N   UNL A   1      35.184  21.778  24.325  1.00  0.00    -0.198 NA
ATOM     93  N   UNL A   1      33.059  20.729  24.914  1.00  0.00    -0.283 N 
ATOM     94  C   UNL A   1      31.912  21.227  25.501  1.00  0.00     0.206 A 
BRANCH  89  95
ATOM     95  O   UNL A   1      37.006  23.036  23.831  1.00  0.00    -0.496 OA
ATOM     96  H   UNL A   1      37.541  23.786  23.996  1.00  0.00     0.294 HD
ENDBRANCH  89  95
BRANCH  93  97
ATOM     97  C   UNL A   1      33.242  19.442  24.359  1.00  0.00     0.050 A 
ATOM     98  C   UNL A   1      32.522  19.059  23.222  1.00  0.00     0.027 A 
ATOM     99  C   UNL A   1      34.165  18.564  24.943  1.00  0.00     0.047 A 
ATOM    100  C   UNL A   1      32.762  17.809  22.647  1.00  0.00     0.004 A 
ATOM    101  C   UNL A   1      34.357  17.303  24.389  1.00  0.00     0.043 A 
ATOM    102  C   UNL A   1      33.673  16.928  23.234  1.00  0.00     0.020 A 
ATOM    103  Cl  UNL A   1      35.437  16.194  25.141  1.00  0.00    -0.084 Cl
ENDBRANCH  93  97
ENDBRANCH  85  86
ENDBRANCH  78  80
ENDBRANCH  77  78
ENDBRANCH  76  77
ENDBRANCH  75  76
ENDBRANCH  74  75
ENDBRANCH  73  74
ENDBRANCH  72  73
ENDBRANCH  71  72
ENDBRANCH   1  71
TORSDOF 26
ENDMDL
MODEL 3
REMARK VINA RESULT:     -10.0      3.094      4.606
REMARK SMILES O=C(OCCOCCOCCOCCOC(=O)c1ccc([C@@H]2CC(O)=Nc3c2ncn3-c2cccc(Cl)c2)cc1)c1ccc(-c2c3nc(c(-c4ccc(S(=O)(=O)[O-])cc4)c4ccc([nH]4)c(-c4ccc(S(=O)(=O)[O-])cc4)c4nc(c(-c5ccc(S(=O)(=O)[O-])cc5)c5ccc2[nH]5)C=C4)C=C3)cc1
REMARK SMILES IDX 8 1 7 2 6 3 5 4 4 5 3 6 2 7 1 8 41 9 42 10 100 11 43 12
REMARK SMILES IDX 99 13 44 14 45 15 46 16 93 17 47 18 98 19 92 20 94 21 48 22
REMARK SMILES IDX 97 23 91 24 90 25 49 27 79 28 60 29 78 30 61 31 64 32 77 33
REMARK SMILES IDX 95 34 62 35 63 36 76 38 96 39 65 40 50 41 51 42 59 43 52 44
REMARK SMILES IDX 58 45 53 46 54 47 55 48 56 49 57 50 80 51 81 52 89 53 82 54
REMARK SMILES IDX 88 55 83 56 84 57 85 58 86 59 87 60 66 61 67 62 75 63 68 64
REMARK SMILES IDX 74 65 69 66 70 67 71 68 72 69 73 70 9 71 10 72 11 73 12 74
REMARK SMILES IDX 13 75 14 76 15 77 16 78 17 79 18 80 19 81 40 82 20 83 39 84
REMARK SMILES IDX 21 85 22 86 23 87 28 88 24 89 27 90 29 91 26 92 31 93 30 94
REMARK SMILES IDX 25 95 32 97 33 98 38 99 34 100 36 101 35 102 37 103
REMARK H PARENT 94 26 64 37 25 96
REMARK Flexibility Score: inf
ROOT
ATOM      1  C   UNL A   1      35.251  33.243  32.023  1.00  0.00     0.188 C 
ENDROOT
BRANCH   1   2
ATOM      2  C   UNL A   1      35.840  34.520  32.640  1.00  0.00     0.188 C 
BRANCH   2   3
ATOM      3  O   UNL A   1      37.142  34.666  33.186  1.00  0.00    -0.376 OA
BRANCH   3   4
ATOM      4  C   UNL A   1      37.579  34.479  34.512  1.00  0.00     0.202 C 
BRANCH   4   5
ATOM      5  C   UNL A   1      36.876  33.590  35.537  1.00  0.00     0.261 C 
BRANCH   5   6
ATOM      6  O   UNL A   1      37.225  32.211  35.551  1.00  0.00    -0.460 OA
BRANCH   6   7
ATOM      7  C   UNL A   1      38.301  31.602  36.086  1.00  0.00     0.338 C 
ATOM      8  O   UNL A   1      38.485  31.714  37.298  1.00  0.00    -0.246 OA
BRANCH   7   9
ATOM      9  C   UNL A   1      39.343  30.902  35.290  1.00  0.00     0.060 A 
ATOM     10  C   UNL A   1      39.111  30.020  34.235  1.00  0.00     0.016 A 
ATOM     11  C   UNL A   1      40.671  31.135  35.705  1.00  0.00     0.016 A 
ATOM     12  C   UNL A   1      40.147  29.270  33.716  1.00  0.00     0.010 A 
ATOM     13  C   UNL A   1      41.718  30.401  35.175  1.00  0.00     0.010 A 
ATOM     14  C   UNL A   1      41.424  29.408  34.251  1.00  0.00    -0.014 A 
BRANCH  14  15
ATOM     15  C   UNL A   1      42.384  28.388  33.880  1.00  0.00     0.031 A 
ATOM     16  C   UNL A   1      42.907  27.551  34.984  1.00  0.00     0.074 A 
ATOM     17  C   UNL A   1      42.787  28.260  32.602  1.00  0.00     0.049 A 
ATOM     18  N   UNL A   1      44.114  27.502  35.446  1.00  0.00    -0.248 NA
ATOM     19  C   UNL A   1      41.933  26.760  35.747  1.00  0.00     0.031 C 
ATOM     20  C   UNL A   1      42.192  28.868  31.406  1.00  0.00     0.029 A 
ATOM     21  N   UNL A   1      43.757  27.459  32.093  1.00  0.00    -0.354 N 
ATOM     22  C   UNL A   1      44.102  26.516  36.428  1.00  0.00     0.074 A 
ATOM     23  C   UNL A   1      42.715  26.209  36.674  1.00  0.00     0.031 C 
ATOM     24  C   UNL A   1      42.642  28.216  30.313  1.00  0.00     0.029 A 
ATOM     25  C   UNL A   1      43.654  27.261  30.725  1.00  0.00     0.049 A 
ATOM     26  H   UNL A   1      44.466  27.054  32.644  1.00  0.00     0.167 HD
ATOM     27  C   UNL A   1      45.233  25.854  36.798  1.00  0.00     0.031 A 
ATOM     28  C   UNL A   1      44.288  26.310  30.000  1.00  0.00     0.031 A 
ATOM     29  C   UNL A   1      46.427  26.562  36.418  1.00  0.00     0.049 A 
ATOM     30  C   UNL A   1      45.470  25.871  30.779  1.00  0.00     0.074 A 
ATOM     31  C   UNL A   1      46.966  27.796  36.720  1.00  0.00     0.029 A 
ATOM     32  N   UNL A   1      47.104  26.115  35.308  1.00  0.00    -0.354 N 
ATOM     33  N   UNL A   1      46.494  26.641  31.025  1.00  0.00    -0.248 NA
ATOM     34  C   UNL A   1      45.339  24.719  31.659  1.00  0.00     0.031 C 
ATOM     35  C   UNL A   1      47.605  28.226  35.522  1.00  0.00     0.029 A 
ATOM     36  C   UNL A   1      47.459  27.214  34.571  1.00  0.00     0.049 A 
ATOM     37  H   UNL A   1      47.299  25.176  35.085  1.00  0.00     0.167 HD
ATOM     38  C   UNL A   1      46.884  26.322  32.318  1.00  0.00     0.074 A 
ATOM     39  C   UNL A   1      46.210  25.060  32.613  1.00  0.00     0.031 C 
ATOM     40  C   UNL A   1      47.494  27.244  33.122  1.00  0.00     0.031 A 
BRANCH  27  41
ATOM     41  C   UNL A   1      45.244  24.376  37.122  1.00  0.00    -0.014 A 
ATOM     42  C   UNL A   1      45.410  23.971  38.463  1.00  0.00     0.010 A 
ATOM     43  C   UNL A   1      45.406  23.383  36.133  1.00  0.00     0.010 A 
ATOM     44  C   UNL A   1      45.826  22.672  38.784  1.00  0.00     0.020 A 
ATOM     45  C   UNL A   1      45.776  22.074  36.444  1.00  0.00     0.020 A 
ATOM     46  C   UNL A   1      46.032  21.741  37.765  1.00  0.00     0.054 A 
BRANCH  46  47
ATOM     47  S   UNL A   1      46.734  20.123  38.164  1.00  0.00     0.124 S 
ATOM     48  O   UNL A   1      47.724  19.959  37.105  1.00  0.00    -0.237 OA
ATOM     49  O   UNL A   1      47.269  20.338  39.507  1.00  0.00    -0.237 OA
ATOM     50  O   UNL A   1      45.584  19.225  38.093  1.00  0.00    -0.744 OA
ENDBRANCH  46  47
ENDBRANCH  27  41
BRANCH  28  51
ATOM     51  C   UNL A   1      43.699  25.535  28.882  1.00  0.00    -0.014 A 
ATOM     52  C   UNL A   1      44.363  25.415  27.650  1.00  0.00     0.010 A 
ATOM     53  C   UNL A   1      42.588  24.694  29.114  1.00  0.00     0.010 A 
ATOM     54  C   UNL A   1      43.961  24.454  26.707  1.00  0.00     0.020 A 
ATOM     55  C   UNL A   1      42.175  23.744  28.176  1.00  0.00     0.020 A 
ATOM     56  C   UNL A   1      42.879  23.613  26.984  1.00  0.00     0.054 A 
BRANCH  56  57
ATOM     57  S   UNL A   1      42.471  22.265  25.837  1.00  0.00     0.124 S 
ATOM     58  O   UNL A   1      43.158  21.127  26.440  1.00  0.00    -0.237 OA
ATOM     59  O   UNL A   1      41.012  22.227  25.897  1.00  0.00    -0.237 OA
ATOM     60  O   UNL A   1      43.024  22.718  24.562  1.00  0.00    -0.744 OA
ENDBRANCH  56  57
ENDBRANCH  28  51
BRANCH  40  61
ATOM     61  C   UNL A   1      48.010  28.519  32.496  1.00  0.00    -0.014 A 
ATOM     62  C   UNL A   1      48.969  28.541  31.465  1.00  0.00     0.010 A 
ATOM     63  C   UNL A   1      47.378  29.725  32.850  1.00  0.00     0.010 A 
ATOM     64  C   UNL A   1      49.301  29.743  30.820  1.00  0.00     0.020 A 
ATOM     65  C   UNL A   1      47.692  30.922  32.200  1.00  0.00     0.020 A 
ATOM     66  C   UNL A   1      48.657  30.927  31.191  1.00  0.00     0.054 A 
BRANCH  66  67
ATOM     67  S   UNL A   1      49.042  32.465  30.308  1.00  0.00     0.124 S 
ATOM     68  O   UNL A   1      48.089  33.410  30.883  1.00  0.00    -0.237 OA
ATOM     69  O   UNL A   1      50.444  32.695  30.651  1.00  0.00    -0.237 OA
ATOM     70  O   UNL A   1      48.808  32.128  28.904  1.00  0.00    -0.744 OA
ENDBRANCH  66  67
ENDBRANCH  40  61
ENDBRANCH  14  15
ENDBRANCH   7   9
ENDBRANCH   6   7
ENDBRANCH   5   6
ENDBRANCH   4   5
ENDBRANCH   3   4
ENDBRANCH   2   3
ENDBRANCH   1   2
BRANCH   1  71
ATOM     71  O   UNL A   1      35.655  32.016  32.605  1.00  0.00    -0.377 OA
BRANCH  71  72
ATOM     72  C   UNL A   1      36.853  31.497  32.077  1.00  0.00     0.188 C 
BRANCH  72  73
ATOM     73  C   UNL A   1      36.714  30.087  31.470  1.00  0.00     0.188 C 
BRANCH  73  74
ATOM     74  O   UNL A   1      37.634  29.580  30.514  1.00  0.00    -0.376 OA
BRANCH  74  75
ATOM     75  C   UNL A   1      37.380  29.691  29.125  1.00  0.00     0.202 C 
BRANCH  75  76
ATOM     76  C   UNL A   1      36.142  30.458  28.640  1.00  0.00     0.261 C 
BRANCH  76  77
ATOM     77  O   UNL A   1      35.244  29.731  27.791  1.00  0.00    -0.460 OA
BRANCH  77  78
ATOM     78  C   UNL A   1      34.122  30.388  27.415  1.00  0.00     0.338 C 
ATOM     79  O   UNL A   1      33.892  31.584  27.496  1.00  0.00    -0.246 OA
BRANCH  78  80
ATOM     80  C   UNL A   1      33.225  29.443  26.724  1.00  0.00     0.060 A 
ATOM     81  C   UNL A   1      33.433  28.072  26.903  1.00  0.00     0.016 A 
ATOM     82  C   UNL A   1      32.190  29.898  25.909  1.00  0.00     0.016 A 
ATOM     83  C   UNL A   1      32.592  27.154  26.283  1.00  0.00     0.005 A 
ATOM     84  C   UNL A   1      31.387  28.972  25.236  1.00  0.00     0.005 A 
ATOM     85  C   UNL A   1      31.577  27.588  25.413  1.00  0.00    -0.038 A 
BRANCH  85  86
ATOM     86  C   UNL A   1      30.870  26.521  24.591  1.00  0.00     0.081 C 
ATOM     87  C   UNL A   1      29.757  25.872  25.441  1.00  0.00     0.111 C 
ATOM     88  C   UNL A   1      31.854  25.507  24.151  1.00  0.00     0.093 A 
ATOM     89  C   UNL A   1      30.165  24.560  26.088  1.00  0.00     0.188 C 
ATOM     90  C   UNL A   1      31.851  24.233  24.677  1.00  0.00     0.164 A 
ATOM     91  N   UNL A   1      32.872  25.688  23.259  1.00  0.00    -0.238 NA
ATOM     92  N   UNL A   1      31.089  23.746  25.689  1.00  0.00    -0.198 NA
ATOM     93  N   UNL A   1      32.926  23.598  24.088  1.00  0.00    -0.283 N 
ATOM     94  C   UNL A   1      33.526  24.543  23.278  1.00  0.00     0.206 A 
BRANCH  89  95
ATOM     95  O   UNL A   1      29.416  24.206  27.151  1.00  0.00    -0.496 OA
ATOM     96  H   UNL A   1      29.709  24.404  28.017  1.00  0.00     0.294 HD
ENDBRANCH  89  95
BRANCH  93  97
ATOM     97  C   UNL A   1      33.345  22.264  24.294  1.00  0.00     0.050 A 
ATOM     98  C   UNL A   1      32.424  21.216  24.194  1.00  0.00     0.027 A 
ATOM     99  C   UNL A   1      34.692  22.001  24.577  1.00  0.00     0.047 A 
ATOM    100  C   UNL A   1      32.866  19.898  24.334  1.00  0.00     0.004 A 
ATOM    101  C   UNL A   1      35.109  20.687  24.764  1.00  0.00     0.043 A 
ATOM    102  C   UNL A   1      34.206  19.634  24.628  1.00  0.00     0.020 A 
ATOM    103  Cl  UNL A   1      36.747  20.360  25.179  1.00  0.00    -0.084 Cl
ENDBRANCH  93  97
ENDBRANCH  85  86
ENDBRANCH  78  80
ENDBRANCH  77  78
ENDBRANCH  76  77
ENDBRANCH  75  76
ENDBRANCH  74  75
ENDBRANCH  73  74
ENDBRANCH  72  73
ENDBRANCH  71  72
ENDBRANCH   1  71
TORSDOF 26
ENDMDL
