MODEL 1
REMARK VINA RESULT:      -9.3      0.000      0.000
REMARK SMILES Cc1ccc(-c2cc([C@@H](C)C(=O)OCCOCCOCCOCCOC(=O)c3ccc(-c4c5nc(c(-c6ccc(S(=O)(=O)[O-])cc6)c6ccc([nH]6)c(-c6ccc(S(=O)(=O)[O-])cc6)c6nc(c(-c7ccc(S(=O)(=O)[O-])cc7)c7ccc4[nH]7)C=C6)C=C5)cc3)ccc2C[C@H]2CCCC2=O)cc1
REMARK SMILES IDX 19 1 18 2 17 3 16 4 15 5 14 6 13 7 11 8 12 9 9 10 10 11 8 12
REMARK SMILES IDX 6 13 7 14 90 15 89 16 88 17 5 18 1 19 2 20 3 21 99 22 4 23
REMARK SMILES IDX 98 24 91 25 92 26 93 27 96 28 94 29 95 30 97 31 20 32 21 33
REMARK SMILES IDX 22 34 23 35 24 36 25 37 26 38 27 39 28 40 29 41 87 42 30 43
REMARK SMILES IDX 86 44 31 45 32 46 33 47 80 48 34 49 85 50 79 51 81 52 35 53
REMARK SMILES IDX 84 54 78 55 77 56 36 58 66 59 47 60 65 61 48 62 51 63 64 64
REMARK SMILES IDX 82 65 49 66 50 67 63 69 83 70 52 71 37 72 38 73 46 74 39 75
REMARK SMILES IDX 45 76 40 77 41 78 42 79 43 80 44 81 67 82 68 83 76 84 69 85
REMARK SMILES IDX 75 86 70 87 71 88 72 89 73 90 74 91 53 92 54 93 62 94 55 95
REMARK SMILES IDX 61 96 56 97 57 98 58 99 59 100 60 101
REMARK H PARENT 81 57 51 68
REMARK Flexibility Score: inf
ROOT
ATOM      1  O   UNL A   1      41.936  18.993  25.410  1.00  0.00    -0.377 OA
ENDROOT
BRANCH   1   2
ATOM      2  C   UNL A   1      40.777  19.360  26.115  1.00  0.00     0.188 C 
BRANCH   2   3
ATOM      3  C   UNL A   1      40.827  20.705  26.848  1.00  0.00     0.188 C 
BRANCH   3   4
ATOM      4  O   UNL A   1      40.495  21.888  26.142  1.00  0.00    -0.376 OA
BRANCH   4   5
ATOM      5  C   UNL A   1      39.234  22.460  26.477  1.00  0.00     0.202 C 
BRANCH   5   6
ATOM      6  C   UNL A   1      38.118  22.329  25.447  1.00  0.00     0.261 C 
BRANCH   6   7
ATOM      7  O   UNL A   1      36.878  21.878  26.030  1.00  0.00    -0.463 OA
BRANCH   7   8
ATOM      8  C   UNL A   1      36.305  20.795  25.459  1.00  0.00     0.313 C 
ATOM      9  O   UNL A   1      36.914  19.893  24.882  1.00  0.00    -0.252 OA
BRANCH   8  10
ATOM     10  C   UNL A   1      34.795  20.777  25.605  1.00  0.00     0.126 C 
ATOM     11  C   UNL A   1      34.206  19.641  24.770  1.00  0.00     0.025 C 
BRANCH  10  12
ATOM     12  C   UNL A   1      34.112  22.137  25.493  1.00  0.00    -0.033 A 
ATOM     13  C   UNL A   1      33.291  23.954  24.018  1.00  0.00    -0.015 A 
ATOM     14  C   UNL A   1      33.890  22.681  24.216  1.00  0.00     0.013 A 
ATOM     15  C   UNL A   1      32.961  24.756  25.141  1.00  0.00    -0.039 A 
ATOM     16  C   UNL A   1      33.128  24.184  26.416  1.00  0.00     0.004 A 
ATOM     17  C   UNL A   1      33.676  22.894  26.587  1.00  0.00     0.005 A 
BRANCH  13  18
ATOM     18  C   UNL A   1      33.018  24.361  22.633  1.00  0.00    -0.018 A 
ATOM     19  C   UNL A   1      32.241  25.601  18.572  1.00  0.00     0.044 C 
ATOM     20  C   UNL A   1      32.516  25.157  19.975  1.00  0.00    -0.051 A 
ATOM     21  C   UNL A   1      32.330  26.051  21.034  1.00  0.00     0.004 A 
ATOM     22  C   UNL A   1      32.957  23.859  20.247  1.00  0.00     0.004 A 
ATOM     23  C   UNL A   1      32.594  25.661  22.345  1.00  0.00     0.009 A 
ATOM     24  C   UNL A   1      33.202  23.468  21.565  1.00  0.00     0.009 A 
ENDBRANCH  13  18
BRANCH  15  25
ATOM     25  C   UNL A   1      32.657  26.248  25.011  1.00  0.00     0.047 C 
BRANCH  25  26
ATOM     26  C   UNL A   1      31.329  26.927  25.362  1.00  0.00     0.060 C 
ATOM     27  C   UNL A   1      30.983  28.232  24.658  1.00  0.00     0.012 C 
ATOM     28  C   UNL A   1      30.118  26.063  25.103  1.00  0.00     0.136 C 
ATOM     29  C   UNL A   1      30.028  27.815  23.566  1.00  0.00     0.009 C 
ATOM     30  C   UNL A   1      29.181  26.676  24.104  1.00  0.00     0.076 C 
ATOM     31  O   UNL A   1      29.912  25.002  25.682  1.00  0.00    -0.299 OA
ENDBRANCH  25  26
ENDBRANCH  15  25
ENDBRANCH  10  12
ENDBRANCH   8  10
ENDBRANCH   7   8
ENDBRANCH   6   7
ENDBRANCH   5   6
ENDBRANCH   4   5
ENDBRANCH   3   4
ENDBRANCH   2   3
ENDBRANCH   1   2
BRANCH   1  32
ATOM     32  C   UNL A   1      43.178  19.144  26.086  1.00  0.00     0.188 C 
BRANCH  32  33
ATOM     33  C   UNL A   1      44.383  19.510  25.237  1.00  0.00     0.188 C 
BRANCH  33  34
ATOM     34  O   UNL A   1      44.819  20.817  25.599  1.00  0.00    -0.376 OA
BRANCH  34  35
ATOM     35  C   UNL A   1      43.883  21.847  25.346  1.00  0.00     0.202 C 
BRANCH  35  36
ATOM     36  C   UNL A   1      44.236  23.141  26.081  1.00  0.00     0.261 C 
BRANCH  36  37
ATOM     37  O   UNL A   1      43.216  23.464  27.057  1.00  0.00    -0.460 OA
BRANCH  37  38
ATOM     38  C   UNL A   1      43.636  23.731  28.332  1.00  0.00     0.338 C 
ATOM     39  O   UNL A   1      44.309  22.950  28.984  1.00  0.00    -0.246 OA
BRANCH  38  40
ATOM     40  C   UNL A   1      43.281  25.116  28.772  1.00  0.00     0.060 A 
ATOM     41  C   UNL A   1      42.320  25.889  28.098  1.00  0.00     0.016 A 
ATOM     42  C   UNL A   1      44.035  25.712  29.769  1.00  0.00     0.016 A 
ATOM     43  C   UNL A   1      42.226  27.284  28.317  1.00  0.00     0.010 A 
ATOM     44  C   UNL A   1      44.022  27.092  29.884  1.00  0.00     0.010 A 
ATOM     45  C   UNL A   1      43.132  27.915  29.166  1.00  0.00    -0.014 A 
BRANCH  45  46
ATOM     46  C   UNL A   1      43.380  29.375  29.326  1.00  0.00     0.031 A 
ATOM     47  C   UNL A   1      42.164  30.261  29.456  1.00  0.00     0.074 A 
ATOM     48  C   UNL A   1      44.593  29.852  29.727  1.00  0.00     0.049 A 
ATOM     49  N   UNL A   1      42.157  31.478  29.878  1.00  0.00    -0.248 NA
ATOM     50  C   UNL A   1      40.806  29.798  29.153  1.00  0.00     0.031 C 
ATOM     51  C   UNL A   1      44.827  31.026  30.585  1.00  0.00     0.029 A 
ATOM     52  N   UNL A   1      45.887  29.388  29.565  1.00  0.00    -0.354 N 
ATOM     53  C   UNL A   1      40.861  31.848  30.179  1.00  0.00     0.074 A 
ATOM     54  C   UNL A   1      40.050  30.769  29.677  1.00  0.00     0.031 C 
ATOM     55  C   UNL A   1      46.140  31.236  30.764  1.00  0.00     0.029 A 
ATOM     56  C   UNL A   1      46.802  30.422  29.779  1.00  0.00     0.049 A 
ATOM     57  H   UNL A   1      46.128  28.462  29.332  1.00  0.00     0.167 HD
ATOM     58  C   UNL A   1      40.650  32.984  30.910  1.00  0.00     0.031 A 
ATOM     59  C   UNL A   1      47.506  30.982  28.747  1.00  0.00     0.031 A 
ATOM     60  C   UNL A   1      41.877  33.807  30.987  1.00  0.00     0.049 A 
ATOM     61  C   UNL A   1      47.030  32.411  28.462  1.00  0.00     0.074 A 
ATOM     62  C   UNL A   1      42.625  34.379  32.003  1.00  0.00     0.029 A 
ATOM     63  N   UNL A   1      42.629  33.998  29.820  1.00  0.00    -0.354 N 
ATOM     64  N   UNL A   1      45.841  32.868  28.787  1.00  0.00    -0.248 NA
ATOM     65  C   UNL A   1      47.889  33.473  27.946  1.00  0.00     0.031 C 
ATOM     66  C   UNL A   1      43.875  34.794  31.455  1.00  0.00     0.029 A 
ATOM     67  C   UNL A   1      43.861  34.555  30.088  1.00  0.00     0.049 A 
ATOM     68  H   UNL A   1      42.315  33.762  28.917  1.00  0.00     0.167 HD
ATOM     69  C   UNL A   1      45.790  34.226  28.630  1.00  0.00     0.074 A 
ATOM     70  C   UNL A   1      47.093  34.552  28.074  1.00  0.00     0.031 C 
ATOM     71  C   UNL A   1      44.722  35.003  28.996  1.00  0.00     0.031 A 
BRANCH  58  72
ATOM     72  C   UNL A   1      39.371  33.300  31.697  1.00  0.00    -0.014 A 
ATOM     73  C   UNL A   1      39.062  32.555  32.859  1.00  0.00     0.010 A 
ATOM     74  C   UNL A   1      38.389  34.246  31.325  1.00  0.00     0.010 A 
ATOM     75  C   UNL A   1      37.866  32.722  33.583  1.00  0.00     0.020 A 
ATOM     76  C   UNL A   1      37.198  34.448  32.058  1.00  0.00     0.020 A 
ATOM     77  C   UNL A   1      36.939  33.676  33.182  1.00  0.00     0.054 A 
BRANCH  77  78
ATOM     78  S   UNL A   1      35.427  33.909  34.161  1.00  0.00     0.124 S 
ATOM     79  O   UNL A   1      35.806  33.369  35.464  1.00  0.00    -0.237 OA
ATOM     80  O   UNL A   1      35.237  35.356  34.112  1.00  0.00    -0.237 OA
ATOM     81  O   UNL A   1      34.420  33.131  33.439  1.00  0.00    -0.744 OA
ENDBRANCH  77  78
ENDBRANCH  58  72
BRANCH  59  82
ATOM     82  C   UNL A   1      48.076  29.934  27.834  1.00  0.00    -0.014 A 
ATOM     83  C   UNL A   1      49.129  29.181  28.415  1.00  0.00     0.010 A 
ATOM     84  C   UNL A   1      47.220  29.282  26.924  1.00  0.00     0.010 A 
ATOM     85  C   UNL A   1      49.110  27.782  28.367  1.00  0.00     0.020 A 
ATOM     86  C   UNL A   1      47.215  27.875  26.856  1.00  0.00     0.020 A 
ATOM     87  C   UNL A   1      48.089  27.141  27.666  1.00  0.00     0.054 A 
BRANCH  87  88
ATOM     88  S   UNL A   1      47.740  25.397  28.071  1.00  0.00     0.124 S 
ATOM     89  O   UNL A   1      47.527  25.436  29.513  1.00  0.00    -0.237 OA
ATOM     90  O   UNL A   1      46.545  25.141  27.265  1.00  0.00    -0.237 OA
ATOM     91  O   UNL A   1      48.942  24.699  27.628  1.00  0.00    -0.744 OA
ENDBRANCH  87  88
ENDBRANCH  59  82
BRANCH  71  92
ATOM     92  C   UNL A   1      44.350  36.322  28.339  1.00  0.00    -0.014 A 
ATOM     93  C   UNL A   1      43.384  36.456  27.335  1.00  0.00     0.010 A 
ATOM     94  C   UNL A   1      44.859  37.529  28.890  1.00  0.00     0.010 A 
ATOM     95  C   UNL A   1      42.956  37.713  26.897  1.00  0.00     0.020 A 
ATOM     96  C   UNL A   1      44.403  38.790  28.498  1.00  0.00     0.020 A 
ATOM     97  C   UNL A   1      43.452  38.870  27.494  1.00  0.00     0.054 A 
BRANCH  97  98
ATOM     98  S   UNL A   1      42.778  40.462  26.977  1.00  0.00     0.124 S 
ATOM     99  O   UNL A   1      41.383  40.348  27.398  1.00  0.00    -0.237 OA
ATOM    100  O   UNL A   1      43.588  41.408  27.742  1.00  0.00    -0.237 OA
ATOM    101  O   UNL A   1      42.996  40.485  25.533  1.00  0.00    -0.744 OA
ENDBRANCH  97  98
ENDBRANCH  71  92
ENDBRANCH  45  46
ENDBRANCH  38  40
ENDBRANCH  37  38
ENDBRANCH  36  37
ENDBRANCH  35  36
ENDBRANCH  34  35
ENDBRANCH  33  34
ENDBRANCH  32  33
ENDBRANCH   1  32
TORSDOF 27
ENDMDL
MODEL 2
REMARK VINA RESULT:      -9.2      3.279      8.365
REMARK SMILES Cc1ccc(-c2cc([C@@H](C)C(=O)OCCOCCOCCOCCOC(=O)c3ccc(-c4c5nc(c(-c6ccc(S(=O)(=O)[O-])cc6)c6ccc([nH]6)c(-c6ccc(S(=O)(=O)[O-])cc6)c6nc(c(-c7ccc(S(=O)(=O)[O-])cc7)c7ccc4[nH]7)C=C6)C=C5)cc3)ccc2C[C@H]2CCCC2=O)cc1
REMARK SMILES IDX 19 1 18 2 17 3 16 4 15 5 14 6 13 7 11 8 12 9 9 10 10 11 8 12
REMARK SMILES IDX 6 13 7 14 90 15 89 16 88 17 5 18 1 19 2 20 3 21 99 22 4 23
REMARK SMILES IDX 98 24 91 25 92 26 93 27 96 28 94 29 95 30 97 31 20 32 21 33
REMARK SMILES IDX 22 34 23 35 24 36 25 37 26 38 27 39 28 40 29 41 87 42 30 43
REMARK SMILES IDX 86 44 31 45 32 46 33 47 80 48 34 49 85 50 79 51 81 52 35 53
REMARK SMILES IDX 84 54 78 55 77 56 36 58 66 59 47 60 65 61 48 62 51 63 64 64
REMARK SMILES IDX 82 65 49 66 50 67 63 69 83 70 52 71 37 72 38 73 46 74 39 75
REMARK SMILES IDX 45 76 40 77 41 78 42 79 43 80 44 81 67 82 68 83 76 84 69 85
REMARK SMILES IDX 75 86 70 87 71 88 72 89 73 90 74 91 53 92 54 93 62 94 55 95
REMARK SMILES IDX 61 96 56 97 57 98 58 99 59 100 60 101
REMARK H PARENT 81 57 51 68
REMARK Flexibility Score: inf
ROOT
ATOM      1  O   UNL A   1      45.429  24.785  31.160  1.00  0.00    -0.377 OA
ENDROOT
BRANCH   1   2
ATOM      2  C   UNL A   1      45.119  26.026  30.581  1.00  0.00     0.188 C 
BRANCH   2   3
ATOM      3  C   UNL A   1      43.675  26.206  30.099  1.00  0.00     0.188 C 
BRANCH   3   4
ATOM      4  O   UNL A   1      43.315  25.740  28.809  1.00  0.00    -0.376 OA
BRANCH   4   5
ATOM      5  C   UNL A   1      42.140  24.935  28.762  1.00  0.00     0.202 C 
BRANCH   5   6
ATOM      6  C   UNL A   1      41.286  25.029  27.503  1.00  0.00     0.261 C 
BRANCH   6   7
ATOM      7  O   UNL A   1      40.033  24.326  27.632  1.00  0.00    -0.463 OA
BRANCH   7   8
ATOM      8  C   UNL A   1      39.220  24.344  26.553  1.00  0.00     0.313 C 
ATOM      9  O   UNL A   1      39.154  25.260  25.731  1.00  0.00    -0.252 OA
BRANCH   8  10
ATOM     10  C   UNL A   1      38.373  23.092  26.427  1.00  0.00     0.126 C 
ATOM     11  C   UNL A   1      39.272  21.855  26.414  1.00  0.00     0.025 C 
BRANCH  10  12
ATOM     12  C   UNL A   1      37.273  23.152  25.370  1.00  0.00    -0.033 A 
ATOM     13  C   UNL A   1      35.146  24.182  24.616  1.00  0.00    -0.015 A 
ATOM     14  C   UNL A   1      36.228  24.079  25.532  1.00  0.00     0.013 A 
ATOM     15  C   UNL A   1      35.059  23.275  23.529  1.00  0.00    -0.039 A 
ATOM     16  C   UNL A   1      36.137  22.390  23.336  1.00  0.00     0.004 A 
ATOM     17  C   UNL A   1      37.230  22.342  24.229  1.00  0.00     0.005 A 
BRANCH  13  18
ATOM     18  C   UNL A   1      34.176  25.262  24.841  1.00  0.00    -0.018 A 
ATOM     19  C   UNL A   1      31.306  28.427  25.454  1.00  0.00     0.044 C 
ATOM     20  C   UNL A   1      32.297  27.323  25.256  1.00  0.00    -0.051 A 
ATOM     21  C   UNL A   1      32.977  27.213  24.039  1.00  0.00     0.004 A 
ATOM     22  C   UNL A   1      32.558  26.398  26.269  1.00  0.00     0.004 A 
ATOM     23  C   UNL A   1      33.893  26.184  23.829  1.00  0.00     0.009 A 
ATOM     24  C   UNL A   1      33.490  25.379  26.061  1.00  0.00     0.009 A 
ENDBRANCH  13  18
BRANCH  15  25
ATOM     25  C   UNL A   1      33.771  23.090  22.729  1.00  0.00     0.047 C 
BRANCH  25  26
ATOM     26  C   UNL A   1      32.546  22.284  23.173  1.00  0.00     0.060 C 
ATOM     27  C   UNL A   1      32.773  21.059  24.049  1.00  0.00     0.012 C 
ATOM     28  C   UNL A   1      31.541  23.090  23.959  1.00  0.00     0.136 C 
ATOM     29  C   UNL A   1      32.465  21.547  25.444  1.00  0.00     0.009 C 
ATOM     30  C   UNL A   1      31.330  22.549  25.343  1.00  0.00     0.076 C 
ATOM     31  O   UNL A   1      30.939  24.052  23.496  1.00  0.00    -0.299 OA
ENDBRANCH  25  26
ENDBRANCH  15  25
ENDBRANCH  10  12
ENDBRANCH   8  10
ENDBRANCH   7   8
ENDBRANCH   6   7
ENDBRANCH   5   6
ENDBRANCH   4   5
ENDBRANCH   3   4
ENDBRANCH   2   3
ENDBRANCH   1   2
BRANCH   1  32
ATOM     32  C   UNL A   1      45.422  24.716  32.582  1.00  0.00     0.188 C 
BRANCH  32  33
ATOM     33  C   UNL A   1      44.386  23.809  33.220  1.00  0.00     0.188 C 
BRANCH  33  34
ATOM     34  O   UNL A   1      44.658  23.712  34.615  1.00  0.00    -0.376 OA
BRANCH  34  35
ATOM     35  C   UNL A   1      43.619  23.140  35.386  1.00  0.00     0.202 C 
BRANCH  35  36
ATOM     36  C   UNL A   1      42.430  24.088  35.548  1.00  0.00     0.261 C 
BRANCH  36  37
ATOM     37  O   UNL A   1      42.762  25.168  36.453  1.00  0.00    -0.460 OA
BRANCH  37  38
ATOM     38  C   UNL A   1      41.864  26.196  36.554  1.00  0.00     0.338 C 
ATOM     39  O   UNL A   1      40.841  26.118  37.213  1.00  0.00    -0.246 OA
BRANCH  38  40
ATOM     40  C   UNL A   1      42.340  27.439  35.873  1.00  0.00     0.060 A 
ATOM     41  C   UNL A   1      41.848  28.711  36.214  1.00  0.00     0.016 A 
ATOM     42  C   UNL A   1      43.165  27.320  34.767  1.00  0.00     0.016 A 
ATOM     43  C   UNL A   1      42.057  29.824  35.364  1.00  0.00     0.010 A 
ATOM     44  C   UNL A   1      43.257  28.381  33.882  1.00  0.00     0.010 A 
ATOM     45  C   UNL A   1      42.707  29.651  34.145  1.00  0.00    -0.014 A 
BRANCH  45  46
ATOM     46  C   UNL A   1      42.793  30.606  33.005  1.00  0.00     0.031 A 
ATOM     47  C   UNL A   1      44.120  31.294  32.792  1.00  0.00     0.074 A 
ATOM     48  C   UNL A   1      41.890  30.579  31.983  1.00  0.00     0.049 A 
ATOM     49  N   UNL A   1      44.485  31.920  31.727  1.00  0.00    -0.248 NA
ATOM     50  C   UNL A   1      45.193  31.281  33.792  1.00  0.00     0.031 C 
ATOM     51  C   UNL A   1      42.170  30.861  30.565  1.00  0.00     0.029 A 
ATOM     52  N   UNL A   1      40.555  30.217  31.917  1.00  0.00    -0.354 N 
ATOM     53  C   UNL A   1      45.851  32.119  31.762  1.00  0.00     0.074 A 
ATOM     54  C   UNL A   1      46.240  31.728  33.091  1.00  0.00     0.031 C 
ATOM     55  C   UNL A   1      41.053  30.772  29.828  1.00  0.00     0.029 A 
ATOM     56  C   UNL A   1      39.965  30.756  30.770  1.00  0.00     0.049 A 
ATOM     57  H   UNL A   1      40.089  29.661  32.581  1.00  0.00     0.167 HD
ATOM     58  C   UNL A   1      46.494  32.499  30.617  1.00  0.00     0.031 A 
ATOM     59  C   UNL A   1      39.068  31.789  30.843  1.00  0.00     0.031 A 
ATOM     60  C   UNL A   1      45.531  32.943  29.584  1.00  0.00     0.049 A 
ATOM     61  C   UNL A   1      39.670  33.085  30.287  1.00  0.00     0.074 A 
ATOM     62  C   UNL A   1      45.281  32.623  28.260  1.00  0.00     0.029 A 
ATOM     63  N   UNL A   1      44.480  33.785  29.968  1.00  0.00    -0.354 N 
ATOM     64  N   UNL A   1      40.960  33.323  30.211  1.00  0.00    -0.248 NA
ATOM     65  C   UNL A   1      38.892  34.134  29.633  1.00  0.00     0.031 C 
ATOM     66  C   UNL A   1      44.015  33.175  27.901  1.00  0.00     0.029 A 
ATOM     67  C   UNL A   1      43.529  33.904  28.977  1.00  0.00     0.049 A 
ATOM     68  H   UNL A   1      44.426  34.238  30.840  1.00  0.00     0.167 HD
ATOM     69  C   UNL A   1      41.198  34.440  29.459  1.00  0.00     0.074 A 
ATOM     70  C   UNL A   1      39.864  34.927  29.143  1.00  0.00     0.031 C 
ATOM     71  C   UNL A   1      42.447  34.878  29.104  1.00  0.00     0.031 A 
BRANCH  58  72
ATOM     72  C   UNL A   1      47.997  32.335  30.354  1.00  0.00    -0.014 A 
ATOM     73  C   UNL A   1      48.578  31.046  30.393  1.00  0.00     0.010 A 
ATOM     74  C   UNL A   1      48.915  33.388  30.144  1.00  0.00     0.010 A 
ATOM     75  C   UNL A   1      49.961  30.822  30.253  1.00  0.00     0.020 A 
ATOM     76  C   UNL A   1      50.302  33.179  29.971  1.00  0.00     0.020 A 
ATOM     77  C   UNL A   1      50.819  31.892  30.035  1.00  0.00     0.054 A 
BRANCH  77  78
ATOM     78  S   UNL A   1      52.593  31.574  29.807  1.00  0.00     0.124 S 
ATOM     79  O   UNL A   1      52.678  30.124  29.961  1.00  0.00    -0.237 OA
ATOM     80  O   UNL A   1      52.834  32.078  28.457  1.00  0.00    -0.237 OA
ATOM     81  O   UNL A   1      53.226  32.347  30.875  1.00  0.00    -0.744 OA
ENDBRANCH  77  78
ENDBRANCH  58  72
BRANCH  59  82
ATOM     82  C   UNL A   1      38.048  31.560  31.922  1.00  0.00    -0.014 A 
ATOM     83  C   UNL A   1      38.090  32.523  32.962  1.00  0.00     0.010 A 
ATOM     84  C   UNL A   1      36.795  31.016  31.572  1.00  0.00     0.010 A 
ATOM     85  C   UNL A   1      36.918  33.166  33.381  1.00  0.00     0.020 A 
ATOM     86  C   UNL A   1      35.615  31.647  32.012  1.00  0.00     0.020 A 
ATOM     87  C   UNL A   1      35.699  32.784  32.823  1.00  0.00     0.054 A 
BRANCH  87  88
ATOM     88  S   UNL A   1      34.308  33.960  32.925  1.00  0.00     0.124 S 
ATOM     89  O   UNL A   1      34.713  34.848  34.009  1.00  0.00    -0.237 OA
ATOM     90  O   UNL A   1      34.326  34.554  31.586  1.00  0.00    -0.237 OA
ATOM     91  O   UNL A   1      33.160  33.104  33.204  1.00  0.00    -0.744 OA
ENDBRANCH  87  88
ENDBRANCH  59  82
BRANCH  71  92
ATOM     92  C   UNL A   1      42.808  36.328  28.831  1.00  0.00    -0.014 A 
ATOM     93  C   UNL A   1      43.535  37.138  29.710  1.00  0.00     0.010 A 
ATOM     94  C   UNL A   1      42.571  36.860  27.533  1.00  0.00     0.010 A 
ATOM     95  C   UNL A   1      43.991  38.404  29.330  1.00  0.00     0.020 A 
ATOM     96  C   UNL A   1      43.065  38.100  27.124  1.00  0.00     0.020 A 
ATOM     97  C   UNL A   1      43.772  38.869  28.035  1.00  0.00     0.054 A 
BRANCH  97  98
ATOM     98  S   UNL A   1      44.487  40.455  27.558  1.00  0.00     0.124 S 
ATOM     99  O   UNL A   1      44.593  41.136  28.847  1.00  0.00    -0.237 OA
ATOM    100  O   UNL A   1      45.757  40.056  26.953  1.00  0.00    -0.237 OA
ATOM    101  O   UNL A   1      43.509  41.018  26.631  1.00  0.00    -0.744 OA
ENDBRANCH  97  98
ENDBRANCH  71  92
ENDBRANCH  45  46
ENDBRANCH  38  40
ENDBRANCH  37  38
ENDBRANCH  36  37
ENDBRANCH  35  36
ENDBRANCH  34  35
ENDBRANCH  33  34
ENDBRANCH  32  33
ENDBRANCH   1  32
TORSDOF 27
ENDMDL
MODEL 3
REMARK VINA RESULT:      -9.0      4.696     12.881
REMARK SMILES Cc1ccc(-c2cc([C@@H](C)C(=O)OCCOCCOCCOCCOC(=O)c3ccc(-c4c5nc(c(-c6ccc(S(=O)(=O)[O-])cc6)c6ccc([nH]6)c(-c6ccc(S(=O)(=O)[O-])cc6)c6nc(c(-c7ccc(S(=O)(=O)[O-])cc7)c7ccc4[nH]7)C=C6)C=C5)cc3)ccc2C[C@H]2CCCC2=O)cc1
REMARK SMILES IDX 19 1 18 2 17 3 16 4 15 5 14 6 13 7 11 8 12 9 9 10 10 11 8 12
REMARK SMILES IDX 6 13 7 14 90 15 89 16 88 17 5 18 1 19 2 20 3 21 99 22 4 23
REMARK SMILES IDX 98 24 91 25 92 26 93 27 96 28 94 29 95 30 97 31 20 32 21 33
REMARK SMILES IDX 22 34 23 35 24 36 25 37 26 38 27 39 28 40 29 41 87 42 30 43
REMARK SMILES IDX 86 44 31 45 32 46 33 47 80 48 34 49 85 50 79 51 81 52 35 53
REMARK SMILES IDX 84 54 78 55 77 56 36 58 66 59 47 60 65 61 48 62 51 63 64 64
REMARK SMILES IDX 82 65 49 66 50 67 63 69 83 70 52 71 37 72 38 73 46 74 39 75
REMARK SMILES IDX 45 76 40 77 41 78 42 79 43 80 44 81 67 82 68 83 76 84 69 85
REMARK SMILES IDX 75 86 70 87 71 88 72 89 73 90 74 91 53 92 54 93 62 94 55 95
REMARK SMILES IDX 61 96 56 97 57 98 58 99 59 100 60 101
REMARK H PARENT 81 57 51 68
REMARK Flexibility Score: inf
ROOT
ATOM      1  O   UNL A   1      45.845  35.049  27.564  1.00  0.00    -0.377 OA
ENDROOT
BRANCH   1   2
ATOM      2  C   UNL A   1      45.798  34.403  26.318  1.00  0.00     0.188 C 
BRANCH   2   3
ATOM      3  C   UNL A   1      45.974  32.881  26.337  1.00  0.00     0.188 C 
BRANCH   3   4
ATOM      4  O   UNL A   1      47.152  32.329  26.901  1.00  0.00    -0.376 OA
BRANCH   4   5
ATOM      5  C   UNL A   1      47.235  30.907  26.863  1.00  0.00     0.202 C 
BRANCH   5   6
ATOM      6  C   UNL A   1      46.163  30.172  26.067  1.00  0.00     0.261 C 
BRANCH   6   7
ATOM      7  O   UNL A   1      46.647  28.938  25.497  1.00  0.00    -0.463 OA
BRANCH   7   8
ATOM      8  C   UNL A   1      45.777  27.905  25.474  1.00  0.00     0.313 C 
ATOM      9  O   UNL A   1      44.561  28.006  25.296  1.00  0.00    -0.252 OA
BRANCH   8  10
ATOM     10  C   UNL A   1      46.447  26.560  25.680  1.00  0.00     0.126 C 
ATOM     11  C   UNL A   1      45.634  25.463  24.993  1.00  0.00     0.025 C 
BRANCH  10  12
ATOM     12  C   UNL A   1      46.916  26.276  27.105  1.00  0.00    -0.033 A 
ATOM     13  C   UNL A   1      46.418  26.372  29.533  1.00  0.00    -0.015 A 
ATOM     14  C   UNL A   1      46.053  26.573  28.175  1.00  0.00     0.013 A 
ATOM     15  C   UNL A   1      47.727  25.924  29.848  1.00  0.00    -0.039 A 
ATOM     16  C   UNL A   1      48.566  25.571  28.775  1.00  0.00     0.004 A 
ATOM     17  C   UNL A   1      48.162  25.727  27.431  1.00  0.00     0.005 A 
BRANCH  13  18
ATOM     18  C   UNL A   1      45.388  26.621  30.550  1.00  0.00    -0.018 A 
ATOM     19  C   UNL A   1      42.389  27.327  33.574  1.00  0.00     0.044 C 
ATOM     20  C   UNL A   1      43.429  27.098  32.521  1.00  0.00    -0.051 A 
ATOM     21  C   UNL A   1      44.012  25.834  32.386  1.00  0.00     0.004 A 
ATOM     22  C   UNL A   1      43.830  28.128  31.668  1.00  0.00     0.004 A 
ATOM     23  C   UNL A   1      44.992  25.604  31.423  1.00  0.00     0.009 A 
ATOM     24  C   UNL A   1      44.799  27.889  30.691  1.00  0.00     0.009 A 
ENDBRANCH  13  18
BRANCH  15  25
ATOM     25  C   UNL A   1      48.302  26.028  31.260  1.00  0.00     0.047 C 
BRANCH  25  26
ATOM     26  C   UNL A   1      48.512  27.323  32.051  1.00  0.00     0.060 C 
ATOM     27  C   UNL A   1      47.588  27.603  33.228  1.00  0.00     0.012 C 
ATOM     28  C   UNL A   1      49.890  27.449  32.655  1.00  0.00     0.136 C 
ATOM     29  C   UNL A   1      48.402  27.200  34.434  1.00  0.00     0.009 C 
ATOM     30  C   UNL A   1      49.851  27.553  34.152  1.00  0.00     0.076 C 
ATOM     31  O   UNL A   1      50.916  27.501  31.987  1.00  0.00    -0.299 OA
ENDBRANCH  25  26
ENDBRANCH  15  25
ENDBRANCH  10  12
ENDBRANCH   8  10
ENDBRANCH   7   8
ENDBRANCH   6   7
ENDBRANCH   5   6
ENDBRANCH   4   5
ENDBRANCH   3   4
ENDBRANCH   2   3
ENDBRANCH   1   2
BRANCH   1  32
ATOM     32  C   UNL A   1      46.809  36.084  27.719  1.00  0.00     0.188 C 
BRANCH  32  33
ATOM     33  C   UNL A   1      48.218  35.661  28.096  1.00  0.00     0.188 C 
BRANCH  33  34
ATOM     34  O   UNL A   1      48.313  35.597  29.516  1.00  0.00    -0.376 OA
BRANCH  34  35
ATOM     35  C   UNL A   1      49.396  34.830  30.005  1.00  0.00     0.202 C 
BRANCH  35  36
ATOM     36  C   UNL A   1      48.934  33.520  30.644  1.00  0.00     0.261 C 
BRANCH  36  37
ATOM     37  O   UNL A   1      49.019  33.601  32.087  1.00  0.00    -0.460 OA
BRANCH  37  38
ATOM     38  C   UNL A   1      47.839  33.634  32.779  1.00  0.00     0.338 C 
ATOM     39  O   UNL A   1      47.742  34.107  33.899  1.00  0.00    -0.246 OA
BRANCH  38  40
ATOM     40  C   UNL A   1      46.685  33.142  31.965  1.00  0.00     0.060 A 
ATOM     41  C   UNL A   1      45.849  34.018  31.251  1.00  0.00     0.016 A 
ATOM     42  C   UNL A   1      46.333  31.805  32.048  1.00  0.00     0.016 A 
ATOM     43  C   UNL A   1      44.594  33.585  30.759  1.00  0.00     0.010 A 
ATOM     44  C   UNL A   1      45.054  31.424  31.675  1.00  0.00     0.010 A 
ATOM     45  C   UNL A   1      44.151  32.293  31.032  1.00  0.00    -0.014 A 
BRANCH  45  46
ATOM     46  C   UNL A   1      42.784  31.731  30.847  1.00  0.00     0.031 A 
ATOM     47  C   UNL A   1      42.582  30.805  29.671  1.00  0.00     0.074 A 
ATOM     48  C   UNL A   1      41.876  31.718  31.864  1.00  0.00     0.049 A 
ATOM     49  N   UNL A   1      41.584  30.009  29.499  1.00  0.00    -0.248 NA
ATOM     50  C   UNL A   1      43.559  30.672  28.586  1.00  0.00     0.031 C 
ATOM     51  C   UNL A   1      40.874  30.670  32.124  1.00  0.00     0.029 A 
ATOM     52  N   UNL A   1      41.668  32.551  32.950  1.00  0.00    -0.354 N 
ATOM     53  C   UNL A   1      41.898  29.093  28.514  1.00  0.00     0.074 A 
ATOM     54  C   UNL A   1      43.134  29.573  27.953  1.00  0.00     0.031 C 
ATOM     55  C   UNL A   1      40.120  30.980  33.189  1.00  0.00     0.029 A 
ATOM     56  C   UNL A   1      40.378  32.371  33.458  1.00  0.00     0.049 A 
ATOM     57  H   UNL A   1      42.332  33.179  33.314  1.00  0.00     0.167 HD
ATOM     58  C   UNL A   1      41.113  27.983  28.368  1.00  0.00     0.031 A 
ATOM     59  C   UNL A   1      39.404  33.321  33.296  1.00  0.00     0.031 A 
ATOM     60  C   UNL A   1      39.844  28.122  29.116  1.00  0.00     0.049 A 
ATOM     61  C   UNL A   1      38.325  32.847  32.316  1.00  0.00     0.074 A 
ATOM     62  C   UNL A   1      39.162  27.370  30.057  1.00  0.00     0.029 A 
ATOM     63  N   UNL A   1      39.152  29.338  29.041  1.00  0.00    -0.354 N 
ATOM     64  N   UNL A   1      38.517  31.925  31.400  1.00  0.00    -0.248 NA
ATOM     65  C   UNL A   1      36.922  33.247  32.388  1.00  0.00     0.031 C 
ATOM     66  C   UNL A   1      38.142  28.189  30.628  1.00  0.00     0.029 A 
ATOM     67  C   UNL A   1      38.145  29.415  29.978  1.00  0.00     0.049 A 
ATOM     68  H   UNL A   1      39.360  30.052  28.395  1.00  0.00     0.167 HD
ATOM     69  C   UNL A   1      37.326  31.543  30.846  1.00  0.00     0.074 A 
ATOM     70  C   UNL A   1      36.359  32.424  31.482  1.00  0.00     0.031 C 
ATOM     71  C   UNL A   1      37.189  30.520  29.945  1.00  0.00     0.031 A 
BRANCH  58  72
ATOM     72  C   UNL A   1      41.542  26.687  27.667  1.00  0.00    -0.014 A 
ATOM     73  C   UNL A   1      42.182  25.668  28.411  1.00  0.00     0.010 A 
ATOM     74  C   UNL A   1      41.429  26.424  26.283  1.00  0.00     0.010 A 
ATOM     75  C   UNL A   1      42.686  24.491  27.825  1.00  0.00     0.020 A 
ATOM     76  C   UNL A   1      41.901  25.235  25.684  1.00  0.00     0.020 A 
ATOM     77  C   UNL A   1      42.537  24.275  26.461  1.00  0.00     0.054 A 
BRANCH  77  78
ATOM     78  S   UNL A   1      43.149  22.726  25.736  1.00  0.00     0.124 S 
ATOM     79  O   UNL A   1      43.234  23.053  24.315  1.00  0.00    -0.237 OA
ATOM     80  O   UNL A   1      44.428  22.541  26.416  1.00  0.00    -0.237 OA
ATOM     81  O   UNL A   1      42.119  21.747  26.083  1.00  0.00    -0.744 OA
ENDBRANCH  77  78
ENDBRANCH  58  72
BRANCH  59  82
ATOM     82  C   UNL A   1      39.920  34.697  33.603  1.00  0.00    -0.014 A 
ATOM     83  C   UNL A   1      39.285  35.312  34.712  1.00  0.00     0.010 A 
ATOM     84  C   UNL A   1      41.283  34.982  33.379  1.00  0.00     0.010 A 
ATOM     85  C   UNL A   1      40.047  35.887  35.737  1.00  0.00     0.020 A 
ATOM     86  C   UNL A   1      42.047  35.582  34.400  1.00  0.00     0.020 A 
ATOM     87  C   UNL A   1      41.435  35.925  35.610  1.00  0.00     0.054 A 
BRANCH  87  88
ATOM     88  S   UNL A   1      42.425  36.130  37.129  1.00  0.00     0.124 S 
ATOM     89  O   UNL A   1      42.925  34.782  37.374  1.00  0.00    -0.237 OA
ATOM     90  O   UNL A   1      43.429  37.105  36.697  1.00  0.00    -0.237 OA
ATOM     91  O   UNL A   1      41.458  36.631  38.099  1.00  0.00    -0.744 OA
ENDBRANCH  87  88
ENDBRANCH  59  82
BRANCH  71  92
ATOM     92  C   UNL A   1      36.100  30.441  28.888  1.00  0.00    -0.014 A 
ATOM     93  C   UNL A   1      35.827  29.302  28.123  1.00  0.00     0.010 A 
ATOM     94  C   UNL A   1      35.167  31.509  28.784  1.00  0.00     0.010 A 
ATOM     95  C   UNL A   1      34.702  29.229  27.297  1.00  0.00     0.020 A 
ATOM     96  C   UNL A   1      34.013  31.430  28.003  1.00  0.00     0.020 A 
ATOM     97  C   UNL A   1      33.792  30.283  27.257  1.00  0.00     0.054 A 
BRANCH  97  98
ATOM     98  S   UNL A   1      32.294  30.090  26.269  1.00  0.00     0.124 S 
ATOM     99  O   UNL A   1      31.623  28.988  26.955  1.00  0.00    -0.237 OA
ATOM    100  O   UNL A   1      31.657  31.398  26.410  1.00  0.00    -0.237 OA
ATOM    101  O   UNL A   1      32.791  29.784  24.930  1.00  0.00    -0.744 OA
ENDBRANCH  97  98
ENDBRANCH  71  92
ENDBRANCH  45  46
ENDBRANCH  38  40
ENDBRANCH  37  38
ENDBRANCH  36  37
ENDBRANCH  35  36
ENDBRANCH  34  35
ENDBRANCH  33  34
ENDBRANCH  32  33
ENDBRANCH   1  32
TORSDOF 27
ENDMDL
