MODEL 1
REMARK VINA RESULT:      -7.9      0.000      0.000
REMARK SMILES CC[NH2+][C@@]1(C(=O)OCCOCCOCCOCCOC(=O)c2ccc(-c3c4nc(c(-c5ccc(S(=O)(=O)[O-])cc5)c5ccc([nH]5)c(-c5ccc(S(=O)(=O)[O-])cc5)c5nc(c(-c6ccc(S(=O)(=O)[O-])cc6)c6ccc3[nH]6)C=C5)C=C4)cc2)CC[C@@H](SCC2CCCC2)C1
REMARK SMILES IDX 13 1 12 2 11 3 10 4 9 5 8 6 7 7 5 8 6 9 4 10 82 11 92 12
REMARK SMILES IDX 83 13 84 14 3 15 2 18 1 19 85 20 86 21 87 22 88 23 91 24
REMARK SMILES IDX 89 25 90 26 14 27 15 28 16 29 17 30 18 31 19 32 20 33 21 34
REMARK SMILES IDX 22 35 23 36 81 37 24 38 80 39 25 40 26 41 27 42 74 43 28 44
REMARK SMILES IDX 79 45 73 46 75 47 29 48 78 49 72 50 71 51 30 53 60 54 41 55
REMARK SMILES IDX 59 56 42 57 45 58 58 59 76 60 43 61 44 62 57 64 77 65 46 66
REMARK SMILES IDX 31 67 32 68 40 69 33 70 39 71 34 72 35 73 36 74 37 75 38 76
REMARK SMILES IDX 61 77 62 78 70 79 63 80 69 81 64 82 65 83 66 84 67 85 68 86
REMARK SMILES IDX 47 87 48 88 56 89 49 90 55 91 50 92 51 93 52 94 53 95 54 96
REMARK H PARENT 3 16 3 17 75 52 45 63
REMARK Flexibility Score: inf
ROOT
ATOM      1  O   UNL A   1      33.332  28.356  24.185  1.00  0.00    -0.377 OA
ENDROOT
BRANCH   1   2
ATOM      2  C   UNL A   1      33.210  28.481  22.786  1.00  0.00     0.188 C 
BRANCH   2   3
ATOM      3  C   UNL A   1      33.798  27.339  21.947  1.00  0.00     0.188 C 
BRANCH   3   4
ATOM      4  O   UNL A   1      33.638  25.984  22.310  1.00  0.00    -0.376 OA
BRANCH   4   5
ATOM      5  C   UNL A   1      34.534  25.235  23.114  1.00  0.00     0.202 C 
BRANCH   5   6
ATOM      6  C   UNL A   1      34.405  24.929  24.618  1.00  0.00     0.261 C 
BRANCH   6   7
ATOM      7  O   UNL A   1      33.101  24.963  25.199  1.00  0.00    -0.459 OA
BRANCH   7   8
ATOM      8  C   UNL A   1      32.330  23.926  24.816  1.00  0.00     0.368 C 
ATOM      9  O   UNL A   1      32.789  22.837  24.464  1.00  0.00    -0.245 OA
BRANCH   8  10
ATOM     10  C   UNL A   1      30.798  24.213  24.785  1.00  0.00     0.195 C 
ATOM     11  C   UNL A   1      30.544  24.104  23.285  1.00  0.00     0.082 C 
ATOM     12  C   UNL A   1      30.191  25.605  25.116  1.00  0.00     0.095 C 
ATOM     13  C   UNL A   1      30.722  25.530  22.744  1.00  0.00     0.022 C 
ATOM     14  C   UNL A   1      30.302  26.467  23.862  1.00  0.00     0.053 C 
BRANCH  10  15
ATOM     15  N   UNL A   1      30.191  23.075  25.542  1.00  0.00    -0.332 N 
ATOM     16  H   UNL A   1      29.188  23.102  25.359  1.00  0.00     0.347 HD
ATOM     17  H   UNL A   1      30.708  22.264  25.202  1.00  0.00     0.347 HD
BRANCH  15  18
ATOM     18  C   UNL A   1      30.352  22.992  26.982  1.00  0.00     0.257 C 
ATOM     19  C   UNL A   1      29.011  22.649  27.621  1.00  0.00     0.071 C 
ENDBRANCH  15  18
ENDBRANCH  10  15
BRANCH  14  20
ATOM     20  S   UNL A   1      28.862  27.567  23.482  1.00  0.00    -0.158 SA
BRANCH  20  21
ATOM     21  C   UNL A   1      29.492  29.298  23.463  1.00  0.00     0.073 C 
BRANCH  21  22
ATOM     22  C   UNL A   1      28.549  30.343  22.842  1.00  0.00    -0.001 C 
ATOM     23  C   UNL A   1      28.765  31.748  23.381  1.00  0.00     0.004 C 
ATOM     24  C   UNL A   1      28.780  30.579  21.347  1.00  0.00     0.004 C 
ATOM     25  C   UNL A   1      28.321  32.744  22.332  1.00  0.00     0.000 C 
ATOM     26  C   UNL A   1      28.102  31.923  21.079  1.00  0.00     0.000 C 
ENDBRANCH  21  22
ENDBRANCH  20  21
ENDBRANCH  14  20
ENDBRANCH   8  10
ENDBRANCH   7   8
ENDBRANCH   6   7
ENDBRANCH   5   6
ENDBRANCH   4   5
ENDBRANCH   3   4
ENDBRANCH   2   3
ENDBRANCH   1   2
BRANCH   1  27
ATOM     27  C   UNL A   1      32.841  29.403  25.011  1.00  0.00     0.188 C 
BRANCH  27  28
ATOM     28  C   UNL A   1      32.020  29.057  26.269  1.00  0.00     0.188 C 
BRANCH  28  29
ATOM     29  O   UNL A   1      32.007  30.065  27.268  1.00  0.00    -0.376 OA
BRANCH  29  30
ATOM     30  C   UNL A   1      32.744  31.261  27.065  1.00  0.00     0.202 C 
BRANCH  30  31
ATOM     31  C   UNL A   1      33.876  31.612  28.045  1.00  0.00     0.261 C 
BRANCH  31  32
ATOM     32  O   UNL A   1      35.212  31.277  27.640  1.00  0.00    -0.460 OA
BRANCH  32  33
ATOM     33  C   UNL A   1      35.622  30.005  27.804  1.00  0.00     0.338 C 
ATOM     34  O   UNL A   1      35.272  29.030  27.152  1.00  0.00    -0.246 OA
BRANCH  33  35
ATOM     35  C   UNL A   1      36.740  30.000  28.767  1.00  0.00     0.060 A 
ATOM     36  C   UNL A   1      37.906  30.707  28.447  1.00  0.00     0.016 A 
ATOM     37  C   UNL A   1      36.652  29.282  29.962  1.00  0.00     0.016 A 
ATOM     38  C   UNL A   1      39.013  30.642  29.286  1.00  0.00     0.010 A 
ATOM     39  C   UNL A   1      37.773  29.195  30.791  1.00  0.00     0.010 A 
ATOM     40  C   UNL A   1      38.974  29.831  30.427  1.00  0.00    -0.014 A 
BRANCH  40  41
ATOM     41  C   UNL A   1      40.254  29.457  31.073  1.00  0.00     0.031 A 
ATOM     42  C   UNL A   1      41.075  28.364  30.437  1.00  0.00     0.074 A 
ATOM     43  C   UNL A   1      40.719  30.119  32.147  1.00  0.00     0.049 A 
ATOM     44  N   UNL A   1      42.237  27.885  30.795  1.00  0.00    -0.248 NA
ATOM     45  C   UNL A   1      40.508  27.730  29.235  1.00  0.00     0.031 C 
ATOM     46  C   UNL A   1      40.043  31.230  32.816  1.00  0.00     0.029 A 
ATOM     47  N   UNL A   1      41.880  29.953  32.858  1.00  0.00    -0.354 N 
ATOM     48  C   UNL A   1      42.535  26.890  29.869  1.00  0.00     0.074 A 
ATOM     49  C   UNL A   1      41.417  26.809  28.957  1.00  0.00     0.031 C 
ATOM     50  C   UNL A   1      40.805  31.647  33.843  1.00  0.00     0.029 A 
ATOM     51  C   UNL A   1      42.005  30.812  33.921  1.00  0.00     0.049 A 
ATOM     52  H   UNL A   1      42.561  29.279  32.627  1.00  0.00     0.167 HD
ATOM     53  C   UNL A   1      43.643  26.119  29.779  1.00  0.00     0.031 A 
ATOM     54  C   UNL A   1      42.968  30.905  34.860  1.00  0.00     0.031 A 
ATOM     55  C   UNL A   1      44.749  26.193  30.697  1.00  0.00     0.049 A 
ATOM     56  C   UNL A   1      44.158  29.982  34.784  1.00  0.00     0.074 A 
ATOM     57  C   UNL A   1      45.924  25.462  30.689  1.00  0.00     0.029 A 
ATOM     58  N   UNL A   1      44.812  27.042  31.792  1.00  0.00    -0.354 N 
ATOM     59  N   UNL A   1      44.437  29.063  33.890  1.00  0.00    -0.248 NA
ATOM     60  C   UNL A   1      45.172  30.122  35.840  1.00  0.00     0.031 C 
ATOM     61  C   UNL A   1      46.667  25.822  31.817  1.00  0.00     0.029 A 
ATOM     62  C   UNL A   1      45.992  26.831  32.485  1.00  0.00     0.049 A 
ATOM     63  H   UNL A   1      44.120  27.697  32.040  1.00  0.00     0.167 HD
ATOM     64  C   UNL A   1      45.672  28.536  34.259  1.00  0.00     0.074 A 
ATOM     65  C   UNL A   1      46.093  29.254  35.443  1.00  0.00     0.031 C 
ATOM     66  C   UNL A   1      46.394  27.549  33.669  1.00  0.00     0.031 A 
BRANCH  53  67
ATOM     67  C   UNL A   1      43.693  25.096  28.672  1.00  0.00    -0.014 A 
ATOM     68  C   UNL A   1      44.261  25.396  27.420  1.00  0.00     0.010 A 
ATOM     69  C   UNL A   1      43.188  23.803  28.901  1.00  0.00     0.010 A 
ATOM     70  C   UNL A   1      44.288  24.434  26.407  1.00  0.00     0.020 A 
ATOM     71  C   UNL A   1      43.243  22.829  27.902  1.00  0.00     0.020 A 
ATOM     72  C   UNL A   1      43.778  23.156  26.655  1.00  0.00     0.054 A 
BRANCH  72  73
ATOM     73  S   UNL A   1      43.851  21.919  25.331  1.00  0.00     0.124 S 
ATOM     74  O   UNL A   1      45.212  21.407  25.469  1.00  0.00    -0.237 OA
ATOM     75  O   UNL A   1      42.789  20.988  25.706  1.00  0.00    -0.237 OA
ATOM     76  O   UNL A   1      43.597  22.691  24.117  1.00  0.00    -0.744 OA
ENDBRANCH  72  73
ENDBRANCH  53  67
BRANCH  54  77
ATOM     77  C   UNL A   1      42.843  31.900  35.962  1.00  0.00    -0.014 A 
ATOM     78  C   UNL A   1      43.508  33.138  35.899  1.00  0.00     0.010 A 
ATOM     79  C   UNL A   1      42.059  31.606  37.093  1.00  0.00     0.010 A 
ATOM     80  C   UNL A   1      43.406  34.051  36.952  1.00  0.00     0.020 A 
ATOM     81  C   UNL A   1      41.928  32.529  38.132  1.00  0.00     0.020 A 
ATOM     82  C   UNL A   1      42.613  33.744  38.061  1.00  0.00     0.054 A 
BRANCH  82  83
ATOM     83  S   UNL A   1      42.454  34.967  39.390  1.00  0.00     0.124 S 
ATOM     84  O   UNL A   1      43.539  35.894  39.083  1.00  0.00    -0.237 OA
ATOM     85  O   UNL A   1      41.103  35.483  39.182  1.00  0.00    -0.237 OA
ATOM     86  O   UNL A   1      42.630  34.177  40.607  1.00  0.00    -0.744 OA
ENDBRANCH  82  83
ENDBRANCH  54  77
BRANCH  66  87
ATOM     87  C   UNL A   1      47.736  27.215  34.273  1.00  0.00    -0.014 A 
ATOM     88  C   UNL A   1      47.872  26.219  35.257  1.00  0.00     0.010 A 
ATOM     89  C   UNL A   1      48.886  27.887  33.818  1.00  0.00     0.010 A 
ATOM     90  C   UNL A   1      49.125  25.939  35.811  1.00  0.00     0.020 A 
ATOM     91  C   UNL A   1      50.144  27.584  34.343  1.00  0.00     0.020 A 
ATOM     92  C   UNL A   1      50.252  26.627  35.353  1.00  0.00     0.054 A 
BRANCH  92  93
ATOM     93  S   UNL A   1      51.869  26.233  36.075  1.00  0.00     0.124 S 
ATOM     94  O   UNL A   1      51.994  27.253  37.112  1.00  0.00    -0.237 OA
ATOM     95  O   UNL A   1      51.679  24.867  36.557  1.00  0.00    -0.237 OA
ATOM     96  O   UNL A   1      52.793  26.369  34.953  1.00  0.00    -0.744 OA
ENDBRANCH  92  93
ENDBRANCH  66  87
ENDBRANCH  40  41
ENDBRANCH  33  35
ENDBRANCH  32  33
ENDBRANCH  31  32
ENDBRANCH  30  31
ENDBRANCH  29  30
ENDBRANCH  28  29
ENDBRANCH  27  28
ENDBRANCH   1  27
TORSDOF 28
ENDMDL
MODEL 2
REMARK VINA RESULT:      -7.5      7.065      9.941
REMARK SMILES CC[NH2+][C@@]1(C(=O)OCCOCCOCCOCCOC(=O)c2ccc(-c3c4nc(c(-c5ccc(S(=O)(=O)[O-])cc5)c5ccc([nH]5)c(-c5ccc(S(=O)(=O)[O-])cc5)c5nc(c(-c6ccc(S(=O)(=O)[O-])cc6)c6ccc3[nH]6)C=C5)C=C4)cc2)CC[C@@H](SCC2CCCC2)C1
REMARK SMILES IDX 13 1 12 2 11 3 10 4 9 5 8 6 7 7 5 8 6 9 4 10 82 11 92 12
REMARK SMILES IDX 83 13 84 14 3 15 2 18 1 19 85 20 86 21 87 22 88 23 91 24
REMARK SMILES IDX 89 25 90 26 14 27 15 28 16 29 17 30 18 31 19 32 20 33 21 34
REMARK SMILES IDX 22 35 23 36 81 37 24 38 80 39 25 40 26 41 27 42 74 43 28 44
REMARK SMILES IDX 79 45 73 46 75 47 29 48 78 49 72 50 71 51 30 53 60 54 41 55
REMARK SMILES IDX 59 56 42 57 45 58 58 59 76 60 43 61 44 62 57 64 77 65 46 66
REMARK SMILES IDX 31 67 32 68 40 69 33 70 39 71 34 72 35 73 36 74 37 75 38 76
REMARK SMILES IDX 61 77 62 78 70 79 63 80 69 81 64 82 65 83 66 84 67 85 68 86
REMARK SMILES IDX 47 87 48 88 56 89 49 90 55 91 50 92 51 93 52 94 53 95 54 96
REMARK H PARENT 3 16 3 17 75 52 45 63
REMARK Flexibility Score: inf
ROOT
ATOM      1  O   UNL A   1      35.015  36.364  33.207  1.00  0.00    -0.377 OA
ENDROOT
BRANCH   1   2
ATOM      2  C   UNL A   1      33.660  36.742  33.114  1.00  0.00     0.188 C 
BRANCH   2   3
ATOM      3  C   UNL A   1      33.291  37.669  31.949  1.00  0.00     0.188 C 
BRANCH   3   4
ATOM      4  O   UNL A   1      32.688  37.185  30.768  1.00  0.00    -0.376 OA
BRANCH   4   5
ATOM      5  C   UNL A   1      33.355  36.494  29.725  1.00  0.00     0.202 C 
BRANCH   5   6
ATOM      6  C   UNL A   1      33.166  35.023  29.310  1.00  0.00     0.261 C 
BRANCH   6   7
ATOM      7  O   UNL A   1      34.306  34.312  28.827  1.00  0.00    -0.459 OA
BRANCH   7   8
ATOM      8  C   UNL A   1      34.719  33.347  29.672  1.00  0.00     0.368 C 
ATOM      9  O   UNL A   1      34.048  32.955  30.629  1.00  0.00    -0.245 OA
BRANCH   8  10
ATOM     10  C   UNL A   1      36.148  32.789  29.397  1.00  0.00     0.195 C 
ATOM     11  C   UNL A   1      36.028  32.488  27.907  1.00  0.00     0.082 C 
ATOM     12  C   UNL A   1      36.650  31.432  29.963  1.00  0.00     0.095 C 
ATOM     13  C   UNL A   1      35.551  31.030  27.830  1.00  0.00     0.022 C 
ATOM     14  C   UNL A   1      36.125  30.328  29.048  1.00  0.00     0.053 C 
BRANCH  10  15
ATOM     15  N   UNL A   1      37.057  33.946  29.664  1.00  0.00    -0.332 N 
ATOM     16  H   UNL A   1      36.710  34.728  29.109  1.00  0.00     0.347 HD
ATOM     17  H   UNL A   1      37.025  34.041  30.679  1.00  0.00     0.347 HD
BRANCH  15  18
ATOM     18  C   UNL A   1      38.477  33.834  29.387  1.00  0.00     0.257 C 
ATOM     19  C   UNL A   1      39.193  35.073  29.913  1.00  0.00     0.071 C 
ENDBRANCH  15  18
ENDBRANCH  10  15
BRANCH  14  20
ATOM     20  S   UNL A   1      37.282  28.928  28.689  1.00  0.00    -0.158 SA
BRANCH  20  21
ATOM     21  C   UNL A   1      38.777  29.651  27.892  1.00  0.00     0.073 C 
BRANCH  21  22
ATOM     22  C   UNL A   1      40.058  28.806  27.989  1.00  0.00    -0.001 C 
ATOM     23  C   UNL A   1      39.798  27.354  28.361  1.00  0.00     0.004 C 
ATOM     24  C   UNL A   1      40.786  28.624  26.655  1.00  0.00     0.004 C 
ATOM     25  C   UNL A   1      40.925  26.504  27.817  1.00  0.00     0.000 C 
ATOM     26  C   UNL A   1      41.698  27.421  26.895  1.00  0.00     0.000 C 
ENDBRANCH  21  22
ENDBRANCH  20  21
ENDBRANCH  14  20
ENDBRANCH   8  10
ENDBRANCH   7   8
ENDBRANCH   6   7
ENDBRANCH   5   6
ENDBRANCH   4   5
ENDBRANCH   3   4
ENDBRANCH   2   3
ENDBRANCH   1   2
BRANCH   1  27
ATOM     27  C   UNL A   1      35.453  35.207  32.508  1.00  0.00     0.188 C 
BRANCH  27  28
ATOM     28  C   UNL A   1      36.174  34.081  33.274  1.00  0.00     0.188 C 
BRANCH  28  29
ATOM     29  O   UNL A   1      37.438  34.440  33.811  1.00  0.00    -0.376 OA
BRANCH  29  30
ATOM     30  C   UNL A   1      38.357  33.422  34.175  1.00  0.00     0.202 C 
BRANCH  30  31
ATOM     31  C   UNL A   1      37.821  32.020  34.510  1.00  0.00     0.261 C 
BRANCH  31  32
ATOM     32  O   UNL A   1      38.726  30.920  34.332  1.00  0.00    -0.460 OA
BRANCH  32  33
ATOM     33  C   UNL A   1      38.746  30.307  33.133  1.00  0.00     0.338 C 
ATOM     34  O   UNL A   1      37.817  29.727  32.589  1.00  0.00    -0.246 OA
BRANCH  33  35
ATOM     35  C   UNL A   1      40.022  30.636  32.468  1.00  0.00     0.060 A 
ATOM     36  C   UNL A   1      41.205  30.575  33.216  1.00  0.00     0.016 A 
ATOM     37  C   UNL A   1      40.050  31.030  31.128  1.00  0.00     0.016 A 
ATOM     38  C   UNL A   1      42.410  30.974  32.648  1.00  0.00     0.010 A 
ATOM     39  C   UNL A   1      41.257  31.455  30.566  1.00  0.00     0.010 A 
ATOM     40  C   UNL A   1      42.429  31.479  31.342  1.00  0.00    -0.014 A 
BRANCH  40  41
ATOM     41  C   UNL A   1      43.611  32.259  30.903  1.00  0.00     0.031 A 
ATOM     42  C   UNL A   1      44.738  31.517  30.230  1.00  0.00     0.074 A 
ATOM     43  C   UNL A   1      43.653  33.598  31.021  1.00  0.00     0.049 A 
ATOM     44  N   UNL A   1      45.854  31.980  29.733  1.00  0.00    -0.248 NA
ATOM     45  C   UNL A   1      44.581  30.058  30.101  1.00  0.00     0.031 C 
ATOM     46  C   UNL A   1      42.600  34.431  31.601  1.00  0.00     0.029 A 
ATOM     47  N   UNL A   1      44.624  34.492  30.647  1.00  0.00    -0.354 N 
ATOM     48  C   UNL A   1      46.535  30.871  29.241  1.00  0.00     0.074 A 
ATOM     49  C   UNL A   1      45.724  29.710  29.531  1.00  0.00     0.031 C 
ATOM     50  C   UNL A   1      42.985  35.719  31.543  1.00  0.00     0.029 A 
ATOM     51  C   UNL A   1      44.321  35.796  30.952  1.00  0.00     0.049 A 
ATOM     52  H   UNL A   1      45.460  34.222  30.202  1.00  0.00     0.167 HD
ATOM     53  C   UNL A   1      47.723  30.822  28.595  1.00  0.00     0.031 A 
ATOM     54  C   UNL A   1      45.045  36.921  30.787  1.00  0.00     0.031 A 
ATOM     55  C   UNL A   1      48.535  31.978  28.319  1.00  0.00     0.049 A 
ATOM     56  C   UNL A   1      46.402  36.832  30.135  1.00  0.00     0.074 A 
ATOM     57  C   UNL A   1      49.750  32.037  27.662  1.00  0.00     0.029 A 
ATOM     58  N   UNL A   1      48.215  33.275  28.691  1.00  0.00    -0.354 N 
ATOM     59  N   UNL A   1      47.021  35.780  29.653  1.00  0.00    -0.248 NA
ATOM     60  C   UNL A   1      47.150  38.089  29.991  1.00  0.00     0.031 C 
ATOM     61  C   UNL A   1      50.199  33.361  27.697  1.00  0.00     0.029 A 
ATOM     62  C   UNL A   1      49.227  34.139  28.306  1.00  0.00     0.049 A 
ATOM     63  H   UNL A   1      47.392  33.542  29.160  1.00  0.00     0.167 HD
ATOM     64  C   UNL A   1      48.219  36.253  29.124  1.00  0.00     0.074 A 
ATOM     65  C   UNL A   1      48.224  37.687  29.325  1.00  0.00     0.031 C 
ATOM     66  C   UNL A   1      49.221  35.565  28.521  1.00  0.00     0.031 A 
BRANCH  53  67
ATOM     67  C   UNL A   1      48.237  29.465  28.184  1.00  0.00    -0.014 A 
ATOM     68  C   UNL A   1      47.789  28.835  27.008  1.00  0.00     0.010 A 
ATOM     69  C   UNL A   1      49.209  28.824  28.973  1.00  0.00     0.010 A 
ATOM     70  C   UNL A   1      48.274  27.574  26.651  1.00  0.00     0.020 A 
ATOM     71  C   UNL A   1      49.721  27.579  28.603  1.00  0.00     0.020 A 
ATOM     72  C   UNL A   1      49.237  26.954  27.453  1.00  0.00     0.054 A 
BRANCH  72  73
ATOM     73  S   UNL A   1      49.870  25.329  26.952  1.00  0.00     0.124 S 
ATOM     74  O   UNL A   1      50.085  25.518  25.519  1.00  0.00    -0.237 OA
ATOM     75  O   UNL A   1      51.082  25.197  27.757  1.00  0.00    -0.237 OA
ATOM     76  O   UNL A   1      48.789  24.411  27.303  1.00  0.00    -0.744 OA
ENDBRANCH  72  73
ENDBRANCH  53  67
BRANCH  54  77
ATOM     77  C   UNL A   1      44.509  38.229  31.259  1.00  0.00    -0.014 A 
ATOM     78  C   UNL A   1      44.605  38.605  32.610  1.00  0.00     0.010 A 
ATOM     79  C   UNL A   1      43.887  39.106  30.350  1.00  0.00     0.010 A 
ATOM     80  C   UNL A   1      44.073  39.822  33.046  1.00  0.00     0.020 A 
ATOM     81  C   UNL A   1      43.385  40.337  30.775  1.00  0.00     0.020 A 
ATOM     82  C   UNL A   1      43.471  40.684  32.125  1.00  0.00     0.054 A 
BRANCH  82  83
ATOM     83  S   UNL A   1      42.836  42.281  32.705  1.00  0.00     0.124 S 
ATOM     84  O   UNL A   1      44.028  42.890  33.287  1.00  0.00    -0.237 OA
ATOM     85  O   UNL A   1      42.351  42.893  31.471  1.00  0.00    -0.237 OA
ATOM     86  O   UNL A   1      41.793  41.910  33.658  1.00  0.00    -0.744 OA
ENDBRANCH  82  83
ENDBRANCH  54  77
BRANCH  66  87
ATOM     87  C   UNL A   1      50.393  36.359  27.999  1.00  0.00    -0.014 A 
ATOM     88  C   UNL A   1      51.464  36.725  28.834  1.00  0.00     0.010 A 
ATOM     89  C   UNL A   1      50.437  36.712  26.637  1.00  0.00     0.010 A 
ATOM     90  C   UNL A   1      52.530  37.475  28.328  1.00  0.00     0.020 A 
ATOM     91  C   UNL A   1      51.519  37.428  26.120  1.00  0.00     0.020 A 
ATOM     92  C   UNL A   1      52.549  37.824  26.974  1.00  0.00     0.054 A 
BRANCH  92  93
ATOM     93  S   UNL A   1      53.952  38.782  26.339  1.00  0.00     0.124 S 
ATOM     94  O   UNL A   1      53.433  39.271  25.065  1.00  0.00    -0.237 OA
ATOM     95  O   UNL A   1      54.140  39.797  27.372  1.00  0.00    -0.237 OA
ATOM     96  O   UNL A   1      55.027  37.798  26.237  1.00  0.00    -0.744 OA
ENDBRANCH  92  93
ENDBRANCH  66  87
ENDBRANCH  40  41
ENDBRANCH  33  35
ENDBRANCH  32  33
ENDBRANCH  31  32
ENDBRANCH  30  31
ENDBRANCH  29  30
ENDBRANCH  28  29
ENDBRANCH  27  28
ENDBRANCH   1  27
TORSDOF 28
ENDMDL
MODEL 3
REMARK VINA RESULT:      -7.2      5.521      9.501
REMARK SMILES CC[NH2+][C@@]1(C(=O)OCCOCCOCCOCCOC(=O)c2ccc(-c3c4nc(c(-c5ccc(S(=O)(=O)[O-])cc5)c5ccc([nH]5)c(-c5ccc(S(=O)(=O)[O-])cc5)c5nc(c(-c6ccc(S(=O)(=O)[O-])cc6)c6ccc3[nH]6)C=C5)C=C4)cc2)CC[C@@H](SCC2CCCC2)C1
REMARK SMILES IDX 13 1 12 2 11 3 10 4 9 5 8 6 7 7 5 8 6 9 4 10 82 11 92 12
REMARK SMILES IDX 83 13 84 14 3 15 2 18 1 19 85 20 86 21 87 22 88 23 91 24
REMARK SMILES IDX 89 25 90 26 14 27 15 28 16 29 17 30 18 31 19 32 20 33 21 34
REMARK SMILES IDX 22 35 23 36 81 37 24 38 80 39 25 40 26 41 27 42 74 43 28 44
REMARK SMILES IDX 79 45 73 46 75 47 29 48 78 49 72 50 71 51 30 53 60 54 41 55
REMARK SMILES IDX 59 56 42 57 45 58 58 59 76 60 43 61 44 62 57 64 77 65 46 66
REMARK SMILES IDX 31 67 32 68 40 69 33 70 39 71 34 72 35 73 36 74 37 75 38 76
REMARK SMILES IDX 61 77 62 78 70 79 63 80 69 81 64 82 65 83 66 84 67 85 68 86
REMARK SMILES IDX 47 87 48 88 56 89 49 90 55 91 50 92 51 93 52 94 53 95 54 96
REMARK H PARENT 3 16 3 17 75 52 45 63
REMARK Flexibility Score: inf
ROOT
ATOM      1  O   UNL A   1      33.886  26.047  24.921  1.00  0.00    -0.377 OA
ENDROOT
BRANCH   1   2
ATOM      2  C   UNL A   1      34.209  24.808  25.510  1.00  0.00     0.188 C 
BRANCH   2   3
ATOM      3  C   UNL A   1      35.556  24.194  25.109  1.00  0.00     0.188 C 
BRANCH   3   4
ATOM      4  O   UNL A   1      36.421  23.601  26.054  1.00  0.00    -0.376 OA
BRANCH   4   5
ATOM      5  C   UNL A   1      37.810  23.381  25.876  1.00  0.00     0.202 C 
BRANCH   5   6
ATOM      6  C   UNL A   1      38.575  22.056  26.054  1.00  0.00     0.261 C 
BRANCH   6   7
ATOM      7  O   UNL A   1      39.971  22.043  25.755  1.00  0.00    -0.459 OA
BRANCH   7   8
ATOM      8  C   UNL A   1      40.743  22.088  26.858  1.00  0.00     0.368 C 
ATOM      9  O   UNL A   1      40.546  21.382  27.850  1.00  0.00    -0.245 OA
BRANCH   8  10
ATOM     10  C   UNL A   1      41.885  23.149  26.828  1.00  0.00     0.195 C 
ATOM     11  C   UNL A   1      41.897  23.558  28.298  1.00  0.00     0.082 C 
ATOM     12  C   UNL A   1      41.746  24.520  26.111  1.00  0.00     0.095 C 
ATOM     13  C   UNL A   1      40.929  24.746  28.391  1.00  0.00     0.022 C 
ATOM     14  C   UNL A   1      40.998  25.460  27.053  1.00  0.00     0.053 C 
BRANCH  10  15
ATOM     15  N   UNL A   1      43.106  22.372  26.451  1.00  0.00    -0.332 N 
ATOM     16  H   UNL A   1      43.803  23.050  26.144  1.00  0.00     0.347 HD
ATOM     17  H   UNL A   1      43.313  21.836  27.294  1.00  0.00     0.347 HD
BRANCH  15  18
ATOM     18  C   UNL A   1      43.030  21.353  25.421  1.00  0.00     0.257 C 
ATOM     19  C   UNL A   1      43.899  20.166  25.820  1.00  0.00     0.071 C 
ENDBRANCH  15  18
ENDBRANCH  10  15
BRANCH  14  20
ATOM     20  S   UNL A   1      41.589  27.214  27.116  1.00  0.00    -0.158 SA
BRANCH  20  21
ATOM     21  C   UNL A   1      40.774  28.009  28.564  1.00  0.00     0.073 C 
BRANCH  21  22
ATOM     22  C   UNL A   1      41.667  28.940  29.401  1.00  0.00    -0.001 C 
ATOM     23  C   UNL A   1      42.837  28.226  30.060  1.00  0.00     0.004 C 
ATOM     24  C   UNL A   1      42.413  29.994  28.578  1.00  0.00     0.004 C 
ATOM     25  C   UNL A   1      43.953  29.224  30.280  1.00  0.00     0.000 C 
ATOM     26  C   UNL A   1      43.539  30.455  29.503  1.00  0.00     0.000 C 
ENDBRANCH  21  22
ENDBRANCH  20  21
ENDBRANCH  14  20
ENDBRANCH   8  10
ENDBRANCH   7   8
ENDBRANCH   6   7
ENDBRANCH   5   6
ENDBRANCH   4   5
ENDBRANCH   3   4
ENDBRANCH   2   3
ENDBRANCH   1   2
BRANCH   1  27
ATOM     27  C   UNL A   1      33.315  27.064  25.733  1.00  0.00     0.188 C 
BRANCH  27  28
ATOM     28  C   UNL A   1      32.475  28.178  25.080  1.00  0.00     0.188 C 
BRANCH  28  29
ATOM     29  O   UNL A   1      32.095  29.229  25.954  1.00  0.00    -0.376 OA
BRANCH  29  30
ATOM     30  C   UNL A   1      32.816  29.430  27.160  1.00  0.00     0.202 C 
BRANCH  30  31
ATOM     31  C   UNL A   1      33.921  30.499  27.198  1.00  0.00     0.261 C 
BRANCH  31  32
ATOM     32  O   UNL A   1      34.460  30.829  28.486  1.00  0.00    -0.460 OA
BRANCH  32  33
ATOM     33  C   UNL A   1      34.505  32.129  28.838  1.00  0.00     0.338 C 
ATOM     34  O   UNL A   1      33.553  32.850  29.105  1.00  0.00    -0.246 OA
BRANCH  33  35
ATOM     35  C   UNL A   1      35.916  32.497  29.067  1.00  0.00     0.060 A 
ATOM     36  C   UNL A   1      36.918  31.711  28.484  1.00  0.00     0.016 A 
ATOM     37  C   UNL A   1      36.248  33.589  29.872  1.00  0.00     0.016 A 
ATOM     38  C   UNL A   1      38.256  31.971  28.761  1.00  0.00     0.010 A 
ATOM     39  C   UNL A   1      37.591  33.833  30.170  1.00  0.00     0.010 A 
ATOM     40  C   UNL A   1      38.595  32.991  29.659  1.00  0.00    -0.014 A 
BRANCH  40  41
ATOM     41  C   UNL A   1      39.956  32.994  30.245  1.00  0.00     0.031 A 
ATOM     42  C   UNL A   1      40.888  34.116  29.864  1.00  0.00     0.074 A 
ATOM     43  C   UNL A   1      40.333  32.076  31.152  1.00  0.00     0.049 A 
ATOM     44  N   UNL A   1      42.108  34.354  30.266  1.00  0.00    -0.248 NA
ATOM     45  C   UNL A   1      40.370  35.103  28.900  1.00  0.00     0.031 C 
ATOM     46  C   UNL A   1      39.501  30.978  31.643  1.00  0.00     0.029 A 
ATOM     47  N   UNL A   1      41.517  31.932  31.830  1.00  0.00    -0.354 N 
ATOM     48  C   UNL A   1      42.506  35.509  29.601  1.00  0.00     0.074 A 
ATOM     49  C   UNL A   1      41.412  35.903  28.742  1.00  0.00     0.031 C 
ATOM     50  C   UNL A   1      40.204  30.271  32.546  1.00  0.00     0.029 A 
ATOM     51  C   UNL A   1      41.543  30.848  32.672  1.00  0.00     0.049 A 
ATOM     52  H   UNL A   1      42.278  32.548  31.721  1.00  0.00     0.167 HD
ATOM     53  C   UNL A   1      43.672  36.188  29.701  1.00  0.00     0.031 A 
ATOM     54  C   UNL A   1      42.537  30.367  33.445  1.00  0.00     0.031 A 
ATOM     55  C   UNL A   1      44.765  35.785  30.547  1.00  0.00     0.049 A 
ATOM     56  C   UNL A   1      43.856  31.097  33.482  1.00  0.00     0.074 A 
ATOM     57  C   UNL A   1      45.986  36.408  30.730  1.00  0.00     0.029 A 
ATOM     58  N   UNL A   1      44.769  34.651  31.346  1.00  0.00    -0.354 N 
ATOM     59  N   UNL A   1      44.210  32.201  32.866  1.00  0.00    -0.248 NA
ATOM     60  C   UNL A   1      44.907  30.521  34.334  1.00  0.00     0.031 C 
ATOM     61  C   UNL A   1      46.755  35.615  31.586  1.00  0.00     0.029 A 
ATOM     62  C   UNL A   1      45.985  34.539  31.999  1.00  0.00     0.049 A 
ATOM     63  H   UNL A   1      44.020  34.019  31.435  1.00  0.00     0.167 HD
ATOM     64  C   UNL A   1      45.513  32.466  33.278  1.00  0.00     0.074 A 
ATOM     65  C   UNL A   1      45.874  31.421  34.212  1.00  0.00     0.031 C 
ATOM     66  C   UNL A   1      46.334  33.486  32.920  1.00  0.00     0.031 A 
BRANCH  53  67
ATOM     67  C   UNL A   1      43.842  37.413  28.840  1.00  0.00    -0.014 A 
ATOM     68  C   UNL A   1      44.330  37.324  27.522  1.00  0.00     0.010 A 
ATOM     69  C   UNL A   1      43.480  38.673  29.349  1.00  0.00     0.010 A 
ATOM     70  C   UNL A   1      44.486  38.474  26.746  1.00  0.00     0.020 A 
ATOM     71  C   UNL A   1      43.604  39.822  28.565  1.00  0.00     0.020 A 
ATOM     72  C   UNL A   1      44.122  39.717  27.273  1.00  0.00     0.054 A 
BRANCH  72  73
ATOM     73  S   UNL A   1      44.310  41.191  26.233  1.00  0.00     0.124 S 
ATOM     74  O   UNL A   1      44.789  42.181  27.196  1.00  0.00    -0.237 OA
ATOM     75  O   UNL A   1      45.289  40.757  25.239  1.00  0.00    -0.237 OA
ATOM     76  O   UNL A   1      42.964  41.427  25.716  1.00  0.00    -0.744 OA
ENDBRANCH  72  73
ENDBRANCH  53  67
BRANCH  54  77
ATOM     77  C   UNL A   1      42.331  29.122  34.237  1.00  0.00    -0.014 A 
ATOM     78  C   UNL A   1      42.673  27.864  33.711  1.00  0.00     0.010 A 
ATOM     79  C   UNL A   1      41.778  29.193  35.530  1.00  0.00     0.010 A 
ATOM     80  C   UNL A   1      42.449  26.701  34.454  1.00  0.00     0.020 A 
ATOM     81  C   UNL A   1      41.583  28.036  36.288  1.00  0.00     0.020 A 
ATOM     82  C   UNL A   1      41.909  26.794  35.740  1.00  0.00     0.054 A 
BRANCH  82  83
ATOM     83  S   UNL A   1      41.677  25.275  36.704  1.00  0.00     0.124 S 
ATOM     84  O   UNL A   1      40.481  25.586  37.479  1.00  0.00    -0.237 OA
ATOM     85  O   UNL A   1      41.513  24.265  35.662  1.00  0.00    -0.237 OA
ATOM     86  O   UNL A   1      42.913  25.167  37.476  1.00  0.00    -0.744 OA
ENDBRANCH  82  83
ENDBRANCH  54  77
BRANCH  66  87
ATOM     87  C   UNL A   1      47.694  33.543  33.572  1.00  0.00    -0.014 A 
ATOM     88  C   UNL A   1      48.816  32.933  32.985  1.00  0.00     0.010 A 
ATOM     89  C   UNL A   1      47.854  34.255  34.776  1.00  0.00     0.010 A 
ATOM     90  C   UNL A   1      50.062  32.987  33.618  1.00  0.00     0.020 A 
ATOM     91  C   UNL A   1      49.105  34.343  35.392  1.00  0.00     0.020 A 
ATOM     92  C   UNL A   1      50.197  33.690  34.819  1.00  0.00     0.054 A 
BRANCH  92  93
ATOM     93  S   UNL A   1      51.828  33.761  35.611  1.00  0.00     0.124 S 
ATOM     94  O   UNL A   1      52.386  32.455  35.273  1.00  0.00    -0.237 OA
ATOM     95  O   UNL A   1      52.455  34.903  34.949  1.00  0.00    -0.237 OA
ATOM     96  O   UNL A   1      51.519  33.960  37.024  1.00  0.00    -0.744 OA
ENDBRANCH  92  93
ENDBRANCH  66  87
ENDBRANCH  40  41
ENDBRANCH  33  35
ENDBRANCH  32  33
ENDBRANCH  31  32
ENDBRANCH  30  31
ENDBRANCH  29  30
ENDBRANCH  28  29
ENDBRANCH  27  28
ENDBRANCH   1  27
TORSDOF 28
ENDMDL
