MODEL 1
REMARK VINA RESULT:      -8.0      0.000      0.000
REMARK SMILES O=C(COc1ccc(Cl)c2ccccc12)N[C@@H](Cc1c[nH]c2ccccc12)C(=O)OCCOCCOCCOCCOC(=O)c1ccc(-c2c3nc(c(-c4ccc(S(=O)(=O)[O-])cc4)c4ccc([nH]4)c(-c4ccc(S(=O)(=O)[O-])cc4)c4nc(c(-c5ccc(S(=O)(=O)[O-])cc5)c5ccc2[nH]5)C=C4)C=C3)cc1
REMARK SMILES IDX 35 1 34 2 33 3 32 4 31 5 30 6 28 7 29 8 17 9 16 10 1 11 2 12
REMARK SMILES IDX 3 14 4 15 5 16 6 17 15 18 7 19 10 20 14 21 8 22 11 23 13 24
REMARK SMILES IDX 9 25 12 26 18 27 19 28 20 29 27 30 21 31 22 32 26 33 23 35
REMARK SMILES IDX 25 36 24 37 36 38 37 39 38 40 39 41 40 42 41 43 42 44 43 45
REMARK SMILES IDX 44 46 45 47 46 48 104 49 47 50 103 51 48 52 49 53 50 54
REMARK SMILES IDX 97 55 51 56 102 57 96 58 98 59 52 60 101 61 95 62 94 63
REMARK SMILES IDX 53 65 83 66 64 67 82 68 65 69 68 70 81 71 99 72 66 73 67 74
REMARK SMILES IDX 80 76 100 77 69 78 54 79 55 80 63 81 56 82 62 83 57 84 58 85
REMARK SMILES IDX 59 86 60 87 61 88 84 89 85 90 93 91 86 92 92 93 87 94 88 95
REMARK SMILES IDX 89 96 90 97 91 98 70 99 71 100 79 101 72 102 78 103 73 104
REMARK SMILES IDX 74 105 75 106 76 107 77 108
REMARK H PARENT 16 13 21 34 98 64 68 75
REMARK Flexibility Score: inf
ROOT
ATOM      1  C   UNL A   1      42.982  21.798  25.784  1.00  0.00     0.188 C 
ENDROOT
BRANCH   1   2
ATOM      2  C   UNL A   1      42.385  20.424  26.135  1.00  0.00     0.188 C 
BRANCH   2   3
ATOM      3  O   UNL A   1      41.010  20.153  25.936  1.00  0.00    -0.376 OA
BRANCH   3   4
ATOM      4  C   UNL A   1      39.967  20.852  26.590  1.00  0.00     0.202 C 
BRANCH   4   5
ATOM      5  C   UNL A   1      39.163  21.978  25.929  1.00  0.00     0.261 C 
BRANCH   5   6
ATOM      6  O   UNL A   1      37.866  21.603  25.455  1.00  0.00    -0.462 OA
BRANCH   6   7
ATOM      7  C   UNL A   1      36.874  22.519  25.582  1.00  0.00     0.329 C 
ATOM      8  O   UNL A   1      37.063  23.709  25.818  1.00  0.00    -0.250 OA
BRANCH   7   9
ATOM      9  C   UNL A   1      35.461  21.891  25.566  1.00  0.00     0.196 C 
BRANCH   9  10
ATOM     10  N   UNL A   1      34.210  22.686  25.468  1.00  0.00    -0.339 N 
ATOM     11  O   UNL A   1      33.999  23.086  27.707  1.00  0.00    -0.271 OA
ATOM     12  C   UNL A   1      33.516  23.131  26.576  1.00  0.00     0.258 C 
ATOM     13  H   UNL A   1      33.860  22.906  24.574  1.00  0.00     0.164 HD
BRANCH  12  14
ATOM     14  C   UNL A   1      32.057  23.611  26.336  1.00  0.00     0.329 C 
BRANCH  14  15
ATOM     15  O   UNL A   1      31.738  24.505  25.282  1.00  0.00    -0.483 OA
BRANCH  15  16
ATOM     16  C   UNL A   1      31.855  25.863  25.505  1.00  0.00     0.128 A 
ATOM     17  C   UNL A   1      31.474  26.456  26.709  1.00  0.00     0.048 A 
ATOM     18  C   UNL A   1      32.525  26.636  24.509  1.00  0.00     0.025 A 
ATOM     19  C   UNL A   1      31.801  27.783  26.975  1.00  0.00     0.025 A 
ATOM     20  C   UNL A   1      32.870  27.992  24.784  1.00  0.00     0.004 A 
ATOM     21  C   UNL A   1      32.897  26.101  23.254  1.00  0.00     0.012 A 
ATOM     22  C   UNL A   1      32.503  28.538  26.036  1.00  0.00     0.049 A 
ATOM     23  C   UNL A   1      33.628  28.711  23.825  1.00  0.00     0.010 A 
ATOM     24  C   UNL A   1      33.623  26.843  22.316  1.00  0.00     0.001 A 
ATOM     25  Cl  UNL A   1      32.962  30.139  26.524  1.00  0.00    -0.084 Cl
ATOM     26  C   UNL A   1      34.010  28.141  22.613  1.00  0.00     0.001 A 
ENDBRANCH  15  16
ENDBRANCH  14  15
ENDBRANCH  12  14
ENDBRANCH   9  10
BRANCH   9  27
ATOM     27  C   UNL A   1      35.483  20.805  24.479  1.00  0.00     0.074 C 
BRANCH  27  28
ATOM     28  C   UNL A   1      34.315  19.848  24.453  1.00  0.00    -0.020 A 
ATOM     29  C   UNL A   1      32.977  20.097  24.192  1.00  0.00     0.087 A 
ATOM     30  C   UNL A   1      34.410  18.440  24.728  1.00  0.00     0.003 A 
ATOM     31  N   UNL A   1      32.278  18.922  24.309  1.00  0.00    -0.361 N 
ATOM     32  C   UNL A   1      33.126  17.902  24.652  1.00  0.00     0.046 A 
ATOM     33  C   UNL A   1      35.478  17.575  25.045  1.00  0.00     0.010 A 
ATOM     34  H   UNL A   1      31.308  18.826  24.167  1.00  0.00     0.166 HD
ATOM     35  C   UNL A   1      32.849  16.553  24.896  1.00  0.00     0.026 A 
ATOM     36  C   UNL A   1      35.220  16.221  25.288  1.00  0.00     0.001 A 
ATOM     37  C   UNL A   1      33.922  15.722  25.218  1.00  0.00     0.002 A 
ENDBRANCH  27  28
ENDBRANCH   9  27
ENDBRANCH   7   9
ENDBRANCH   6   7
ENDBRANCH   5   6
ENDBRANCH   4   5
ENDBRANCH   3   4
ENDBRANCH   2   3
ENDBRANCH   1   2
BRANCH   1  38
ATOM     38  O   UNL A   1      42.728  22.865  26.664  1.00  0.00    -0.377 OA
BRANCH  38  39
ATOM     39  C   UNL A   1      42.643  22.493  28.025  1.00  0.00     0.188 C 
BRANCH  39  40
ATOM     40  C   UNL A   1      42.788  23.692  28.969  1.00  0.00     0.188 C 
BRANCH  40  41
ATOM     41  O   UNL A   1      42.106  24.904  28.691  1.00  0.00    -0.376 OA
BRANCH  41  42
ATOM     42  C   UNL A   1      40.881  24.904  27.970  1.00  0.00     0.202 C 
BRANCH  42  43
ATOM     43  C   UNL A   1      40.550  25.904  26.848  1.00  0.00     0.261 C 
BRANCH  43  44
ATOM     44  O   UNL A   1      41.652  26.553  26.228  1.00  0.00    -0.460 OA
BRANCH  44  45
ATOM     45  C   UNL A   1      42.031  27.741  26.708  1.00  0.00     0.338 C 
ATOM     46  O   UNL A   1      41.341  28.707  27.003  1.00  0.00    -0.246 OA
BRANCH  45  47
ATOM     47  C   UNL A   1      43.471  27.620  26.943  1.00  0.00     0.060 A 
ATOM     48  C   UNL A   1      44.068  26.378  26.711  1.00  0.00     0.016 A 
ATOM     49  C   UNL A   1      44.222  28.723  27.358  1.00  0.00     0.016 A 
ATOM     50  C   UNL A   1      45.425  26.218  26.942  1.00  0.00     0.010 A 
ATOM     51  C   UNL A   1      45.581  28.554  27.621  1.00  0.00     0.010 A 
ATOM     52  C   UNL A   1      46.170  27.289  27.454  1.00  0.00    -0.014 A 
BRANCH  52  53
ATOM     53  C   UNL A   1      47.480  26.979  28.060  1.00  0.00     0.031 A 
ATOM     54  C   UNL A   1      48.686  27.041  27.165  1.00  0.00     0.074 A 
ATOM     55  C   UNL A   1      47.595  26.767  29.381  1.00  0.00     0.049 A 
ATOM     56  N   UNL A   1      49.947  26.889  27.464  1.00  0.00    -0.248 NA
ATOM     57  C   UNL A   1      48.434  27.328  25.740  1.00  0.00     0.031 C 
ATOM     58  C   UNL A   1      46.487  26.768  30.337  1.00  0.00     0.029 A 
ATOM     59  N   UNL A   1      48.704  26.535  30.149  1.00  0.00    -0.354 N 
ATOM     60  C   UNL A   1      50.638  27.072  26.270  1.00  0.00     0.074 A 
ATOM     61  C   UNL A   1      49.659  27.310  25.237  1.00  0.00     0.031 C 
ATOM     62  C   UNL A   1      46.977  26.550  31.570  1.00  0.00     0.029 A 
ATOM     63  C   UNL A   1      48.424  26.369  31.484  1.00  0.00     0.049 A 
ATOM     64  H   UNL A   1      49.615  26.490  29.780  1.00  0.00     0.167 HD
ATOM     65  C   UNL A   1      51.974  27.049  26.060  1.00  0.00     0.031 A 
ATOM     66  C   UNL A   1      49.250  26.094  32.512  1.00  0.00     0.031 A 
ATOM     67  C   UNL A   1      52.932  26.780  27.097  1.00  0.00     0.049 A 
ATOM     68  C   UNL A   1      50.727  25.977  32.236  1.00  0.00     0.074 A 
ATOM     69  C   UNL A   1      54.307  26.698  27.001  1.00  0.00     0.029 A 
ATOM     70  N   UNL A   1      52.603  26.540  28.424  1.00  0.00    -0.354 N 
ATOM     71  N   UNL A   1      51.367  26.141  31.102  1.00  0.00    -0.248 NA
ATOM     72  C   UNL A   1      51.591  25.648  33.377  1.00  0.00     0.031 C 
ATOM     73  C   UNL A   1      54.807  26.354  28.260  1.00  0.00     0.029 A 
ATOM     74  C   UNL A   1      53.749  26.286  29.154  1.00  0.00     0.049 A 
ATOM     75  H   UNL A   1      51.690  26.550  28.791  1.00  0.00     0.167 HD
ATOM     76  C   UNL A   1      52.714  25.958  31.396  1.00  0.00     0.074 A 
ATOM     77  C   UNL A   1      52.794  25.686  32.818  1.00  0.00     0.031 C 
ATOM     78  C   UNL A   1      53.789  26.011  30.570  1.00  0.00     0.031 A 
BRANCH  65  79
ATOM     79  C   UNL A   1      52.459  27.275  24.652  1.00  0.00    -0.014 A 
ATOM     80  C   UNL A   1      52.829  26.199  23.825  1.00  0.00     0.010 A 
ATOM     81  C   UNL A   1      52.539  28.584  24.146  1.00  0.00     0.010 A 
ATOM     82  C   UNL A   1      53.305  26.432  22.530  1.00  0.00     0.020 A 
ATOM     83  C   UNL A   1      52.987  28.820  22.843  1.00  0.00     0.020 A 
ATOM     84  C   UNL A   1      53.381  27.742  22.049  1.00  0.00     0.054 A 
BRANCH  84  85
ATOM     85  S   UNL A   1      53.980  28.015  20.358  1.00  0.00     0.124 S 
ATOM     86  O   UNL A   1      55.185  28.808  20.589  1.00  0.00    -0.237 OA
ATOM     87  O   UNL A   1      54.206  26.655  19.876  1.00  0.00    -0.237 OA
ATOM     88  O   UNL A   1      52.881  28.729  19.712  1.00  0.00    -0.744 OA
ENDBRANCH  84  85
ENDBRANCH  65  79
BRANCH  66  89
ATOM     89  C   UNL A   1      48.696  25.893  33.878  1.00  0.00    -0.014 A 
ATOM     90  C   UNL A   1      48.371  24.610  34.351  1.00  0.00     0.010 A 
ATOM     91  C   UNL A   1      48.509  27.000  34.729  1.00  0.00     0.010 A 
ATOM     92  C   UNL A   1      47.866  24.438  35.645  1.00  0.00     0.020 A 
ATOM     93  C   UNL A   1      48.030  26.830  36.030  1.00  0.00     0.020 A 
ATOM     94  C   UNL A   1      47.705  25.548  36.478  1.00  0.00     0.054 A 
BRANCH  94  95
ATOM     95  S   UNL A   1      47.119  25.298  38.178  1.00  0.00     0.124 S 
ATOM     96  O   UNL A   1      46.587  23.941  38.118  1.00  0.00    -0.237 OA
ATOM     97  O   UNL A   1      48.340  25.469  38.959  1.00  0.00    -0.237 OA
ATOM     98  O   UNL A   1      46.125  26.355  38.353  1.00  0.00    -0.744 OA
ENDBRANCH  94  95
ENDBRANCH  66  89
BRANCH  78  99
ATOM     99  C   UNL A   1      55.143  25.798  31.190  1.00  0.00    -0.014 A 
ATOM    100  C   UNL A   1      55.650  24.505  31.403  1.00  0.00     0.010 A 
ATOM    101  C   UNL A   1      55.941  26.914  31.503  1.00  0.00     0.010 A 
ATOM    102  C   UNL A   1      56.924  24.332  31.950  1.00  0.00     0.020 A 
ATOM    103  C   UNL A   1      57.226  26.744  32.022  1.00  0.00     0.020 A 
ATOM    104  C   UNL A   1      57.703  25.453  32.256  1.00  0.00     0.054 A 
BRANCH 104 105
ATOM    105  S   UNL A   1      59.369  25.198  32.926  1.00  0.00     0.124 S 
ATOM    106  O   UNL A   1      59.932  24.242  31.977  1.00  0.00    -0.237 OA
ATOM    107  O   UNL A   1      59.941  26.542  32.880  1.00  0.00    -0.237 OA
ATOM    108  O   UNL A   1      59.126  24.676  34.269  1.00  0.00    -0.744 OA
ENDBRANCH 104 105
ENDBRANCH  78  99
ENDBRANCH  52  53
ENDBRANCH  45  47
ENDBRANCH  44  45
ENDBRANCH  43  44
ENDBRANCH  42  43
ENDBRANCH  41  42
ENDBRANCH  40  41
ENDBRANCH  39  40
ENDBRANCH  38  39
ENDBRANCH   1  38
TORSDOF 29
ENDMDL
MODEL 2
REMARK VINA RESULT:      -7.9      8.568     13.454
REMARK SMILES O=C(COc1ccc(Cl)c2ccccc12)N[C@@H](Cc1c[nH]c2ccccc12)C(=O)OCCOCCOCCOCCOC(=O)c1ccc(-c2c3nc(c(-c4ccc(S(=O)(=O)[O-])cc4)c4ccc([nH]4)c(-c4ccc(S(=O)(=O)[O-])cc4)c4nc(c(-c5ccc(S(=O)(=O)[O-])cc5)c5ccc2[nH]5)C=C4)C=C3)cc1
REMARK SMILES IDX 35 1 34 2 33 3 32 4 31 5 30 6 28 7 29 8 17 9 16 10 1 11 2 12
REMARK SMILES IDX 3 14 4 15 5 16 6 17 15 18 7 19 10 20 14 21 8 22 11 23 13 24
REMARK SMILES IDX 9 25 12 26 18 27 19 28 20 29 27 30 21 31 22 32 26 33 23 35
REMARK SMILES IDX 25 36 24 37 36 38 37 39 38 40 39 41 40 42 41 43 42 44 43 45
REMARK SMILES IDX 44 46 45 47 46 48 104 49 47 50 103 51 48 52 49 53 50 54
REMARK SMILES IDX 97 55 51 56 102 57 96 58 98 59 52 60 101 61 95 62 94 63
REMARK SMILES IDX 53 65 83 66 64 67 82 68 65 69 68 70 81 71 99 72 66 73 67 74
REMARK SMILES IDX 80 76 100 77 69 78 54 79 55 80 63 81 56 82 62 83 57 84 58 85
REMARK SMILES IDX 59 86 60 87 61 88 84 89 85 90 93 91 86 92 92 93 87 94 88 95
REMARK SMILES IDX 89 96 90 97 91 98 70 99 71 100 79 101 72 102 78 103 73 104
REMARK SMILES IDX 74 105 75 106 76 107 77 108
REMARK H PARENT 16 13 21 34 98 64 68 75
REMARK Flexibility Score: inf
ROOT
ATOM      1  C   UNL A   1      43.906  21.827  26.380  1.00  0.00     0.188 C 
ENDROOT
BRANCH   1   2
ATOM      2  C   UNL A   1      43.419  22.715  27.538  1.00  0.00     0.188 C 
BRANCH   2   3
ATOM      3  O   UNL A   1      42.049  23.041  27.682  1.00  0.00    -0.376 OA
BRANCH   3   4
ATOM      4  C   UNL A   1      41.582  24.195  28.355  1.00  0.00     0.202 C 
BRANCH   4   5
ATOM      5  C   UNL A   1      40.348  24.990  27.908  1.00  0.00     0.261 C 
BRANCH   5   6
ATOM      6  O   UNL A   1      39.908  25.997  28.825  1.00  0.00    -0.462 OA
BRANCH   6   7
ATOM      7  C   UNL A   1      39.795  27.261  28.345  1.00  0.00     0.329 C 
ATOM      8  O   UNL A   1      39.960  27.567  27.168  1.00  0.00    -0.250 OA
BRANCH   7   9
ATOM      9  C   UNL A   1      39.603  28.318  29.458  1.00  0.00     0.196 C 
BRANCH   9  10
ATOM     10  N   UNL A   1      38.850  29.583  29.267  1.00  0.00    -0.339 N 
ATOM     11  O   UNL A   1      40.599  30.980  29.722  1.00  0.00    -0.271 OA
ATOM     12  C   UNL A   1      39.394  30.826  29.526  1.00  0.00     0.258 C 
ATOM     13  H   UNL A   1      37.921  29.534  28.941  1.00  0.00     0.164 HD
BRANCH  12  14
ATOM     14  C   UNL A   1      38.395  32.011  29.645  1.00  0.00     0.329 C 
BRANCH  14  15
ATOM     15  O   UNL A   1      37.019  31.850  29.338  1.00  0.00    -0.483 OA
BRANCH  15  16
ATOM     16  C   UNL A   1      36.161  32.908  29.562  1.00  0.00     0.128 A 
ATOM     17  C   UNL A   1      35.645  33.682  28.522  1.00  0.00     0.048 A 
ATOM     18  C   UNL A   1      35.690  33.101  30.896  1.00  0.00     0.025 A 
ATOM     19  C   UNL A   1      34.625  34.598  28.765  1.00  0.00     0.025 A 
ATOM     20  C   UNL A   1      34.638  34.031  31.144  1.00  0.00     0.004 A 
ATOM     21  C   UNL A   1      36.206  32.377  31.996  1.00  0.00     0.012 A 
ATOM     22  C   UNL A   1      34.114  34.761  30.052  1.00  0.00     0.049 A 
ATOM     23  C   UNL A   1      34.111  34.131  32.457  1.00  0.00     0.010 A 
ATOM     24  C   UNL A   1      35.683  32.515  33.286  1.00  0.00     0.001 A 
ATOM     25  Cl  UNL A   1      32.764  35.838  30.214  1.00  0.00    -0.084 Cl
ATOM     26  C   UNL A   1      34.619  33.375  33.512  1.00  0.00     0.001 A 
ENDBRANCH  15  16
ENDBRANCH  14  15
ENDBRANCH  12  14
ENDBRANCH   9  10
BRANCH   9  27
ATOM     27  C   UNL A   1      39.064  27.562  30.683  1.00  0.00     0.074 C 
BRANCH  27  28
ATOM     28  C   UNL A   1      38.838  28.375  31.935  1.00  0.00    -0.020 A 
ATOM     29  C   UNL A   1      37.653  28.692  32.579  1.00  0.00     0.087 A 
ATOM     30  C   UNL A   1      39.884  29.003  32.698  1.00  0.00     0.003 A 
ATOM     31  N   UNL A   1      37.938  29.477  33.668  1.00  0.00    -0.361 N 
ATOM     32  C   UNL A   1      39.288  29.696  33.751  1.00  0.00     0.046 A 
ATOM     33  C   UNL A   1      41.288  29.050  32.579  1.00  0.00     0.010 A 
ATOM     34  H   UNL A   1      37.269  29.833  34.297  1.00  0.00     0.166 HD
ATOM     35  C   UNL A   1      40.016  30.449  34.678  1.00  0.00     0.026 A 
ATOM     36  C   UNL A   1      42.034  29.795  33.499  1.00  0.00     0.001 A 
ATOM     37  C   UNL A   1      41.403  30.488  34.529  1.00  0.00     0.002 A 
ENDBRANCH  27  28
ENDBRANCH   9  27
ENDBRANCH   7   9
ENDBRANCH   6   7
ENDBRANCH   5   6
ENDBRANCH   4   5
ENDBRANCH   3   4
ENDBRANCH   2   3
ENDBRANCH   1   2
BRANCH   1  38
ATOM     38  O   UNL A   1      45.282  21.830  26.090  1.00  0.00    -0.377 OA
BRANCH  38  39
ATOM     39  C   UNL A   1      45.612  22.364  24.824  1.00  0.00     0.188 C 
BRANCH  39  40
ATOM     40  C   UNL A   1      45.586  23.896  24.810  1.00  0.00     0.188 C 
BRANCH  40  41
ATOM     41  O   UNL A   1      44.423  24.585  24.377  1.00  0.00    -0.376 OA
BRANCH  41  42
ATOM     42  C   UNL A   1      43.726  25.463  25.252  1.00  0.00     0.202 C 
BRANCH  42  43
ATOM     43  C   UNL A   1      44.367  26.135  26.478  1.00  0.00     0.261 C 
BRANCH  43  44
ATOM     44  O   UNL A   1      44.201  27.542  26.593  1.00  0.00    -0.460 OA
BRANCH  44  45
ATOM     45  C   UNL A   1      45.112  28.330  26.015  1.00  0.00     0.338 C 
ATOM     46  O   UNL A   1      45.875  28.076  25.093  1.00  0.00    -0.246 OA
BRANCH  45  47
ATOM     47  C   UNL A   1      44.932  29.644  26.634  1.00  0.00     0.060 A 
ATOM     48  C   UNL A   1      46.026  30.514  26.647  1.00  0.00     0.016 A 
ATOM     49  C   UNL A   1      43.697  30.020  27.169  1.00  0.00     0.016 A 
ATOM     50  C   UNL A   1      45.903  31.759  27.243  1.00  0.00     0.010 A 
ATOM     51  C   UNL A   1      43.582  31.260  27.796  1.00  0.00     0.010 A 
ATOM     52  C   UNL A   1      44.700  32.108  27.871  1.00  0.00    -0.014 A 
BRANCH  52  53
ATOM     53  C   UNL A   1      44.732  33.236  28.823  1.00  0.00     0.031 A 
ATOM     54  C   UNL A   1      45.003  32.913  30.266  1.00  0.00     0.074 A 
ATOM     55  C   UNL A   1      44.640  34.504  28.392  1.00  0.00     0.049 A 
ATOM     56  N   UNL A   1      45.158  33.721  31.280  1.00  0.00    -0.248 NA
ATOM     57  C   UNL A   1      45.131  31.484  30.609  1.00  0.00     0.031 C 
ATOM     58  C   UNL A   1      44.457  34.912  26.998  1.00  0.00     0.029 A 
ATOM     59  N   UNL A   1      44.715  35.684  29.082  1.00  0.00    -0.354 N 
ATOM     60  C   UNL A   1      45.410  32.900  32.374  1.00  0.00     0.074 A 
ATOM     61  C   UNL A   1      45.353  31.534  31.912  1.00  0.00     0.031 C 
ATOM     62  C   UNL A   1      44.438  36.255  26.938  1.00  0.00     0.029 A 
ATOM     63  C   UNL A   1      44.580  36.796  28.287  1.00  0.00     0.049 A 
ATOM     64  H   UNL A   1      44.851  35.731  30.056  1.00  0.00     0.167 HD
ATOM     65  C   UNL A   1      45.673  33.259  33.651  1.00  0.00     0.031 A 
ATOM     66  C   UNL A   1      44.567  38.101  28.622  1.00  0.00     0.031 A 
ATOM     67  C   UNL A   1      45.695  34.625  34.098  1.00  0.00     0.049 A 
ATOM     68  C   UNL A   1      44.765  38.473  30.068  1.00  0.00     0.074 A 
ATOM     69  C   UNL A   1      45.917  35.112  35.371  1.00  0.00     0.029 A 
ATOM     70  N   UNL A   1      45.478  35.722  33.277  1.00  0.00    -0.354 N 
ATOM     71  N   UNL A   1      44.992  37.689  31.096  1.00  0.00    -0.248 NA
ATOM     72  C   UNL A   1      44.716  39.903  30.398  1.00  0.00     0.031 C 
ATOM     73  C   UNL A   1      45.780  36.504  35.330  1.00  0.00     0.029 A 
ATOM     74  C   UNL A   1      45.536  36.886  34.019  1.00  0.00     0.049 A 
ATOM     75  H   UNL A   1      45.307  35.678  32.308  1.00  0.00     0.167 HD
ATOM     76  C   UNL A   1      45.135  38.531  32.193  1.00  0.00     0.074 A 
ATOM     77  C   UNL A   1      44.985  39.886  31.697  1.00  0.00     0.031 C 
ATOM     78  C   UNL A   1      45.373  38.219  33.492  1.00  0.00     0.031 A 
BRANCH  65  79
ATOM     79  C   UNL A   1      45.907  32.155  34.649  1.00  0.00    -0.014 A 
ATOM     80  C   UNL A   1      47.196  31.644  34.886  1.00  0.00     0.010 A 
ATOM     81  C   UNL A   1      44.820  31.626  35.366  1.00  0.00     0.010 A 
ATOM     82  C   UNL A   1      47.387  30.599  35.795  1.00  0.00     0.020 A 
ATOM     83  C   UNL A   1      45.010  30.600  36.296  1.00  0.00     0.020 A 
ATOM     84  C   UNL A   1      46.292  30.083  36.494  1.00  0.00     0.054 A 
BRANCH  84  85
ATOM     85  S   UNL A   1      46.571  28.743  37.684  1.00  0.00     0.124 S 
ATOM     86  O   UNL A   1      47.662  28.002  37.055  1.00  0.00    -0.237 OA
ATOM     87  O   UNL A   1      46.924  29.467  38.903  1.00  0.00    -0.237 OA
ATOM     88  O   UNL A   1      45.288  28.045  37.727  1.00  0.00    -0.744 OA
ENDBRANCH  84  85
ENDBRANCH  65  79
BRANCH  66  89
ATOM     89  C   UNL A   1      44.339  39.135  27.577  1.00  0.00    -0.014 A 
ATOM     90  C   UNL A   1      43.042  39.567  27.251  1.00  0.00     0.010 A 
ATOM     91  C   UNL A   1      45.437  39.713  26.911  1.00  0.00     0.010 A 
ATOM     92  C   UNL A   1      42.847  40.553  26.276  1.00  0.00     0.020 A 
ATOM     93  C   UNL A   1      45.248  40.716  25.956  1.00  0.00     0.020 A 
ATOM     94  C   UNL A   1      43.952  41.125  25.640  1.00  0.00     0.054 A 
BRANCH  94  95
ATOM     95  S   UNL A   1      43.684  42.454  24.433  1.00  0.00     0.124 S 
ATOM     96  O   UNL A   1      44.615  42.089  23.369  1.00  0.00    -0.237 OA
ATOM     97  O   UNL A   1      42.267  42.308  24.115  1.00  0.00    -0.237 OA
ATOM     98  O   UNL A   1      44.025  43.663  25.179  1.00  0.00    -0.744 OA
ENDBRANCH  94  95
ENDBRANCH  66  89
BRANCH  78  99
ATOM     99  C   UNL A   1      45.511  39.363  34.460  1.00  0.00    -0.014 A 
ATOM    100  C   UNL A   1      46.758  39.964  34.702  1.00  0.00     0.010 A 
ATOM    101  C   UNL A   1      44.362  39.880  35.084  1.00  0.00     0.010 A 
ATOM    102  C   UNL A   1      46.857  41.046  35.580  1.00  0.00     0.020 A 
ATOM    103  C   UNL A   1      44.452  40.980  35.939  1.00  0.00     0.020 A 
ATOM    104  C   UNL A   1      45.703  41.546  36.193  1.00  0.00     0.054 A 
BRANCH 104 105
ATOM    105  S   UNL A   1      45.853  42.978  37.295  1.00  0.00     0.124 S 
ATOM    106  O   UNL A   1      44.553  42.986  37.959  1.00  0.00    -0.237 OA
ATOM    107  O   UNL A   1      46.989  42.614  38.140  1.00  0.00    -0.237 OA
ATOM    108  O   UNL A   1      46.095  44.093  36.383  1.00  0.00    -0.744 OA
ENDBRANCH 104 105
ENDBRANCH  78  99
ENDBRANCH  52  53
ENDBRANCH  45  47
ENDBRANCH  44  45
ENDBRANCH  43  44
ENDBRANCH  42  43
ENDBRANCH  41  42
ENDBRANCH  40  41
ENDBRANCH  39  40
ENDBRANCH  38  39
ENDBRANCH   1  38
TORSDOF 29
ENDMDL
MODEL 3
REMARK VINA RESULT:      -7.5      6.343     12.574
REMARK SMILES O=C(COc1ccc(Cl)c2ccccc12)N[C@@H](Cc1c[nH]c2ccccc12)C(=O)OCCOCCOCCOCCOC(=O)c1ccc(-c2c3nc(c(-c4ccc(S(=O)(=O)[O-])cc4)c4ccc([nH]4)c(-c4ccc(S(=O)(=O)[O-])cc4)c4nc(c(-c5ccc(S(=O)(=O)[O-])cc5)c5ccc2[nH]5)C=C4)C=C3)cc1
REMARK SMILES IDX 35 1 34 2 33 3 32 4 31 5 30 6 28 7 29 8 17 9 16 10 1 11 2 12
REMARK SMILES IDX 3 14 4 15 5 16 6 17 15 18 7 19 10 20 14 21 8 22 11 23 13 24
REMARK SMILES IDX 9 25 12 26 18 27 19 28 20 29 27 30 21 31 22 32 26 33 23 35
REMARK SMILES IDX 25 36 24 37 36 38 37 39 38 40 39 41 40 42 41 43 42 44 43 45
REMARK SMILES IDX 44 46 45 47 46 48 104 49 47 50 103 51 48 52 49 53 50 54
REMARK SMILES IDX 97 55 51 56 102 57 96 58 98 59 52 60 101 61 95 62 94 63
REMARK SMILES IDX 53 65 83 66 64 67 82 68 65 69 68 70 81 71 99 72 66 73 67 74
REMARK SMILES IDX 80 76 100 77 69 78 54 79 55 80 63 81 56 82 62 83 57 84 58 85
REMARK SMILES IDX 59 86 60 87 61 88 84 89 85 90 93 91 86 92 92 93 87 94 88 95
REMARK SMILES IDX 89 96 90 97 91 98 70 99 71 100 79 101 72 102 78 103 73 104
REMARK SMILES IDX 74 105 75 106 76 107 77 108
REMARK H PARENT 16 13 21 34 98 64 68 75
REMARK Flexibility Score: inf
ROOT
ATOM      1  C   UNL A   1      43.621  32.649  32.972  1.00  0.00     0.188 C 
ENDROOT
BRANCH   1   2
ATOM      2  C   UNL A   1      44.922  33.470  32.973  1.00  0.00     0.188 C 
BRANCH   2   3
ATOM      3  O   UNL A   1      46.180  32.847  32.792  1.00  0.00    -0.376 OA
BRANCH   3   4
ATOM      4  C   UNL A   1      47.342  33.194  33.522  1.00  0.00     0.202 C 
BRANCH   4   5
ATOM      5  C   UNL A   1      48.754  32.753  33.117  1.00  0.00     0.261 C 
BRANCH   5   6
ATOM      6  O   UNL A   1      49.079  31.393  33.424  1.00  0.00    -0.462 OA
BRANCH   6   7
ATOM      7  C   UNL A   1      48.705  30.451  32.522  1.00  0.00     0.329 C 
ATOM      8  O   UNL A   1      49.012  30.477  31.334  1.00  0.00    -0.250 OA
BRANCH   7   9
ATOM      9  C   UNL A   1      47.707  29.420  33.099  1.00  0.00     0.196 C 
BRANCH   9  10
ATOM     10  N   UNL A   1      46.273  29.715  33.345  1.00  0.00    -0.339 N 
ATOM     11  O   UNL A   1      46.478  30.055  35.595  1.00  0.00    -0.271 OA
ATOM     12  C   UNL A   1      45.754  29.904  34.611  1.00  0.00     0.258 C 
ATOM     13  H   UNL A   1      45.665  29.778  32.573  1.00  0.00     0.164 HD
BRANCH  12  14
ATOM     14  C   UNL A   1      44.207  29.827  34.747  1.00  0.00     0.329 C 
BRANCH  14  15
ATOM     15  O   UNL A   1      43.593  29.353  35.935  1.00  0.00    -0.483 OA
BRANCH  15  16
ATOM     16  C   UNL A   1      43.070  28.075  35.947  1.00  0.00     0.128 A 
ATOM     17  C   UNL A   1      41.915  27.735  35.243  1.00  0.00     0.048 A 
ATOM     18  C   UNL A   1      43.838  27.058  36.592  1.00  0.00     0.025 A 
ATOM     19  C   UNL A   1      41.540  26.401  35.107  1.00  0.00     0.025 A 
ATOM     20  C   UNL A   1      43.461  25.691  36.445  1.00  0.00     0.004 A 
ATOM     21  C   UNL A   1      44.993  27.347  37.355  1.00  0.00     0.012 A 
ATOM     22  C   UNL A   1      42.308  25.390  35.683  1.00  0.00     0.049 A 
ATOM     23  C   UNL A   1      44.296  24.689  37.002  1.00  0.00     0.010 A 
ATOM     24  C   UNL A   1      45.784  26.338  37.915  1.00  0.00     0.001 A 
ATOM     25  Cl  UNL A   1      41.814  23.761  35.345  1.00  0.00    -0.084 Cl
ATOM     26  C   UNL A   1      45.448  25.007  37.718  1.00  0.00     0.001 A 
ENDBRANCH  15  16
ENDBRANCH  14  15
ENDBRANCH  12  14
ENDBRANCH   9  10
BRANCH   9  27
ATOM     27  C   UNL A   1      47.845  28.156  32.235  1.00  0.00     0.074 C 
BRANCH  27  28
ATOM     28  C   UNL A   1      47.838  26.833  32.964  1.00  0.00    -0.020 A 
ATOM     29  C   UNL A   1      48.865  26.195  33.641  1.00  0.00     0.087 A 
ATOM     30  C   UNL A   1      46.697  25.964  33.064  1.00  0.00     0.003 A 
ATOM     31  N   UNL A   1      48.399  24.998  34.123  1.00  0.00    -0.361 N 
ATOM     32  C   UNL A   1      47.086  24.827  33.769  1.00  0.00     0.046 A 
ATOM     33  C   UNL A   1      45.365  26.043  32.608  1.00  0.00     0.010 A 
ATOM     34  H   UNL A   1      48.930  24.355  34.647  1.00  0.00     0.166 HD
ATOM     35  C   UNL A   1      46.224  23.755  34.025  1.00  0.00     0.026 A 
ATOM     36  C   UNL A   1      44.486  24.982  32.857  1.00  0.00     0.001 A 
ATOM     37  C   UNL A   1      44.915  23.854  33.552  1.00  0.00     0.002 A 
ENDBRANCH  27  28
ENDBRANCH   9  27
ENDBRANCH   7   9
ENDBRANCH   6   7
ENDBRANCH   5   6
ENDBRANCH   4   5
ENDBRANCH   3   4
ENDBRANCH   2   3
ENDBRANCH   1   2
BRANCH   1  38
ATOM     38  O   UNL A   1      42.416  33.334  33.210  1.00  0.00    -0.377 OA
BRANCH  38  39
ATOM     39  C   UNL A   1      41.467  32.604  33.961  1.00  0.00     0.188 C 
BRANCH  39  40
ATOM     40  C   UNL A   1      40.300  33.477  34.437  1.00  0.00     0.188 C 
BRANCH  40  41
ATOM     41  O   UNL A   1      39.061  33.449  33.746  1.00  0.00    -0.376 OA
BRANCH  41  42
ATOM     42  C   UNL A   1      38.043  32.525  34.110  1.00  0.00     0.202 C 
BRANCH  42  43
ATOM     43  C   UNL A   1      38.287  31.020  34.309  1.00  0.00     0.261 C 
BRANCH  43  44
ATOM     44  O   UNL A   1      37.757  30.152  33.316  1.00  0.00    -0.460 OA
BRANCH  44  45
ATOM     45  C   UNL A   1      37.503  30.663  32.108  1.00  0.00     0.338 C 
ATOM     46  O   UNL A   1      36.604  31.420  31.766  1.00  0.00    -0.246 OA
BRANCH  45  47
ATOM     47  C   UNL A   1      38.618  30.231  31.265  1.00  0.00     0.060 A 
ATOM     48  C   UNL A   1      39.279  29.050  31.612  1.00  0.00     0.016 A 
ATOM     49  C   UNL A   1      38.987  30.967  30.135  1.00  0.00     0.016 A 
ATOM     50  C   UNL A   1      40.354  28.618  30.851  1.00  0.00     0.010 A 
ATOM     51  C   UNL A   1      40.088  30.550  29.387  1.00  0.00     0.010 A 
ATOM     52  C   UNL A   1      40.797  29.400  29.775  1.00  0.00    -0.014 A 
BRANCH  52  53
ATOM     53  C   UNL A   1      42.153  29.136  29.255  1.00  0.00     0.031 A 
ATOM     54  C   UNL A   1      42.429  27.760  28.716  1.00  0.00     0.074 A 
ATOM     55  C   UNL A   1      43.058  30.122  29.161  1.00  0.00     0.049 A 
ATOM     56  N   UNL A   1      43.504  27.298  28.137  1.00  0.00    -0.248 NA
ATOM     57  C   UNL A   1      41.337  26.774  28.833  1.00  0.00     0.031 C 
ATOM     58  C   UNL A   1      42.847  31.507  29.586  1.00  0.00     0.029 A 
ATOM     59  N   UNL A   1      44.330  30.114  28.654  1.00  0.00    -0.354 N 
ATOM     60  C   UNL A   1      43.215  25.976  27.814  1.00  0.00     0.074 A 
ATOM     61  C   UNL A   1      41.882  25.697  28.290  1.00  0.00     0.031 C 
ATOM     62  C   UNL A   1      43.956  32.218  29.316  1.00  0.00     0.029 A 
ATOM     63  C   UNL A   1      44.959  31.334  28.726  1.00  0.00     0.049 A 
ATOM     64  H   UNL A   1      44.754  29.311  28.275  1.00  0.00     0.167 HD
ATOM     65  C   UNL A   1      43.995  25.079  27.169  1.00  0.00     0.031 A 
ATOM     66  C   UNL A   1      46.207  31.685  28.361  1.00  0.00     0.031 A 
ATOM     67  C   UNL A   1      45.332  25.367  26.730  1.00  0.00     0.049 A 
ATOM     68  C   UNL A   1      47.092  30.641  27.733  1.00  0.00     0.074 A 
ATOM     69  C   UNL A   1      46.231  24.532  26.096  1.00  0.00     0.029 A 
ATOM     70  N   UNL A   1      45.963  26.593  26.890  1.00  0.00    -0.354 N 
ATOM     71  N   UNL A   1      46.812  29.392  27.442  1.00  0.00    -0.248 NA
ATOM     72  C   UNL A   1      48.455  31.054  27.375  1.00  0.00     0.031 C 
ATOM     73  C   UNL A   1      47.426  25.237  25.922  1.00  0.00     0.029 A 
ATOM     74  C   UNL A   1      47.249  26.531  26.388  1.00  0.00     0.049 A 
ATOM     75  H   UNL A   1      45.554  27.389  27.300  1.00  0.00     0.167 HD
ATOM     76  C   UNL A   1      47.957  28.874  26.846  1.00  0.00     0.074 A 
ATOM     77  C   UNL A   1      48.926  29.953  26.805  1.00  0.00     0.031 C 
ATOM     78  C   UNL A   1      48.190  27.624  26.372  1.00  0.00     0.031 A 
BRANCH  65  79
ATOM     79  C   UNL A   1      43.431  23.699  26.952  1.00  0.00    -0.014 A 
ATOM     80  C   UNL A   1      42.898  23.315  25.708  1.00  0.00     0.010 A 
ATOM     81  C   UNL A   1      43.440  22.771  28.008  1.00  0.00     0.010 A 
ATOM     82  C   UNL A   1      42.352  22.039  25.536  1.00  0.00     0.020 A 
ATOM     83  C   UNL A   1      42.922  21.485  27.832  1.00  0.00     0.020 A 
ATOM     84  C   UNL A   1      42.367  21.132  26.600  1.00  0.00     0.054 A 
BRANCH  84  85
ATOM     85  S   UNL A   1      41.675  19.475  26.343  1.00  0.00     0.124 S 
ATOM     86  O   UNL A   1      40.263  19.771  26.106  1.00  0.00    -0.237 OA
ATOM     87  O   UNL A   1      42.418  18.995  25.181  1.00  0.00    -0.237 OA
ATOM     88  O   UNL A   1      41.962  18.781  27.596  1.00  0.00    -0.744 OA
ENDBRANCH  84  85
ENDBRANCH  65  79
BRANCH  66  89
ATOM     89  C   UNL A   1      46.690  33.072  28.601  1.00  0.00    -0.014 A 
ATOM     90  C   UNL A   1      47.445  33.393  29.742  1.00  0.00     0.010 A 
ATOM     91  C   UNL A   1      46.408  34.085  27.663  1.00  0.00     0.010 A 
ATOM     92  C   UNL A   1      47.905  34.700  29.943  1.00  0.00     0.020 A 
ATOM     93  C   UNL A   1      46.887  35.384  27.847  1.00  0.00     0.020 A 
ATOM     94  C   UNL A   1      47.628  35.685  28.991  1.00  0.00     0.054 A 
BRANCH  94  95
ATOM     95  S   UNL A   1      48.295  37.356  29.232  1.00  0.00     0.124 S 
ATOM     96  O   UNL A   1      49.509  37.317  28.424  1.00  0.00    -0.237 OA
ATOM     97  O   UNL A   1      47.219  38.200  28.720  1.00  0.00    -0.237 OA
ATOM     98  O   UNL A   1      48.502  37.434  30.676  1.00  0.00    -0.744 OA
ENDBRANCH  94  95
ENDBRANCH  66  89
BRANCH  78  99
ATOM     99  C   UNL A   1      49.533  27.366  25.744  1.00  0.00    -0.014 A 
ATOM    100  C   UNL A   1      50.635  26.971  26.522  1.00  0.00     0.010 A 
ATOM    101  C   UNL A   1      49.671  27.459  24.348  1.00  0.00     0.010 A 
ATOM    102  C   UNL A   1      51.864  26.705  25.914  1.00  0.00     0.020 A 
ATOM    103  C   UNL A   1      50.889  27.165  23.733  1.00  0.00     0.020 A 
ATOM    104  C   UNL A   1      51.983  26.805  24.523  1.00  0.00     0.054 A 
BRANCH 104 105
ATOM    105  S   UNL A   1      53.578  26.412  23.756  1.00  0.00     0.124 S 
ATOM    106  O   UNL A   1      54.307  27.667  23.917  1.00  0.00    -0.237 OA
ATOM    107  O   UNL A   1      54.058  25.297  24.568  1.00  0.00    -0.237 OA
ATOM    108  O   UNL A   1      53.225  26.068  22.381  1.00  0.00    -0.744 OA
ENDBRANCH 104 105
ENDBRANCH  78  99
ENDBRANCH  52  53
ENDBRANCH  45  47
ENDBRANCH  44  45
ENDBRANCH  43  44
ENDBRANCH  42  43
ENDBRANCH  41  42
ENDBRANCH  40  41
ENDBRANCH  39  40
ENDBRANCH  38  39
ENDBRANCH   1  38
TORSDOF 29
ENDMDL
