MODEL 1
REMARK VINA RESULT:     -10.5      0.000      0.000
REMARK SMILES Cc1cc2nc(S/C(=C\c3ccc(O)cc3)C(=O)OCCOCCOCCOCCOC(=O)c3ccc(-c4c5nc(c(-c6ccc(S(=O)(=O)[O-])cc6)c6ccc([nH]6)c(-c6ccc(S(=O)(=O)[O-])cc6)c6nc(c(-c7ccc(S(=O)(=O)[O-])cc7)c7ccc4[nH]7)C=C6)C=C5)cc3)[nH]c2cc1C
REMARK SMILES IDX 26 1 25 2 24 3 23 4 22 5 21 6 20 7 19 8 17 9 18 10 8 11 9 12
REMARK SMILES IDX 7 13 6 14 1 15 2 16 3 17 97 18 4 19 96 20 98 21 5 22 95 23
REMARK SMILES IDX 94 24 10 26 11 27 16 28 12 29 15 30 13 31 14 32 27 34 28 35
REMARK SMILES IDX 29 36 30 37 31 38 32 39 33 40 34 41 35 42 93 43 36 44 92 45
REMARK SMILES IDX 37 46 38 47 39 48 86 49 40 50 91 51 85 52 87 53 41 54 90 55
REMARK SMILES IDX 84 56 83 57 42 59 72 60 53 61 71 62 54 63 57 64 70 65 88 66
REMARK SMILES IDX 55 67 56 68 69 70 89 71 58 72 43 73 44 74 52 75 45 76 51 77
REMARK SMILES IDX 46 78 47 79 48 80 49 81 50 82 73 83 74 84 82 85 75 86 81 87
REMARK SMILES IDX 76 88 77 89 78 90 79 91 80 92 59 93 60 94 68 95 61 96 67 97
REMARK SMILES IDX 62 98 63 99 64 100 65 101 66 102
REMARK H PARENT 94 25 14 33 87 58 57 69
REMARK Flexibility Score: inf
ROOT
ATOM      1  C   UNL A   1      39.241  21.312  25.751  1.00  0.00     0.188 C 
ENDROOT
BRANCH   1   2
ATOM      2  O   UNL A   1      38.613  22.475  26.291  1.00  0.00    -0.377 OA
BRANCH   2   3
ATOM      3  C   UNL A   1      37.492  23.022  25.620  1.00  0.00     0.188 C 
BRANCH   3   4
ATOM      4  C   UNL A   1      36.214  22.163  25.697  1.00  0.00     0.188 C 
BRANCH   4   5
ATOM      5  O   UNL A   1      35.072  22.757  25.109  1.00  0.00    -0.376 OA
BRANCH   5   6
ATOM      6  C   UNL A   1      34.960  24.159  24.938  1.00  0.00     0.202 C 
BRANCH   6   7
ATOM      7  C   UNL A   1      34.496  24.873  23.655  1.00  0.00     0.261 C 
BRANCH   7   8
ATOM      8  O   UNL A   1      33.392  25.767  23.775  1.00  0.00    -0.459 OA
BRANCH   8   9
ATOM      9  C   UNL A   1      32.555  25.910  22.721  1.00  0.00     0.345 C 
ATOM     10  O   UNL A   1      32.765  25.510  21.586  1.00  0.00    -0.246 OA
BRANCH   9  11
ATOM     11  C   UNL A   1      31.252  26.509  23.208  1.00  0.00     0.101 C 
ATOM     12  C   UNL A   1      30.997  27.768  22.793  1.00  0.00     0.031 C 
BRANCH  11  13
ATOM     13  S   UNL A   1      30.446  25.457  24.328  1.00  0.00    -0.044 SA
BRANCH  13  14
ATOM     14  C   UNL A   1      31.080  23.873  24.159  1.00  0.00     0.171 A 
ATOM     15  C   UNL A   1      33.052  18.358  25.003  1.00  0.00     0.044 C 
ATOM     16  C   UNL A   1      32.493  19.593  24.348  1.00  0.00    -0.046 A 
ATOM     17  C   UNL A   1      32.267  20.723  25.166  1.00  0.00     0.034 A 
ATOM     18  C   UNL A   1      32.258  19.675  22.958  1.00  0.00    -0.046 A 
ATOM     19  C   UNL A   1      31.830  21.921  24.583  1.00  0.00     0.090 A 
ATOM     20  C   UNL A   1      31.946  20.909  22.359  1.00  0.00     0.032 A 
ATOM     21  C   UNL A   1      32.315  18.462  22.067  1.00  0.00     0.044 C 
ATOM     22  N   UNL A   1      31.435  23.101  25.164  1.00  0.00    -0.222 NA
ATOM     23  C   UNL A   1      31.739  21.999  23.202  1.00  0.00     0.066 A 
ATOM     24  N   UNL A   1      31.381  23.301  22.959  1.00  0.00    -0.333 N 
ATOM     25  H   UNL A   1      31.347  23.741  22.079  1.00  0.00     0.169 HD
ENDBRANCH  13  14
ENDBRANCH  11  13
BRANCH  12  26
ATOM     26  C   UNL A   1      29.891  28.688  23.072  1.00  0.00    -0.024 A 
ATOM     27  C   UNL A   1      28.553  28.389  22.796  1.00  0.00     0.012 A 
ATOM     28  C   UNL A   1      30.220  29.935  23.625  1.00  0.00     0.012 A 
ATOM     29  C   UNL A   1      27.574  29.375  22.949  1.00  0.00     0.047 A 
ATOM     30  C   UNL A   1      29.242  30.913  23.791  1.00  0.00     0.047 A 
ATOM     31  C   UNL A   1      27.936  30.638  23.410  1.00  0.00     0.115 A 
BRANCH  31  32
ATOM     32  O   UNL A   1      27.034  31.660  23.445  1.00  0.00    -0.508 OA
ATOM     33  H   UNL A   1      26.244  31.604  22.945  1.00  0.00     0.293 HD
ENDBRANCH  31  32
ENDBRANCH  12  26
ENDBRANCH   9  11
ENDBRANCH   8   9
ENDBRANCH   7   8
ENDBRANCH   6   7
ENDBRANCH   5   6
ENDBRANCH   4   5
ENDBRANCH   3   4
ENDBRANCH   2   3
ENDBRANCH   1   2
BRANCH   1  34
ATOM     34  C   UNL A   1      40.444  20.618  26.437  1.00  0.00     0.188 C 
BRANCH  34  35
ATOM     35  O   UNL A   1      41.060  21.371  27.471  1.00  0.00    -0.376 OA
BRANCH  35  36
ATOM     36  C   UNL A   1      42.253  22.076  27.180  1.00  0.00     0.202 C 
BRANCH  36  37
ATOM     37  C   UNL A   1      42.206  23.060  26.003  1.00  0.00     0.261 C 
BRANCH  37  38
ATOM     38  O   UNL A   1      41.402  24.232  26.197  1.00  0.00    -0.460 OA
BRANCH  38  39
ATOM     39  C   UNL A   1      41.982  25.426  25.952  1.00  0.00     0.338 C 
ATOM     40  O   UNL A   1      42.371  25.846  24.874  1.00  0.00    -0.246 OA
BRANCH  39  41
ATOM     41  C   UNL A   1      41.896  26.225  27.190  1.00  0.00     0.060 A 
ATOM     42  C   UNL A   1      40.962  25.868  28.170  1.00  0.00     0.016 A 
ATOM     43  C   UNL A   1      42.750  27.313  27.387  1.00  0.00     0.016 A 
ATOM     44  C   UNL A   1      40.858  26.620  29.341  1.00  0.00     0.010 A 
ATOM     45  C   UNL A   1      42.632  28.077  28.551  1.00  0.00     0.010 A 
ATOM     46  C   UNL A   1      41.663  27.753  29.520  1.00  0.00    -0.014 A 
BRANCH  46  47
ATOM     47  C   UNL A   1      41.375  28.703  30.621  1.00  0.00     0.031 A 
ATOM     48  C   UNL A   1      42.209  28.622  31.872  1.00  0.00     0.074 A 
ATOM     49  C   UNL A   1      40.403  29.627  30.516  1.00  0.00     0.049 A 
ATOM     50  N   UNL A   1      42.112  29.309  32.980  1.00  0.00    -0.248 NA
ATOM     51  C   UNL A   1      43.296  27.629  31.870  1.00  0.00     0.031 C 
ATOM     52  C   UNL A   1      39.557  29.838  29.342  1.00  0.00     0.029 A 
ATOM     53  N   UNL A   1      39.960  30.560  31.422  1.00  0.00    -0.354 N 
ATOM     54  C   UNL A   1      43.116  28.825  33.812  1.00  0.00     0.074 A 
ATOM     55  C   UNL A   1      43.790  27.767  33.092  1.00  0.00     0.031 C 
ATOM     56  C   UNL A   1      38.690  30.834  29.603  1.00  0.00     0.029 A 
ATOM     57  C   UNL A   1      38.893  31.303  30.974  1.00  0.00     0.049 A 
ATOM     58  H   UNL A   1      40.368  30.685  32.309  1.00  0.00     0.167 HD
ATOM     59  C   UNL A   1      43.450  29.229  35.060  1.00  0.00     0.031 A 
ATOM     60  C   UNL A   1      38.150  32.235  31.604  1.00  0.00     0.031 A 
ATOM     61  C   UNL A   1      42.766  30.269  35.780  1.00  0.00     0.049 A 
ATOM     62  C   UNL A   1      38.487  32.608  33.028  1.00  0.00     0.074 A 
ATOM     63  C   UNL A   1      43.039  30.763  37.043  1.00  0.00     0.029 A 
ATOM     64  N   UNL A   1      41.665  30.969  35.306  1.00  0.00    -0.354 N 
ATOM     65  N   UNL A   1      39.460  32.166  33.789  1.00  0.00    -0.248 NA
ATOM     66  C   UNL A   1      37.627  33.611  33.674  1.00  0.00     0.031 C 
ATOM     67  C   UNL A   1      42.062  31.710  37.362  1.00  0.00     0.029 A 
ATOM     68  C   UNL A   1      41.225  31.863  36.268  1.00  0.00     0.049 A 
ATOM     69  H   UNL A   1      41.258  30.847  34.419  1.00  0.00     0.167 HD
ATOM     70  C   UNL A   1      39.345  32.856  34.993  1.00  0.00     0.074 A 
ATOM     71  C   UNL A   1      38.220  33.758  34.850  1.00  0.00     0.031 C 
ATOM     72  C   UNL A   1      40.101  32.754  36.115  1.00  0.00     0.031 A 
BRANCH  59  73
ATOM     73  C   UNL A   1      44.584  28.510  35.743  1.00  0.00    -0.014 A 
ATOM     74  C   UNL A   1      45.910  28.973  35.646  1.00  0.00     0.010 A 
ATOM     75  C   UNL A   1      44.313  27.374  36.527  1.00  0.00     0.010 A 
ATOM     76  C   UNL A   1      46.946  28.289  36.288  1.00  0.00     0.020 A 
ATOM     77  C   UNL A   1      45.343  26.706  37.197  1.00  0.00     0.020 A 
ATOM     78  C   UNL A   1      46.655  27.160  37.059  1.00  0.00     0.054 A 
BRANCH  78  79
ATOM     79  S   UNL A   1      48.018  26.309  37.901  1.00  0.00     0.124 S 
ATOM     80  O   UNL A   1      48.004  25.000  37.252  1.00  0.00    -0.237 OA
ATOM     81  O   UNL A   1      49.165  27.155  37.584  1.00  0.00    -0.237 OA
ATOM     82  O   UNL A   1      47.615  26.311  39.305  1.00  0.00    -0.744 OA
ENDBRANCH  78  79
ENDBRANCH  59  73
BRANCH  60  83
ATOM     83  C   UNL A   1      36.996  32.868  30.908  1.00  0.00    -0.014 A 
ATOM     84  C   UNL A   1      37.199  33.794  29.869  1.00  0.00     0.010 A 
ATOM     85  C   UNL A   1      35.678  32.552  31.289  1.00  0.00     0.010 A 
ATOM     86  C   UNL A   1      36.110  34.402  29.236  1.00  0.00     0.020 A 
ATOM     87  C   UNL A   1      34.586  33.131  30.637  1.00  0.00     0.020 A 
ATOM     88  C   UNL A   1      34.809  34.061  29.621  1.00  0.00     0.054 A 
BRANCH  88  89
ATOM     89  S   UNL A   1      33.412  34.818  28.745  1.00  0.00     0.124 S 
ATOM     90  O   UNL A   1      34.004  36.049  28.231  1.00  0.00    -0.237 OA
ATOM     91  O   UNL A   1      33.084  33.806  27.745  1.00  0.00    -0.237 OA
ATOM     92  O   UNL A   1      32.408  34.996  29.792  1.00  0.00    -0.744 OA
ENDBRANCH  88  89
ENDBRANCH  60  83
BRANCH  72  93
ATOM     93  C   UNL A   1      39.765  33.660  37.272  1.00  0.00    -0.014 A 
ATOM     94  C   UNL A   1      38.911  33.242  38.307  1.00  0.00     0.010 A 
ATOM     95  C   UNL A   1      40.366  34.931  37.355  1.00  0.00     0.010 A 
ATOM     96  C   UNL A   1      38.640  34.087  39.387  1.00  0.00     0.020 A 
ATOM     97  C   UNL A   1      40.125  35.766  38.449  1.00  0.00     0.020 A 
ATOM     98  C   UNL A   1      39.252  35.343  39.452  1.00  0.00     0.054 A 
BRANCH  98  99
ATOM     99  S   UNL A   1      38.920  36.401  40.889  1.00  0.00     0.124 S 
ATOM    100  O   UNL A   1      38.427  37.623  40.260  1.00  0.00    -0.237 OA
ATOM    101  O   UNL A   1      37.924  35.630  41.629  1.00  0.00    -0.237 OA
ATOM    102  O   UNL A   1      40.221  36.519  41.543  1.00  0.00    -0.744 OA
ENDBRANCH  98  99
ENDBRANCH  72  93
ENDBRANCH  46  47
ENDBRANCH  39  41
ENDBRANCH  38  39
ENDBRANCH  37  38
ENDBRANCH  36  37
ENDBRANCH  35  36
ENDBRANCH  34  35
ENDBRANCH   1  34
TORSDOF 27
ENDMDL
MODEL 2
REMARK VINA RESULT:     -10.3      0.867      7.763
REMARK SMILES Cc1cc2nc(S/C(=C\c3ccc(O)cc3)C(=O)OCCOCCOCCOCCOC(=O)c3ccc(-c4c5nc(c(-c6ccc(S(=O)(=O)[O-])cc6)c6ccc([nH]6)c(-c6ccc(S(=O)(=O)[O-])cc6)c6nc(c(-c7ccc(S(=O)(=O)[O-])cc7)c7ccc4[nH]7)C=C6)C=C5)cc3)[nH]c2cc1C
REMARK SMILES IDX 26 1 25 2 24 3 23 4 22 5 21 6 20 7 19 8 17 9 18 10 8 11 9 12
REMARK SMILES IDX 7 13 6 14 1 15 2 16 3 17 97 18 4 19 96 20 98 21 5 22 95 23
REMARK SMILES IDX 94 24 10 26 11 27 16 28 12 29 15 30 13 31 14 32 27 34 28 35
REMARK SMILES IDX 29 36 30 37 31 38 32 39 33 40 34 41 35 42 93 43 36 44 92 45
REMARK SMILES IDX 37 46 38 47 39 48 86 49 40 50 91 51 85 52 87 53 41 54 90 55
REMARK SMILES IDX 84 56 83 57 42 59 72 60 53 61 71 62 54 63 57 64 70 65 88 66
REMARK SMILES IDX 55 67 56 68 69 70 89 71 58 72 43 73 44 74 52 75 45 76 51 77
REMARK SMILES IDX 46 78 47 79 48 80 49 81 50 82 73 83 74 84 82 85 75 86 81 87
REMARK SMILES IDX 76 88 77 89 78 90 79 91 80 92 59 93 60 94 68 95 61 96 67 97
REMARK SMILES IDX 62 98 63 99 64 100 65 101 66 102
REMARK H PARENT 94 25 14 33 87 58 57 69
REMARK Flexibility Score: inf
ROOT
ATOM      1  C   UNL A   1      39.843  20.534  25.842  1.00  0.00     0.188 C 
ENDROOT
BRANCH   1   2
ATOM      2  O   UNL A   1      38.785  21.491  25.909  1.00  0.00    -0.377 OA
BRANCH   2   3
ATOM      3  C   UNL A   1      37.787  21.479  24.903  1.00  0.00     0.188 C 
BRANCH   3   4
ATOM      4  C   UNL A   1      36.402  20.996  25.378  1.00  0.00     0.188 C 
BRANCH   4   5
ATOM      5  O   UNL A   1      35.340  21.881  25.080  1.00  0.00    -0.376 OA
BRANCH   5   6
ATOM      6  C   UNL A   1      35.300  23.203  25.589  1.00  0.00     0.202 C 
BRANCH   6   7
ATOM      7  C   UNL A   1      35.424  24.490  24.753  1.00  0.00     0.261 C 
BRANCH   7   8
ATOM      8  O   UNL A   1      34.271  25.324  24.672  1.00  0.00    -0.459 OA
BRANCH   8   9
ATOM      9  C   UNL A   1      33.640  25.446  23.480  1.00  0.00     0.345 C 
ATOM     10  O   UNL A   1      34.040  25.001  22.415  1.00  0.00    -0.246 OA
BRANCH   9  11
ATOM     11  C   UNL A   1      32.288  26.091  23.705  1.00  0.00     0.101 C 
ATOM     12  C   UNL A   1      32.151  27.345  23.224  1.00  0.00     0.031 C 
BRANCH  11  13
ATOM     13  S   UNL A   1      31.259  25.089  24.679  1.00  0.00    -0.044 SA
BRANCH  13  14
ATOM     14  C   UNL A   1      31.682  23.446  24.427  1.00  0.00     0.171 A 
ATOM     15  C   UNL A   1      32.924  17.688  24.987  1.00  0.00     0.044 C 
ATOM     16  C   UNL A   1      32.529  19.015  24.397  1.00  0.00    -0.046 A 
ATOM     17  C   UNL A   1      32.452  20.123  25.270  1.00  0.00     0.034 A 
ATOM     18  C   UNL A   1      32.305  19.195  23.014  1.00  0.00    -0.046 A 
ATOM     19  C   UNL A   1      32.173  21.395  24.750  1.00  0.00     0.090 A 
ATOM     20  C   UNL A   1      32.154  20.488  22.478  1.00  0.00     0.032 A 
ATOM     21  C   UNL A   1      32.203  18.031  22.064  1.00  0.00     0.044 C 
ATOM     22  N   UNL A   1      31.934  22.586  25.390  1.00  0.00    -0.222 NA
ATOM     23  C   UNL A   1      32.092  21.552  23.375  1.00  0.00     0.066 A 
ATOM     24  N   UNL A   1      31.904  22.900  23.198  1.00  0.00    -0.333 N 
ATOM     25  H   UNL A   1      31.927  23.384  22.341  1.00  0.00     0.169 HD
ENDBRANCH  13  14
ENDBRANCH  11  13
BRANCH  12  26
ATOM     26  C   UNL A   1      31.040  28.299  23.274  1.00  0.00    -0.024 A 
ATOM     27  C   UNL A   1      29.939  28.244  22.414  1.00  0.00     0.012 A 
ATOM     28  C   UNL A   1      31.119  29.323  24.230  1.00  0.00     0.012 A 
ATOM     29  C   UNL A   1      28.996  29.276  22.423  1.00  0.00     0.047 A 
ATOM     30  C   UNL A   1      30.172  30.344  24.248  1.00  0.00     0.047 A 
ATOM     31  C   UNL A   1      29.144  30.334  23.315  1.00  0.00     0.115 A 
BRANCH  31  32
ATOM     32  O   UNL A   1      28.323  31.421  23.262  1.00  0.00    -0.508 OA
ATOM     33  H   UNL A   1      28.284  32.014  23.985  1.00  0.00     0.293 HD
ENDBRANCH  31  32
ENDBRANCH  12  26
ENDBRANCH   9  11
ENDBRANCH   8   9
ENDBRANCH   7   8
ENDBRANCH   6   7
ENDBRANCH   5   6
ENDBRANCH   4   5
ENDBRANCH   3   4
ENDBRANCH   2   3
ENDBRANCH   1   2
BRANCH   1  34
ATOM     34  C   UNL A   1      40.975  20.468  26.898  1.00  0.00     0.188 C 
BRANCH  34  35
ATOM     35  O   UNL A   1      40.879  21.426  27.941  1.00  0.00    -0.376 OA
BRANCH  35  36
ATOM     36  C   UNL A   1      41.845  22.459  28.006  1.00  0.00     0.202 C 
BRANCH  36  37
ATOM     37  C   UNL A   1      42.019  23.325  26.751  1.00  0.00     0.261 C 
BRANCH  37  38
ATOM     38  O   UNL A   1      40.994  24.300  26.514  1.00  0.00    -0.460 OA
BRANCH  38  39
ATOM     39  C   UNL A   1      41.392  25.539  26.154  1.00  0.00     0.338 C 
ATOM     40  O   UNL A   1      41.799  25.889  25.058  1.00  0.00    -0.246 OA
BRANCH  39  41
ATOM     41  C   UNL A   1      41.071  26.452  27.269  1.00  0.00     0.060 A 
ATOM     42  C   UNL A   1      41.801  27.638  27.412  1.00  0.00     0.016 A 
ATOM     43  C   UNL A   1      40.041  26.141  28.159  1.00  0.00     0.016 A 
ATOM     44  C   UNL A   1      41.520  28.506  28.468  1.00  0.00     0.010 A 
ATOM     45  C   UNL A   1      39.774  27.001  29.227  1.00  0.00     0.010 A 
ATOM     46  C   UNL A   1      40.534  28.172  29.405  1.00  0.00    -0.014 A 
BRANCH  46  47
ATOM     47  C   UNL A   1      40.417  28.944  30.667  1.00  0.00     0.031 A 
ATOM     48  C   UNL A   1      39.379  30.031  30.745  1.00  0.00     0.074 A 
ATOM     49  C   UNL A   1      41.204  28.682  31.726  1.00  0.00     0.049 A 
ATOM     50  N   UNL A   1      39.124  30.867  31.719  1.00  0.00    -0.248 NA
ATOM     51  C   UNL A   1      38.515  30.198  29.565  1.00  0.00     0.031 C 
ATOM     52  C   UNL A   1      42.214  27.627  31.792  1.00  0.00     0.029 A 
ATOM     53  N   UNL A   1      41.278  29.296  32.953  1.00  0.00    -0.354 N 
ATOM     54  C   UNL A   1      38.081  31.666  31.266  1.00  0.00     0.074 A 
ATOM     55  C   UNL A   1      37.770  31.235  29.920  1.00  0.00     0.031 C 
ATOM     56  C   UNL A   1      42.813  27.673  32.996  1.00  0.00     0.029 A 
ATOM     57  C   UNL A   1      42.257  28.783  33.770  1.00  0.00     0.049 A 
ATOM     58  H   UNL A   1      40.684  30.034  33.222  1.00  0.00     0.167 HD
ATOM     59  C   UNL A   1      37.435  32.664  31.913  1.00  0.00     0.031 A 
ATOM     60  C   UNL A   1      42.675  29.179  34.989  1.00  0.00     0.031 A 
ATOM     61  C   UNL A   1      37.759  33.102  33.244  1.00  0.00     0.049 A 
ATOM     62  C   UNL A   1      41.998  30.352  35.656  1.00  0.00     0.074 A 
ATOM     63  C   UNL A   1      37.153  34.094  33.993  1.00  0.00     0.029 A 
ATOM     64  N   UNL A   1      38.784  32.583  34.021  1.00  0.00    -0.354 N 
ATOM     65  N   UNL A   1      40.990  31.076  35.229  1.00  0.00    -0.248 NA
ATOM     66  C   UNL A   1      42.512  30.755  36.974  1.00  0.00     0.031 C 
ATOM     67  C   UNL A   1      37.855  34.224  35.195  1.00  0.00     0.029 A 
ATOM     68  C   UNL A   1      38.851  33.261  35.228  1.00  0.00     0.049 A 
ATOM     69  H   UNL A   1      39.376  31.843  33.755  1.00  0.00     0.167 HD
ATOM     70  C   UNL A   1      40.734  32.002  36.236  1.00  0.00     0.074 A 
ATOM     71  C   UNL A   1      41.679  31.733  37.301  1.00  0.00     0.031 C 
ATOM     72  C   UNL A   1      39.800  32.986  36.279  1.00  0.00     0.031 A 
BRANCH  59  73
ATOM     73  C   UNL A   1      36.339  33.381  31.168  1.00  0.00    -0.014 A 
ATOM     74  C   UNL A   1      35.092  33.637  31.768  1.00  0.00     0.010 A 
ATOM     75  C   UNL A   1      36.575  33.839  29.859  1.00  0.00     0.010 A 
ATOM     76  C   UNL A   1      34.089  34.302  31.057  1.00  0.00     0.020 A 
ATOM     77  C   UNL A   1      35.586  34.534  29.157  1.00  0.00     0.020 A 
ATOM     78  C   UNL A   1      34.343  34.747  29.756  1.00  0.00     0.054 A 
BRANCH  78  79
ATOM     79  S   UNL A   1      33.031  35.631  28.868  1.00  0.00     0.124 S 
ATOM     80  O   UNL A   1      32.494  34.584  28.003  1.00  0.00    -0.237 OA
ATOM     81  O   UNL A   1      32.152  36.064  29.951  1.00  0.00    -0.237 OA
ATOM     82  O   UNL A   1      33.741  36.705  28.177  1.00  0.00    -0.744 OA
ENDBRANCH  78  79
ENDBRANCH  59  73
BRANCH  60  83
ATOM     83  C   UNL A   1      43.809  28.479  35.655  1.00  0.00    -0.014 A 
ATOM     84  C   UNL A   1      43.583  27.372  36.492  1.00  0.00     0.010 A 
ATOM     85  C   UNL A   1      45.130  28.927  35.460  1.00  0.00     0.010 A 
ATOM     86  C   UNL A   1      44.652  26.736  37.131  1.00  0.00     0.020 A 
ATOM     87  C   UNL A   1      46.204  28.274  36.072  1.00  0.00     0.020 A 
ATOM     88  C   UNL A   1      45.957  27.187  36.912  1.00  0.00     0.054 A 
BRANCH  88  89
ATOM     89  S   UNL A   1      47.331  26.309  37.706  1.00  0.00     0.124 S 
ATOM     90  O   UNL A   1      48.456  26.661  36.848  1.00  0.00    -0.237 OA
ATOM     91  O   UNL A   1      47.346  26.896  39.044  1.00  0.00    -0.237 OA
ATOM     92  O   UNL A   1      46.917  24.908  37.654  1.00  0.00    -0.744 OA
ENDBRANCH  88  89
ENDBRANCH  60  83
BRANCH  72  93
ATOM     93  C   UNL A   1      39.725  33.829  37.526  1.00  0.00    -0.014 A 
ATOM     94  C   UNL A   1      40.375  35.074  37.609  1.00  0.00     0.010 A 
ATOM     95  C   UNL A   1      38.938  33.396  38.611  1.00  0.00     0.010 A 
ATOM     96  C   UNL A   1      40.264  35.854  38.764  1.00  0.00     0.020 A 
ATOM     97  C   UNL A   1      38.798  34.188  39.753  1.00  0.00     0.020 A 
ATOM     98  C   UNL A   1      39.473  35.407  39.827  1.00  0.00     0.054 A 
BRANCH  98  99
ATOM     99  S   UNL A   1      39.309  36.461  41.295  1.00  0.00     0.124 S 
ATOM    100  O   UNL A   1      38.297  35.750  42.070  1.00  0.00    -0.237 OA
ATOM    101  O   UNL A   1      40.659  36.440  41.855  1.00  0.00    -0.237 OA
ATOM    102  O   UNL A   1      38.885  37.750  40.753  1.00  0.00    -0.744 OA
ENDBRANCH  98  99
ENDBRANCH  72  93
ENDBRANCH  46  47
ENDBRANCH  39  41
ENDBRANCH  38  39
ENDBRANCH  37  38
ENDBRANCH  36  37
ENDBRANCH  35  36
ENDBRANCH  34  35
ENDBRANCH   1  34
TORSDOF 27
ENDMDL
MODEL 3
REMARK VINA RESULT:     -10.1      1.732      2.573
REMARK SMILES Cc1cc2nc(S/C(=C\c3ccc(O)cc3)C(=O)OCCOCCOCCOCCOC(=O)c3ccc(-c4c5nc(c(-c6ccc(S(=O)(=O)[O-])cc6)c6ccc([nH]6)c(-c6ccc(S(=O)(=O)[O-])cc6)c6nc(c(-c7ccc(S(=O)(=O)[O-])cc7)c7ccc4[nH]7)C=C6)C=C5)cc3)[nH]c2cc1C
REMARK SMILES IDX 26 1 25 2 24 3 23 4 22 5 21 6 20 7 19 8 17 9 18 10 8 11 9 12
REMARK SMILES IDX 7 13 6 14 1 15 2 16 3 17 97 18 4 19 96 20 98 21 5 22 95 23
REMARK SMILES IDX 94 24 10 26 11 27 16 28 12 29 15 30 13 31 14 32 27 34 28 35
REMARK SMILES IDX 29 36 30 37 31 38 32 39 33 40 34 41 35 42 93 43 36 44 92 45
REMARK SMILES IDX 37 46 38 47 39 48 86 49 40 50 91 51 85 52 87 53 41 54 90 55
REMARK SMILES IDX 84 56 83 57 42 59 72 60 53 61 71 62 54 63 57 64 70 65 88 66
REMARK SMILES IDX 55 67 56 68 69 70 89 71 58 72 43 73 44 74 52 75 45 76 51 77
REMARK SMILES IDX 46 78 47 79 48 80 49 81 50 82 73 83 74 84 82 85 75 86 81 87
REMARK SMILES IDX 76 88 77 89 78 90 79 91 80 92 59 93 60 94 68 95 61 96 67 97
REMARK SMILES IDX 62 98 63 99 64 100 65 101 66 102
REMARK H PARENT 94 25 14 33 87 58 57 69
REMARK Flexibility Score: inf
ROOT
ATOM      1  C   UNL A   1      38.853  21.867  26.050  1.00  0.00     0.188 C 
ENDROOT
BRANCH   1   2
ATOM      2  O   UNL A   1      38.328  23.188  26.178  1.00  0.00    -0.377 OA
BRANCH   2   3
ATOM      3  C   UNL A   1      37.238  23.574  25.360  1.00  0.00     0.188 C 
BRANCH   3   4
ATOM      4  C   UNL A   1      36.637  22.436  24.511  1.00  0.00     0.188 C 
BRANCH   4   5
ATOM      5  O   UNL A   1      35.404  21.937  24.989  1.00  0.00    -0.376 OA
BRANCH   5   6
ATOM      6  C   UNL A   1      35.190  21.656  26.362  1.00  0.00     0.202 C 
BRANCH   6   7
ATOM      7  C   UNL A   1      34.246  22.429  27.300  1.00  0.00     0.261 C 
BRANCH   7   8
ATOM      8  O   UNL A   1      33.691  23.645  26.803  1.00  0.00    -0.459 OA
BRANCH   8   9
ATOM      9  C   UNL A   1      32.344  23.774  26.758  1.00  0.00     0.345 C 
ATOM     10  O   UNL A   1      31.573  23.498  27.664  1.00  0.00    -0.246 OA
BRANCH   9  11
ATOM     11  C   UNL A   1      31.961  24.457  25.462  1.00  0.00     0.101 C 
ATOM     12  C   UNL A   1      32.273  25.768  25.377  1.00  0.00     0.031 C 
BRANCH  11  13
ATOM     13  S   UNL A   1      31.061  23.397  24.424  1.00  0.00    -0.044 SA
BRANCH  13  14
ATOM     14  C   UNL A   1      31.762  21.832  24.484  1.00  0.00     0.171 A 
ATOM     15  C   UNL A   1      33.340  16.299  25.864  1.00  0.00     0.044 C 
ATOM     16  C   UNL A   1      33.094  17.565  25.088  1.00  0.00    -0.046 A 
ATOM     17  C   UNL A   1      32.479  18.641  25.767  1.00  0.00     0.034 A 
ATOM     18  C   UNL A   1      33.512  17.728  23.749  1.00  0.00    -0.046 A 
ATOM     19  C   UNL A   1      32.310  19.867  25.108  1.00  0.00     0.090 A 
ATOM     20  C   UNL A   1      33.460  18.993  23.134  1.00  0.00     0.032 A 
ATOM     21  C   UNL A   1      34.013  16.572  22.923  1.00  0.00     0.044 C 
ATOM     22  N   UNL A   1      31.650  21.005  25.502  1.00  0.00    -0.222 NA
ATOM     23  C   UNL A   1      32.853  20.027  23.842  1.00  0.00     0.066 A 
ATOM     24  N   UNL A   1      32.595  21.337  23.526  1.00  0.00    -0.333 N 
ATOM     25  H   UNL A   1      32.948  21.830  22.750  1.00  0.00     0.169 HD
ENDBRANCH  13  14
ENDBRANCH  11  13
BRANCH  12  26
ATOM     26  C   UNL A   1      32.038  26.767  24.332  1.00  0.00    -0.024 A 
ATOM     27  C   UNL A   1      33.022  27.183  23.430  1.00  0.00     0.012 A 
ATOM     28  C   UNL A   1      30.757  27.336  24.266  1.00  0.00     0.012 A 
ATOM     29  C   UNL A   1      32.766  28.248  22.561  1.00  0.00     0.047 A 
ATOM     30  C   UNL A   1      30.497  28.388  23.391  1.00  0.00     0.047 A 
ATOM     31  C   UNL A   1      31.517  28.863  22.578  1.00  0.00     0.115 A 
BRANCH  31  32
ATOM     32  O   UNL A   1      31.275  29.986  21.843  1.00  0.00    -0.508 OA
ATOM     33  H   UNL A   1      30.401  30.193  21.581  1.00  0.00     0.293 HD
ENDBRANCH  31  32
ENDBRANCH  12  26
ENDBRANCH   9  11
ENDBRANCH   8   9
ENDBRANCH   7   8
ENDBRANCH   6   7
ENDBRANCH   5   6
ENDBRANCH   4   5
ENDBRANCH   3   4
ENDBRANCH   2   3
ENDBRANCH   1   2
BRANCH   1  34
ATOM     34  C   UNL A   1      40.166  21.420  26.741  1.00  0.00     0.188 C 
BRANCH  34  35
ATOM     35  O   UNL A   1      40.572  22.229  27.835  1.00  0.00    -0.376 OA
BRANCH  35  36
ATOM     36  C   UNL A   1      41.831  22.874  27.773  1.00  0.00     0.202 C 
BRANCH  36  37
ATOM     37  C   UNL A   1      41.951  24.069  26.818  1.00  0.00     0.261 C 
BRANCH  37  38
ATOM     38  O   UNL A   1      40.887  25.030  26.879  1.00  0.00    -0.460 OA
BRANCH  38  39
ATOM     39  C   UNL A   1      41.174  26.293  26.499  1.00  0.00     0.338 C 
ATOM     40  O   UNL A   1      41.458  26.674  25.374  1.00  0.00    -0.246 OA
BRANCH  39  41
ATOM     41  C   UNL A   1      40.901  27.177  27.649  1.00  0.00     0.060 A 
ATOM     42  C   UNL A   1      41.416  28.480  27.647  1.00  0.00     0.016 A 
ATOM     43  C   UNL A   1      40.125  26.723  28.717  1.00  0.00     0.016 A 
ATOM     44  C   UNL A   1      41.179  29.324  28.731  1.00  0.00     0.010 A 
ATOM     45  C   UNL A   1      39.904  27.564  29.811  1.00  0.00     0.010 A 
ATOM     46  C   UNL A   1      40.457  28.858  29.838  1.00  0.00    -0.014 A 
BRANCH  46  47
ATOM     47  C   UNL A   1      40.434  29.645  31.095  1.00  0.00     0.031 A 
ATOM     48  C   UNL A   1      41.522  29.406  32.108  1.00  0.00     0.074 A 
ATOM     49  C   UNL A   1      39.477  30.560  31.333  1.00  0.00     0.049 A 
ATOM     50  N   UNL A   1      41.682  29.935  33.293  1.00  0.00    -0.248 NA
ATOM     51  C   UNL A   1      42.566  28.440  31.732  1.00  0.00     0.031 C 
ATOM     52  C   UNL A   1      38.397  30.917  30.414  1.00  0.00     0.029 A 
ATOM     53  N   UNL A   1      39.259  31.355  32.432  1.00  0.00    -0.354 N 
ATOM     54  C   UNL A   1      42.837  29.358  33.809  1.00  0.00     0.074 A 
ATOM     55  C   UNL A   1      43.319  28.417  32.821  1.00  0.00     0.031 C 
ATOM     56  C   UNL A   1      37.625  31.854  30.993  1.00  0.00     0.029 A 
ATOM     57  C   UNL A   1      38.132  32.136  32.335  1.00  0.00     0.049 A 
ATOM     58  H   UNL A   1      39.855  31.364  33.216  1.00  0.00     0.167 HD
ATOM     59  C   UNL A   1      43.444  29.593  34.996  1.00  0.00     0.031 A 
ATOM     60  C   UNL A   1      37.562  32.963  33.235  1.00  0.00     0.031 A 
ATOM     61  C   UNL A   1      42.952  30.516  35.983  1.00  0.00     0.049 A 
ATOM     62  C   UNL A   1      38.209  33.143  34.586  1.00  0.00     0.074 A 
ATOM     63  C   UNL A   1      43.505  30.837  37.210  1.00  0.00     0.029 A 
ATOM     64  N   UNL A   1      41.786  31.257  35.863  1.00  0.00    -0.354 N 
ATOM     65  N   UNL A   1      39.319  32.617  35.047  1.00  0.00    -0.248 NA
ATOM     66  C   UNL A   1      37.529  34.037  35.536  1.00  0.00     0.031 C 
ATOM     67  C   UNL A   1      42.637  31.718  37.862  1.00  0.00     0.029 A 
ATOM     68  C   UNL A   1      41.582  32.006  37.011  1.00  0.00     0.049 A 
ATOM     69  H   UNL A   1      41.191  31.251  35.079  1.00  0.00     0.167 HD
ATOM     70  C   UNL A   1      39.483  33.135  36.329  1.00  0.00     0.074 A 
ATOM     71  C   UNL A   1      38.369  34.031  36.561  1.00  0.00     0.031 C 
ATOM     72  C   UNL A   1      40.466  32.893  37.232  1.00  0.00     0.031 A 
BRANCH  59  73
ATOM     73  C   UNL A   1      44.690  28.805  35.308  1.00  0.00    -0.014 A 
ATOM     74  C   UNL A   1      44.622  27.482  35.782  1.00  0.00     0.010 A 
ATOM     75  C   UNL A   1      45.952  29.387  35.085  1.00  0.00     0.010 A 
ATOM     76  C   UNL A   1      45.791  26.772  36.066  1.00  0.00     0.020 A 
ATOM     77  C   UNL A   1      47.124  28.667  35.336  1.00  0.00     0.020 A 
ATOM     78  C   UNL A   1      47.035  27.369  35.841  1.00  0.00     0.054 A 
BRANCH  78  79
ATOM     79  S   UNL A   1      48.535  26.412  36.193  1.00  0.00     0.124 S 
ATOM     80  O   UNL A   1      48.459  26.256  37.644  1.00  0.00    -0.237 OA
ATOM     81  O   UNL A   1      48.323  25.192  35.419  1.00  0.00    -0.237 OA
ATOM     82  O   UNL A   1      49.616  27.271  35.716  1.00  0.00    -0.744 OA
ENDBRANCH  78  79
ENDBRANCH  59  73
BRANCH  60  83
ATOM     83  C   UNL A   1      36.292  33.667  32.902  1.00  0.00    -0.014 A 
ATOM     84  C   UNL A   1      36.184  35.063  33.039  1.00  0.00     0.010 A 
ATOM     85  C   UNL A   1      35.174  32.939  32.453  1.00  0.00     0.010 A 
ATOM     86  C   UNL A   1      34.980  35.714  32.748  1.00  0.00     0.020 A 
ATOM     87  C   UNL A   1      33.980  33.589  32.130  1.00  0.00     0.020 A 
ATOM     88  C   UNL A   1      33.888  34.972  32.288  1.00  0.00     0.054 A 
BRANCH  88  89
ATOM     89  S   UNL A   1      32.356  35.846  31.861  1.00  0.00     0.124 S 
ATOM     90  O   UNL A   1      32.282  35.647  30.418  1.00  0.00    -0.237 OA
ATOM     91  O   UNL A   1      31.357  35.132  32.652  1.00  0.00    -0.237 OA
ATOM     92  O   UNL A   1      32.614  37.219  32.291  1.00  0.00    -0.744 OA
ENDBRANCH  88  89
ENDBRANCH  60  83
BRANCH  72  93
ATOM     93  C   UNL A   1      40.408  33.628  38.546  1.00  0.00    -0.014 A 
ATOM     94  C   UNL A   1      40.675  35.007  38.628  1.00  0.00     0.010 A 
ATOM     95  C   UNL A   1      40.019  32.939  39.711  1.00  0.00     0.010 A 
ATOM     96  C   UNL A   1      40.583  35.674  39.853  1.00  0.00     0.020 A 
ATOM     97  C   UNL A   1      39.894  33.608  40.930  1.00  0.00     0.020 A 
ATOM     98  C   UNL A   1      40.189  34.971  40.995  1.00  0.00     0.054 A 
BRANCH  98  99
ATOM     99  S   UNL A   1      40.033  35.872  42.563  1.00  0.00     0.124 S 
ATOM    100  O   UNL A   1      40.801  35.030  43.476  1.00  0.00    -0.237 OA
ATOM    101  O   UNL A   1      40.633  37.167  42.248  1.00  0.00    -0.237 OA
ATOM    102  O   UNL A   1      38.593  35.901  42.806  1.00  0.00    -0.744 OA
ENDBRANCH  98  99
ENDBRANCH  72  93
ENDBRANCH  46  47
ENDBRANCH  39  41
ENDBRANCH  38  39
ENDBRANCH  37  38
ENDBRANCH  36  37
ENDBRANCH  35  36
ENDBRANCH  34  35
ENDBRANCH   1  34
TORSDOF 27
ENDMDL
