MODEL 1
REMARK VINA RESULT:      -9.4      0.000      0.000
REMARK SMILES O=C(OCCOCCOCCOCCOC(=O)[C@H]1C=C[C@@H](NS(=O)(=O)c2ccccc2)C1)c1ccc(-c2c3nc(c(-c4ccc(S(=O)(=O)[O-])cc4)c4ccc([nH]4)c(-c4ccc(S(=O)(=O)[O-])cc4)c4nc(c(-c5ccc(S(=O)(=O)[O-])cc5)c5ccc2[nH]5)C=C4)C=C3)cc1
REMARK SMILES IDX 9 1 8 2 7 3 6 4 5 5 4 6 3 7 2 8 1 9 33 10 34 11 92 12 35 13
REMARK SMILES IDX 91 14 36 15 37 16 38 17 85 18 39 19 90 20 84 21 86 22 40 23
REMARK SMILES IDX 89 24 83 25 82 26 41 28 71 29 52 30 70 31 53 32 56 33 69 34
REMARK SMILES IDX 87 35 54 36 55 37 68 39 88 40 57 41 42 42 43 43 51 44 44 45
REMARK SMILES IDX 50 46 45 47 46 48 47 49 48 50 49 51 72 52 73 53 81 54 74 55
REMARK SMILES IDX 80 56 75 57 76 58 77 59 78 60 79 61 58 62 59 63 67 64 60 65
REMARK SMILES IDX 66 66 61 67 62 68 63 69 64 70 65 71 10 72 11 73 12 74 13 75
REMARK SMILES IDX 14 76 15 77 16 78 17 79 18 80 19 81 32 82 20 83 21 84 22 85
REMARK SMILES IDX 23 87 24 88 25 89 26 90 27 91 31 92 28 93 30 94 29 95
REMARK H PARENT 86 27 56 38 22 86
REMARK Flexibility Score: inf
ROOT
ATOM      1  O   UNL A   1      39.023  22.486  26.316  1.00  0.00    -0.377 OA
ENDROOT
BRANCH   1   2
ATOM      2  C   UNL A   1      39.676  23.453  27.119  1.00  0.00     0.188 C 
BRANCH   2   3
ATOM      3  C   UNL A   1      41.087  23.054  27.489  1.00  0.00     0.188 C 
BRANCH   3   4
ATOM      4  O   UNL A   1      41.898  23.013  26.329  1.00  0.00    -0.376 OA
BRANCH   4   5
ATOM      5  C   UNL A   1      43.006  23.899  26.238  1.00  0.00     0.202 C 
BRANCH   5   6
ATOM      6  C   UNL A   1      42.988  24.879  25.074  1.00  0.00     0.261 C 
BRANCH   6   7
ATOM      7  O   UNL A   1      42.017  25.935  25.161  1.00  0.00    -0.460 OA
BRANCH   7   8
ATOM      8  C   UNL A   1      42.138  27.242  25.488  1.00  0.00     0.338 C 
ATOM      9  O   UNL A   1      42.374  28.042  24.582  1.00  0.00    -0.246 OA
BRANCH   8  10
ATOM     10  C   UNL A   1      42.025  27.790  26.870  1.00  0.00     0.060 A 
ATOM     11  C   UNL A   1      41.225  27.270  27.881  1.00  0.00     0.016 A 
ATOM     12  C   UNL A   1      42.884  28.845  27.211  1.00  0.00     0.016 A 
ATOM     13  C   UNL A   1      41.204  27.781  29.157  1.00  0.00     0.010 A 
ATOM     14  C   UNL A   1      42.892  29.371  28.506  1.00  0.00     0.010 A 
ATOM     15  C   UNL A   1      42.024  28.846  29.468  1.00  0.00    -0.014 A 
BRANCH  15  16
ATOM     16  C   UNL A   1      41.731  29.507  30.740  1.00  0.00     0.031 A 
ATOM     17  C   UNL A   1      40.479  30.321  30.796  1.00  0.00     0.074 A 
ATOM     18  C   UNL A   1      42.440  29.184  31.836  1.00  0.00     0.049 A 
ATOM     19  N   UNL A   1      40.021  31.059  31.762  1.00  0.00    -0.248 NA
ATOM     20  C   UNL A   1      39.611  30.283  29.600  1.00  0.00     0.031 C 
ATOM     21  C   UNL A   1      43.534  28.204  31.884  1.00  0.00     0.029 A 
ATOM     22  N   UNL A   1      42.319  29.606  33.129  1.00  0.00    -0.354 N 
ATOM     23  C   UNL A   1      38.850  31.620  31.272  1.00  0.00     0.074 A 
ATOM     24  C   UNL A   1      38.653  31.132  29.931  1.00  0.00     0.031 C 
ATOM     25  C   UNL A   1      43.980  28.104  33.146  1.00  0.00     0.029 A 
ATOM     26  C   UNL A   1      43.267  29.073  33.968  1.00  0.00     0.049 A 
ATOM     27  H   UNL A   1      41.621  30.233  33.429  1.00  0.00     0.167 HD
ATOM     28  C   UNL A   1      38.033  32.492  31.900  1.00  0.00     0.031 A 
ATOM     29  C   UNL A   1      43.552  29.393  35.243  1.00  0.00     0.031 A 
ATOM     30  C   UNL A   1      38.286  32.945  33.237  1.00  0.00     0.049 A 
ATOM     31  C   UNL A   1      42.713  30.472  35.874  1.00  0.00     0.074 A 
ATOM     32  C   UNL A   1      37.603  33.888  33.976  1.00  0.00     0.029 A 
ATOM     33  N   UNL A   1      39.321  32.470  34.034  1.00  0.00    -0.354 N 
ATOM     34  N   UNL A   1      41.669  31.098  35.375  1.00  0.00    -0.248 NA
ATOM     35  C   UNL A   1      43.091  30.902  37.222  1.00  0.00     0.031 C 
ATOM     36  C   UNL A   1      38.264  34.028  35.200  1.00  0.00     0.029 A 
ATOM     37  C   UNL A   1      39.312  33.117  35.252  1.00  0.00     0.049 A 
ATOM     38  H   UNL A   1      39.965  31.775  33.769  1.00  0.00     0.167 HD
ATOM     39  C   UNL A   1      41.249  31.980  36.359  1.00  0.00     0.074 A 
ATOM     40  C   UNL A   1      42.142  31.790  37.488  1.00  0.00     0.031 C 
ATOM     41  C   UNL A   1      40.225  32.871  36.342  1.00  0.00     0.031 A 
BRANCH  28  42
ATOM     42  C   UNL A   1      36.897  33.067  31.106  1.00  0.00    -0.014 A 
ATOM     43  C   UNL A   1      37.111  33.883  29.980  1.00  0.00     0.010 A 
ATOM     44  C   UNL A   1      35.579  32.804  31.520  1.00  0.00     0.010 A 
ATOM     45  C   UNL A   1      36.026  34.444  29.300  1.00  0.00     0.020 A 
ATOM     46  C   UNL A   1      34.492  33.339  30.826  1.00  0.00     0.020 A 
ATOM     47  C   UNL A   1      34.723  34.166  29.726  1.00  0.00     0.054 A 
BRANCH  47  48
ATOM     48  S   UNL A   1      33.335  34.871  28.797  1.00  0.00     0.124 S 
ATOM     49  O   UNL A   1      32.352  35.101  29.853  1.00  0.00    -0.237 OA
ATOM     50  O   UNL A   1      33.922  36.074  28.214  1.00  0.00    -0.237 OA
ATOM     51  O   UNL A   1      32.988  33.823  27.841  1.00  0.00    -0.744 OA
ENDBRANCH  47  48
ENDBRANCH  28  42
BRANCH  29  52
ATOM     52  C   UNL A   1      44.712  28.776  35.945  1.00  0.00    -0.014 A 
ATOM     53  C   UNL A   1      44.556  27.626  36.739  1.00  0.00     0.010 A 
ATOM     54  C   UNL A   1      45.991  29.356  35.840  1.00  0.00     0.010 A 
ATOM     55  C   UNL A   1      45.646  27.092  37.437  1.00  0.00     0.020 A 
ATOM     56  C   UNL A   1      47.089  28.806  36.507  1.00  0.00     0.020 A 
ATOM     57  C   UNL A   1      46.905  27.688  37.318  1.00  0.00     0.054 A 
BRANCH  57  58
ATOM     58  S   UNL A   1      48.304  26.974  38.228  1.00  0.00     0.124 S 
ATOM     59  O   UNL A   1      47.826  25.623  38.505  1.00  0.00    -0.237 OA
ATOM     60  O   UNL A   1      49.393  27.076  37.259  1.00  0.00    -0.237 OA
ATOM     61  O   UNL A   1      48.434  27.844  39.395  1.00  0.00    -0.744 OA
ENDBRANCH  57  58
ENDBRANCH  29  52
BRANCH  41  62
ATOM     62  C   UNL A   1      39.991  33.654  37.600  1.00  0.00    -0.014 A 
ATOM     63  C   UNL A   1      40.540  34.935  37.775  1.00  0.00     0.010 A 
ATOM     64  C   UNL A   1      39.139  33.119  38.583  1.00  0.00     0.010 A 
ATOM     65  C   UNL A   1      40.260  35.660  38.932  1.00  0.00     0.020 A 
ATOM     66  C   UNL A   1      38.827  33.859  39.722  1.00  0.00     0.020 A 
ATOM     67  C   UNL A   1      39.402  35.119  39.895  1.00  0.00     0.054 A 
BRANCH  67  68
ATOM     68  S   UNL A   1      39.007  36.108  41.359  1.00  0.00     0.124 S 
ATOM     69  O   UNL A   1      40.205  35.932  42.175  1.00  0.00    -0.237 OA
ATOM     70  O   UNL A   1      38.815  37.443  40.800  1.00  0.00    -0.237 OA
ATOM     71  O   UNL A   1      37.797  35.479  41.886  1.00  0.00    -0.744 OA
ENDBRANCH  67  68
ENDBRANCH  41  62
ENDBRANCH  15  16
ENDBRANCH   8  10
ENDBRANCH   7   8
ENDBRANCH   6   7
ENDBRANCH   5   6
ENDBRANCH   4   5
ENDBRANCH   3   4
ENDBRANCH   2   3
ENDBRANCH   1   2
BRANCH   1  72
ATOM     72  C   UNL A   1      37.811  22.822  25.648  1.00  0.00     0.188 C 
BRANCH  72  73
ATOM     73  C   UNL A   1      36.987  21.724  24.963  1.00  0.00     0.188 C 
BRANCH  73  74
ATOM     74  O   UNL A   1      35.990  21.156  25.794  1.00  0.00    -0.376 OA
BRANCH  74  75
ATOM     75  C   UNL A   1      34.785  21.910  25.876  1.00  0.00     0.202 C 
BRANCH  75  76
ATOM     76  C   UNL A   1      33.570  21.418  25.054  1.00  0.00     0.261 C 
BRANCH  76  77
ATOM     77  O   UNL A   1      32.826  22.447  24.374  1.00  0.00    -0.463 OA
BRANCH  77  78
ATOM     78  C   UNL A   1      31.810  23.088  25.004  1.00  0.00     0.312 C 
ATOM     79  O   UNL A   1      31.605  23.051  26.210  1.00  0.00    -0.252 OA
BRANCH  78  80
ATOM     80  C   UNL A   1      31.068  24.038  24.056  1.00  0.00     0.123 C 
ATOM     81  C   UNL A   1      30.498  25.327  24.584  1.00  0.00    -0.015 C 
ATOM     82  C   UNL A   1      31.874  24.587  22.886  1.00  0.00     0.043 C 
ATOM     83  C   UNL A   1      30.373  26.237  23.619  1.00  0.00    -0.011 C 
ATOM     84  C   UNL A   1      31.018  25.765  22.370  1.00  0.00     0.093 C 
BRANCH  84  85
ATOM     85  N   UNL A   1      31.886  26.804  21.852  1.00  0.00    -0.204 NA
ATOM     86  H   UNL A   1      31.442  27.695  22.073  1.00  0.00     0.142 HD
BRANCH  85  87
ATOM     87  S   UNL A   1      33.475  26.918  22.370  1.00  0.00     0.241 S 
ATOM     88  O   UNL A   1      34.039  25.582  22.483  1.00  0.00    -0.207 OA
ATOM     89  O   UNL A   1      34.080  27.917  21.531  1.00  0.00    -0.207 OA
BRANCH  87  90
ATOM     90  C   UNL A   1      33.404  27.584  24.007  1.00  0.00     0.082 A 
ATOM     91  C   UNL A   1      33.774  26.849  25.135  1.00  0.00     0.022 A 
ATOM     92  C   UNL A   1      33.008  28.919  24.127  1.00  0.00     0.022 A 
ATOM     93  C   UNL A   1      33.795  27.470  26.383  1.00  0.00     0.001 A 
ATOM     94  C   UNL A   1      33.004  29.527  25.380  1.00  0.00     0.001 A 
ATOM     95  C   UNL A   1      33.410  28.807  26.504  1.00  0.00     0.000 A 
ENDBRANCH  87  90
ENDBRANCH  85  87
ENDBRANCH  84  85
ENDBRANCH  78  80
ENDBRANCH  77  78
ENDBRANCH  76  77
ENDBRANCH  75  76
ENDBRANCH  74  75
ENDBRANCH  73  74
ENDBRANCH  72  73
ENDBRANCH   1  72
TORSDOF 26
ENDMDL
MODEL 2
REMARK VINA RESULT:      -9.1      5.841     10.361
REMARK SMILES O=C(OCCOCCOCCOCCOC(=O)[C@H]1C=C[C@@H](NS(=O)(=O)c2ccccc2)C1)c1ccc(-c2c3nc(c(-c4ccc(S(=O)(=O)[O-])cc4)c4ccc([nH]4)c(-c4ccc(S(=O)(=O)[O-])cc4)c4nc(c(-c5ccc(S(=O)(=O)[O-])cc5)c5ccc2[nH]5)C=C4)C=C3)cc1
REMARK SMILES IDX 9 1 8 2 7 3 6 4 5 5 4 6 3 7 2 8 1 9 33 10 34 11 92 12 35 13
REMARK SMILES IDX 91 14 36 15 37 16 38 17 85 18 39 19 90 20 84 21 86 22 40 23
REMARK SMILES IDX 89 24 83 25 82 26 41 28 71 29 52 30 70 31 53 32 56 33 69 34
REMARK SMILES IDX 87 35 54 36 55 37 68 39 88 40 57 41 42 42 43 43 51 44 44 45
REMARK SMILES IDX 50 46 45 47 46 48 47 49 48 50 49 51 72 52 73 53 81 54 74 55
REMARK SMILES IDX 80 56 75 57 76 58 77 59 78 60 79 61 58 62 59 63 67 64 60 65
REMARK SMILES IDX 66 66 61 67 62 68 63 69 64 70 65 71 10 72 11 73 12 74 13 75
REMARK SMILES IDX 14 76 15 77 16 78 17 79 18 80 19 81 32 82 20 83 21 84 22 85
REMARK SMILES IDX 23 87 24 88 25 89 26 90 27 91 31 92 28 93 30 94 29 95
REMARK H PARENT 86 27 56 38 22 86
REMARK Flexibility Score: inf
ROOT
ATOM      1  O   UNL A   1      39.200  22.013  26.403  1.00  0.00    -0.377 OA
ENDROOT
BRANCH   1   2
ATOM      2  C   UNL A   1      40.251  22.807  26.924  1.00  0.00     0.188 C 
BRANCH   2   3
ATOM      3  C   UNL A   1      41.264  22.002  27.705  1.00  0.00     0.188 C 
BRANCH   3   4
ATOM      4  O   UNL A   1      40.867  20.644  27.756  1.00  0.00    -0.376 OA
BRANCH   4   5
ATOM      5  C   UNL A   1      41.850  19.637  27.550  1.00  0.00     0.202 C 
BRANCH   5   6
ATOM      6  C   UNL A   1      41.843  18.961  26.187  1.00  0.00     0.261 C 
BRANCH   6   7
ATOM      7  O   UNL A   1      42.461  19.700  25.120  1.00  0.00    -0.460 OA
BRANCH   7   8
ATOM      8  C   UNL A   1      43.725  20.151  24.955  1.00  0.00     0.338 C 
ATOM      9  O   UNL A   1      44.541  19.396  24.424  1.00  0.00    -0.246 OA
BRANCH   8  10
ATOM     10  C   UNL A   1      44.215  21.492  25.383  1.00  0.00     0.060 A 
ATOM     11  C   UNL A   1      44.985  21.746  26.513  1.00  0.00     0.016 A 
ATOM     12  C   UNL A   1      43.979  22.568  24.514  1.00  0.00     0.016 A 
ATOM     13  C   UNL A   1      45.460  22.996  26.830  1.00  0.00     0.010 A 
ATOM     14  C   UNL A   1      44.466  23.844  24.807  1.00  0.00     0.010 A 
ATOM     15  C   UNL A   1      45.186  24.054  25.987  1.00  0.00    -0.014 A 
BRANCH  15  16
ATOM     16  C   UNL A   1      45.470  25.380  26.537  1.00  0.00     0.031 A 
ATOM     17  C   UNL A   1      46.762  26.009  26.127  1.00  0.00     0.074 A 
ATOM     18  C   UNL A   1      44.498  26.057  27.174  1.00  0.00     0.049 A 
ATOM     19  N   UNL A   1      47.289  27.131  26.516  1.00  0.00    -0.248 NA
ATOM     20  C   UNL A   1      47.564  25.279  25.123  1.00  0.00     0.031 C 
ATOM     21  C   UNL A   1      43.128  25.574  27.395  1.00  0.00     0.029 A 
ATOM     22  N   UNL A   1      44.496  27.312  27.711  1.00  0.00    -0.354 N 
ATOM     23  C   UNL A   1      48.507  27.213  25.856  1.00  0.00     0.074 A 
ATOM     24  C   UNL A   1      48.642  26.040  25.030  1.00  0.00     0.031 C 
ATOM     25  C   UNL A   1      42.422  26.528  28.022  1.00  0.00     0.029 A 
ATOM     26  C   UNL A   1      43.311  27.642  28.322  1.00  0.00     0.049 A 
ATOM     27  H   UNL A   1      45.269  27.921  27.665  1.00  0.00     0.167 HD
ATOM     28  C   UNL A   1      49.435  28.186  25.965  1.00  0.00     0.031 A 
ATOM     29  C   UNL A   1      43.017  28.706  29.090  1.00  0.00     0.031 A 
ATOM     30  C   UNL A   1      49.244  29.329  26.809  1.00  0.00     0.049 A 
ATOM     31  C   UNL A   1      44.119  29.707  29.312  1.00  0.00     0.074 A 
ATOM     32  C   UNL A   1      50.122  30.355  27.092  1.00  0.00     0.029 A 
ATOM     33  N   UNL A   1      48.071  29.590  27.509  1.00  0.00    -0.354 N 
ATOM     34  N   UNL A   1      45.323  29.733  28.783  1.00  0.00    -0.248 NA
ATOM     35  C   UNL A   1      43.839  30.807  30.237  1.00  0.00     0.031 C 
ATOM     36  C   UNL A   1      49.502  31.203  28.014  1.00  0.00     0.029 A 
ATOM     37  C   UNL A   1      48.209  30.748  28.244  1.00  0.00     0.049 A 
ATOM     38  H   UNL A   1      47.262  29.030  27.483  1.00  0.00     0.167 HD
ATOM     39  C   UNL A   1      45.938  30.867  29.292  1.00  0.00     0.074 A 
ATOM     40  C   UNL A   1      44.962  31.508  30.156  1.00  0.00     0.031 C 
ATOM     41  C   UNL A   1      47.191  31.342  29.077  1.00  0.00     0.031 A 
BRANCH  28  42
ATOM     42  C   UNL A   1      50.740  27.978  25.253  1.00  0.00    -0.014 A 
ATOM     43  C   UNL A   1      50.912  28.313  23.897  1.00  0.00     0.010 A 
ATOM     44  C   UNL A   1      51.812  27.403  25.958  1.00  0.00     0.010 A 
ATOM     45  C   UNL A   1      52.127  28.053  23.257  1.00  0.00     0.020 A 
ATOM     46  C   UNL A   1      53.036  27.168  25.329  1.00  0.00     0.020 A 
ATOM     47  C   UNL A   1      53.182  27.485  23.978  1.00  0.00     0.054 A 
BRANCH  47  48
ATOM     48  S   UNL A   1      54.760  27.200  23.132  1.00  0.00     0.124 S 
ATOM     49  O   UNL A   1      55.287  28.556  23.009  1.00  0.00    -0.237 OA
ATOM     50  O   UNL A   1      55.470  26.332  24.067  1.00  0.00    -0.237 OA
ATOM     51  O   UNL A   1      54.371  26.567  21.873  1.00  0.00    -0.744 OA
ENDBRANCH  47  48
ENDBRANCH  28  42
BRANCH  29  52
ATOM     52  C   UNL A   1      41.695  28.818  29.768  1.00  0.00    -0.014 A 
ATOM     53  C   UNL A   1      40.621  29.494  29.165  1.00  0.00     0.010 A 
ATOM     54  C   UNL A   1      41.508  28.259  31.048  1.00  0.00     0.010 A 
ATOM     55  C   UNL A   1      39.403  29.638  29.840  1.00  0.00     0.020 A 
ATOM     56  C   UNL A   1      40.283  28.370  31.712  1.00  0.00     0.020 A 
ATOM     57  C   UNL A   1      39.244  29.077  31.111  1.00  0.00     0.054 A 
BRANCH  57  58
ATOM     58  S   UNL A   1      37.653  29.271  31.963  1.00  0.00     0.124 S 
ATOM     59  O   UNL A   1      37.685  28.169  32.919  1.00  0.00    -0.237 OA
ATOM     60  O   UNL A   1      37.765  30.612  32.534  1.00  0.00    -0.237 OA
ATOM     61  O   UNL A   1      36.671  29.140  30.888  1.00  0.00    -0.744 OA
ENDBRANCH  57  58
ENDBRANCH  29  52
BRANCH  41  62
ATOM     62  C   UNL A   1      47.544  32.640  29.741  1.00  0.00    -0.014 A 
ATOM     63  C   UNL A   1      48.334  32.675  30.902  1.00  0.00     0.010 A 
ATOM     64  C   UNL A   1      47.138  33.843  29.137  1.00  0.00     0.010 A 
ATOM     65  C   UNL A   1      48.690  33.899  31.466  1.00  0.00     0.020 A 
ATOM     66  C   UNL A   1      47.525  35.068  29.677  1.00  0.00     0.020 A 
ATOM     67  C   UNL A   1      48.287  35.087  30.846  1.00  0.00     0.054 A 
BRANCH  67  68
ATOM     68  S   UNL A   1      48.815  36.662  31.565  1.00  0.00     0.124 S 
ATOM     69  O   UNL A   1      47.701  37.540  31.219  1.00  0.00    -0.237 OA
ATOM     70  O   UNL A   1      48.946  36.338  32.983  1.00  0.00    -0.237 OA
ATOM     71  O   UNL A   1      50.073  36.952  30.878  1.00  0.00    -0.744 OA
ENDBRANCH  67  68
ENDBRANCH  41  62
ENDBRANCH  15  16
ENDBRANCH   8  10
ENDBRANCH   7   8
ENDBRANCH   6   7
ENDBRANCH   5   6
ENDBRANCH   4   5
ENDBRANCH   3   4
ENDBRANCH   2   3
ENDBRANCH   1   2
BRANCH   1  72
ATOM     72  C   UNL A   1      38.140  22.628  25.677  1.00  0.00     0.188 C 
BRANCH  72  73
ATOM     73  C   UNL A   1      37.395  21.835  24.596  1.00  0.00     0.188 C 
BRANCH  73  74
ATOM     74  O   UNL A   1      36.664  20.730  25.100  1.00  0.00    -0.376 OA
BRANCH  74  75
ATOM     75  C   UNL A   1      35.366  21.052  25.591  1.00  0.00     0.202 C 
BRANCH  75  76
ATOM     76  C   UNL A   1      34.158  20.304  24.979  1.00  0.00     0.261 C 
BRANCH  76  77
ATOM     77  O   UNL A   1      33.081  21.142  24.518  1.00  0.00    -0.463 OA
BRANCH  77  78
ATOM     78  C   UNL A   1      32.229  21.712  25.405  1.00  0.00     0.312 C 
ATOM     79  O   UNL A   1      32.299  21.582  26.621  1.00  0.00    -0.252 OA
BRANCH  78  80
ATOM     80  C   UNL A   1      31.289  22.713  24.722  1.00  0.00     0.123 C 
ATOM     81  C   UNL A   1      31.085  24.078  25.322  1.00  0.00    -0.015 C 
ATOM     82  C   UNL A   1      31.658  23.122  23.302  1.00  0.00     0.043 C 
ATOM     83  C   UNL A   1      30.705  24.963  24.403  1.00  0.00    -0.011 C 
ATOM     84  C   UNL A   1      30.793  24.377  23.045  1.00  0.00     0.093 C 
BRANCH  84  85
ATOM     85  N   UNL A   1      31.509  25.286  22.171  1.00  0.00    -0.204 NA
ATOM     86  H   UNL A   1      31.010  26.174  22.200  1.00  0.00     0.142 HD
BRANCH  85  87
ATOM     87  S   UNL A   1      33.124  25.633  22.447  1.00  0.00     0.241 S 
ATOM     88  O   UNL A   1      33.793  24.439  22.940  1.00  0.00    -0.207 OA
ATOM     89  O   UNL A   1      33.578  26.311  21.263  1.00  0.00    -0.207 OA
BRANCH  87  90
ATOM     90  C   UNL A   1      33.147  26.812  23.765  1.00  0.00     0.082 A 
ATOM     91  C   UNL A   1      33.782  26.567  24.984  1.00  0.00     0.022 A 
ATOM     92  C   UNL A   1      32.542  28.047  23.515  1.00  0.00     0.022 A 
ATOM     93  C   UNL A   1      33.853  27.581  25.939  1.00  0.00     0.001 A 
ATOM     94  C   UNL A   1      32.591  29.048  24.483  1.00  0.00     0.001 A 
ATOM     95  C   UNL A   1      33.258  28.818  25.687  1.00  0.00     0.000 A 
ENDBRANCH  87  90
ENDBRANCH  85  87
ENDBRANCH  84  85
ENDBRANCH  78  80
ENDBRANCH  77  78
ENDBRANCH  76  77
ENDBRANCH  75  76
ENDBRANCH  74  75
ENDBRANCH  73  74
ENDBRANCH  72  73
ENDBRANCH   1  72
TORSDOF 26
ENDMDL
MODEL 3
REMARK VINA RESULT:      -8.7      6.088     10.669
REMARK SMILES O=C(OCCOCCOCCOCCOC(=O)[C@H]1C=C[C@@H](NS(=O)(=O)c2ccccc2)C1)c1ccc(-c2c3nc(c(-c4ccc(S(=O)(=O)[O-])cc4)c4ccc([nH]4)c(-c4ccc(S(=O)(=O)[O-])cc4)c4nc(c(-c5ccc(S(=O)(=O)[O-])cc5)c5ccc2[nH]5)C=C4)C=C3)cc1
REMARK SMILES IDX 9 1 8 2 7 3 6 4 5 5 4 6 3 7 2 8 1 9 33 10 34 11 92 12 35 13
REMARK SMILES IDX 91 14 36 15 37 16 38 17 85 18 39 19 90 20 84 21 86 22 40 23
REMARK SMILES IDX 89 24 83 25 82 26 41 28 71 29 52 30 70 31 53 32 56 33 69 34
REMARK SMILES IDX 87 35 54 36 55 37 68 39 88 40 57 41 42 42 43 43 51 44 44 45
REMARK SMILES IDX 50 46 45 47 46 48 47 49 48 50 49 51 72 52 73 53 81 54 74 55
REMARK SMILES IDX 80 56 75 57 76 58 77 59 78 60 79 61 58 62 59 63 67 64 60 65
REMARK SMILES IDX 66 66 61 67 62 68 63 69 64 70 65 71 10 72 11 73 12 74 13 75
REMARK SMILES IDX 14 76 15 77 16 78 17 79 18 80 19 81 32 82 20 83 21 84 22 85
REMARK SMILES IDX 23 87 24 88 25 89 26 90 27 91 31 92 28 93 30 94 29 95
REMARK H PARENT 86 27 56 38 22 86
REMARK Flexibility Score: inf
ROOT
ATOM      1  O   UNL A   1      38.917  21.930  26.276  1.00  0.00    -0.377 OA
ENDROOT
BRANCH   1   2
ATOM      2  C   UNL A   1      39.882  22.864  26.727  1.00  0.00     0.188 C 
BRANCH   2   3
ATOM      3  C   UNL A   1      40.991  22.222  27.530  1.00  0.00     0.188 C 
BRANCH   3   4
ATOM      4  O   UNL A   1      40.717  20.845  27.717  1.00  0.00    -0.376 OA
BRANCH   4   5
ATOM      5  C   UNL A   1      41.788  19.916  27.617  1.00  0.00     0.202 C 
BRANCH   5   6
ATOM      6  C   UNL A   1      41.914  19.179  26.291  1.00  0.00     0.261 C 
BRANCH   6   7
ATOM      7  O   UNL A   1      42.642  19.867  25.260  1.00  0.00    -0.460 OA
BRANCH   7   8
ATOM      8  C   UNL A   1      43.917  20.316  25.208  1.00  0.00     0.338 C 
ATOM      9  O   UNL A   1      44.795  19.517  24.879  1.00  0.00    -0.246 OA
BRANCH   8  10
ATOM     10  C   UNL A   1      44.346  21.705  25.538  1.00  0.00     0.060 A 
ATOM     11  C   UNL A   1      44.981  22.095  26.711  1.00  0.00     0.016 A 
ATOM     12  C   UNL A   1      44.203  22.674  24.534  1.00  0.00     0.016 A 
ATOM     13  C   UNL A   1      45.409  23.382  26.939  1.00  0.00     0.010 A 
ATOM     14  C   UNL A   1      44.645  23.984  24.736  1.00  0.00     0.010 A 
ATOM     15  C   UNL A   1      45.225  24.335  25.959  1.00  0.00    -0.014 A 
BRANCH  15  16
ATOM     16  C   UNL A   1      45.435  25.718  26.387  1.00  0.00     0.031 A 
ATOM     17  C   UNL A   1      46.785  26.301  26.118  1.00  0.00     0.074 A 
ATOM     18  C   UNL A   1      44.384  26.462  26.776  1.00  0.00     0.049 A 
ATOM     19  N   UNL A   1      47.258  27.465  26.450  1.00  0.00    -0.248 NA
ATOM     20  C   UNL A   1      47.727  25.462  25.348  1.00  0.00     0.031 C 
ATOM     21  C   UNL A   1      42.990  26.000  26.830  1.00  0.00     0.029 A 
ATOM     22  N   UNL A   1      44.313  27.771  27.153  1.00  0.00    -0.354 N 
ATOM     23  C   UNL A   1      48.567  27.474  25.988  1.00  0.00     0.074 A 
ATOM     24  C   UNL A   1      48.816  26.212  25.339  1.00  0.00     0.031 C 
ATOM     25  C   UNL A   1      42.206  27.018  27.219  1.00  0.00     0.029 A 
ATOM     26  C   UNL A   1      43.051  28.165  27.524  1.00  0.00     0.049 A 
ATOM     27  H   UNL A   1      45.092  28.374  27.160  1.00  0.00     0.167 HD
ATOM     28  C   UNL A   1      49.479  28.459  26.129  1.00  0.00     0.031 A 
ATOM     29  C   UNL A   1      42.653  29.311  28.105  1.00  0.00     0.031 A 
ATOM     30  C   UNL A   1      49.172  29.693  26.791  1.00  0.00     0.049 A 
ATOM     31  C   UNL A   1      43.719  30.337  28.379  1.00  0.00     0.074 A 
ATOM     32  C   UNL A   1      50.007  30.749  27.088  1.00  0.00     0.029 A 
ATOM     33  N   UNL A   1      47.906  30.028  27.259  1.00  0.00    -0.354 N 
ATOM     34  N   UNL A   1      44.992  30.307  28.051  1.00  0.00    -0.248 NA
ATOM     35  C   UNL A   1      43.310  31.538  29.112  1.00  0.00     0.031 C 
ATOM     36  C   UNL A   1      49.260  31.698  27.792  1.00  0.00     0.029 A 
ATOM     37  C   UNL A   1      47.941  31.266  27.865  1.00  0.00     0.049 A 
ATOM     38  H   UNL A   1      47.104  29.465  27.170  1.00  0.00     0.167 HD
ATOM     39  C   UNL A   1      45.533  31.496  28.514  1.00  0.00     0.074 A 
ATOM     40  C   UNL A   1      44.441  32.230  29.129  1.00  0.00     0.031 C 
ATOM     41  C   UNL A   1      46.811  31.949  28.448  1.00  0.00     0.031 A 
BRANCH  28  42
ATOM     42  C   UNL A   1      50.878  28.175  25.665  1.00  0.00    -0.014 A 
ATOM     43  C   UNL A   1      51.300  28.455  24.352  1.00  0.00     0.010 A 
ATOM     44  C   UNL A   1      51.783  27.583  26.563  1.00  0.00     0.010 A 
ATOM     45  C   UNL A   1      52.595  28.125  23.943  1.00  0.00     0.020 A 
ATOM     46  C   UNL A   1      53.087  27.278  26.167  1.00  0.00     0.020 A 
ATOM     47  C   UNL A   1      53.481  27.541  24.855  1.00  0.00     0.054 A 
BRANCH  47  48
ATOM     48  S   UNL A   1      55.169  27.165  24.308  1.00  0.00     0.124 S 
ATOM     49  O   UNL A   1      54.953  26.750  22.925  1.00  0.00    -0.237 OA
ATOM     50  O   UNL A   1      55.851  28.444  24.481  1.00  0.00    -0.237 OA
ATOM     51  O   UNL A   1      55.600  26.104  25.216  1.00  0.00    -0.744 OA
ENDBRANCH  47  48
ENDBRANCH  28  42
BRANCH  29  52
ATOM     52  C   UNL A   1      41.241  29.495  28.545  1.00  0.00    -0.014 A 
ATOM     53  C   UNL A   1      40.171  29.346  27.645  1.00  0.00     0.010 A 
ATOM     54  C   UNL A   1      40.957  29.847  29.879  1.00  0.00     0.010 A 
ATOM     55  C   UNL A   1      38.855  29.578  28.062  1.00  0.00     0.020 A 
ATOM     56  C   UNL A   1      39.642  30.046  30.309  1.00  0.00     0.020 A 
ATOM     57  C   UNL A   1      38.600  29.929  29.391  1.00  0.00     0.054 A 
BRANCH  57  58
ATOM     58  S   UNL A   1      36.885  30.217  29.908  1.00  0.00     0.124 S 
ATOM     59  O   UNL A   1      36.645  29.090  30.803  1.00  0.00    -0.237 OA
ATOM     60  O   UNL A   1      36.967  31.529  30.547  1.00  0.00    -0.237 OA
ATOM     61  O   UNL A   1      36.139  30.190  28.652  1.00  0.00    -0.744 OA
ENDBRANCH  57  58
ENDBRANCH  29  52
BRANCH  41  62
ATOM     62  C   UNL A   1      47.071  33.319  29.002  1.00  0.00    -0.014 A 
ATOM     63  C   UNL A   1      46.909  34.468  28.212  1.00  0.00     0.010 A 
ATOM     64  C   UNL A   1      47.407  33.448  30.362  1.00  0.00     0.010 A 
ATOM     65  C   UNL A   1      47.107  35.731  28.770  1.00  0.00     0.020 A 
ATOM     66  C   UNL A   1      47.567  34.710  30.931  1.00  0.00     0.020 A 
ATOM     67  C   UNL A   1      47.430  35.842  30.126  1.00  0.00     0.054 A 
BRANCH  67  68
ATOM     68  S   UNL A   1      47.620  37.496  30.839  1.00  0.00     0.124 S 
ATOM     69  O   UNL A   1      48.615  37.262  31.882  1.00  0.00    -0.237 OA
ATOM     70  O   UNL A   1      48.075  38.285  29.698  1.00  0.00    -0.237 OA
ATOM     71  O   UNL A   1      46.278  37.822  31.321  1.00  0.00    -0.744 OA
ENDBRANCH  67  68
ENDBRANCH  41  62
ENDBRANCH  15  16
ENDBRANCH   8  10
ENDBRANCH   7   8
ENDBRANCH   6   7
ENDBRANCH   5   6
ENDBRANCH   4   5
ENDBRANCH   3   4
ENDBRANCH   2   3
ENDBRANCH   1   2
BRANCH   1  72
ATOM     72  C   UNL A   1      37.781  22.382  25.545  1.00  0.00     0.188 C 
BRANCH  72  73
ATOM     73  C   UNL A   1      37.149  21.477  24.481  1.00  0.00     0.188 C 
BRANCH  73  74
ATOM     74  O   UNL A   1      36.297  20.478  25.014  1.00  0.00    -0.376 OA
BRANCH  74  75
ATOM     75  C   UNL A   1      34.990  20.932  25.355  1.00  0.00     0.202 C 
BRANCH  75  76
ATOM     76  C   UNL A   1      33.792  20.310  24.601  1.00  0.00     0.261 C 
BRANCH  76  77
ATOM     77  O   UNL A   1      33.146  21.175  23.647  1.00  0.00    -0.463 OA
BRANCH  77  78
ATOM     78  C   UNL A   1      32.462  22.268  24.068  1.00  0.00     0.312 C 
ATOM     79  O   UNL A   1      31.558  22.249  24.893  1.00  0.00    -0.252 OA
BRANCH  78  80
ATOM     80  C   UNL A   1      33.094  23.565  23.547  1.00  0.00     0.123 C 
ATOM     81  C   UNL A   1      32.281  24.505  22.698  1.00  0.00    -0.015 C 
ATOM     82  C   UNL A   1      33.582  24.547  24.603  1.00  0.00     0.043 C 
ATOM     83  C   UNL A   1      32.745  25.752  22.771  1.00  0.00    -0.011 C 
ATOM     84  C   UNL A   1      33.790  25.861  23.816  1.00  0.00     0.093 C 
BRANCH  84  85
ATOM     85  N   UNL A   1      33.499  26.991  24.675  1.00  0.00    -0.204 NA
ATOM     86  H   UNL A   1      33.372  27.798  24.065  1.00  0.00     0.142 HD
BRANCH  85  87
ATOM     87  S   UNL A   1      32.178  26.956  25.705  1.00  0.00     0.241 S 
ATOM     88  O   UNL A   1      32.034  25.616  26.252  1.00  0.00    -0.207 OA
ATOM     89  O   UNL A   1      32.330  28.102  26.561  1.00  0.00    -0.207 OA
BRANCH  87  90
ATOM     90  C   UNL A   1      30.762  27.248  24.687  1.00  0.00     0.082 A 
ATOM     91  C   UNL A   1      29.716  26.331  24.570  1.00  0.00     0.022 A 
ATOM     92  C   UNL A   1      30.701  28.482  24.033  1.00  0.00     0.022 A 
ATOM     93  C   UNL A   1      28.582  26.671  23.835  1.00  0.00     0.001 A 
ATOM     94  C   UNL A   1      29.577  28.806  23.277  1.00  0.00     0.001 A 
ATOM     95  C   UNL A   1      28.514  27.907  23.190  1.00  0.00     0.000 A 
ENDBRANCH  87  90
ENDBRANCH  85  87
ENDBRANCH  84  85
ENDBRANCH  78  80
ENDBRANCH  77  78
ENDBRANCH  76  77
ENDBRANCH  75  76
ENDBRANCH  74  75
ENDBRANCH  73  74
ENDBRANCH  72  73
ENDBRANCH   1  72
TORSDOF 26
ENDMDL
