MODEL 1
REMARK VINA RESULT:      -9.7      0.000      0.000
REMARK SMILES CC1(C)O[C@](C)([C@H](O)C2CCCCC2)CC[C@H]1C(=O)OCCOCCOCCOCCOC(=O)c1ccc(-c2c3nc(c(-c4ccc(S(=O)(=O)[O-])cc4)c4ccc([nH]4)c(-c4ccc(S(=O)(=O)[O-])cc4)c4nc(c(-c5ccc(S(=O)(=O)[O-])cc5)c5ccc2[nH]5)C=C4)C=C3)cc1
REMARK SMILES IDX 27 1 26 2 25 3 24 4 23 5 22 6 21 7 20 8 18 9 19 10 17 11
REMARK SMILES IDX 1 12 2 13 3 14 4 15 5 16 16 17 6 18 15 19 7 20 9 21 10 22
REMARK SMILES IDX 14 23 11 24 13 25 12 26 8 27 28 29 29 30 30 31 31 32 32 33
REMARK SMILES IDX 33 34 34 35 35 36 36 37 94 38 37 39 93 40 38 41 39 42 40 43
REMARK SMILES IDX 87 44 41 45 92 46 86 47 88 48 42 49 91 50 85 51 84 52 43 54
REMARK SMILES IDX 73 55 54 56 72 57 55 58 58 59 71 60 89 61 56 62 57 63 70 65
REMARK SMILES IDX 90 66 59 67 44 68 45 69 53 70 46 71 52 72 47 73 48 74 49 75
REMARK SMILES IDX 50 76 51 77 74 78 75 79 83 80 76 81 82 82 77 83 78 84 79 85
REMARK SMILES IDX 80 86 81 87 60 88 61 89 69 90 62 91 68 92 63 93 64 94 65 95
REMARK SMILES IDX 66 96 67 97
REMARK H PARENT 8 28 88 53 58 64
REMARK Flexibility Score: inf
ROOT
ATOM      1  C   UNL A   1      31.756  29.905  25.866  1.00  0.00     0.188 C 
ENDROOT
BRANCH   1   2
ATOM      2  O   UNL A   1      31.320  29.072  24.797  1.00  0.00    -0.377 OA
BRANCH   2   3
ATOM      3  C   UNL A   1      30.409  29.555  23.830  1.00  0.00     0.188 C 
BRANCH   3   4
ATOM      4  C   UNL A   1      30.448  28.815  22.495  1.00  0.00     0.188 C 
BRANCH   4   5
ATOM      5  O   UNL A   1      30.448  27.403  22.534  1.00  0.00    -0.376 OA
BRANCH   5   6
ATOM      6  C   UNL A   1      31.643  26.681  22.230  1.00  0.00     0.202 C 
BRANCH   6   7
ATOM      7  C   UNL A   1      32.580  26.117  23.317  1.00  0.00     0.261 C 
BRANCH   7   8
ATOM      8  O   UNL A   1      31.936  25.520  24.471  1.00  0.00    -0.463 OA
BRANCH   8   9
ATOM      9  C   UNL A   1      32.735  24.794  25.278  1.00  0.00     0.311 C 
ATOM     10  O   UNL A   1      33.370  25.298  26.209  1.00  0.00    -0.252 OA
BRANCH   9  11
ATOM     11  C   UNL A   1      32.915  23.304  24.986  1.00  0.00     0.131 C 
ATOM     12  C   UNL A   1      34.706  23.396  23.019  1.00  0.00     0.043 C 
ATOM     13  C   UNL A   1      33.544  22.660  23.699  1.00  0.00     0.077 C 
ATOM     14  C   UNL A   1      32.463  22.421  22.610  1.00  0.00     0.043 C 
ATOM     15  O   UNL A   1      33.955  21.282  23.899  1.00  0.00    -0.366 OA
ATOM     16  C   UNL A   1      34.550  20.843  25.116  1.00  0.00     0.092 C 
ATOM     17  C   UNL A   1      33.499  22.780  26.309  1.00  0.00     0.021 C 
ATOM     18  C   UNL A   1      35.974  21.391  25.316  1.00  0.00     0.045 C 
ATOM     19  C   UNL A   1      33.672  21.284  26.292  1.00  0.00     0.039 C 
BRANCH  16  20
ATOM     20  C   UNL A   1      34.503  19.272  25.096  1.00  0.00     0.149 C 
BRANCH  20  21
ATOM     21  C   UNL A   1      33.451  18.565  24.184  1.00  0.00     0.021 C 
ATOM     22  C   UNL A   1      33.953  17.434  23.283  1.00  0.00     0.006 C 
ATOM     23  C   UNL A   1      32.240  18.032  24.985  1.00  0.00     0.006 C 
ATOM     24  C   UNL A   1      34.373  16.208  24.081  1.00  0.00     0.000 C 
ATOM     25  C   UNL A   1      32.499  16.719  25.732  1.00  0.00     0.000 C 
ATOM     26  C   UNL A   1      33.201  15.658  24.886  1.00  0.00     0.000 C 
ENDBRANCH  20  21
BRANCH  20  27
ATOM     27  O   UNL A   1      35.825  18.764  24.918  1.00  0.00    -0.390 OA
ATOM     28  H   UNL A   1      36.394  19.087  25.633  1.00  0.00     0.211 HD
ENDBRANCH  20  27
ENDBRANCH  16  20
ENDBRANCH   9  11
ENDBRANCH   8   9
ENDBRANCH   7   8
ENDBRANCH   6   7
ENDBRANCH   5   6
ENDBRANCH   4   5
ENDBRANCH   3   4
ENDBRANCH   2   3
ENDBRANCH   1   2
BRANCH   1  29
ATOM     29  C   UNL A   1      32.147  29.244  27.188  1.00  0.00     0.188 C 
BRANCH  29  30
ATOM     30  O   UNL A   1      33.231  29.809  27.933  1.00  0.00    -0.376 OA
BRANCH  30  31
ATOM     31  C   UNL A   1      34.150  30.672  27.270  1.00  0.00     0.202 C 
BRANCH  31  32
ATOM     32  C   UNL A   1      35.627  30.493  27.625  1.00  0.00     0.261 C 
BRANCH  32  33
ATOM     33  O   UNL A   1      35.882  29.326  28.417  1.00  0.00    -0.460 OA
BRANCH  33  34
ATOM     34  C   UNL A   1      36.803  29.489  29.393  1.00  0.00     0.338 C 
ATOM     35  O   UNL A   1      36.609  29.864  30.542  1.00  0.00    -0.246 OA
BRANCH  34  36
ATOM     36  C   UNL A   1      38.110  29.019  28.910  1.00  0.00     0.060 A 
ATOM     37  C   UNL A   1      38.863  28.168  29.727  1.00  0.00     0.016 A 
ATOM     38  C   UNL A   1      38.625  29.491  27.701  1.00  0.00     0.016 A 
ATOM     39  C   UNL A   1      40.159  27.818  29.357  1.00  0.00     0.010 A 
ATOM     40  C   UNL A   1      39.927  29.152  27.338  1.00  0.00     0.010 A 
ATOM     41  C   UNL A   1      40.711  28.347  28.184  1.00  0.00    -0.014 A 
BRANCH  41  42
ATOM     42  C   UNL A   1      42.159  28.208  27.919  1.00  0.00     0.031 A 
ATOM     43  C   UNL A   1      43.042  29.411  28.104  1.00  0.00     0.074 A 
ATOM     44  C   UNL A   1      42.674  27.034  27.517  1.00  0.00     0.049 A 
ATOM     45  N   UNL A   1      44.316  29.550  27.849  1.00  0.00    -0.248 NA
ATOM     46  C   UNL A   1      42.398  30.622  28.642  1.00  0.00     0.031 C 
ATOM     47  C   UNL A   1      41.920  25.791  27.355  1.00  0.00     0.029 A 
ATOM     48  N   UNL A   1      43.954  26.701  27.161  1.00  0.00    -0.354 N 
ATOM     49  C   UNL A   1      44.625  30.865  28.181  1.00  0.00     0.074 A 
ATOM     50  C   UNL A   1      43.399  31.490  28.627  1.00  0.00     0.031 C 
ATOM     51  C   UNL A   1      42.753  24.831  26.918  1.00  0.00     0.029 A 
ATOM     52  C   UNL A   1      44.085  25.404  26.729  1.00  0.00     0.049 A 
ATOM     53  H   UNL A   1      44.709  27.332  27.209  1.00  0.00     0.167 HD
ATOM     54  C   UNL A   1      45.824  31.491  28.121  1.00  0.00     0.031 A 
ATOM     55  C   UNL A   1      45.151  24.763  26.212  1.00  0.00     0.031 A 
ATOM     56  C   UNL A   1      47.031  30.863  27.656  1.00  0.00     0.049 A 
ATOM     57  C   UNL A   1      46.454  25.506  26.073  1.00  0.00     0.074 A 
ATOM     58  C   UNL A   1      48.301  31.402  27.564  1.00  0.00     0.029 A 
ATOM     59  N   UNL A   1      47.115  29.557  27.195  1.00  0.00    -0.354 N 
ATOM     60  N   UNL A   1      46.739  26.743  26.407  1.00  0.00    -0.248 NA
ATOM     61  C   UNL A   1      47.580  24.765  25.490  1.00  0.00     0.031 C 
ATOM     62  C   UNL A   1      49.140  30.444  26.985  1.00  0.00     0.029 A 
ATOM     63  C   UNL A   1      48.409  29.282  26.788  1.00  0.00     0.049 A 
ATOM     64  H   UNL A   1      46.366  28.919  27.164  1.00  0.00     0.167 HD
ATOM     65  C   UNL A   1      48.086  26.916  26.107  1.00  0.00     0.074 A 
ATOM     66  C   UNL A   1      48.560  25.655  25.575  1.00  0.00     0.031 C 
ATOM     67  C   UNL A   1      48.863  28.018  26.261  1.00  0.00     0.031 A 
BRANCH  54  68
ATOM     68  C   UNL A   1      45.873  32.941  28.529  1.00  0.00    -0.014 A 
ATOM     69  C   UNL A   1      45.443  33.962  27.662  1.00  0.00     0.010 A 
ATOM     70  C   UNL A   1      46.331  33.286  29.815  1.00  0.00     0.010 A 
ATOM     71  C   UNL A   1      45.509  35.301  28.058  1.00  0.00     0.020 A 
ATOM     72  C   UNL A   1      46.369  34.622  30.225  1.00  0.00     0.020 A 
ATOM     73  C   UNL A   1      45.973  35.622  29.337  1.00  0.00     0.054 A 
BRANCH  73  74
ATOM     74  S   UNL A   1      46.028  37.368  29.829  1.00  0.00     0.124 S 
ATOM     75  O   UNL A   1      44.788  37.882  29.253  1.00  0.00    -0.237 OA
ATOM     76  O   UNL A   1      46.057  37.287  31.287  1.00  0.00    -0.237 OA
ATOM     77  O   UNL A   1      47.254  37.865  29.210  1.00  0.00    -0.744 OA
ENDBRANCH  73  74
ENDBRANCH  54  68
BRANCH  55  78
ATOM     78  C   UNL A   1      45.026  23.345  25.775  1.00  0.00    -0.014 A 
ATOM     79  C   UNL A   1      45.171  22.997  24.421  1.00  0.00     0.010 A 
ATOM     80  C   UNL A   1      44.768  22.331  26.717  1.00  0.00     0.010 A 
ATOM     81  C   UNL A   1      45.045  21.665  24.015  1.00  0.00     0.020 A 
ATOM     82  C   UNL A   1      44.672  20.995  26.319  1.00  0.00     0.020 A 
ATOM     83  C   UNL A   1      44.801  20.672  24.967  1.00  0.00     0.054 A 
BRANCH  83  84
ATOM     84  S   UNL A   1      44.696  18.945  24.420  1.00  0.00     0.124 S 
ATOM     85  O   UNL A   1      45.752  18.882  23.415  1.00  0.00    -0.237 OA
ATOM     86  O   UNL A   1      44.951  18.210  25.656  1.00  0.00    -0.237 OA
ATOM     87  O   UNL A   1      43.333  18.832  23.905  1.00  0.00    -0.744 OA
ENDBRANCH  83  84
ENDBRANCH  55  78
BRANCH  67  88
ATOM     88  C   UNL A   1      50.320  27.902  25.891  1.00  0.00    -0.014 A 
ATOM     89  C   UNL A   1      51.307  27.661  26.862  1.00  0.00     0.010 A 
ATOM     90  C   UNL A   1      50.695  27.971  24.536  1.00  0.00     0.010 A 
ATOM     91  C   UNL A   1      52.646  27.521  26.488  1.00  0.00     0.020 A 
ATOM     92  C   UNL A   1      52.027  27.799  24.155  1.00  0.00     0.020 A 
ATOM     93  C   UNL A   1      52.997  27.587  25.136  1.00  0.00     0.054 A 
BRANCH  93  94
ATOM     94  S   UNL A   1      54.735  27.350  24.673  1.00  0.00     0.124 S 
ATOM     95  O   UNL A   1      54.621  26.509  23.486  1.00  0.00    -0.237 OA
ATOM     96  O   UNL A   1      55.190  28.718  24.434  1.00  0.00    -0.237 OA
ATOM     97  O   UNL A   1      55.321  26.701  25.843  1.00  0.00    -0.744 OA
ENDBRANCH  93  94
ENDBRANCH  67  88
ENDBRANCH  41  42
ENDBRANCH  34  36
ENDBRANCH  33  34
ENDBRANCH  32  33
ENDBRANCH  31  32
ENDBRANCH  30  31
ENDBRANCH  29  30
ENDBRANCH   1  29
TORSDOF 26
ENDMDL
MODEL 2
REMARK VINA RESULT:      -9.7      0.735      7.900
REMARK SMILES CC1(C)O[C@](C)([C@H](O)C2CCCCC2)CC[C@H]1C(=O)OCCOCCOCCOCCOC(=O)c1ccc(-c2c3nc(c(-c4ccc(S(=O)(=O)[O-])cc4)c4ccc([nH]4)c(-c4ccc(S(=O)(=O)[O-])cc4)c4nc(c(-c5ccc(S(=O)(=O)[O-])cc5)c5ccc2[nH]5)C=C4)C=C3)cc1
REMARK SMILES IDX 27 1 26 2 25 3 24 4 23 5 22 6 21 7 20 8 18 9 19 10 17 11
REMARK SMILES IDX 1 12 2 13 3 14 4 15 5 16 16 17 6 18 15 19 7 20 9 21 10 22
REMARK SMILES IDX 14 23 11 24 13 25 12 26 8 27 28 29 29 30 30 31 31 32 32 33
REMARK SMILES IDX 33 34 34 35 35 36 36 37 94 38 37 39 93 40 38 41 39 42 40 43
REMARK SMILES IDX 87 44 41 45 92 46 86 47 88 48 42 49 91 50 85 51 84 52 43 54
REMARK SMILES IDX 73 55 54 56 72 57 55 58 58 59 71 60 89 61 56 62 57 63 70 65
REMARK SMILES IDX 90 66 59 67 44 68 45 69 53 70 46 71 52 72 47 73 48 74 49 75
REMARK SMILES IDX 50 76 51 77 74 78 75 79 83 80 76 81 82 82 77 83 78 84 79 85
REMARK SMILES IDX 80 86 81 87 60 88 61 89 69 90 62 91 68 92 63 93 64 94 65 95
REMARK SMILES IDX 66 96 67 97
REMARK H PARENT 8 28 88 53 58 64
REMARK Flexibility Score: inf
ROOT
ATOM      1  C   UNL A   1      31.817  29.830  25.850  1.00  0.00     0.188 C 
ENDROOT
BRANCH   1   2
ATOM      2  O   UNL A   1      31.353  29.038  24.763  1.00  0.00    -0.377 OA
BRANCH   2   3
ATOM      3  C   UNL A   1      30.436  29.564  23.825  1.00  0.00     0.188 C 
BRANCH   3   4
ATOM      4  C   UNL A   1      30.437  28.861  22.470  1.00  0.00     0.188 C 
BRANCH   4   5
ATOM      5  O   UNL A   1      30.422  27.448  22.472  1.00  0.00    -0.376 OA
BRANCH   5   6
ATOM      6  C   UNL A   1      31.607  26.722  22.142  1.00  0.00     0.202 C 
BRANCH   6   7
ATOM      7  C   UNL A   1      32.553  26.134  23.209  1.00  0.00     0.261 C 
BRANCH   7   8
ATOM      8  O   UNL A   1      31.918  25.503  24.351  1.00  0.00    -0.463 OA
BRANCH   8   9
ATOM      9  C   UNL A   1      32.735  24.807  25.165  1.00  0.00     0.311 C 
ATOM     10  O   UNL A   1      33.369  25.341  26.081  1.00  0.00    -0.252 OA
BRANCH   9  11
ATOM     11  C   UNL A   1      32.939  23.315  24.903  1.00  0.00     0.131 C 
ATOM     12  C   UNL A   1      34.787  23.396  22.988  1.00  0.00     0.043 C 
ATOM     13  C   UNL A   1      33.612  22.658  23.645  1.00  0.00     0.077 C 
ATOM     14  C   UNL A   1      32.567  22.391  22.528  1.00  0.00     0.043 C 
ATOM     15  O   UNL A   1      34.031  21.288  23.879  1.00  0.00    -0.366 OA
ATOM     16  C   UNL A   1      34.594  20.873  25.119  1.00  0.00     0.092 C 
ATOM     17  C   UNL A   1      33.489  22.818  26.250  1.00  0.00     0.021 C 
ATOM     18  C   UNL A   1      36.006  21.439  25.353  1.00  0.00     0.045 C 
ATOM     19  C   UNL A   1      33.678  21.323  26.262  1.00  0.00     0.039 C 
BRANCH  16  20
ATOM     20  C   UNL A   1      34.563  19.302  25.122  1.00  0.00     0.149 C 
BRANCH  20  21
ATOM     21  C   UNL A   1      33.560  18.569  24.176  1.00  0.00     0.021 C 
ATOM     22  C   UNL A   1      34.101  17.393  23.360  1.00  0.00     0.006 C 
ATOM     23  C   UNL A   1      32.292  18.090  24.918  1.00  0.00     0.006 C 
ATOM     24  C   UNL A   1      34.448  16.198  24.236  1.00  0.00     0.000 C 
ATOM     25  C   UNL A   1      32.480  16.808  25.737  1.00  0.00     0.000 C 
ATOM     26  C   UNL A   1      33.217  15.701  24.986  1.00  0.00     0.000 C 
ENDBRANCH  20  21
BRANCH  20  27
ATOM     27  O   UNL A   1      35.897  18.805  25.012  1.00  0.00    -0.390 OA
ATOM     28  H   UNL A   1      36.430  19.145  25.748  1.00  0.00     0.211 HD
ENDBRANCH  20  27
ENDBRANCH  16  20
ENDBRANCH   9  11
ENDBRANCH   8   9
ENDBRANCH   7   8
ENDBRANCH   6   7
ENDBRANCH   5   6
ENDBRANCH   4   5
ENDBRANCH   3   4
ENDBRANCH   2   3
ENDBRANCH   1   2
BRANCH   1  29
ATOM     29  C   UNL A   1      32.253  29.120  27.132  1.00  0.00     0.188 C 
BRANCH  29  30
ATOM     30  O   UNL A   1      33.394  29.626  27.832  1.00  0.00    -0.376 OA
BRANCH  30  31
ATOM     31  C   UNL A   1      34.290  30.500  27.153  1.00  0.00     0.202 C 
BRANCH  31  32
ATOM     32  C   UNL A   1      35.778  30.317  27.456  1.00  0.00     0.261 C 
BRANCH  32  33
ATOM     33  O   UNL A   1      36.065  29.117  28.186  1.00  0.00    -0.460 OA
BRANCH  33  34
ATOM     34  C   UNL A   1      36.917  29.271  29.224  1.00  0.00     0.338 C 
ATOM     35  O   UNL A   1      36.634  29.547  30.382  1.00  0.00    -0.246 OA
BRANCH  34  36
ATOM     36  C   UNL A   1      38.279  28.930  28.787  1.00  0.00     0.060 A 
ATOM     37  C   UNL A   1      39.144  28.315  29.700  1.00  0.00     0.016 A 
ATOM     38  C   UNL A   1      38.724  29.300  27.516  1.00  0.00     0.016 A 
ATOM     39  C   UNL A   1      40.477  28.105  29.359  1.00  0.00     0.010 A 
ATOM     40  C   UNL A   1      40.063  29.102  27.181  1.00  0.00     0.010 A 
ATOM     41  C   UNL A   1      40.951  28.541  28.116  1.00  0.00    -0.014 A 
BRANCH  41  42
ATOM     42  C   UNL A   1      42.405  28.573  27.848  1.00  0.00     0.031 A 
ATOM     43  C   UNL A   1      43.059  27.343  27.283  1.00  0.00     0.074 A 
ATOM     44  C   UNL A   1      43.127  29.676  28.111  1.00  0.00     0.049 A 
ATOM     45  N   UNL A   1      44.324  27.110  27.052  1.00  0.00    -0.248 NA
ATOM     46  C   UNL A   1      42.166  26.223  26.938  1.00  0.00     0.031 C 
ATOM     47  C   UNL A   1      42.588  30.940  28.611  1.00  0.00     0.029 A 
ATOM     48  N   UNL A   1      44.474  29.902  28.002  1.00  0.00    -0.354 N 
ATOM     49  C   UNL A   1      44.382  25.815  26.549  1.00  0.00     0.074 A 
ATOM     50  C   UNL A   1      43.029  25.302  26.538  1.00  0.00     0.031 C 
ATOM     51  C   UNL A   1      43.600  31.808  28.779  1.00  0.00     0.029 A 
ATOM     52  C   UNL A   1      44.858  31.146  28.438  1.00  0.00     0.049 A 
ATOM     53  H   UNL A   1      45.106  29.236  27.645  1.00  0.00     0.167 HD
ATOM     54  C   UNL A   1      45.466  25.118  26.134  1.00  0.00     0.031 A 
ATOM     55  C   UNL A   1      46.089  31.677  28.575  1.00  0.00     0.031 A 
ATOM     56  C   UNL A   1      46.809  25.633  26.170  1.00  0.00     0.049 A 
ATOM     57  C   UNL A   1      47.289  30.852  28.189  1.00  0.00     0.074 A 
ATOM     58  C   UNL A   1      47.979  25.016  25.765  1.00  0.00     0.029 A 
ATOM     59  N   UNL A   1      47.162  26.886  26.651  1.00  0.00    -0.354 N 
ATOM     60  N   UNL A   1      47.330  29.636  27.697  1.00  0.00    -0.248 NA
ATOM     61  C   UNL A   1      48.607  31.473  28.371  1.00  0.00     0.031 C 
ATOM     62  C   UNL A   1      49.046  25.870  26.061  1.00  0.00     0.029 A 
ATOM     63  C   UNL A   1      48.535  27.050  26.581  1.00  0.00     0.049 A 
ATOM     64  H   UNL A   1      46.530  27.560  26.990  1.00  0.00     0.167 HD
ATOM     65  C   UNL A   1      48.676  29.360  27.479  1.00  0.00     0.074 A 
ATOM     66  C   UNL A   1      49.414  30.540  27.883  1.00  0.00     0.031 C 
ATOM     67  C   UNL A   1      49.251  28.234  26.987  1.00  0.00     0.031 A 
BRANCH  54  68
ATOM     68  C   UNL A   1      45.245  23.710  25.645  1.00  0.00    -0.014 A 
ATOM     69  C   UNL A   1      44.957  22.661  26.537  1.00  0.00     0.010 A 
ATOM     70  C   UNL A   1      45.296  23.437  24.265  1.00  0.00     0.010 A 
ATOM     71  C   UNL A   1      44.766  21.360  26.062  1.00  0.00     0.020 A 
ATOM     72  C   UNL A   1      45.075  22.143  23.784  1.00  0.00     0.020 A 
ATOM     73  C   UNL A   1      44.828  21.109  24.688  1.00  0.00     0.054 A 
BRANCH  73  74
ATOM     74  S   UNL A   1      44.556  19.415  24.101  1.00  0.00     0.124 S 
ATOM     75  O   UNL A   1      43.352  19.031  24.834  1.00  0.00    -0.237 OA
ATOM     76  O   UNL A   1      44.382  19.601  22.662  1.00  0.00    -0.237 OA
ATOM     77  O   UNL A   1      45.775  18.711  24.493  1.00  0.00    -0.744 OA
ENDBRANCH  73  74
ENDBRANCH  54  68
BRANCH  55  78
ATOM     78  C   UNL A   1      46.248  33.056  29.115  1.00  0.00    -0.014 A 
ATOM     79  C   UNL A   1      46.753  33.263  30.410  1.00  0.00     0.010 A 
ATOM     80  C   UNL A   1      45.901  34.171  28.330  1.00  0.00     0.010 A 
ATOM     81  C   UNL A   1      46.893  34.559  30.916  1.00  0.00     0.020 A 
ATOM     82  C   UNL A   1      46.069  35.469  28.822  1.00  0.00     0.020 A 
ATOM     83  C   UNL A   1      46.554  35.654  30.117  1.00  0.00     0.054 A 
BRANCH  83  84
ATOM     84  S   UNL A   1      46.798  37.326  30.778  1.00  0.00     0.124 S 
ATOM     85  O   UNL A   1      48.062  37.187  31.494  1.00  0.00    -0.237 OA
ATOM     86  O   UNL A   1      46.841  38.138  29.565  1.00  0.00    -0.237 OA
ATOM     87  O   UNL A   1      45.620  37.536  31.618  1.00  0.00    -0.744 OA
ENDBRANCH  83  84
ENDBRANCH  55  78
BRANCH  67  88
ATOM     88  C   UNL A   1      50.749  28.234  26.813  1.00  0.00    -0.014 A 
ATOM     89  C   UNL A   1      51.347  28.581  25.589  1.00  0.00     0.010 A 
ATOM     90  C   UNL A   1      51.571  27.944  27.918  1.00  0.00     0.010 A 
ATOM     91  C   UNL A   1      52.738  28.608  25.466  1.00  0.00     0.020 A 
ATOM     92  C   UNL A   1      52.962  28.002  27.808  1.00  0.00     0.020 A 
ATOM     93  C   UNL A   1      53.537  28.322  26.577  1.00  0.00     0.054 A 
BRANCH  93  94
ATOM     94  S   UNL A   1      55.340  28.415  26.402  1.00  0.00     0.124 S 
ATOM     95  O   UNL A   1      55.732  29.070  27.646  1.00  0.00    -0.237 OA
ATOM     96  O   UNL A   1      55.722  27.010  26.284  1.00  0.00    -0.237 OA
ATOM     97  O   UNL A   1      55.532  29.211  25.191  1.00  0.00    -0.744 OA
ENDBRANCH  93  94
ENDBRANCH  67  88
ENDBRANCH  41  42
ENDBRANCH  34  36
ENDBRANCH  33  34
ENDBRANCH  32  33
ENDBRANCH  31  32
ENDBRANCH  30  31
ENDBRANCH  29  30
ENDBRANCH   1  29
TORSDOF 26
ENDMDL
MODEL 3
REMARK VINA RESULT:      -9.6      2.088      8.193
REMARK SMILES CC1(C)O[C@](C)([C@H](O)C2CCCCC2)CC[C@H]1C(=O)OCCOCCOCCOCCOC(=O)c1ccc(-c2c3nc(c(-c4ccc(S(=O)(=O)[O-])cc4)c4ccc([nH]4)c(-c4ccc(S(=O)(=O)[O-])cc4)c4nc(c(-c5ccc(S(=O)(=O)[O-])cc5)c5ccc2[nH]5)C=C4)C=C3)cc1
REMARK SMILES IDX 27 1 26 2 25 3 24 4 23 5 22 6 21 7 20 8 18 9 19 10 17 11
REMARK SMILES IDX 1 12 2 13 3 14 4 15 5 16 16 17 6 18 15 19 7 20 9 21 10 22
REMARK SMILES IDX 14 23 11 24 13 25 12 26 8 27 28 29 29 30 30 31 31 32 32 33
REMARK SMILES IDX 33 34 34 35 35 36 36 37 94 38 37 39 93 40 38 41 39 42 40 43
REMARK SMILES IDX 87 44 41 45 92 46 86 47 88 48 42 49 91 50 85 51 84 52 43 54
REMARK SMILES IDX 73 55 54 56 72 57 55 58 58 59 71 60 89 61 56 62 57 63 70 65
REMARK SMILES IDX 90 66 59 67 44 68 45 69 53 70 46 71 52 72 47 73 48 74 49 75
REMARK SMILES IDX 50 76 51 77 74 78 75 79 83 80 76 81 82 82 77 83 78 84 79 85
REMARK SMILES IDX 80 86 81 87 60 88 61 89 69 90 62 91 68 92 63 93 64 94 65 95
REMARK SMILES IDX 66 96 67 97
REMARK H PARENT 8 28 88 53 58 64
REMARK Flexibility Score: inf
ROOT
ATOM      1  C   UNL A   1      32.939  30.123  25.831  1.00  0.00     0.188 C 
ENDROOT
BRANCH   1   2
ATOM      2  O   UNL A   1      32.991  28.908  25.091  1.00  0.00    -0.377 OA
BRANCH   2   3
ATOM      3  C   UNL A   1      33.327  28.913  23.718  1.00  0.00     0.188 C 
BRANCH   3   4
ATOM      4  C   UNL A   1      32.210  28.443  22.789  1.00  0.00     0.188 C 
BRANCH   4   5
ATOM      5  O   UNL A   1      30.931  29.017  22.968  1.00  0.00    -0.376 OA
BRANCH   5   6
ATOM      6  C   UNL A   1      29.767  28.191  22.922  1.00  0.00     0.202 C 
BRANCH   6   7
ATOM      7  C   UNL A   1      29.599  26.932  23.798  1.00  0.00     0.261 C 
BRANCH   7   8
ATOM      8  O   UNL A   1      30.319  26.927  25.057  1.00  0.00    -0.463 OA
BRANCH   8   9
ATOM      9  C   UNL A   1      30.167  25.822  25.814  1.00  0.00     0.311 C 
ATOM     10  O   UNL A   1      29.143  25.602  26.467  1.00  0.00    -0.252 OA
BRANCH   9  11
ATOM     11  C   UNL A   1      31.333  24.838  25.921  1.00  0.00     0.131 C 
ATOM     12  C   UNL A   1      31.077  23.513  23.626  1.00  0.00     0.043 C 
ATOM     13  C   UNL A   1      31.541  23.523  25.089  1.00  0.00     0.077 C 
ATOM     14  C   UNL A   1      30.865  22.310  25.784  1.00  0.00     0.043 C 
ATOM     15  O   UNL A   1      32.913  23.047  25.116  1.00  0.00    -0.366 OA
ATOM     16  C   UNL A   1      34.020  23.940  25.073  1.00  0.00     0.092 C 
ATOM     17  C   UNL A   1      32.552  25.776  25.943  1.00  0.00     0.021 C 
ATOM     18  C   UNL A   1      34.188  24.618  23.702  1.00  0.00     0.045 C 
ATOM     19  C   UNL A   1      33.838  25.019  26.147  1.00  0.00     0.039 C 
BRANCH  16  20
ATOM     20  C   UNL A   1      35.284  23.108  25.496  1.00  0.00     0.149 C 
BRANCH  20  21
ATOM     21  C   UNL A   1      36.638  23.377  24.766  1.00  0.00     0.021 C 
ATOM     22  C   UNL A   1      37.839  23.757  25.636  1.00  0.00     0.006 C 
ATOM     23  C   UNL A   1      37.063  22.200  23.858  1.00  0.00     0.006 C 
ATOM     24  C   UNL A   1      38.312  22.596  26.499  1.00  0.00     0.000 C 
ATOM     25  C   UNL A   1      37.683  21.013  24.604  1.00  0.00     0.000 C 
ATOM     26  C   UNL A   1      38.736  21.415  25.634  1.00  0.00     0.000 C 
ENDBRANCH  20  21
BRANCH  20  27
ATOM     27  O   UNL A   1      35.406  23.126  26.918  1.00  0.00    -0.390 OA
ATOM     28  H   UNL A   1      35.736  22.267  27.225  1.00  0.00     0.211 HD
ENDBRANCH  20  27
ENDBRANCH  16  20
ENDBRANCH   9  11
ENDBRANCH   8   9
ENDBRANCH   7   8
ENDBRANCH   6   7
ENDBRANCH   5   6
ENDBRANCH   4   5
ENDBRANCH   3   4
ENDBRANCH   2   3
ENDBRANCH   1   2
BRANCH   1  29
ATOM     29  C   UNL A   1      33.616  30.169  27.201  1.00  0.00     0.188 C 
BRANCH  29  30
ATOM     30  O   UNL A   1      34.950  30.680  27.280  1.00  0.00    -0.376 OA
BRANCH  30  31
ATOM     31  C   UNL A   1      35.266  31.637  28.286  1.00  0.00     0.202 C 
BRANCH  31  32
ATOM     32  C   UNL A   1      36.716  31.659  28.773  1.00  0.00     0.261 C 
BRANCH  32  33
ATOM     33  O   UNL A   1      36.837  31.559  30.197  1.00  0.00    -0.460 OA
BRANCH  33  34
ATOM     34  C   UNL A   1      36.973  30.301  30.672  1.00  0.00     0.338 C 
ATOM     35  O   UNL A   1      36.185  29.683  31.376  1.00  0.00    -0.246 OA
BRANCH  34  36
ATOM     36  C   UNL A   1      38.190  29.699  30.107  1.00  0.00     0.060 A 
ATOM     37  C   UNL A   1      39.191  29.258  30.981  1.00  0.00     0.016 A 
ATOM     38  C   UNL A   1      38.377  29.656  28.723  1.00  0.00     0.016 A 
ATOM     39  C   UNL A   1      40.408  28.811  30.472  1.00  0.00     0.010 A 
ATOM     40  C   UNL A   1      39.601  29.221  28.216  1.00  0.00     0.010 A 
ATOM     41  C   UNL A   1      40.632  28.836  29.090  1.00  0.00    -0.014 A 
BRANCH  41  42
ATOM     42  C   UNL A   1      41.997  28.626  28.559  1.00  0.00     0.031 A 
ATOM     43  C   UNL A   1      42.389  27.245  28.113  1.00  0.00     0.074 A 
ATOM     44  C   UNL A   1      42.867  29.647  28.481  1.00  0.00     0.049 A 
ATOM     45  N   UNL A   1      43.549  26.807  27.699  1.00  0.00    -0.248 NA
ATOM     46  C   UNL A   1      41.333  26.218  28.146  1.00  0.00     0.031 C 
ATOM     47  C   UNL A   1      42.576  31.035  28.837  1.00  0.00     0.029 A 
ATOM     48  N   UNL A   1      44.180  29.666  28.088  1.00  0.00    -0.354 N 
ATOM     49  C   UNL A   1      43.367  25.454  27.436  1.00  0.00     0.074 A 
ATOM     50  C   UNL A   1      41.995  25.137  27.765  1.00  0.00     0.031 C 
ATOM     51  C   UNL A   1      43.686  31.771  28.656  1.00  0.00     0.029 A 
ATOM     52  C   UNL A   1      44.773  30.898  28.215  1.00  0.00     0.049 A 
ATOM     53  H   UNL A   1      44.652  28.872  27.747  1.00  0.00     0.167 HD
ATOM     54  C   UNL A   1      44.265  24.559  26.960  1.00  0.00     0.031 A 
ATOM     55  C   UNL A   1      46.053  31.269  28.025  1.00  0.00     0.031 A 
ATOM     56  C   UNL A   1      45.633  24.883  26.656  1.00  0.00     0.049 A 
ATOM     57  C   UNL A   1      47.056  30.237  27.580  1.00  0.00     0.074 A 
ATOM     58  C   UNL A   1      46.624  24.056  26.160  1.00  0.00     0.029 A 
ATOM     59  N   UNL A   1      46.205  26.135  26.830  1.00  0.00    -0.354 N 
ATOM     60  N   UNL A   1      46.869  28.965  27.315  1.00  0.00    -0.248 NA
ATOM     61  C   UNL A   1      48.442  30.692  27.402  1.00  0.00     0.031 C 
ATOM     62  C   UNL A   1      47.813  24.791  26.097  1.00  0.00     0.029 A 
ATOM     63  C   UNL A   1      47.544  26.096  26.480  1.00  0.00     0.049 A 
ATOM     64  H   UNL A   1      45.730  26.934  27.154  1.00  0.00     0.167 HD
ATOM     65  C   UNL A   1      48.106  28.476  26.907  1.00  0.00     0.074 A 
ATOM     66  C   UNL A   1      49.029  29.592  26.950  1.00  0.00     0.031 C 
ATOM     67  C   UNL A   1      48.448  27.220  26.529  1.00  0.00     0.031 A 
BRANCH  54  68
ATOM     68  C   UNL A   1      43.803  23.136  26.782  1.00  0.00    -0.014 A 
ATOM     69  C   UNL A   1      43.328  22.377  27.867  1.00  0.00     0.010 A 
ATOM     70  C   UNL A   1      43.816  22.556  25.499  1.00  0.00     0.010 A 
ATOM     71  C   UNL A   1      42.915  21.055  27.681  1.00  0.00     0.020 A 
ATOM     72  C   UNL A   1      43.374  21.244  25.303  1.00  0.00     0.020 A 
ATOM     73  C   UNL A   1      42.942  20.496  26.399  1.00  0.00     0.054 A 
BRANCH  73  74
ATOM     74  S   UNL A   1      42.381  18.785  26.185  1.00  0.00     0.124 S 
ATOM     75  O   UNL A   1      41.020  18.975  25.687  1.00  0.00    -0.237 OA
ATOM     76  O   UNL A   1      43.336  18.256  25.214  1.00  0.00    -0.237 OA
ATOM     77  O   UNL A   1      42.479  18.216  27.526  1.00  0.00    -0.744 OA
ENDBRANCH  73  74
ENDBRANCH  54  68
BRANCH  55  78
ATOM     78  C   UNL A   1      46.463  32.680  28.271  1.00  0.00    -0.014 A 
ATOM     79  C   UNL A   1      46.766  33.122  29.570  1.00  0.00     0.010 A 
ATOM     80  C   UNL A   1      46.557  33.589  27.200  1.00  0.00     0.010 A 
ATOM     81  C   UNL A   1      47.142  34.450  29.796  1.00  0.00     0.020 A 
ATOM     82  C   UNL A   1      46.963  34.908  27.418  1.00  0.00     0.020 A 
ATOM     83  C   UNL A   1      47.242  35.333  28.718  1.00  0.00     0.054 A 
BRANCH  83  84
ATOM     84  S   UNL A   1      47.786  37.036  29.032  1.00  0.00     0.124 S 
ATOM     85  O   UNL A   1      46.769  37.813  28.331  1.00  0.00    -0.237 OA
ATOM     86  O   UNL A   1      47.749  37.110  30.491  1.00  0.00    -0.237 OA
ATOM     87  O   UNL A   1      49.124  37.081  28.446  1.00  0.00    -0.744 OA
ENDBRANCH  83  84
ENDBRANCH  55  78
BRANCH  67  88
ATOM     88  C   UNL A   1      49.870  26.987  26.086  1.00  0.00    -0.014 A 
ATOM     89  C   UNL A   1      50.875  26.627  27.001  1.00  0.00     0.010 A 
ATOM     90  C   UNL A   1      50.188  27.066  24.717  1.00  0.00     0.010 A 
ATOM     91  C   UNL A   1      52.177  26.381  26.558  1.00  0.00     0.020 A 
ATOM     92  C   UNL A   1      51.480  26.789  24.266  1.00  0.00     0.020 A 
ATOM     93  C   UNL A   1      52.471  26.461  25.193  1.00  0.00     0.054 A 
BRANCH  93  94
ATOM     94  S   UNL A   1      54.157  26.085  24.640  1.00  0.00     0.124 S 
ATOM     95  O   UNL A   1      54.966  26.778  25.639  1.00  0.00    -0.237 OA
ATOM     96  O   UNL A   1      54.196  24.626  24.703  1.00  0.00    -0.237 OA
ATOM     97  O   UNL A   1      54.215  26.647  23.293  1.00  0.00    -0.744 OA
ENDBRANCH  93  94
ENDBRANCH  67  88
ENDBRANCH  41  42
ENDBRANCH  34  36
ENDBRANCH  33  34
ENDBRANCH  32  33
ENDBRANCH  31  32
ENDBRANCH  30  31
ENDBRANCH  29  30
ENDBRANCH   1  29
TORSDOF 26
ENDMDL
