MODEL 1
REMARK VINA RESULT:      -7.3      0.000      0.000
REMARK SMILES O=C(Cn1c(=O)[nH]c2ccccc2c1=O)NC[C@H]1CC[C@@H](C(=O)N2CCC(C(=O)OCCOCCOCCOCCOC(=O)c3ccc(-c4c5nc(c(-c6ccc(S(=O)(=O)[O-])cc6)c6ccc([nH]6)c(-c6ccc(S(=O)(=O)[O-])cc6)c6nc(c(-c7ccc(S(=O)(=O)[O-])cc7)c7ccc4[nH]7)C=C6)C=C5)cc3)CC2)CC1
REMARK SMILES IDX 35 1 34 2 33 3 32 4 31 5 30 6 28 7 29 8 27 9 22 10 23 11
REMARK SMILES IDX 24 12 25 13 106 14 26 15 105 16 21 17 18 18 19 19 108 20
REMARK SMILES IDX 20 21 107 22 17 23 16 24 1 25 2 26 3 28 4 29 5 30 14 31 6 32
REMARK SMILES IDX 7 33 13 34 15 35 8 36 12 38 9 39 11 40 10 41 36 42 37 43
REMARK SMILES IDX 38 44 39 45 40 46 41 47 42 48 43 49 44 50 45 51 46 52 104 53
REMARK SMILES IDX 47 54 103 55 48 56 49 57 50 58 97 59 51 60 102 61 96 62
REMARK SMILES IDX 98 63 52 64 101 65 95 66 94 67 53 69 83 70 64 71 82 72 65 73
REMARK SMILES IDX 68 74 81 75 99 76 66 77 67 78 80 80 100 81 69 82 54 83 55 84
REMARK SMILES IDX 63 85 56 86 62 87 57 88 58 89 59 90 60 91 61 92 84 93 85 94
REMARK SMILES IDX 93 95 86 96 92 97 87 98 88 99 89 100 90 101 91 102 70 103
REMARK SMILES IDX 71 104 79 105 72 106 78 107 73 108 74 109 75 110 76 111
REMARK SMILES IDX 77 112
REMARK H PARENT 16 27 7 37 98 68 68 79
REMARK Flexibility Score: inf
ROOT
ATOM      1  C   UNL A   1      38.100  32.098  35.967  1.00  0.00     0.188 C 
ENDROOT
BRANCH   1   2
ATOM      2  C   UNL A   1      37.233  33.358  36.025  1.00  0.00     0.188 C 
BRANCH   2   3
ATOM      3  O   UNL A   1      35.928  33.389  35.474  1.00  0.00    -0.376 OA
BRANCH   3   4
ATOM      4  C   UNL A   1      35.473  34.494  34.704  1.00  0.00     0.202 C 
BRANCH   4   5
ATOM      5  C   UNL A   1      34.685  34.311  33.399  1.00  0.00     0.261 C 
BRANCH   5   6
ATOM      6  O   UNL A   1      34.622  32.976  32.872  1.00  0.00    -0.463 OA
BRANCH   6   7
ATOM      7  C   UNL A   1      34.742  32.862  31.530  1.00  0.00     0.309 C 
ATOM      8  O   UNL A   1      34.009  33.419  30.718  1.00  0.00    -0.252 OA
BRANCH   7   9
ATOM      9  C   UNL A   1      35.820  31.884  31.105  1.00  0.00     0.103 C 
ATOM     10  C   UNL A   1      39.583  29.851  31.221  1.00  0.00     0.225 C 
ATOM     11  O   UNL A   1      40.574  30.518  30.894  1.00  0.00    -0.275 OA
ATOM     12  N   UNL A   1      38.329  30.421  31.177  1.00  0.00    -0.342 N 
ATOM     13  C   UNL A   1      38.040  31.293  30.052  1.00  0.00     0.120 C 
ATOM     14  C   UNL A   1      37.199  30.020  31.986  1.00  0.00     0.120 C 
ATOM     15  C   UNL A   1      37.057  32.408  30.367  1.00  0.00     0.037 C 
ATOM     16  C   UNL A   1      36.280  31.164  32.363  1.00  0.00     0.037 C 
BRANCH  10  17
ATOM     17  C   UNL A   1      39.767  28.324  31.360  1.00  0.00     0.078 C 
ATOM     18  C   UNL A   1      41.427  27.074  29.149  1.00  0.00     0.008 C 
ATOM     19  C   UNL A   1      42.011  28.006  30.227  1.00  0.00     0.006 C 
ATOM     20  C   UNL A   1      39.892  26.947  29.139  1.00  0.00     0.006 C 
ATOM     21  C   UNL A   1      41.254  28.008  31.543  1.00  0.00     0.014 C 
ATOM     22  C   UNL A   1      39.131  27.308  30.418  1.00  0.00     0.014 C 
BRANCH  18  23
ATOM     23  C   UNL A   1      42.027  27.501  27.787  1.00  0.00     0.119 C 
BRANCH  23  24
ATOM     24  N   UNL A   1      43.369  28.050  27.820  1.00  0.00    -0.354 N 
ATOM     25  O   UNL A   1      43.166  29.177  25.828  1.00  0.00    -0.273 OA
ATOM     26  C   UNL A   1      43.750  29.012  26.898  1.00  0.00     0.240 C 
ATOM     27  H   UNL A   1      44.011  27.738  28.498  1.00  0.00     0.163 HD
BRANCH  26  28
ATOM     28  C   UNL A   1      45.029  29.784  27.201  1.00  0.00     0.230 C 
BRANCH  28  29
ATOM     29  N   UNL A   1      44.878  31.231  27.310  1.00  0.00    -0.250 N 
ATOM     30  C   UNL A   1      44.132  31.696  28.381  1.00  0.00     0.329 A 
ATOM     31  C   UNL A   1      45.769  32.037  26.605  1.00  0.00     0.264 A 
ATOM     32  O   UNL A   1      43.496  30.976  29.146  1.00  0.00    -0.248 OA
ATOM     33  N   UNL A   1      44.148  33.046  28.605  1.00  0.00    -0.307 N 
ATOM     34  C   UNL A   1      45.604  33.488  26.751  1.00  0.00     0.064 A 
ATOM     35  O   UNL A   1      46.673  31.628  25.883  1.00  0.00    -0.268 OA
ATOM     36  C   UNL A   1      44.831  33.955  27.805  1.00  0.00     0.055 A 
ATOM     37  H   UNL A   1      43.646  33.393  29.378  1.00  0.00     0.171 HD
ATOM     38  C   UNL A   1      46.239  34.378  25.881  1.00  0.00     0.016 A 
ATOM     39  C   UNL A   1      44.743  35.324  28.049  1.00  0.00     0.027 A 
ATOM     40  C   UNL A   1      46.122  35.748  26.099  1.00  0.00     0.001 A 
ATOM     41  C   UNL A   1      45.393  36.219  27.192  1.00  0.00     0.002 A 
ENDBRANCH  28  29
ENDBRANCH  26  28
ENDBRANCH  23  24
ENDBRANCH  18  23
ENDBRANCH  10  17
ENDBRANCH   7   9
ENDBRANCH   6   7
ENDBRANCH   5   6
ENDBRANCH   4   5
ENDBRANCH   3   4
ENDBRANCH   2   3
ENDBRANCH   1   2
BRANCH   1  42
ATOM     42  O   UNL A   1      39.257  32.105  36.774  1.00  0.00    -0.377 OA
BRANCH  42  43
ATOM     43  C   UNL A   1      40.261  33.065  36.468  1.00  0.00     0.188 C 
BRANCH  43  44
ATOM     44  C   UNL A   1      41.530  33.074  37.343  1.00  0.00     0.188 C 
BRANCH  44  45
ATOM     45  O   UNL A   1      41.908  31.791  37.825  1.00  0.00    -0.376 OA
BRANCH  45  46
ATOM     46  C   UNL A   1      42.346  30.804  36.902  1.00  0.00     0.202 C 
BRANCH  46  47
ATOM     47  C   UNL A   1      43.805  30.840  36.417  1.00  0.00     0.261 C 
BRANCH  47  48
ATOM     48  O   UNL A   1      44.414  29.585  36.078  1.00  0.00    -0.460 OA
BRANCH  48  49
ATOM     49  C   UNL A   1      43.839  28.816  35.131  1.00  0.00     0.338 C 
ATOM     50  O   UNL A   1      42.697  28.387  35.126  1.00  0.00    -0.246 OA
BRANCH  49  51
ATOM     51  C   UNL A   1      44.769  28.761  33.980  1.00  0.00     0.060 A 
ATOM     52  C   UNL A   1      45.899  27.941  34.019  1.00  0.00     0.016 A 
ATOM     53  C   UNL A   1      44.513  29.558  32.857  1.00  0.00     0.016 A 
ATOM     54  C   UNL A   1      46.741  27.879  32.907  1.00  0.00     0.010 A 
ATOM     55  C   UNL A   1      45.358  29.496  31.745  1.00  0.00     0.010 A 
ATOM     56  C   UNL A   1      46.456  28.626  31.748  1.00  0.00    -0.014 A 
BRANCH  56  57
ATOM     57  C   UNL A   1      47.175  28.311  30.488  1.00  0.00     0.031 A 
ATOM     58  C   UNL A   1      46.722  27.239  29.546  1.00  0.00     0.074 A 
ATOM     59  C   UNL A   1      48.267  29.049  30.202  1.00  0.00     0.049 A 
ATOM     60  N   UNL A   1      47.169  26.970  28.346  1.00  0.00    -0.248 NA
ATOM     61  C   UNL A   1      45.640  26.352  29.999  1.00  0.00     0.031 C 
ATOM     62  C   UNL A   1      48.816  30.093  31.074  1.00  0.00     0.029 A 
ATOM     63  N   UNL A   1      49.088  29.069  29.103  1.00  0.00    -0.354 N 
ATOM     64  C   UNL A   1      46.404  25.910  27.880  1.00  0.00     0.074 A 
ATOM     65  C   UNL A   1      45.506  25.540  28.955  1.00  0.00     0.031 C 
ATOM     66  C   UNL A   1      49.836  30.695  30.448  1.00  0.00     0.029 A 
ATOM     67  C   UNL A   1      50.042  30.060  29.150  1.00  0.00     0.049 A 
ATOM     68  H   UNL A   1      49.004  28.436  28.354  1.00  0.00     0.167 HD
ATOM     69  C   UNL A   1      46.438  25.323  26.660  1.00  0.00     0.031 A 
ATOM     70  C   UNL A   1      50.964  30.441  28.243  1.00  0.00     0.031 A 
ATOM     71  C   UNL A   1      47.358  25.694  25.611  1.00  0.00     0.049 A 
ATOM     72  C   UNL A   1      51.001  29.748  26.910  1.00  0.00     0.074 A 
ATOM     73  C   UNL A   1      47.449  25.175  24.330  1.00  0.00     0.029 A 
ATOM     74  N   UNL A   1      48.342  26.667  25.713  1.00  0.00    -0.354 N 
ATOM     75  N   UNL A   1      50.215  28.801  26.456  1.00  0.00    -0.248 NA
ATOM     76  C   UNL A   1      52.033  30.182  25.959  1.00  0.00     0.031 C 
ATOM     77  C   UNL A   1      48.533  25.775  23.688  1.00  0.00     0.029 A 
ATOM     78  C   UNL A   1      49.063  26.738  24.532  1.00  0.00     0.049 A 
ATOM     79  H   UNL A   1      48.505  27.224  26.509  1.00  0.00     0.167 HD
ATOM     80  C   UNL A   1      50.636  28.550  25.154  1.00  0.00     0.074 A 
ATOM     81  C   UNL A   1      51.735  29.456  24.889  1.00  0.00     0.031 C 
ATOM     82  C   UNL A   1      50.152  27.649  24.265  1.00  0.00     0.031 A 
BRANCH  69  83
ATOM     83  C   UNL A   1      45.431  24.241  26.347  1.00  0.00    -0.014 A 
ATOM     84  C   UNL A   1      44.074  24.567  26.161  1.00  0.00     0.010 A 
ATOM     85  C   UNL A   1      45.802  22.885  26.411  1.00  0.00     0.010 A 
ATOM     86  C   UNL A   1      43.102  23.562  26.095  1.00  0.00     0.020 A 
ATOM     87  C   UNL A   1      44.838  21.877  26.313  1.00  0.00     0.020 A 
ATOM     88  C   UNL A   1      43.491  22.223  26.185  1.00  0.00     0.054 A 
BRANCH  88  89
ATOM     89  S   UNL A   1      42.210  20.937  26.162  1.00  0.00     0.124 S 
ATOM     90  O   UNL A   1      42.114  20.570  27.572  1.00  0.00    -0.237 OA
ATOM     91  O   UNL A   1      41.057  21.648  25.615  1.00  0.00    -0.237 OA
ATOM     92  O   UNL A   1      42.771  19.909  25.287  1.00  0.00    -0.744 OA
ENDBRANCH  88  89
ENDBRANCH  69  83
BRANCH  70  93
ATOM     93  C   UNL A   1      51.860  31.591  28.553  1.00  0.00    -0.014 A 
ATOM     94  C   UNL A   1      51.481  32.905  28.219  1.00  0.00     0.010 A 
ATOM     95  C   UNL A   1      53.134  31.370  29.108  1.00  0.00     0.010 A 
ATOM     96  C   UNL A   1      52.376  33.966  28.381  1.00  0.00     0.020 A 
ATOM     97  C   UNL A   1      54.018  32.436  29.308  1.00  0.00     0.020 A 
ATOM     98  C   UNL A   1      53.643  33.723  28.915  1.00  0.00     0.054 A 
BRANCH  98  99
ATOM     99  S   UNL A   1      54.799  35.111  29.075  1.00  0.00     0.124 S 
ATOM    100  O   UNL A   1      55.889  34.506  29.835  1.00  0.00    -0.237 OA
ATOM    101  O   UNL A   1      55.104  35.432  27.684  1.00  0.00    -0.237 OA
ATOM    102  O   UNL A   1      54.024  36.123  29.790  1.00  0.00    -0.744 OA
ENDBRANCH  98  99
ENDBRANCH  70  93
BRANCH  82 103
ATOM    103  C   UNL A   1      50.785  27.581  22.896  1.00  0.00    -0.014 A 
ATOM    104  C   UNL A   1      50.107  28.122  21.787  1.00  0.00     0.010 A 
ATOM    105  C   UNL A   1      51.971  26.857  22.681  1.00  0.00     0.010 A 
ATOM    106  C   UNL A   1      50.572  27.901  20.489  1.00  0.00     0.020 A 
ATOM    107  C   UNL A   1      52.461  26.663  21.385  1.00  0.00     0.020 A 
ATOM    108  C   UNL A   1      51.740  27.160  20.296  1.00  0.00     0.054 A 
BRANCH 108 109
ATOM    109  S   UNL A   1      52.296  26.832  18.601  1.00  0.00     0.124 S 
ATOM    110  O   UNL A   1      52.685  25.427  18.670  1.00  0.00    -0.237 OA
ATOM    111  O   UNL A   1      51.101  27.117  17.810  1.00  0.00    -0.237 OA
ATOM    112  O   UNL A   1      53.396  27.774  18.410  1.00  0.00    -0.744 OA
ENDBRANCH 108 109
ENDBRANCH  82 103
ENDBRANCH  56  57
ENDBRANCH  49  51
ENDBRANCH  48  49
ENDBRANCH  47  48
ENDBRANCH  46  47
ENDBRANCH  45  46
ENDBRANCH  44  45
ENDBRANCH  43  44
ENDBRANCH  42  43
ENDBRANCH   1  42
TORSDOF 28
ENDMDL
MODEL 2
REMARK VINA RESULT:      -7.0      1.623      2.072
REMARK SMILES O=C(Cn1c(=O)[nH]c2ccccc2c1=O)NC[C@H]1CC[C@@H](C(=O)N2CCC(C(=O)OCCOCCOCCOCCOC(=O)c3ccc(-c4c5nc(c(-c6ccc(S(=O)(=O)[O-])cc6)c6ccc([nH]6)c(-c6ccc(S(=O)(=O)[O-])cc6)c6nc(c(-c7ccc(S(=O)(=O)[O-])cc7)c7ccc4[nH]7)C=C6)C=C5)cc3)CC2)CC1
REMARK SMILES IDX 35 1 34 2 33 3 32 4 31 5 30 6 28 7 29 8 27 9 22 10 23 11
REMARK SMILES IDX 24 12 25 13 106 14 26 15 105 16 21 17 18 18 19 19 108 20
REMARK SMILES IDX 20 21 107 22 17 23 16 24 1 25 2 26 3 28 4 29 5 30 14 31 6 32
REMARK SMILES IDX 7 33 13 34 15 35 8 36 12 38 9 39 11 40 10 41 36 42 37 43
REMARK SMILES IDX 38 44 39 45 40 46 41 47 42 48 43 49 44 50 45 51 46 52 104 53
REMARK SMILES IDX 47 54 103 55 48 56 49 57 50 58 97 59 51 60 102 61 96 62
REMARK SMILES IDX 98 63 52 64 101 65 95 66 94 67 53 69 83 70 64 71 82 72 65 73
REMARK SMILES IDX 68 74 81 75 99 76 66 77 67 78 80 80 100 81 69 82 54 83 55 84
REMARK SMILES IDX 63 85 56 86 62 87 57 88 58 89 59 90 60 91 61 92 84 93 85 94
REMARK SMILES IDX 93 95 86 96 92 97 87 98 88 99 89 100 90 101 91 102 70 103
REMARK SMILES IDX 71 104 79 105 72 106 78 107 73 108 74 109 75 110 76 111
REMARK SMILES IDX 77 112
REMARK H PARENT 16 27 7 37 98 68 68 79
REMARK Flexibility Score: inf
ROOT
ATOM      1  C   UNL A   1      37.620  30.685  33.987  1.00  0.00     0.188 C 
ENDROOT
BRANCH   1   2
ATOM      2  C   UNL A   1      37.341  32.169  34.239  1.00  0.00     0.188 C 
BRANCH   2   3
ATOM      3  O   UNL A   1      36.077  32.745  33.960  1.00  0.00    -0.376 OA
BRANCH   3   4
ATOM      4  C   UNL A   1      35.947  33.865  33.094  1.00  0.00     0.202 C 
BRANCH   4   5
ATOM      5  C   UNL A   1      35.186  33.785  31.762  1.00  0.00     0.261 C 
BRANCH   5   6
ATOM      6  O   UNL A   1      34.867  32.467  31.289  1.00  0.00    -0.463 OA
BRANCH   6   7
ATOM      7  C   UNL A   1      35.002  32.266  29.958  1.00  0.00     0.309 C 
ATOM      8  O   UNL A   1      34.236  32.708  29.108  1.00  0.00    -0.252 OA
BRANCH   7   9
ATOM      9  C   UNL A   1      36.150  31.341  29.605  1.00  0.00     0.103 C 
ATOM     10  C   UNL A   1      39.918  29.362  30.060  1.00  0.00     0.225 C 
ATOM     11  O   UNL A   1      40.925  30.068  29.916  1.00  0.00    -0.275 OA
ATOM     12  N   UNL A   1      38.666  29.915  29.895  1.00  0.00    -0.342 N 
ATOM     13  C   UNL A   1      38.502  30.867  28.811  1.00  0.00     0.120 C 
ATOM     14  C   UNL A   1      37.451  29.435  30.516  1.00  0.00     0.120 C 
ATOM     15  C   UNL A   1      37.458  31.939  29.077  1.00  0.00     0.037 C 
ATOM     16  C   UNL A   1      36.463  30.532  30.855  1.00  0.00     0.037 C 
BRANCH  10  17
ATOM     17  C   UNL A   1      40.120  27.832  30.106  1.00  0.00     0.078 C 
ATOM     18  C   UNL A   1      42.470  26.848  28.458  1.00  0.00     0.008 C 
ATOM     19  C   UNL A   1      42.625  27.670  29.751  1.00  0.00     0.006 C 
ATOM     20  C   UNL A   1      41.032  26.699  27.931  1.00  0.00     0.006 C 
ATOM     21  C   UNL A   1      41.480  27.522  30.738  1.00  0.00     0.014 C 
ATOM     22  C   UNL A   1      39.877  26.912  28.916  1.00  0.00     0.014 C 
BRANCH  18  23
ATOM     23  C   UNL A   1      43.461  27.426  27.417  1.00  0.00     0.119 C 
BRANCH  23  24
ATOM     24  N   UNL A   1      44.334  28.487  27.880  1.00  0.00    -0.354 N 
ATOM     25  O   UNL A   1      43.864  29.900  26.130  1.00  0.00    -0.273 OA
ATOM     26  C   UNL A   1      44.303  29.729  27.266  1.00  0.00     0.240 C 
ATOM     27  H   UNL A   1      44.948  28.325  28.631  1.00  0.00     0.163 HD
BRANCH  26  28
ATOM     28  C   UNL A   1      44.975  30.878  28.010  1.00  0.00     0.230 C 
BRANCH  28  29
ATOM     29  N   UNL A   1      44.177  32.092  28.144  1.00  0.00    -0.250 N 
ATOM     30  C   UNL A   1      43.659  32.357  29.401  1.00  0.00     0.329 A 
ATOM     31  C   UNL A   1      44.301  33.068  27.159  1.00  0.00     0.264 A 
ATOM     32  O   UNL A   1      43.720  31.581  30.353  1.00  0.00    -0.248 OA
ATOM     33  N   UNL A   1      43.079  33.582  29.585  1.00  0.00    -0.307 N 
ATOM     34  C   UNL A   1      43.499  34.286  27.332  1.00  0.00     0.064 A 
ATOM     35  O   UNL A   1      45.024  32.988  26.171  1.00  0.00    -0.268 OA
ATOM     36  C   UNL A   1      42.954  34.538  28.583  1.00  0.00     0.055 A 
ATOM     37  H   UNL A   1      42.731  33.800  30.480  1.00  0.00     0.171 HD
ATOM     38  C   UNL A   1      43.323  35.189  26.280  1.00  0.00     0.016 A 
ATOM     39  C   UNL A   1      42.285  35.736  28.821  1.00  0.00     0.027 A 
ATOM     40  C   UNL A   1      42.623  36.372  26.505  1.00  0.00     0.001 A 
ATOM     41  C   UNL A   1      42.123  36.653  27.778  1.00  0.00     0.002 A 
ENDBRANCH  28  29
ENDBRANCH  26  28
ENDBRANCH  23  24
ENDBRANCH  18  23
ENDBRANCH  10  17
ENDBRANCH   7   9
ENDBRANCH   6   7
ENDBRANCH   5   6
ENDBRANCH   4   5
ENDBRANCH   3   4
ENDBRANCH   2   3
ENDBRANCH   1   2
BRANCH   1  42
ATOM     42  O   UNL A   1      38.794  30.168  34.575  1.00  0.00    -0.377 OA
BRANCH  42  43
ATOM     43  C   UNL A   1      40.015  30.843  34.297  1.00  0.00     0.188 C 
BRANCH  43  44
ATOM     44  C   UNL A   1      41.024  30.996  35.452  1.00  0.00     0.188 C 
BRANCH  44  45
ATOM     45  O   UNL A   1      41.030  29.904  36.363  1.00  0.00    -0.376 OA
BRANCH  45  46
ATOM     46  C   UNL A   1      41.930  28.826  36.148  1.00  0.00     0.202 C 
BRANCH  46  47
ATOM     47  C   UNL A   1      43.359  28.934  36.707  1.00  0.00     0.261 C 
BRANCH  47  48
ATOM     48  O   UNL A   1      44.069  27.706  36.931  1.00  0.00    -0.460 OA
BRANCH  48  49
ATOM     49  C   UNL A   1      43.752  26.625  36.189  1.00  0.00     0.338 C 
ATOM     50  O   UNL A   1      42.806  25.872  36.354  1.00  0.00    -0.246 OA
BRANCH  49  51
ATOM     51  C   UNL A   1      44.630  26.633  34.997  1.00  0.00     0.060 A 
ATOM     52  C   UNL A   1      45.436  25.531  34.702  1.00  0.00     0.016 A 
ATOM     53  C   UNL A   1      44.659  27.769  34.178  1.00  0.00     0.016 A 
ATOM     54  C   UNL A   1      46.228  25.547  33.552  1.00  0.00     0.010 A 
ATOM     55  C   UNL A   1      45.454  27.785  33.028  1.00  0.00     0.010 A 
ATOM     56  C   UNL A   1      46.214  26.658  32.687  1.00  0.00    -0.014 A 
BRANCH  56  57
ATOM     57  C   UNL A   1      46.811  26.530  31.334  1.00  0.00     0.031 A 
ATOM     58  C   UNL A   1      46.214  25.665  30.267  1.00  0.00     0.074 A 
ATOM     59  C   UNL A   1      47.925  27.246  31.083  1.00  0.00     0.049 A 
ATOM     60  N   UNL A   1      46.548  25.586  29.004  1.00  0.00    -0.248 NA
ATOM     61  C   UNL A   1      45.112  24.773  30.656  1.00  0.00     0.031 C 
ATOM     62  C   UNL A   1      48.609  28.091  32.067  1.00  0.00     0.029 A 
ATOM     63  N   UNL A   1      48.659  27.414  29.935  1.00  0.00    -0.354 N 
ATOM     64  C   UNL A   1      45.678  24.666  28.434  1.00  0.00     0.074 A 
ATOM     65  C   UNL A   1      44.842  24.164  29.505  1.00  0.00     0.031 C 
ATOM     66  C   UNL A   1      49.617  28.736  31.465  1.00  0.00     0.029 A 
ATOM     67  C   UNL A   1      49.679  28.328  30.065  1.00  0.00     0.049 A 
ATOM     68  H   UNL A   1      48.474  26.926  29.100  1.00  0.00     0.167 HD
ATOM     69  C   UNL A   1      45.578  24.301  27.134  1.00  0.00     0.031 A 
ATOM     70  C   UNL A   1      50.552  28.811  29.159  1.00  0.00     0.031 A 
ATOM     71  C   UNL A   1      46.438  24.799  26.087  1.00  0.00     0.049 A 
ATOM     72  C   UNL A   1      50.439  28.360  27.730  1.00  0.00     0.074 A 
ATOM     73  C   UNL A   1      46.394  24.507  24.733  1.00  0.00     0.029 A 
ATOM     74  N   UNL A   1      47.491  25.684  26.265  1.00  0.00    -0.354 N 
ATOM     75  N   UNL A   1      49.557  27.552  27.192  1.00  0.00    -0.248 NA
ATOM     76  C   UNL A   1      51.422  28.898  26.779  1.00  0.00     0.031 C 
ATOM     77  C   UNL A   1      47.464  25.151  24.110  1.00  0.00     0.029 A 
ATOM     78  C   UNL A   1      48.122  25.922  25.054  1.00  0.00     0.049 A 
ATOM     79  H   UNL A   1      47.753  26.084  27.126  1.00  0.00     0.167 HD
ATOM     80  C   UNL A   1      49.858  27.509  25.835  1.00  0.00     0.074 A 
ATOM     81  C   UNL A   1      50.993  28.386  25.632  1.00  0.00     0.031 C 
ATOM     82  C   UNL A   1      49.247  26.805  24.851  1.00  0.00     0.031 A 
BRANCH  69  83
ATOM     83  C   UNL A   1      44.478  23.346  26.732  1.00  0.00    -0.014 A 
ATOM     84  C   UNL A   1      43.138  23.629  27.060  1.00  0.00     0.010 A 
ATOM     85  C   UNL A   1      44.793  22.089  26.184  1.00  0.00     0.010 A 
ATOM     86  C   UNL A   1      42.144  22.657  26.896  1.00  0.00     0.020 A 
ATOM     87  C   UNL A   1      43.797  21.127  25.989  1.00  0.00     0.020 A 
ATOM     88  C   UNL A   1      42.485  21.407  26.373  1.00  0.00     0.054 A 
BRANCH  88  89
ATOM     89  S   UNL A   1      41.194  20.138  26.228  1.00  0.00     0.124 S 
ATOM     90  O   UNL A   1      41.920  19.026  25.624  1.00  0.00    -0.237 OA
ATOM     91  O   UNL A   1      40.783  19.945  27.617  1.00  0.00    -0.237 OA
ATOM     92  O   UNL A   1      40.190  20.767  25.372  1.00  0.00    -0.744 OA
ENDBRANCH  88  89
ENDBRANCH  69  83
BRANCH  70  93
ATOM     93  C   UNL A   1      51.546  29.839  29.580  1.00  0.00    -0.014 A 
ATOM     94  C   UNL A   1      51.276  31.210  29.406  1.00  0.00     0.010 A 
ATOM     95  C   UNL A   1      52.803  29.450  30.079  1.00  0.00     0.010 A 
ATOM     96  C   UNL A   1      52.260  32.166  29.670  1.00  0.00     0.020 A 
ATOM     97  C   UNL A   1      53.777  30.409  30.381  1.00  0.00     0.020 A 
ATOM     98  C   UNL A   1      53.507  31.759  30.145  1.00  0.00     0.054 A 
BRANCH  98  99
ATOM     99  S   UNL A   1      54.779  33.018  30.439  1.00  0.00     0.124 S 
ATOM    100  O   UNL A   1      55.024  33.516  29.088  1.00  0.00    -0.237 OA
ATOM    101  O   UNL A   1      54.103  33.947  31.340  1.00  0.00    -0.237 OA
ATOM    102  O   UNL A   1      55.878  32.264  31.036  1.00  0.00    -0.744 OA
ENDBRANCH  98  99
ENDBRANCH  70  93
BRANCH  82 103
ATOM    103  C   UNL A   1      49.767  26.942  23.441  1.00  0.00    -0.014 A 
ATOM    104  C   UNL A   1      51.129  26.702  23.174  1.00  0.00     0.010 A 
ATOM    105  C   UNL A   1      48.951  27.448  22.414  1.00  0.00     0.010 A 
ATOM    106  C   UNL A   1      51.676  27.010  21.926  1.00  0.00     0.020 A 
ATOM    107  C   UNL A   1      49.487  27.725  21.151  1.00  0.00     0.020 A 
ATOM    108  C   UNL A   1      50.853  27.533  20.926  1.00  0.00     0.054 A 
BRANCH 108 109
ATOM    109  S   UNL A   1      51.593  27.983  19.333  1.00  0.00     0.124 S 
ATOM    110  O   UNL A   1      51.895  29.399  19.522  1.00  0.00    -0.237 OA
ATOM    111  O   UNL A   1      52.752  27.097  19.255  1.00  0.00    -0.237 OA
ATOM    112  O   UNL A   1      50.535  27.695  18.368  1.00  0.00    -0.744 OA
ENDBRANCH 108 109
ENDBRANCH  82 103
ENDBRANCH  56  57
ENDBRANCH  49  51
ENDBRANCH  48  49
ENDBRANCH  47  48
ENDBRANCH  46  47
ENDBRANCH  45  46
ENDBRANCH  44  45
ENDBRANCH  43  44
ENDBRANCH  42  43
ENDBRANCH   1  42
TORSDOF 28
ENDMDL
MODEL 3
REMARK VINA RESULT:      -6.7      7.584     16.557
REMARK SMILES O=C(Cn1c(=O)[nH]c2ccccc2c1=O)NC[C@H]1CC[C@@H](C(=O)N2CCC(C(=O)OCCOCCOCCOCCOC(=O)c3ccc(-c4c5nc(c(-c6ccc(S(=O)(=O)[O-])cc6)c6ccc([nH]6)c(-c6ccc(S(=O)(=O)[O-])cc6)c6nc(c(-c7ccc(S(=O)(=O)[O-])cc7)c7ccc4[nH]7)C=C6)C=C5)cc3)CC2)CC1
REMARK SMILES IDX 35 1 34 2 33 3 32 4 31 5 30 6 28 7 29 8 27 9 22 10 23 11
REMARK SMILES IDX 24 12 25 13 106 14 26 15 105 16 21 17 18 18 19 19 108 20
REMARK SMILES IDX 20 21 107 22 17 23 16 24 1 25 2 26 3 28 4 29 5 30 14 31 6 32
REMARK SMILES IDX 7 33 13 34 15 35 8 36 12 38 9 39 11 40 10 41 36 42 37 43
REMARK SMILES IDX 38 44 39 45 40 46 41 47 42 48 43 49 44 50 45 51 46 52 104 53
REMARK SMILES IDX 47 54 103 55 48 56 49 57 50 58 97 59 51 60 102 61 96 62
REMARK SMILES IDX 98 63 52 64 101 65 95 66 94 67 53 69 83 70 64 71 82 72 65 73
REMARK SMILES IDX 68 74 81 75 99 76 66 77 67 78 80 80 100 81 69 82 54 83 55 84
REMARK SMILES IDX 63 85 56 86 62 87 57 88 58 89 59 90 60 91 61 92 84 93 85 94
REMARK SMILES IDX 93 95 86 96 92 97 87 98 88 99 89 100 90 101 91 102 70 103
REMARK SMILES IDX 71 104 79 105 72 106 78 107 73 108 74 109 75 110 76 111
REMARK SMILES IDX 77 112
REMARK H PARENT 16 27 7 37 98 68 68 79
REMARK Flexibility Score: inf
ROOT
ATOM      1  C   UNL A   1      33.473  35.203  29.727  1.00  0.00     0.188 C 
ENDROOT
BRANCH   1   2
ATOM      2  C   UNL A   1      33.632  35.376  31.240  1.00  0.00     0.188 C 
BRANCH   2   3
ATOM      3  O   UNL A   1      34.040  34.303  32.072  1.00  0.00    -0.376 OA
BRANCH   3   4
ATOM      4  C   UNL A   1      35.394  33.874  32.117  1.00  0.00     0.202 C 
BRANCH   4   5
ATOM      5  C   UNL A   1      36.532  34.689  31.484  1.00  0.00     0.261 C 
BRANCH   5   6
ATOM      6  O   UNL A   1      37.795  34.020  31.345  1.00  0.00    -0.463 OA
BRANCH   6   7
ATOM      7  C   UNL A   1      38.772  34.416  32.192  1.00  0.00     0.309 C 
ATOM      8  O   UNL A   1      38.574  34.965  33.272  1.00  0.00    -0.252 OA
BRANCH   7   9
ATOM      9  C   UNL A   1      40.168  34.212  31.635  1.00  0.00     0.103 C 
ATOM     10  C   UNL A   1      43.236  32.527  29.174  1.00  0.00     0.225 C 
ATOM     11  O   UNL A   1      43.568  31.363  29.437  1.00  0.00    -0.275 OA
ATOM     12  N   UNL A   1      42.279  33.156  29.942  1.00  0.00    -0.342 N 
ATOM     13  C   UNL A   1      42.325  32.923  31.375  1.00  0.00     0.120 C 
ATOM     14  C   UNL A   1      41.419  34.228  29.493  1.00  0.00     0.120 C 
ATOM     15  C   UNL A   1      40.968  32.975  32.057  1.00  0.00     0.037 C 
ATOM     16  C   UNL A   1      40.040  34.208  30.120  1.00  0.00     0.037 C 
BRANCH  10  17
ATOM     17  C   UNL A   1      44.133  33.321  28.199  1.00  0.00     0.078 C 
ATOM     18  C   UNL A   1      44.113  36.319  28.669  1.00  0.00     0.008 C 
ATOM     19  C   UNL A   1      44.758  35.312  29.638  1.00  0.00     0.006 C 
ATOM     20  C   UNL A   1      43.301  35.705  27.513  1.00  0.00     0.006 C 
ATOM     21  C   UNL A   1      45.239  34.025  28.991  1.00  0.00     0.014 C 
ATOM     22  C   UNL A   1      43.590  34.252  27.122  1.00  0.00     0.014 C 
BRANCH  18  23
ATOM     23  C   UNL A   1      43.316  37.340  29.518  1.00  0.00     0.119 C 
BRANCH  23  24
ATOM     24  N   UNL A   1      43.536  38.740  29.214  1.00  0.00    -0.354 N 
ATOM     25  O   UNL A   1      41.666  38.948  27.895  1.00  0.00    -0.273 OA
ATOM     26  C   UNL A   1      42.556  39.472  28.562  1.00  0.00     0.240 C 
ATOM     27  H   UNL A   1      44.383  39.172  29.470  1.00  0.00     0.163 HD
BRANCH  26  28
ATOM     28  C   UNL A   1      42.704  40.990  28.586  1.00  0.00     0.230 C 
BRANCH  28  29
ATOM     29  N   UNL A   1      43.212  41.551  29.832  1.00  0.00    -0.250 N 
ATOM     30  C   UNL A   1      44.359  42.322  29.741  1.00  0.00     0.329 A 
ATOM     31  C   UNL A   1      42.348  41.611  30.923  1.00  0.00     0.264 A 
ATOM     32  O   UNL A   1      45.031  42.447  28.720  1.00  0.00    -0.248 OA
ATOM     33  N   UNL A   1      44.732  43.012  30.863  1.00  0.00    -0.307 N 
ATOM     34  C   UNL A   1      42.883  42.200  32.158  1.00  0.00     0.064 A 
ATOM     35  O   UNL A   1      41.187  41.216  30.927  1.00  0.00    -0.268 OA
ATOM     36  C   UNL A   1      44.049  42.947  32.073  1.00  0.00     0.055 A 
ATOM     37  H   UNL A   1      45.528  43.587  30.810  1.00  0.00     0.171 HD
ATOM     38  C   UNL A   1      42.217  42.049  33.376  1.00  0.00     0.016 A 
ATOM     39  C   UNL A   1      44.528  43.618  33.197  1.00  0.00     0.027 A 
ATOM     40  C   UNL A   1      42.713  42.688  34.510  1.00  0.00     0.001 A 
ATOM     41  C   UNL A   1      43.853  43.487  34.415  1.00  0.00     0.002 A 
ENDBRANCH  28  29
ENDBRANCH  26  28
ENDBRANCH  23  24
ENDBRANCH  18  23
ENDBRANCH  10  17
ENDBRANCH   7   9
ENDBRANCH   6   7
ENDBRANCH   5   6
ENDBRANCH   4   5
ENDBRANCH   3   4
ENDBRANCH   2   3
ENDBRANCH   1   2
BRANCH   1  42
ATOM     42  O   UNL A   1      34.488  34.470  29.078  1.00  0.00    -0.377 OA
BRANCH  42  43
ATOM     43  C   UNL A   1      34.097  33.301  28.367  1.00  0.00     0.188 C 
BRANCH  43  44
ATOM     44  C   UNL A   1      35.186  32.254  28.061  1.00  0.00     0.188 C 
BRANCH  44  45
ATOM     45  O   UNL A   1      36.036  31.966  29.165  1.00  0.00    -0.376 OA
BRANCH  45  46
ATOM     46  C   UNL A   1      37.395  31.631  28.925  1.00  0.00     0.202 C 
BRANCH  46  47
ATOM     47  C   UNL A   1      38.048  30.532  29.782  1.00  0.00     0.261 C 
BRANCH  47  48
ATOM     48  O   UNL A   1      38.298  30.840  31.162  1.00  0.00    -0.460 OA
BRANCH  48  49
ATOM     49  C   UNL A   1      37.374  30.499  32.083  1.00  0.00     0.338 C 
ATOM     50  O   UNL A   1      36.445  29.722  31.940  1.00  0.00    -0.246 OA
BRANCH  49  51
ATOM     51  C   UNL A   1      37.812  31.066  33.379  1.00  0.00     0.060 A 
ATOM     52  C   UNL A   1      39.016  30.662  33.961  1.00  0.00     0.016 A 
ATOM     53  C   UNL A   1      36.993  32.001  34.026  1.00  0.00     0.016 A 
ATOM     54  C   UNL A   1      39.424  31.239  35.165  1.00  0.00     0.010 A 
ATOM     55  C   UNL A   1      37.402  32.576  35.233  1.00  0.00     0.010 A 
ATOM     56  C   UNL A   1      38.640  32.227  35.790  1.00  0.00    -0.014 A 
BRANCH  56  57
ATOM     57  C   UNL A   1      39.233  33.038  36.884  1.00  0.00     0.031 A 
ATOM     58  C   UNL A   1      40.311  34.049  36.646  1.00  0.00     0.074 A 
ATOM     59  C   UNL A   1      38.747  32.843  38.127  1.00  0.00     0.049 A 
ATOM     60  N   UNL A   1      40.802  34.925  37.485  1.00  0.00    -0.248 NA
ATOM     61  C   UNL A   1      40.923  34.085  35.310  1.00  0.00     0.031 C 
ATOM     62  C   UNL A   1      37.722  31.852  38.472  1.00  0.00     0.029 A 
ATOM     63  N   UNL A   1      39.012  33.474  39.316  1.00  0.00    -0.354 N 
ATOM     64  C   UNL A   1      41.753  35.644  36.774  1.00  0.00     0.074 A 
ATOM     65  C   UNL A   1      41.818  35.058  35.452  1.00  0.00     0.031 C 
ATOM     66  C   UNL A   1      37.398  31.990  39.764  1.00  0.00     0.029 A 
ATOM     67  C   UNL A   1      38.213  33.048  40.352  1.00  0.00     0.049 A 
ATOM     68  H   UNL A   1      39.706  34.165  39.417  1.00  0.00     0.167 HD
ATOM     69  C   UNL A   1      42.481  36.709  37.188  1.00  0.00     0.031 A 
ATOM     70  C   UNL A   1      38.121  33.474  41.628  1.00  0.00     0.031 A 
ATOM     71  C   UNL A   1      42.415  37.264  38.520  1.00  0.00     0.049 A 
ATOM     72  C   UNL A   1      38.968  34.635  42.069  1.00  0.00     0.074 A 
ATOM     73  C   UNL A   1      43.096  38.361  39.024  1.00  0.00     0.029 A 
ATOM     74  N   UNL A   1      41.634  36.774  39.556  1.00  0.00    -0.354 N 
ATOM     75  N   UNL A   1      39.803  35.357  41.360  1.00  0.00    -0.248 NA
ATOM     76  C   UNL A   1      38.848  35.055  43.471  1.00  0.00     0.031 C 
ATOM     77  C   UNL A   1      42.786  38.485  40.379  1.00  0.00     0.029 A 
ATOM     78  C   UNL A   1      41.840  37.525  40.702  1.00  0.00     0.049 A 
ATOM     79  H   UNL A   1      41.023  36.004  39.488  1.00  0.00     0.167 HD
ATOM     80  C   UNL A   1      40.284  36.337  42.222  1.00  0.00     0.074 A 
ATOM     81  C   UNL A   1      39.634  36.125  43.499  1.00  0.00     0.031 C 
ATOM     82  C   UNL A   1      41.183  37.319  41.972  1.00  0.00     0.031 A 
BRANCH  69  83
ATOM     83  C   UNL A   1      43.391  37.395  36.196  1.00  0.00    -0.014 A 
ATOM     84  C   UNL A   1      42.850  38.060  35.079  1.00  0.00     0.010 A 
ATOM     85  C   UNL A   1      44.786  37.232  36.280  1.00  0.00     0.010 A 
ATOM     86  C   UNL A   1      43.680  38.502  34.042  1.00  0.00     0.020 A 
ATOM     87  C   UNL A   1      45.622  37.700  35.261  1.00  0.00     0.020 A 
ATOM     88  C   UNL A   1      45.061  38.306  34.136  1.00  0.00     0.054 A 
BRANCH  88  89
ATOM     89  S   UNL A   1      46.114  38.828  32.752  1.00  0.00     0.124 S 
ATOM     90  O   UNL A   1      47.402  38.240  33.104  1.00  0.00    -0.237 OA
ATOM     91  O   UNL A   1      45.441  38.231  31.600  1.00  0.00    -0.237 OA
ATOM     92  O   UNL A   1      46.056  40.287  32.808  1.00  0.00    -0.744 OA
ENDBRANCH  88  89
ENDBRANCH  69  83
BRANCH  70  93
ATOM     93  C   UNL A   1      37.125  32.841  42.538  1.00  0.00    -0.014 A 
ATOM     94  C   UNL A   1      35.854  33.419  42.722  1.00  0.00     0.010 A 
ATOM     95  C   UNL A   1      37.471  31.704  43.290  1.00  0.00     0.010 A 
ATOM     96  C   UNL A   1      34.973  32.906  43.677  1.00  0.00     0.020 A 
ATOM     97  C   UNL A   1      36.575  31.165  44.220  1.00  0.00     0.020 A 
ATOM     98  C   UNL A   1      35.343  31.789  44.428  1.00  0.00     0.054 A 
BRANCH  98  99
ATOM     99  S   UNL A   1      34.197  31.171  45.690  1.00  0.00     0.124 S 
ATOM    100  O   UNL A   1      33.596  32.409  46.179  1.00  0.00    -0.237 OA
ATOM    101  O   UNL A   1      33.312  30.304  44.918  1.00  0.00    -0.237 OA
ATOM    102  O   UNL A   1      35.069  30.482  46.638  1.00  0.00    -0.744 OA
ENDBRANCH  98  99
ENDBRANCH  70  93
BRANCH  82 103
ATOM    103  C   UNL A   1      41.533  38.273  43.089  1.00  0.00    -0.014 A 
ATOM    104  C   UNL A   1      42.545  37.929  44.006  1.00  0.00     0.010 A 
ATOM    105  C   UNL A   1      40.769  39.430  43.321  1.00  0.00     0.010 A 
ATOM    106  C   UNL A   1      42.755  38.694  45.156  1.00  0.00     0.020 A 
ATOM    107  C   UNL A   1      41.000  40.219  44.453  1.00  0.00     0.020 A 
ATOM    108  C   UNL A   1      41.970  39.828  45.379  1.00  0.00     0.054 A 
BRANCH 108 109
ATOM    109  S   UNL A   1      42.215  40.774  46.907  1.00  0.00     0.124 S 
ATOM    110  O   UNL A   1      43.544  40.341  47.327  1.00  0.00    -0.237 OA
ATOM    111  O   UNL A   1      42.120  42.158  46.446  1.00  0.00    -0.237 OA
ATOM    112  O   UNL A   1      41.117  40.335  47.764  1.00  0.00    -0.744 OA
ENDBRANCH 108 109
ENDBRANCH  82 103
ENDBRANCH  56  57
ENDBRANCH  49  51
ENDBRANCH  48  49
ENDBRANCH  47  48
ENDBRANCH  46  47
ENDBRANCH  45  46
ENDBRANCH  44  45
ENDBRANCH  43  44
ENDBRANCH  42  43
ENDBRANCH   1  42
TORSDOF 28
ENDMDL
