MODEL 1
REMARK VINA RESULT:      -8.7      0.000      0.000
REMARK SMILES [NH3+][C@]1(C(=O)OCCOCCOCCOCCOC(=O)c2ccc(-c3c4nc(c(-c5ccc(S(=O)(=O)[O-])cc5)c5ccc([nH]5)c(-c5ccc(S(=O)(=O)[O-])cc5)c5nc(c(-c6ccc(S(=O)(=O)[O-])cc6)c6ccc3[nH]6)C=C5)C=C4)cc2)CC[C@@H](Sc2cc3ccccc3[nH]2)C1
REMARK SMILES IDX 12 1 11 2 10 3 9 4 8 5 7 6 6 7 5 8 3 9 4 10 2 11 80 12 93 13
REMARK SMILES IDX 81 14 82 15 1 16 83 20 84 21 85 22 92 23 86 24 91 25 87 27
REMARK SMILES IDX 90 28 88 29 89 30 13 31 14 32 15 33 16 34 17 35 18 36 19 37
REMARK SMILES IDX 20 38 21 39 79 40 22 41 78 42 23 43 24 44 25 45 72 46 26 47
REMARK SMILES IDX 77 48 71 49 73 50 27 51 76 52 70 53 69 54 28 56 58 57 39 58
REMARK SMILES IDX 57 59 40 60 43 61 56 62 74 63 41 64 42 65 55 67 75 68 44 69
REMARK SMILES IDX 29 70 30 71 38 72 31 73 37 74 32 75 33 76 34 77 35 78 36 79
REMARK SMILES IDX 59 80 60 81 68 82 61 83 67 84 62 85 63 86 64 87 65 88 66 89
REMARK SMILES IDX 45 90 46 91 54 92 47 93 53 94 48 95 49 96 50 97 51 98 52 99
REMARK H PARENT 1 17 1 18 1 19 92 26 73 55 43 66
REMARK Flexibility Score: inf
ROOT
ATOM      1  C   UNL A   1      45.008  40.621  30.307  1.00  0.00     0.188 C 
ENDROOT
BRANCH   1   2
ATOM      2  O   UNL A   1      44.442  41.622  29.483  1.00  0.00    -0.377 OA
BRANCH   2   3
ATOM      3  C   UNL A   1      44.287  41.241  28.126  1.00  0.00     0.188 C 
BRANCH   3   4
ATOM      4  C   UNL A   1      44.919  42.249  27.138  1.00  0.00     0.188 C 
BRANCH   4   5
ATOM      5  O   UNL A   1      44.249  42.622  25.940  1.00  0.00    -0.376 OA
BRANCH   5   6
ATOM      6  C   UNL A   1      44.719  43.695  25.141  1.00  0.00     0.202 C 
BRANCH   6   7
ATOM      7  C   UNL A   1      45.069  43.541  23.647  1.00  0.00     0.261 C 
BRANCH   7   8
ATOM      8  O   UNL A   1      43.991  43.375  22.723  1.00  0.00    -0.459 OA
BRANCH   8   9
ATOM      9  C   UNL A   1      44.154  43.935  21.496  1.00  0.00     0.368 C 
ATOM     10  O   UNL A   1      44.994  44.789  21.237  1.00  0.00    -0.245 OA
BRANCH   9  11
ATOM     11  C   UNL A   1      43.195  43.293  20.455  1.00  0.00     0.193 C 
ATOM     12  C   UNL A   1      41.750  43.761  20.677  1.00  0.00     0.082 C 
ATOM     13  C   UNL A   1      43.582  43.753  19.049  1.00  0.00     0.096 C 
ATOM     14  C   UNL A   1      41.128  43.744  19.293  1.00  0.00     0.022 C 
ATOM     15  C   UNL A   1      42.276  44.075  18.346  1.00  0.00     0.060 C 
BRANCH  11  16
ATOM     16  N   UNL A   1      43.236  41.805  20.430  1.00  0.00    -0.343 N 
ATOM     17  H   UNL A   1      43.115  41.445  21.376  1.00  0.00     0.345 HD
ATOM     18  H   UNL A   1      44.134  41.496  20.060  1.00  0.00     0.345 HD
ATOM     19  H   UNL A   1      42.485  41.455  19.834  1.00  0.00     0.345 HD
ENDBRANCH  11  16
BRANCH  15  20
ATOM     20  S   UNL A   1      42.355  45.767  17.769  1.00  0.00    -0.105 SA
BRANCH  20  21
ATOM     21  C   UNL A   1      44.061  46.180  17.762  1.00  0.00     0.073 A 
ATOM     22  C   UNL A   1      44.799  46.846  16.794  1.00  0.00     0.043 A 
ATOM     23  N   UNL A   1      44.483  46.746  18.944  1.00  0.00    -0.350 N 
ATOM     24  C   UNL A   1      44.814  48.191  17.310  1.00  0.00     0.001 A 
ATOM     25  C   UNL A   1      44.462  48.101  18.659  1.00  0.00     0.046 A 
ATOM     26  H   UNL A   1      44.738  46.299  19.784  1.00  0.00     0.167 HD
ATOM     27  C   UNL A   1      44.877  49.462  16.717  1.00  0.00     0.010 A 
ATOM     28  C   UNL A   1      44.017  49.172  19.424  1.00  0.00     0.027 A 
ATOM     29  C   UNL A   1      44.374  50.549  17.448  1.00  0.00     0.001 A 
ATOM     30  C   UNL A   1      43.917  50.395  18.762  1.00  0.00     0.002 A 
ENDBRANCH  20  21
ENDBRANCH  15  20
ENDBRANCH   9  11
ENDBRANCH   8   9
ENDBRANCH   7   8
ENDBRANCH   6   7
ENDBRANCH   5   6
ENDBRANCH   4   5
ENDBRANCH   3   4
ENDBRANCH   2   3
ENDBRANCH   1   2
BRANCH   1  31
ATOM     31  C   UNL A   1      46.234  39.884  29.736  1.00  0.00     0.188 C 
BRANCH  31  32
ATOM     32  O   UNL A   1      47.326  39.816  30.648  1.00  0.00    -0.376 OA
BRANCH  32  33
ATOM     33  C   UNL A   1      48.238  38.737  30.566  1.00  0.00     0.202 C 
BRANCH  33  34
ATOM     34  C   UNL A   1      48.648  38.282  29.159  1.00  0.00     0.261 C 
BRANCH  34  35
ATOM     35  O   UNL A   1      49.282  37.002  29.065  1.00  0.00    -0.460 OA
BRANCH  35  36
ATOM     36  C   UNL A   1      49.272  36.380  27.866  1.00  0.00     0.338 C 
ATOM     37  O   UNL A   1      49.945  36.659  26.888  1.00  0.00    -0.246 OA
BRANCH  36  38
ATOM     38  C   UNL A   1      48.452  35.161  28.021  1.00  0.00     0.060 A 
ATOM     39  C   UNL A   1      48.536  34.422  29.211  1.00  0.00     0.016 A 
ATOM     40  C   UNL A   1      47.547  34.796  27.021  1.00  0.00     0.016 A 
ATOM     41  C   UNL A   1      47.721  33.305  29.400  1.00  0.00     0.010 A 
ATOM     42  C   UNL A   1      46.764  33.656  27.193  1.00  0.00     0.010 A 
ATOM     43  C   UNL A   1      46.870  32.891  28.368  1.00  0.00    -0.014 A 
BRANCH  43  44
ATOM     44  C   UNL A   1      46.300  31.525  28.369  1.00  0.00     0.031 A 
ATOM     45  C   UNL A   1      47.142  30.437  27.762  1.00  0.00     0.074 A 
ATOM     46  C   UNL A   1      45.069  31.261  28.838  1.00  0.00     0.049 A 
ATOM     47  N   UNL A   1      46.820  29.210  27.459  1.00  0.00    -0.248 NA
ATOM     48  C   UNL A   1      48.536  30.794  27.442  1.00  0.00     0.031 C 
ATOM     49  C   UNL A   1      44.190  32.213  29.514  1.00  0.00     0.029 A 
ATOM     50  N   UNL A   1      44.336  30.100  28.792  1.00  0.00    -0.354 N 
ATOM     51  C   UNL A   1      47.964  28.654  26.897  1.00  0.00     0.074 A 
ATOM     52  C   UNL A   1      48.979  29.682  26.880  1.00  0.00     0.031 C 
ATOM     53  C   UNL A   1      43.025  31.602  29.799  1.00  0.00     0.029 A 
ATOM     54  C   UNL A   1      43.058  30.236  29.279  1.00  0.00     0.049 A 
ATOM     55  H   UNL A   1      44.692  29.251  28.442  1.00  0.00     0.167 HD
ATOM     56  C   UNL A   1      48.150  27.397  26.433  1.00  0.00     0.031 A 
ATOM     57  C   UNL A   1      42.027  29.366  29.267  1.00  0.00     0.031 A 
ATOM     58  C   UNL A   1      47.125  26.393  26.427  1.00  0.00     0.049 A 
ATOM     59  C   UNL A   1      42.221  28.005  28.641  1.00  0.00     0.074 A 
ATOM     60  C   UNL A   1      47.200  25.092  25.963  1.00  0.00     0.029 A 
ATOM     61  N   UNL A   1      45.837  26.578  26.907  1.00  0.00    -0.354 N 
ATOM     62  N   UNL A   1      43.302  27.491  28.102  1.00  0.00    -0.248 NA
ATOM     63  C   UNL A   1      41.058  27.105  28.622  1.00  0.00     0.031 C 
ATOM     64  C   UNL A   1      45.939  24.508  26.112  1.00  0.00     0.029 A 
ATOM     65  C   UNL A   1      45.102  25.421  26.736  1.00  0.00     0.049 A 
ATOM     66  H   UNL A   1      45.498  27.411  27.309  1.00  0.00     0.167 HD
ATOM     67  C   UNL A   1      42.962  26.193  27.728  1.00  0.00     0.074 A 
ATOM     68  C   UNL A   1      41.574  26.003  28.094  1.00  0.00     0.031 C 
ATOM     69  C   UNL A   1      43.730  25.243  27.141  1.00  0.00     0.031 A 
BRANCH  56  70
ATOM     70  C   UNL A   1      49.499  27.063  25.857  1.00  0.00    -0.014 A 
ATOM     71  C   UNL A   1      49.777  27.261  24.494  1.00  0.00     0.010 A 
ATOM     72  C   UNL A   1      50.511  26.568  26.699  1.00  0.00     0.010 A 
ATOM     73  C   UNL A   1      51.033  26.938  23.975  1.00  0.00     0.020 A 
ATOM     74  C   UNL A   1      51.778  26.274  26.192  1.00  0.00     0.020 A 
ATOM     75  C   UNL A   1      52.026  26.446  24.828  1.00  0.00     0.054 A 
BRANCH  75  76
ATOM     76  S   UNL A   1      53.655  26.065  24.132  1.00  0.00     0.124 S 
ATOM     77  O   UNL A   1      53.891  24.715  24.639  1.00  0.00    -0.237 OA
ATOM     78  O   UNL A   1      53.420  26.164  22.693  1.00  0.00    -0.237 OA
ATOM     79  O   UNL A   1      54.523  27.099  24.691  1.00  0.00    -0.744 OA
ENDBRANCH  75  76
ENDBRANCH  56  70
BRANCH  57  80
ATOM     80  C   UNL A   1      40.704  29.755  29.833  1.00  0.00    -0.014 A 
ATOM     81  C   UNL A   1      39.808  30.538  29.083  1.00  0.00     0.010 A 
ATOM     82  C   UNL A   1      40.342  29.369  31.137  1.00  0.00     0.010 A 
ATOM     83  C   UNL A   1      38.591  30.950  29.635  1.00  0.00     0.020 A 
ATOM     84  C   UNL A   1      39.112  29.751  31.680  1.00  0.00     0.020 A 
ATOM     85  C   UNL A   1      38.249  30.552  30.930  1.00  0.00     0.054 A 
BRANCH  85  86
ATOM     86  S   UNL A   1      36.652  31.074  31.613  1.00  0.00     0.124 S 
ATOM     87  O   UNL A   1      37.038  32.186  32.474  1.00  0.00    -0.237 OA
ATOM     88  O   UNL A   1      35.900  31.434  30.413  1.00  0.00    -0.237 OA
ATOM     89  O   UNL A   1      36.171  29.883  32.309  1.00  0.00    -0.744 OA
ENDBRANCH  85  86
ENDBRANCH  57  80
BRANCH  69  90
ATOM     90  C   UNL A   1      43.134  23.876  26.928  1.00  0.00    -0.014 A 
ATOM     91  C   UNL A   1      42.856  23.383  25.643  1.00  0.00     0.010 A 
ATOM     92  C   UNL A   1      42.967  23.028  28.040  1.00  0.00     0.010 A 
ATOM     93  C   UNL A   1      42.420  22.065  25.474  1.00  0.00     0.020 A 
ATOM     94  C   UNL A   1      42.560  21.703  27.873  1.00  0.00     0.020 A 
ATOM     95  C   UNL A   1      42.285  21.231  26.590  1.00  0.00     0.054 A 
BRANCH  95  96
ATOM     96  S   UNL A   1      41.813  19.498  26.333  1.00  0.00     0.124 S 
ATOM     97  O   UNL A   1      40.375  19.604  26.101  1.00  0.00    -0.237 OA
ATOM     98  O   UNL A   1      42.611  19.120  25.169  1.00  0.00    -0.237 OA
ATOM     99  O   UNL A   1      42.196  18.844  27.582  1.00  0.00    -0.744 OA
ENDBRANCH  95  96
ENDBRANCH  69  90
ENDBRANCH  43  44
ENDBRANCH  36  38
ENDBRANCH  35  36
ENDBRANCH  34  35
ENDBRANCH  33  34
ENDBRANCH  32  33
ENDBRANCH  31  32
ENDBRANCH   1  31
TORSDOF 26
ENDMDL
MODEL 2
REMARK VINA RESULT:      -8.3      7.413     13.559
REMARK SMILES [NH3+][C@]1(C(=O)OCCOCCOCCOCCOC(=O)c2ccc(-c3c4nc(c(-c5ccc(S(=O)(=O)[O-])cc5)c5ccc([nH]5)c(-c5ccc(S(=O)(=O)[O-])cc5)c5nc(c(-c6ccc(S(=O)(=O)[O-])cc6)c6ccc3[nH]6)C=C5)C=C4)cc2)CC[C@@H](Sc2cc3ccccc3[nH]2)C1
REMARK SMILES IDX 12 1 11 2 10 3 9 4 8 5 7 6 6 7 5 8 3 9 4 10 2 11 80 12 93 13
REMARK SMILES IDX 81 14 82 15 1 16 83 20 84 21 85 22 92 23 86 24 91 25 87 27
REMARK SMILES IDX 90 28 88 29 89 30 13 31 14 32 15 33 16 34 17 35 18 36 19 37
REMARK SMILES IDX 20 38 21 39 79 40 22 41 78 42 23 43 24 44 25 45 72 46 26 47
REMARK SMILES IDX 77 48 71 49 73 50 27 51 76 52 70 53 69 54 28 56 58 57 39 58
REMARK SMILES IDX 57 59 40 60 43 61 56 62 74 63 41 64 42 65 55 67 75 68 44 69
REMARK SMILES IDX 29 70 30 71 38 72 31 73 37 74 32 75 33 76 34 77 35 78 36 79
REMARK SMILES IDX 59 80 60 81 68 82 61 83 67 84 62 85 63 86 64 87 65 88 66 89
REMARK SMILES IDX 45 90 46 91 54 92 47 93 53 94 48 95 49 96 50 97 51 98 52 99
REMARK H PARENT 1 17 1 18 1 19 92 26 73 55 43 66
REMARK Flexibility Score: inf
ROOT
ATOM      1  C   UNL A   1      38.817  34.505  35.012  1.00  0.00     0.188 C 
ENDROOT
BRANCH   1   2
ATOM      2  O   UNL A   1      40.222  34.503  35.178  1.00  0.00    -0.377 OA
BRANCH   2   3
ATOM      3  C   UNL A   1      40.938  35.088  34.102  1.00  0.00     0.188 C 
BRANCH   3   4
ATOM      4  C   UNL A   1      42.197  35.860  34.560  1.00  0.00     0.188 C 
BRANCH   4   5
ATOM      5  O   UNL A   1      43.363  35.172  34.995  1.00  0.00    -0.376 OA
BRANCH   5   6
ATOM      6  C   UNL A   1      43.271  34.025  35.824  1.00  0.00     0.202 C 
BRANCH   6   7
ATOM      7  C   UNL A   1      43.578  32.598  35.325  1.00  0.00     0.261 C 
BRANCH   7   8
ATOM      8  O   UNL A   1      42.673  31.554  35.693  1.00  0.00    -0.459 OA
BRANCH   8   9
ATOM      9  C   UNL A   1      41.852  31.093  34.714  1.00  0.00     0.368 C 
ATOM     10  O   UNL A   1      41.544  31.735  33.716  1.00  0.00    -0.245 OA
BRANCH   9  11
ATOM     11  C   UNL A   1      41.426  29.624  34.987  1.00  0.00     0.193 C 
ATOM     12  C   UNL A   1      40.992  28.927  33.689  1.00  0.00     0.082 C 
ATOM     13  C   UNL A   1      42.622  28.832  35.517  1.00  0.00     0.096 C 
ATOM     14  C   UNL A   1      41.351  27.468  33.902  1.00  0.00     0.022 C 
ATOM     15  C   UNL A   1      42.587  27.498  34.794  1.00  0.00     0.060 C 
BRANCH  11  16
ATOM     16  N   UNL A   1      40.352  29.483  36.008  1.00  0.00    -0.343 N 
ATOM     17  H   UNL A   1      40.387  28.548  36.412  1.00  0.00     0.345 HD
ATOM     18  H   UNL A   1      39.444  29.630  35.567  1.00  0.00     0.345 HD
ATOM     19  H   UNL A   1      40.489  30.178  36.743  1.00  0.00     0.345 HD
ENDBRANCH  11  16
BRANCH  15  20
ATOM     20  S   UNL A   1      44.157  27.270  33.967  1.00  0.00    -0.105 SA
BRANCH  20  21
ATOM     21  C   UNL A   1      44.179  28.450  32.668  1.00  0.00     0.073 A 
ATOM     22  C   UNL A   1      44.709  29.733  32.655  1.00  0.00     0.043 A 
ATOM     23  N   UNL A   1      44.579  27.918  31.463  1.00  0.00    -0.350 N 
ATOM     24  C   UNL A   1      45.990  29.515  32.034  1.00  0.00     0.001 A 
ATOM     25  C   UNL A   1      45.916  28.271  31.401  1.00  0.00     0.046 A 
ATOM     26  H   UNL A   1      44.046  27.411  30.806  1.00  0.00     0.167 HD
ATOM     27  C   UNL A   1      47.242  30.143  32.135  1.00  0.00     0.010 A 
ATOM     28  C   UNL A   1      47.022  27.533  30.997  1.00  0.00     0.027 A 
ATOM     29  C   UNL A   1      48.377  29.393  31.791  1.00  0.00     0.001 A 
ATOM     30  C   UNL A   1      48.266  28.099  31.270  1.00  0.00     0.002 A 
ENDBRANCH  20  21
ENDBRANCH  15  20
ENDBRANCH   9  11
ENDBRANCH   8   9
ENDBRANCH   7   8
ENDBRANCH   6   7
ENDBRANCH   5   6
ENDBRANCH   4   5
ENDBRANCH   3   4
ENDBRANCH   2   3
ENDBRANCH   1   2
BRANCH   1  31
ATOM     31  C   UNL A   1      38.195  33.203  34.474  1.00  0.00     0.188 C 
BRANCH  31  32
ATOM     32  O   UNL A   1      37.264  33.416  33.418  1.00  0.00    -0.376 OA
BRANCH  32  33
ATOM     33  C   UNL A   1      36.072  32.655  33.374  1.00  0.00     0.202 C 
BRANCH  33  34
ATOM     34  C   UNL A   1      35.662  32.088  32.008  1.00  0.00     0.261 C 
BRANCH  34  35
ATOM     35  O   UNL A   1      36.383  30.937  31.557  1.00  0.00    -0.460 OA
BRANCH  35  36
ATOM     36  C   UNL A   1      36.453  30.718  30.226  1.00  0.00     0.338 C 
ATOM     37  O   UNL A   1      35.567  30.890  29.405  1.00  0.00    -0.246 OA
BRANCH  36  38
ATOM     38  C   UNL A   1      37.868  30.433  29.910  1.00  0.00     0.060 A 
ATOM     39  C   UNL A   1      38.214  30.024  28.613  1.00  0.00     0.016 A 
ATOM     40  C   UNL A   1      38.856  30.644  30.875  1.00  0.00     0.016 A 
ATOM     41  C   UNL A   1      39.553  29.813  28.280  1.00  0.00     0.010 A 
ATOM     42  C   UNL A   1      40.188  30.393  30.554  1.00  0.00     0.010 A 
ATOM     43  C   UNL A   1      40.538  29.948  29.266  1.00  0.00    -0.014 A 
BRANCH  43  44
ATOM     44  C   UNL A   1      41.883  29.363  29.068  1.00  0.00     0.031 A 
ATOM     45  C   UNL A   1      43.052  30.304  29.158  1.00  0.00     0.074 A 
ATOM     46  C   UNL A   1      42.065  28.066  28.770  1.00  0.00     0.049 A 
ATOM     47  N   UNL A   1      44.302  30.107  28.841  1.00  0.00    -0.248 NA
ATOM     48  C   UNL A   1      42.762  31.659  29.661  1.00  0.00     0.031 C 
ATOM     49  C   UNL A   1      41.021  27.044  28.730  1.00  0.00     0.029 A 
ATOM     50  N   UNL A   1      43.210  27.392  28.422  1.00  0.00    -0.354 N 
ATOM     51  C   UNL A   1      44.943  31.315  29.090  1.00  0.00     0.074 A 
ATOM     52  C   UNL A   1      43.943  32.245  29.561  1.00  0.00     0.031 C 
ATOM     53  C   UNL A   1      41.571  25.876  28.352  1.00  0.00     0.029 A 
ATOM     54  C   UNL A   1      42.992  26.080  28.075  1.00  0.00     0.049 A 
ATOM     55  H   UNL A   1      44.102  27.809  28.421  1.00  0.00     0.167 HD
ATOM     56  C   UNL A   1      46.251  31.623  28.936  1.00  0.00     0.031 A 
ATOM     57  C   UNL A   1      43.840  25.167  27.556  1.00  0.00     0.031 A 
ATOM     58  C   UNL A   1      47.231  30.700  28.438  1.00  0.00     0.049 A 
ATOM     59  C   UNL A   1      45.272  25.564  27.286  1.00  0.00     0.074 A 
ATOM     60  C   UNL A   1      48.581  30.912  28.225  1.00  0.00     0.029 A 
ATOM     61  N   UNL A   1      46.965  29.388  28.074  1.00  0.00    -0.354 N 
ATOM     62  N   UNL A   1      45.868  26.712  27.512  1.00  0.00    -0.248 NA
ATOM     63  C   UNL A   1      46.147  24.544  26.688  1.00  0.00     0.031 C 
ATOM     64  C   UNL A   1      49.120  29.745  27.678  1.00  0.00     0.029 A 
ATOM     65  C   UNL A   1      48.122  28.783  27.623  1.00  0.00     0.049 A 
ATOM     66  H   UNL A   1      46.083  28.954  28.130  1.00  0.00     0.167 HD
ATOM     67  C   UNL A   1      47.196  26.533  27.134  1.00  0.00     0.074 A 
ATOM     68  C   UNL A   1      47.315  25.172  26.656  1.00  0.00     0.031 C 
ATOM     69  C   UNL A   1      48.225  27.414  27.185  1.00  0.00     0.031 A 
BRANCH  56  70
ATOM     70  C   UNL A   1      46.678  33.026  29.270  1.00  0.00    -0.014 A 
ATOM     71  C   UNL A   1      47.086  33.921  28.265  1.00  0.00     0.010 A 
ATOM     72  C   UNL A   1      46.645  33.463  30.606  1.00  0.00     0.010 A 
ATOM     73  C   UNL A   1      47.486  35.218  28.594  1.00  0.00     0.020 A 
ATOM     74  C   UNL A   1      47.014  34.770  30.937  1.00  0.00     0.020 A 
ATOM     75  C   UNL A   1      47.447  35.635  29.929  1.00  0.00     0.054 A 
BRANCH  75  76
ATOM     76  S   UNL A   1      47.942  37.333  30.322  1.00  0.00     0.124 S 
ATOM     77  O   UNL A   1      47.315  38.087  29.239  1.00  0.00    -0.237 OA
ATOM     78  O   UNL A   1      47.361  37.536  31.647  1.00  0.00    -0.237 OA
ATOM     79  O   UNL A   1      49.401  37.287  30.284  1.00  0.00    -0.744 OA
ENDBRANCH  75  76
ENDBRANCH  56  70
BRANCH  57  80
ATOM     80  C   UNL A   1      43.361  23.795  27.225  1.00  0.00    -0.014 A 
ATOM     81  C   UNL A   1      43.100  22.863  28.246  1.00  0.00     0.010 A 
ATOM     82  C   UNL A   1      43.187  23.401  25.885  1.00  0.00     0.010 A 
ATOM     83  C   UNL A   1      42.703  21.559  27.934  1.00  0.00     0.020 A 
ATOM     84  C   UNL A   1      42.759  22.108  25.570  1.00  0.00     0.020 A 
ATOM     85  C   UNL A   1      42.534  21.190  26.597  1.00  0.00     0.054 A 
BRANCH  85  86
ATOM     86  S   UNL A   1      41.990  19.501  26.218  1.00  0.00     0.124 S 
ATOM     87  O   UNL A   1      42.768  19.192  25.023  1.00  0.00    -0.237 OA
ATOM     88  O   UNL A   1      42.367  18.772  27.425  1.00  0.00    -0.237 OA
ATOM     89  O   UNL A   1      40.552  19.644  26.007  1.00  0.00    -0.744 OA
ENDBRANCH  85  86
ENDBRANCH  57  80
BRANCH  69  90
ATOM     90  C   UNL A   1      49.598  26.929  26.797  1.00  0.00    -0.014 A 
ATOM     91  C   UNL A   1      50.469  26.349  27.735  1.00  0.00     0.010 A 
ATOM     92  C   UNL A   1      49.964  26.946  25.438  1.00  0.00     0.010 A 
ATOM     93  C   UNL A   1      51.684  25.797  27.318  1.00  0.00     0.020 A 
ATOM     94  C   UNL A   1      51.164  26.370  25.014  1.00  0.00     0.020 A 
ATOM     95  C   UNL A   1      52.018  25.802  25.959  1.00  0.00     0.054 A 
BRANCH  95  96
ATOM     96  S   UNL A   1      53.555  24.991  25.435  1.00  0.00     0.124 S 
ATOM     97  O   UNL A   1      53.918  25.762  24.249  1.00  0.00    -0.237 OA
ATOM     98  O   UNL A   1      54.423  25.175  26.596  1.00  0.00    -0.237 OA
ATOM     99  O   UNL A   1      53.150  23.611  25.180  1.00  0.00    -0.744 OA
ENDBRANCH  95  96
ENDBRANCH  69  90
ENDBRANCH  43  44
ENDBRANCH  36  38
ENDBRANCH  35  36
ENDBRANCH  34  35
ENDBRANCH  33  34
ENDBRANCH  32  33
ENDBRANCH  31  32
ENDBRANCH   1  31
TORSDOF 26
ENDMDL
MODEL 3
REMARK VINA RESULT:      -8.2     11.031     17.788
REMARK SMILES [NH3+][C@]1(C(=O)OCCOCCOCCOCCOC(=O)c2ccc(-c3c4nc(c(-c5ccc(S(=O)(=O)[O-])cc5)c5ccc([nH]5)c(-c5ccc(S(=O)(=O)[O-])cc5)c5nc(c(-c6ccc(S(=O)(=O)[O-])cc6)c6ccc3[nH]6)C=C5)C=C4)cc2)CC[C@@H](Sc2cc3ccccc3[nH]2)C1
REMARK SMILES IDX 12 1 11 2 10 3 9 4 8 5 7 6 6 7 5 8 3 9 4 10 2 11 80 12 93 13
REMARK SMILES IDX 81 14 82 15 1 16 83 20 84 21 85 22 92 23 86 24 91 25 87 27
REMARK SMILES IDX 90 28 88 29 89 30 13 31 14 32 15 33 16 34 17 35 18 36 19 37
REMARK SMILES IDX 20 38 21 39 79 40 22 41 78 42 23 43 24 44 25 45 72 46 26 47
REMARK SMILES IDX 77 48 71 49 73 50 27 51 76 52 70 53 69 54 28 56 58 57 39 58
REMARK SMILES IDX 57 59 40 60 43 61 56 62 74 63 41 64 42 65 55 67 75 68 44 69
REMARK SMILES IDX 29 70 30 71 38 72 31 73 37 74 32 75 33 76 34 77 35 78 36 79
REMARK SMILES IDX 59 80 60 81 68 82 61 83 67 84 62 85 63 86 64 87 65 88 66 89
REMARK SMILES IDX 45 90 46 91 54 92 47 93 53 94 48 95 49 96 50 97 51 98 52 99
REMARK H PARENT 1 17 1 18 1 19 92 26 73 55 43 66
REMARK Flexibility Score: inf
ROOT
ATOM      1  C   UNL A   1      36.900  29.649  27.706  1.00  0.00     0.188 C 
ENDROOT
BRANCH   1   2
ATOM      2  O   UNL A   1      36.327  30.914  27.974  1.00  0.00    -0.377 OA
BRANCH   2   3
ATOM      3  C   UNL A   1      34.941  30.999  27.685  1.00  0.00     0.188 C 
BRANCH   3   4
ATOM      4  C   UNL A   1      34.327  29.646  27.255  1.00  0.00     0.188 C 
BRANCH   4   5
ATOM      5  O   UNL A   1      33.166  29.593  26.436  1.00  0.00    -0.376 OA
BRANCH   5   6
ATOM      6  C   UNL A   1      31.907  29.220  26.971  1.00  0.00     0.202 C 
BRANCH   6   7
ATOM      7  C   UNL A   1      31.428  27.756  27.056  1.00  0.00     0.261 C 
BRANCH   7   8
ATOM      8  O   UNL A   1      31.358  27.006  25.841  1.00  0.00    -0.459 OA
BRANCH   8   9
ATOM      9  C   UNL A   1      32.330  26.077  25.649  1.00  0.00     0.368 C 
ATOM     10  O   UNL A   1      33.526  26.337  25.574  1.00  0.00    -0.245 OA
BRANCH   9  11
ATOM     11  C   UNL A   1      31.734  24.642  25.618  1.00  0.00     0.193 C 
ATOM     12  C   UNL A   1      32.174  23.890  24.353  1.00  0.00     0.082 C 
ATOM     13  C   UNL A   1      32.273  23.837  26.802  1.00  0.00     0.096 C 
ATOM     14  C   UNL A   1      32.225  22.433  24.774  1.00  0.00     0.022 C 
ATOM     15  C   UNL A   1      32.618  22.467  26.246  1.00  0.00     0.060 C 
BRANCH  11  16
ATOM     16  N   UNL A   1      30.251  24.598  25.730  1.00  0.00    -0.343 N 
ATOM     17  H   UNL A   1      29.903  23.737  25.307  1.00  0.00     0.345 HD
ATOM     18  H   UNL A   1      29.850  25.401  25.245  1.00  0.00     0.345 HD
ATOM     19  H   UNL A   1      29.983  24.627  26.714  1.00  0.00     0.345 HD
ENDBRANCH  11  16
BRANCH  15  20
ATOM     20  S   UNL A   1      34.339  22.136  26.607  1.00  0.00    -0.105 SA
BRANCH  20  21
ATOM     21  C   UNL A   1      35.251  23.046  25.414  1.00  0.00     0.073 A 
ATOM     22  C   UNL A   1      35.985  24.213  25.574  1.00  0.00     0.043 A 
ATOM     23  N   UNL A   1      36.063  22.252  24.635  1.00  0.00    -0.350 N 
ATOM     24  C   UNL A   1      37.323  23.701  25.722  1.00  0.00     0.001 A 
ATOM     25  C   UNL A   1      37.299  22.388  25.244  1.00  0.00     0.046 A 
ATOM     26  H   UNL A   1      35.824  21.719  23.842  1.00  0.00     0.167 HD
ATOM     27  C   UNL A   1      38.467  24.146  26.403  1.00  0.00     0.010 A 
ATOM     28  C   UNL A   1      38.269  21.435  25.529  1.00  0.00     0.027 A 
ATOM     29  C   UNL A   1      39.430  23.188  26.755  1.00  0.00     0.001 A 
ATOM     30  C   UNL A   1      39.309  21.852  26.358  1.00  0.00     0.002 A 
ENDBRANCH  20  21
ENDBRANCH  15  20
ENDBRANCH   9  11
ENDBRANCH   8   9
ENDBRANCH   7   8
ENDBRANCH   6   7
ENDBRANCH   5   6
ENDBRANCH   4   5
ENDBRANCH   3   4
ENDBRANCH   2   3
ENDBRANCH   1   2
BRANCH   1  31
ATOM     31  C   UNL A   1      38.429  29.548  27.870  1.00  0.00     0.188 C 
BRANCH  31  32
ATOM     32  O   UNL A   1      38.893  28.210  28.016  1.00  0.00    -0.376 OA
BRANCH  32  33
ATOM     33  C   UNL A   1      40.156  27.847  27.491  1.00  0.00     0.202 C 
BRANCH  33  34
ATOM     34  C   UNL A   1      40.922  28.931  26.719  1.00  0.00     0.261 C 
BRANCH  34  35
ATOM     35  O   UNL A   1      42.299  29.103  27.066  1.00  0.00    -0.460 OA
BRANCH  35  36
ATOM     36  C   UNL A   1      42.904  28.114  27.759  1.00  0.00     0.338 C 
ATOM     37  O   UNL A   1      43.518  27.165  27.300  1.00  0.00    -0.246 OA
BRANCH  36  38
ATOM     38  C   UNL A   1      42.871  28.503  29.183  1.00  0.00     0.060 A 
ATOM     39  C   UNL A   1      42.488  27.556  30.146  1.00  0.00     0.016 A 
ATOM     40  C   UNL A   1      43.290  29.778  29.570  1.00  0.00     0.016 A 
ATOM     41  C   UNL A   1      42.513  27.887  31.501  1.00  0.00     0.010 A 
ATOM     42  C   UNL A   1      43.274  30.121  30.920  1.00  0.00     0.010 A 
ATOM     43  C   UNL A   1      42.857  29.188  31.887  1.00  0.00    -0.014 A 
BRANCH  43  44
ATOM     44  C   UNL A   1      42.520  29.684  33.240  1.00  0.00     0.031 A 
ATOM     45  C   UNL A   1      41.269  30.507  33.370  1.00  0.00     0.074 A 
ATOM     46  C   UNL A   1      43.312  29.462  34.303  1.00  0.00     0.049 A 
ATOM     47  N   UNL A   1      40.844  31.217  34.379  1.00  0.00    -0.248 NA
ATOM     48  C   UNL A   1      40.385  30.541  32.191  1.00  0.00     0.031 C 
ATOM     49  C   UNL A   1      44.507  28.621  34.317  1.00  0.00     0.029 A 
ATOM     50  N   UNL A   1      43.230  29.955  35.583  1.00  0.00    -0.354 N 
ATOM     51  C   UNL A   1      39.655  31.796  33.950  1.00  0.00     0.074 A 
ATOM     52  C   UNL A   1      39.437  31.374  32.586  1.00  0.00     0.031 C 
ATOM     53  C   UNL A   1      45.061  28.675  35.543  1.00  0.00     0.029 A 
ATOM     54  C   UNL A   1      44.291  29.594  36.379  1.00  0.00     0.049 A 
ATOM     55  H   UNL A   1      42.484  30.513  35.899  1.00  0.00     0.167 HD
ATOM     56  C   UNL A   1      38.819  32.611  34.633  1.00  0.00     0.031 A 
ATOM     57  C   UNL A   1      44.616  29.996  37.626  1.00  0.00     0.031 A 
ATOM     58  C   UNL A   1      39.061  33.048  35.979  1.00  0.00     0.049 A 
ATOM     59  C   UNL A   1      43.730  30.994  38.331  1.00  0.00     0.074 A 
ATOM     60  C   UNL A   1      38.290  33.889  36.761  1.00  0.00     0.029 A 
ATOM     61  N   UNL A   1      40.159  32.680  36.742  1.00  0.00    -0.354 N 
ATOM     62  N   UNL A   1      42.613  31.546  37.915  1.00  0.00    -0.248 NA
ATOM     63  C   UNL A   1      44.145  31.426  39.674  1.00  0.00     0.031 C 
ATOM     64  C   UNL A   1      38.951  34.074  37.978  1.00  0.00     0.029 A 
ATOM     65  C   UNL A   1      40.095  33.289  37.981  1.00  0.00     0.049 A 
ATOM     66  H   UNL A   1      40.876  32.075  36.445  1.00  0.00     0.167 HD
ATOM     67  C   UNL A   1      42.170  32.347  38.964  1.00  0.00     0.074 A 
ATOM     68  C   UNL A   1      43.141  32.216  40.030  1.00  0.00     0.031 C 
ATOM     69  C   UNL A   1      41.055  33.116  39.041  1.00  0.00     0.031 A 
BRANCH  56  70
ATOM     70  C   UNL A   1      37.595  33.110  33.916  1.00  0.00    -0.014 A 
ATOM     71  C   UNL A   1      37.533  34.420  33.409  1.00  0.00     0.010 A 
ATOM     72  C   UNL A   1      36.502  32.246  33.723  1.00  0.00     0.010 A 
ATOM     73  C   UNL A   1      36.385  34.868  32.752  1.00  0.00     0.020 A 
ATOM     74  C   UNL A   1      35.365  32.680  33.038  1.00  0.00     0.020 A 
ATOM     75  C   UNL A   1      35.308  33.995  32.570  1.00  0.00     0.054 A 
BRANCH  75  76
ATOM     76  S   UNL A   1      33.845  34.596  31.686  1.00  0.00     0.124 S 
ATOM     77  O   UNL A   1      33.782  33.679  30.549  1.00  0.00    -0.237 OA
ATOM     78  O   UNL A   1      32.784  34.438  32.679  1.00  0.00    -0.237 OA
ATOM     79  O   UNL A   1      34.182  35.977  31.352  1.00  0.00    -0.744 OA
ENDBRANCH  75  76
ENDBRANCH  56  70
BRANCH  57  80
ATOM     80  C   UNL A   1      45.852  29.485  38.285  1.00  0.00    -0.014 A 
ATOM     81  C   UNL A   1      45.821  28.298  39.039  1.00  0.00     0.010 A 
ATOM     82  C   UNL A   1      47.063  30.195  38.186  1.00  0.00     0.010 A 
ATOM     83  C   UNL A   1      46.967  27.847  39.702  1.00  0.00     0.020 A 
ATOM     84  C   UNL A   1      48.218  29.731  38.821  1.00  0.00     0.020 A 
ATOM     85  C   UNL A   1      48.159  28.567  39.588  1.00  0.00     0.054 A 
BRANCH  85  86
ATOM     86  S   UNL A   1      49.639  27.946  40.435  1.00  0.00     0.124 S 
ATOM     87  O   UNL A   1      50.368  27.308  39.344  1.00  0.00    -0.237 OA
ATOM     88  O   UNL A   1      50.234  29.171  40.963  1.00  0.00    -0.237 OA
ATOM     89  O   UNL A   1      49.101  27.037  41.443  1.00  0.00    -0.744 OA
ENDBRANCH  85  86
ENDBRANCH  57  80
BRANCH  69  90
ATOM     90  C   UNL A   1      40.761  33.816  40.342  1.00  0.00    -0.014 A 
ATOM     91  C   UNL A   1      41.081  35.169  40.542  1.00  0.00     0.010 A 
ATOM     92  C   UNL A   1      40.036  33.127  41.333  1.00  0.00     0.010 A 
ATOM     93  C   UNL A   1      40.683  35.820  41.715  1.00  0.00     0.020 A 
ATOM     94  C   UNL A   1      39.611  33.781  42.492  1.00  0.00     0.020 A 
ATOM     95  C   UNL A   1      39.941  35.124  42.676  1.00  0.00     0.054 A 
BRANCH  95  96
ATOM     96  S   UNL A   1      39.353  36.020  44.141  1.00  0.00     0.124 S 
ATOM     97  O   UNL A   1      39.597  37.410  43.767  1.00  0.00    -0.237 OA
ATOM     98  O   UNL A   1      37.948  35.623  44.212  1.00  0.00    -0.237 OA
ATOM     99  O   UNL A   1      40.194  35.509  45.221  1.00  0.00    -0.744 OA
ENDBRANCH  95  96
ENDBRANCH  69  90
ENDBRANCH  43  44
ENDBRANCH  36  38
ENDBRANCH  35  36
ENDBRANCH  34  35
ENDBRANCH  33  34
ENDBRANCH  32  33
ENDBRANCH  31  32
ENDBRANCH   1  31
TORSDOF 26
ENDMDL
