MODEL 1
REMARK VINA RESULT:      -9.6      0.000      0.000
REMARK SMILES CCOC(=O)c1c(NC(=O)/C=C/C(=O)OCCOCCOCCOCCOC(=O)c2ccc(-c3c4nc(c(-c5ccc(S(=O)(=O)[O-])cc5)c5ccc([nH]5)c(-c5ccc(S(=O)(=O)[O-])cc5)c5nc(c(-c6ccc(S(=O)(=O)[O-])cc6)c6ccc3[nH]6)C=C5)C=C4)cc2)sc(C)c1-c1ccc(C)c(C)c1
REMARK SMILES IDX 20 1 19 2 18 3 17 4 16 5 15 6 13 7 14 8 12 9 11 10 9 11 8 12
REMARK SMILES IDX 10 14 7 15 6 16 93 17 90 18 91 19 92 20 4 21 5 22 3 23 2 24
REMARK SMILES IDX 1 25 94 26 95 27 101 28 96 29 99 30 97 31 100 32 98 33 21 34
REMARK SMILES IDX 22 35 23 36 24 37 25 38 26 39 27 40 28 41 29 42 30 43 31 44
REMARK SMILES IDX 89 45 32 46 88 47 33 48 34 49 35 50 82 51 36 52 87 53 81 54
REMARK SMILES IDX 83 55 37 56 86 57 80 58 79 59 38 61 68 62 49 63 67 64 50 65
REMARK SMILES IDX 53 66 66 67 84 68 51 69 52 70 65 72 85 73 54 74 39 75 40 76
REMARK SMILES IDX 48 77 41 78 47 79 42 80 43 81 44 82 45 83 46 84 69 85 70 86
REMARK SMILES IDX 78 87 71 88 77 89 72 90 73 91 74 92 75 93 76 94 55 95 56 96
REMARK SMILES IDX 64 97 57 98 63 99 58 100 59 101 60 102 61 103 62 104
REMARK H PARENT 8 13 83 60 53 71
REMARK Flexibility Score: inf
ROOT
ATOM      1  C   UNL A   1      34.379  21.384  27.015  1.00  0.00     0.188 C 
ENDROOT
BRANCH   1   2
ATOM      2  C   UNL A   1      33.580  22.500  27.722  1.00  0.00     0.188 C 
BRANCH   2   3
ATOM      3  O   UNL A   1      32.611  23.129  26.909  1.00  0.00    -0.376 OA
BRANCH   3   4
ATOM      4  C   UNL A   1      31.374  22.465  26.721  1.00  0.00     0.202 C 
BRANCH   4   5
ATOM      5  C   UNL A   1      31.033  21.882  25.337  1.00  0.00     0.261 C 
BRANCH   5   6
ATOM      6  O   UNL A   1      31.810  20.747  24.912  1.00  0.00    -0.460 OA
BRANCH   6   7
ATOM      7  C   UNL A   1      32.406  20.828  23.702  1.00  0.00     0.331 C 
ATOM      8  O   UNL A   1      32.004  20.307  22.672  1.00  0.00    -0.247 OA
BRANCH   7   9
ATOM      9  C   UNL A   1      33.555  21.765  23.698  1.00  0.00     0.099 C 
ATOM     10  C   UNL A   1      33.477  23.105  23.710  1.00  0.00     0.079 C 
BRANCH  10  11
ATOM     11  C   UNL A   1      34.677  23.960  23.541  1.00  0.00     0.249 C 
ATOM     12  N   UNL A   1      34.676  25.323  23.699  1.00  0.00    -0.313 N 
ATOM     13  H   UNL A   1      35.480  25.759  23.335  1.00  0.00     0.171 HD
ATOM     14  O   UNL A   1      35.738  23.406  23.242  1.00  0.00    -0.270 OA
BRANCH  12  15
ATOM     15  C   UNL A   1      33.775  26.213  24.266  1.00  0.00     0.111 A 
ATOM     16  C   UNL A   1      32.999  27.180  23.639  1.00  0.00     0.102 A 
ATOM     17  C   UNL A   1      32.134  27.870  24.588  1.00  0.00     0.012 A 
ATOM     18  S   UNL A   1      33.635  26.356  25.933  1.00  0.00    -0.122 S 
ATOM     19  C   UNL A   1      32.304  27.391  25.875  1.00  0.00     0.012 A 
ATOM     20  C   UNL A   1      31.571  27.661  27.150  1.00  0.00     0.057 C 
BRANCH  16  21
ATOM     21  C   UNL A   1      33.060  27.429  22.207  1.00  0.00     0.341 C 
ATOM     22  O   UNL A   1      33.871  28.182  21.694  1.00  0.00    -0.246 OA
BRANCH  21  23
ATOM     23  O   UNL A   1      32.081  26.758  21.535  1.00  0.00    -0.462 OA
BRANCH  23  24
ATOM     24  C   UNL A   1      32.455  25.523  20.914  1.00  0.00     0.230 C 
ATOM     25  C   UNL A   1      32.358  25.593  19.401  1.00  0.00     0.049 C 
ENDBRANCH  23  24
ENDBRANCH  21  23
ENDBRANCH  16  21
BRANCH  17  26
ATOM     26  C   UNL A   1      31.157  28.911  24.306  1.00  0.00    -0.016 A 
ATOM     27  C   UNL A   1      31.265  30.173  24.887  1.00  0.00     0.009 A 
ATOM     28  C   UNL A   1      30.085  28.635  23.447  1.00  0.00     0.012 A 
ATOM     29  C   UNL A   1      30.297  31.142  24.619  1.00  0.00     0.004 A 
ATOM     30  C   UNL A   1      29.120  29.607  23.149  1.00  0.00    -0.048 A 
ATOM     31  C   UNL A   1      29.219  30.873  23.755  1.00  0.00    -0.048 A 
ATOM     32  C   UNL A   1      28.011  29.247  22.200  1.00  0.00     0.044 C 
ATOM     33  C   UNL A   1      28.201  31.961  23.547  1.00  0.00     0.044 C 
ENDBRANCH  17  26
ENDBRANCH  12  15
ENDBRANCH  10  11
ENDBRANCH   7   9
ENDBRANCH   6   7
ENDBRANCH   5   6
ENDBRANCH   4   5
ENDBRANCH   3   4
ENDBRANCH   2   3
ENDBRANCH   1   2
BRANCH   1  34
ATOM     34  O   UNL A   1      35.581  21.703  26.338  1.00  0.00    -0.377 OA
BRANCH  34  35
ATOM     35  C   UNL A   1      36.112  20.781  25.394  1.00  0.00     0.188 C 
BRANCH  35  36
ATOM     36  C   UNL A   1      37.608  20.813  24.993  1.00  0.00     0.188 C 
BRANCH  36  37
ATOM     37  O   UNL A   1      38.332  21.955  25.428  1.00  0.00    -0.376 OA
BRANCH  37  38
ATOM     38  C   UNL A   1      39.328  21.749  26.415  1.00  0.00     0.202 C 
BRANCH  38  39
ATOM     39  C   UNL A   1      40.534  22.701  26.387  1.00  0.00     0.261 C 
BRANCH  39  40
ATOM     40  O   UNL A   1      40.236  24.097  26.538  1.00  0.00    -0.460 OA
BRANCH  40  41
ATOM     41  C   UNL A   1      41.253  24.970  26.362  1.00  0.00     0.338 C 
ATOM     42  O   UNL A   1      41.943  25.102  25.368  1.00  0.00    -0.246 OA
BRANCH  41  43
ATOM     43  C   UNL A   1      41.250  25.891  27.519  1.00  0.00     0.060 A 
ATOM     44  C   UNL A   1      40.191  25.833  28.437  1.00  0.00     0.016 A 
ATOM     45  C   UNL A   1      42.310  26.777  27.718  1.00  0.00     0.016 A 
ATOM     46  C   UNL A   1      40.184  26.677  29.549  1.00  0.00     0.010 A 
ATOM     47  C   UNL A   1      42.286  27.641  28.815  1.00  0.00     0.010 A 
ATOM     48  C   UNL A   1      41.211  27.613  29.721  1.00  0.00    -0.014 A 
BRANCH  48  49
ATOM     49  C   UNL A   1      41.069  28.685  30.735  1.00  0.00     0.031 A 
ATOM     50  C   UNL A   1      41.993  28.664  31.923  1.00  0.00     0.074 A 
ATOM     51  C   UNL A   1      40.152  29.660  30.606  1.00  0.00     0.049 A 
ATOM     52  N   UNL A   1      42.028  29.458  32.961  1.00  0.00    -0.248 NA
ATOM     53  C   UNL A   1      43.012  27.599  31.946  1.00  0.00     0.031 C 
ATOM     54  C   UNL A   1      39.226  29.811  29.484  1.00  0.00     0.029 A 
ATOM     55  N   UNL A   1      39.839  30.704  31.442  1.00  0.00    -0.354 N 
ATOM     56  C   UNL A   1      43.054  28.980  33.767  1.00  0.00     0.074 A 
ATOM     57  C   UNL A   1      43.606  27.817  33.109  1.00  0.00     0.031 C 
ATOM     58  C   UNL A   1      38.438  30.877  29.711  1.00  0.00     0.029 A 
ATOM     59  C   UNL A   1      38.775  31.460  31.008  1.00  0.00     0.049 A 
ATOM     60  H   UNL A   1      40.332  30.894  32.274  1.00  0.00     0.167 HD
ATOM     61  C   UNL A   1      43.495  29.466  34.950  1.00  0.00     0.031 A 
ATOM     62  C   UNL A   1      38.129  32.482  31.605  1.00  0.00     0.031 A 
ATOM     63  C   UNL A   1      42.936  30.618  35.604  1.00  0.00     0.049 A 
ATOM     64  C   UNL A   1      38.600  32.966  32.955  1.00  0.00     0.074 A 
ATOM     65  C   UNL A   1      43.339  31.210  36.788  1.00  0.00     0.029 A 
ATOM     66  N   UNL A   1      41.848  31.344  35.143  1.00  0.00    -0.354 N 
ATOM     67  N   UNL A   1      39.605  32.536  33.681  1.00  0.00    -0.248 NA
ATOM     68  C   UNL A   1      37.855  34.079  33.561  1.00  0.00     0.031 C 
ATOM     69  C   UNL A   1      42.448  32.246  37.082  1.00  0.00     0.029 A 
ATOM     70  C   UNL A   1      41.540  32.353  36.040  1.00  0.00     0.049 A 
ATOM     71  H   UNL A   1      41.366  31.168  34.303  1.00  0.00     0.167 HD
ATOM     72  C   UNL A   1      39.630  33.345  34.815  1.00  0.00     0.074 A 
ATOM     73  C   UNL A   1      38.552  34.302  34.668  1.00  0.00     0.031 C 
ATOM     74  C   UNL A   1      40.467  33.301  35.881  1.00  0.00     0.031 A 
BRANCH  61  75
ATOM     75  C   UNL A   1      44.610  28.728  35.644  1.00  0.00    -0.014 A 
ATOM     76  C   UNL A   1      45.960  29.031  35.395  1.00  0.00     0.010 A 
ATOM     77  C   UNL A   1      44.293  27.761  36.615  1.00  0.00     0.010 A 
ATOM     78  C   UNL A   1      46.972  28.365  36.091  1.00  0.00     0.020 A 
ATOM     79  C   UNL A   1      45.301  27.114  37.334  1.00  0.00     0.020 A 
ATOM     80  C   UNL A   1      46.636  27.415  37.061  1.00  0.00     0.054 A 
BRANCH  80  81
ATOM     81  S   UNL A   1      47.970  26.609  37.987  1.00  0.00     0.124 S 
ATOM     82  O   UNL A   1      49.134  26.895  37.153  1.00  0.00    -0.237 OA
ATOM     83  O   UNL A   1      47.931  27.306  39.270  1.00  0.00    -0.237 OA
ATOM     84  O   UNL A   1      47.566  25.206  38.032  1.00  0.00    -0.744 OA
ENDBRANCH  80  81
ENDBRANCH  61  75
BRANCH  62  85
ATOM     85  C   UNL A   1      36.934  33.096  30.956  1.00  0.00    -0.014 A 
ATOM     86  C   UNL A   1      35.631  32.744  31.350  1.00  0.00     0.010 A 
ATOM     87  C   UNL A   1      37.101  34.026  29.912  1.00  0.00     0.010 A 
ATOM     88  C   UNL A   1      34.521  33.287  30.695  1.00  0.00     0.020 A 
ATOM     89  C   UNL A   1      35.994  34.597  29.279  1.00  0.00     0.020 A 
ATOM     90  C   UNL A   1      34.709  34.212  29.665  1.00  0.00     0.054 A 
BRANCH  90  91
ATOM     91  S   UNL A   1      33.252  34.931  28.855  1.00  0.00     0.124 S 
ATOM     92  O   UNL A   1      32.758  33.806  28.068  1.00  0.00    -0.237 OA
ATOM     93  O   UNL A   1      32.423  35.322  29.993  1.00  0.00    -0.237 OA
ATOM     94  O   UNL A   1      33.802  36.042  28.084  1.00  0.00    -0.744 OA
ENDBRANCH  90  91
ENDBRANCH  62  85
BRANCH  74  95
ATOM     95  C   UNL A   1      40.289  34.341  36.958  1.00  0.00    -0.014 A 
ATOM     96  C   UNL A   1      41.034  35.534  36.960  1.00  0.00     0.010 A 
ATOM     97  C   UNL A   1      39.311  34.146  37.951  1.00  0.00     0.010 A 
ATOM     98  C   UNL A   1      40.828  36.495  37.954  1.00  0.00     0.020 A 
ATOM     99  C   UNL A   1      39.078  35.119  38.927  1.00  0.00     0.020 A 
ATOM    100  C   UNL A   1      39.849  36.281  38.930  1.00  0.00     0.054 A 
BRANCH 100 101
ATOM    101  S   UNL A   1      39.573  37.564  40.183  1.00  0.00     0.124 S 
ATOM    102  O   UNL A   1      40.585  38.556  39.831  1.00  0.00    -0.237 OA
ATOM    103  O   UNL A   1      38.189  37.960  39.935  1.00  0.00    -0.237 OA
ATOM    104  O   UNL A   1      39.799  36.869  41.448  1.00  0.00    -0.744 OA
ENDBRANCH 100 101
ENDBRANCH  74  95
ENDBRANCH  48  49
ENDBRANCH  41  43
ENDBRANCH  40  41
ENDBRANCH  39  40
ENDBRANCH  38  39
ENDBRANCH  37  38
ENDBRANCH  36  37
ENDBRANCH  35  36
ENDBRANCH  34  35
ENDBRANCH   1  34
TORSDOF 29
ENDMDL
MODEL 2
REMARK VINA RESULT:      -9.1      0.742      7.577
REMARK SMILES CCOC(=O)c1c(NC(=O)/C=C/C(=O)OCCOCCOCCOCCOC(=O)c2ccc(-c3c4nc(c(-c5ccc(S(=O)(=O)[O-])cc5)c5ccc([nH]5)c(-c5ccc(S(=O)(=O)[O-])cc5)c5nc(c(-c6ccc(S(=O)(=O)[O-])cc6)c6ccc3[nH]6)C=C5)C=C4)cc2)sc(C)c1-c1ccc(C)c(C)c1
REMARK SMILES IDX 20 1 19 2 18 3 17 4 16 5 15 6 13 7 14 8 12 9 11 10 9 11 8 12
REMARK SMILES IDX 10 14 7 15 6 16 93 17 90 18 91 19 92 20 4 21 5 22 3 23 2 24
REMARK SMILES IDX 1 25 94 26 95 27 101 28 96 29 99 30 97 31 100 32 98 33 21 34
REMARK SMILES IDX 22 35 23 36 24 37 25 38 26 39 27 40 28 41 29 42 30 43 31 44
REMARK SMILES IDX 89 45 32 46 88 47 33 48 34 49 35 50 82 51 36 52 87 53 81 54
REMARK SMILES IDX 83 55 37 56 86 57 80 58 79 59 38 61 68 62 49 63 67 64 50 65
REMARK SMILES IDX 53 66 66 67 84 68 51 69 52 70 65 72 85 73 54 74 39 75 40 76
REMARK SMILES IDX 48 77 41 78 47 79 42 80 43 81 44 82 45 83 46 84 69 85 70 86
REMARK SMILES IDX 78 87 71 88 77 89 72 90 73 91 74 92 75 93 76 94 55 95 56 96
REMARK SMILES IDX 64 97 57 98 63 99 58 100 59 101 60 102 61 103 62 104
REMARK H PARENT 8 13 83 60 53 71
REMARK Flexibility Score: inf
ROOT
ATOM      1  C   UNL A   1      34.358  21.458  27.032  1.00  0.00     0.188 C 
ENDROOT
BRANCH   1   2
ATOM      2  C   UNL A   1      33.502  22.423  27.882  1.00  0.00     0.188 C 
BRANCH   2   3
ATOM      3  O   UNL A   1      32.531  23.141  27.150  1.00  0.00    -0.376 OA
BRANCH   3   4
ATOM      4  C   UNL A   1      31.307  22.490  26.862  1.00  0.00     0.202 C 
BRANCH   4   5
ATOM      5  C   UNL A   1      30.989  22.089  25.409  1.00  0.00     0.261 C 
BRANCH   5   6
ATOM      6  O   UNL A   1      31.700  20.950  24.889  1.00  0.00    -0.460 OA
BRANCH   6   7
ATOM      7  C   UNL A   1      32.313  21.099  23.695  1.00  0.00     0.331 C 
ATOM      8  O   UNL A   1      31.917  20.650  22.630  1.00  0.00    -0.247 OA
BRANCH   7   9
ATOM      9  C   UNL A   1      33.473  22.018  23.765  1.00  0.00     0.099 C 
ATOM     10  C   UNL A   1      33.415  23.346  23.954  1.00  0.00     0.079 C 
BRANCH  10  11
ATOM     11  C   UNL A   1      34.620  24.205  23.848  1.00  0.00     0.249 C 
ATOM     12  N   UNL A   1      34.602  25.570  23.986  1.00  0.00    -0.313 N 
ATOM     13  H   UNL A   1      35.425  26.006  23.666  1.00  0.00     0.171 HD
ATOM     14  O   UNL A   1      35.699  23.653  23.621  1.00  0.00    -0.270 OA
BRANCH  12  15
ATOM     15  C   UNL A   1      33.664  26.463  24.485  1.00  0.00     0.111 A 
ATOM     16  C   UNL A   1      32.790  27.284  23.784  1.00  0.00     0.102 A 
ATOM     17  C   UNL A   1      31.920  28.032  24.684  1.00  0.00     0.012 A 
ATOM     18  S   UNL A   1      33.590  26.812  26.125  1.00  0.00    -0.122 S 
ATOM     19  C   UNL A   1      32.184  27.737  26.010  1.00  0.00     0.012 A 
ATOM     20  C   UNL A   1      31.492  28.121  27.279  1.00  0.00     0.057 C 
BRANCH  16  21
ATOM     21  C   UNL A   1      32.768  27.349  22.330  1.00  0.00     0.341 C 
ATOM     22  O   UNL A   1      33.656  27.862  21.671  1.00  0.00    -0.246 OA
BRANCH  21  23
ATOM     23  O   UNL A   1      31.623  26.811  21.818  1.00  0.00    -0.462 OA
BRANCH  23  24
ATOM     24  C   UNL A   1      31.479  25.390  21.916  1.00  0.00     0.230 C 
ATOM     25  C   UNL A   1      30.448  24.992  22.956  1.00  0.00     0.049 C 
ENDBRANCH  23  24
ENDBRANCH  21  23
ENDBRANCH  16  21
BRANCH  17  26
ATOM     26  C   UNL A   1      30.857  28.959  24.327  1.00  0.00    -0.016 A 
ATOM     27  C   UNL A   1      30.995  30.327  24.543  1.00  0.00     0.009 A 
ATOM     28  C   UNL A   1      29.672  28.463  23.767  1.00  0.00     0.012 A 
ATOM     29  C   UNL A   1      29.946  31.188  24.216  1.00  0.00     0.004 A 
ATOM     30  C   UNL A   1      28.620  29.318  23.409  1.00  0.00    -0.048 A 
ATOM     31  C   UNL A   1      28.753  30.699  23.651  1.00  0.00    -0.048 A 
ATOM     32  C   UNL A   1      27.388  28.719  22.791  1.00  0.00     0.044 C 
ATOM     33  C   UNL A   1      27.659  31.689  23.359  1.00  0.00     0.044 C 
ENDBRANCH  17  26
ENDBRANCH  12  15
ENDBRANCH  10  11
ENDBRANCH   7   9
ENDBRANCH   6   7
ENDBRANCH   5   6
ENDBRANCH   4   5
ENDBRANCH   3   4
ENDBRANCH   2   3
ENDBRANCH   1   2
BRANCH   1  34
ATOM     34  O   UNL A   1      35.581  21.909  26.478  1.00  0.00    -0.377 OA
BRANCH  34  35
ATOM     35  C   UNL A   1      36.296  21.058  25.591  1.00  0.00     0.188 C 
BRANCH  35  36
ATOM     36  C   UNL A   1      37.804  21.274  25.309  1.00  0.00     0.188 C 
BRANCH  36  37
ATOM     37  O   UNL A   1      38.350  22.487  25.809  1.00  0.00    -0.376 OA
BRANCH  37  38
ATOM     38  C   UNL A   1      39.563  22.395  26.537  1.00  0.00     0.202 C 
BRANCH  38  39
ATOM     39  C   UNL A   1      40.572  23.537  26.342  1.00  0.00     0.261 C 
BRANCH  39  40
ATOM     40  O   UNL A   1      40.039  24.868  26.427  1.00  0.00    -0.460 OA
BRANCH  40  41
ATOM     41  C   UNL A   1      40.882  25.891  26.164  1.00  0.00     0.338 C 
ATOM     42  O   UNL A   1      41.336  26.207  25.080  1.00  0.00    -0.246 OA
BRANCH  41  43
ATOM     43  C   UNL A   1      40.995  26.698  27.398  1.00  0.00     0.060 A 
ATOM     44  C   UNL A   1      40.538  26.163  28.610  1.00  0.00     0.016 A 
ATOM     45  C   UNL A   1      41.591  27.961  27.362  1.00  0.00     0.016 A 
ATOM     46  C   UNL A   1      40.660  26.900  29.789  1.00  0.00     0.010 A 
ATOM     47  C   UNL A   1      41.685  28.708  28.538  1.00  0.00     0.010 A 
ATOM     48  C   UNL A   1      41.197  28.193  29.752  1.00  0.00    -0.014 A 
BRANCH  48  49
ATOM     49  C   UNL A   1      41.078  29.076  30.936  1.00  0.00     0.031 A 
ATOM     50  C   UNL A   1      39.947  30.069  30.970  1.00  0.00     0.074 A 
ATOM     51  C   UNL A   1      41.943  28.997  31.962  1.00  0.00     0.049 A 
ATOM     52  N   UNL A   1      39.667  30.976  31.868  1.00  0.00    -0.248 NA
ATOM     53  C   UNL A   1      39.008  30.036  29.834  1.00  0.00     0.031 C 
ATOM     54  C   UNL A   1      43.055  28.053  32.064  1.00  0.00     0.029 A 
ATOM     55  N   UNL A   1      42.027  29.742  33.114  1.00  0.00    -0.354 N 
ATOM     56  C   UNL A   1      38.536  31.634  31.399  1.00  0.00     0.074 A 
ATOM     57  C   UNL A   1      38.190  31.035  30.130  1.00  0.00     0.031 C 
ATOM     58  C   UNL A   1      43.720  28.287  33.210  1.00  0.00     0.029 A 
ATOM     59  C   UNL A   1      43.108  29.420  33.902  1.00  0.00     0.049 A 
ATOM     60  H   UNL A   1      41.375  30.440  33.354  1.00  0.00     0.167 HD
ATOM     61  C   UNL A   1      37.849  32.648  31.974  1.00  0.00     0.031 A 
ATOM     62  C   UNL A   1      43.566  29.994  35.033  1.00  0.00     0.031 A 
ATOM     63  C   UNL A   1      38.203  33.246  33.233  1.00  0.00     0.049 A 
ATOM     64  C   UNL A   1      42.817  31.166  35.622  1.00  0.00     0.074 A 
ATOM     65  C   UNL A   1      37.547  34.255  33.916  1.00  0.00     0.029 A 
ATOM     66  N   UNL A   1      39.314  32.906  33.990  1.00  0.00    -0.354 N 
ATOM     67  N   UNL A   1      41.720  31.743  35.194  1.00  0.00    -0.248 NA
ATOM     68  C   UNL A   1      43.365  31.756  36.852  1.00  0.00     0.031 C 
ATOM     69  C   UNL A   1      38.302  34.577  35.047  1.00  0.00     0.029 A 
ATOM     70  C   UNL A   1      39.384  33.713  35.113  1.00  0.00     0.049 A 
ATOM     71  H   UNL A   1      39.957  32.196  33.763  1.00  0.00     0.167 HD
ATOM     72  C   UNL A   1      41.431  32.744  36.118  1.00  0.00     0.074 A 
ATOM     73  C   UNL A   1      42.457  32.680  37.137  1.00  0.00     0.031 C 
ATOM     74  C   UNL A   1      40.409  33.637  36.122  1.00  0.00     0.031 A 
BRANCH  61  75
ATOM     75  C   UNL A   1      36.669  33.212  31.228  1.00  0.00    -0.014 A 
ATOM     76  C   UNL A   1      35.385  33.253  31.802  1.00  0.00     0.010 A 
ATOM     77  C   UNL A   1      36.867  33.775  29.954  1.00  0.00     0.010 A 
ATOM     78  C   UNL A   1      34.319  33.828  31.107  1.00  0.00     0.020 A 
ATOM     79  C   UNL A   1      35.810  34.378  29.268  1.00  0.00     0.020 A 
ATOM     80  C   UNL A   1      34.539  34.393  29.846  1.00  0.00     0.054 A 
BRANCH  80  81
ATOM     81  S   UNL A   1      33.148  35.183  28.993  1.00  0.00     0.124 S 
ATOM     82  O   UNL A   1      32.734  34.139  28.059  1.00  0.00    -0.237 OA
ATOM     83  O   UNL A   1      32.217  35.454  30.085  1.00  0.00    -0.237 OA
ATOM     84  O   UNL A   1      33.744  36.367  28.378  1.00  0.00    -0.744 OA
ENDBRANCH  80  81
ENDBRANCH  61  75
BRANCH  62  85
ATOM     85  C   UNL A   1      44.823  29.504  35.668  1.00  0.00    -0.014 A 
ATOM     86  C   UNL A   1      44.800  28.832  36.903  1.00  0.00     0.010 A 
ATOM     87  C   UNL A   1      46.064  29.734  35.043  1.00  0.00     0.010 A 
ATOM     88  C   UNL A   1      45.991  28.425  37.513  1.00  0.00     0.020 A 
ATOM     89  C   UNL A   1      47.254  29.299  35.632  1.00  0.00     0.020 A 
ATOM     90  C   UNL A   1      47.211  28.660  36.872  1.00  0.00     0.054 A 
BRANCH  90  91
ATOM     91  S   UNL A   1      48.741  28.091  37.666  1.00  0.00     0.124 S 
ATOM     92  O   UNL A   1      49.762  28.782  36.886  1.00  0.00    -0.237 OA
ATOM     93  O   UNL A   1      48.571  28.555  39.041  1.00  0.00    -0.237 OA
ATOM     94  O   UNL A   1      48.697  26.641  37.496  1.00  0.00    -0.744 OA
ENDBRANCH  90  91
ENDBRANCH  62  85
BRANCH  74  95
ATOM     95  C   UNL A   1      40.316  34.592  37.286  1.00  0.00    -0.014 A 
ATOM     96  C   UNL A   1      41.107  35.752  37.350  1.00  0.00     0.010 A 
ATOM     97  C   UNL A   1      39.371  34.354  38.301  1.00  0.00     0.010 A 
ATOM     98  C   UNL A   1      40.980  36.637  38.425  1.00  0.00     0.020 A 
ATOM     99  C   UNL A   1      39.215  35.253  39.359  1.00  0.00     0.020 A 
ATOM    100  C   UNL A   1      40.032  36.382  39.422  1.00  0.00     0.054 A 
BRANCH 100 101
ATOM    101  S   UNL A   1      39.857  37.568  40.783  1.00  0.00     0.124 S 
ATOM    102  O   UNL A   1      38.980  38.577  40.197  1.00  0.00    -0.237 OA
ATOM    103  O   UNL A   1      39.262  36.756  41.841  1.00  0.00    -0.237 OA
ATOM    104  O   UNL A   1      41.227  38.009  41.039  1.00  0.00    -0.744 OA
ENDBRANCH 100 101
ENDBRANCH  74  95
ENDBRANCH  48  49
ENDBRANCH  41  43
ENDBRANCH  40  41
ENDBRANCH  39  40
ENDBRANCH  38  39
ENDBRANCH  37  38
ENDBRANCH  36  37
ENDBRANCH  35  36
ENDBRANCH  34  35
ENDBRANCH   1  34
TORSDOF 29
ENDMDL
MODEL 3
REMARK VINA RESULT:      -8.9      5.115      9.270
REMARK SMILES CCOC(=O)c1c(NC(=O)/C=C/C(=O)OCCOCCOCCOCCOC(=O)c2ccc(-c3c4nc(c(-c5ccc(S(=O)(=O)[O-])cc5)c5ccc([nH]5)c(-c5ccc(S(=O)(=O)[O-])cc5)c5nc(c(-c6ccc(S(=O)(=O)[O-])cc6)c6ccc3[nH]6)C=C5)C=C4)cc2)sc(C)c1-c1ccc(C)c(C)c1
REMARK SMILES IDX 20 1 19 2 18 3 17 4 16 5 15 6 13 7 14 8 12 9 11 10 9 11 8 12
REMARK SMILES IDX 10 14 7 15 6 16 93 17 90 18 91 19 92 20 4 21 5 22 3 23 2 24
REMARK SMILES IDX 1 25 94 26 95 27 101 28 96 29 99 30 97 31 100 32 98 33 21 34
REMARK SMILES IDX 22 35 23 36 24 37 25 38 26 39 27 40 28 41 29 42 30 43 31 44
REMARK SMILES IDX 89 45 32 46 88 47 33 48 34 49 35 50 82 51 36 52 87 53 81 54
REMARK SMILES IDX 83 55 37 56 86 57 80 58 79 59 38 61 68 62 49 63 67 64 50 65
REMARK SMILES IDX 53 66 66 67 84 68 51 69 52 70 65 72 85 73 54 74 39 75 40 76
REMARK SMILES IDX 48 77 41 78 47 79 42 80 43 81 44 82 45 83 46 84 69 85 70 86
REMARK SMILES IDX 78 87 71 88 77 89 72 90 73 91 74 92 75 93 76 94 55 95 56 96
REMARK SMILES IDX 64 97 57 98 63 99 58 100 59 101 60 102 61 103 62 104
REMARK H PARENT 8 13 83 60 53 71
REMARK Flexibility Score: inf
ROOT
ATOM      1  C   UNL A   1      33.459  24.828  26.076  1.00  0.00     0.188 C 
ENDROOT
BRANCH   1   2
ATOM      2  C   UNL A   1      32.161  25.016  26.892  1.00  0.00     0.188 C 
BRANCH   2   3
ATOM      3  O   UNL A   1      31.633  23.823  27.432  1.00  0.00    -0.376 OA
BRANCH   3   4
ATOM      4  C   UNL A   1      31.133  22.853  26.528  1.00  0.00     0.202 C 
BRANCH   4   5
ATOM      5  C   UNL A   1      31.970  21.595  26.232  1.00  0.00     0.261 C 
BRANCH   5   6
ATOM      6  O   UNL A   1      31.541  20.789  25.118  1.00  0.00    -0.460 OA
BRANCH   6   7
ATOM      7  C   UNL A   1      32.453  20.540  24.153  1.00  0.00     0.331 C 
ATOM      8  O   UNL A   1      32.533  19.514  23.495  1.00  0.00    -0.247 OA
BRANCH   7   9
ATOM      9  C   UNL A   1      33.287  21.725  23.843  1.00  0.00     0.099 C 
ATOM     10  C   UNL A   1      32.921  22.767  23.081  1.00  0.00     0.079 C 
BRANCH  10  11
ATOM     11  C   UNL A   1      33.881  23.831  22.695  1.00  0.00     0.249 C 
ATOM     12  N   UNL A   1      33.529  25.138  22.475  1.00  0.00    -0.313 N 
ATOM     13  H   UNL A   1      34.225  25.658  22.012  1.00  0.00     0.171 HD
ATOM     14  O   UNL A   1      35.066  23.514  22.566  1.00  0.00    -0.270 OA
BRANCH  12  15
ATOM     15  C   UNL A   1      32.393  25.880  22.770  1.00  0.00     0.111 A 
ATOM     16  C   UNL A   1      32.235  27.260  22.774  1.00  0.00     0.102 A 
ATOM     17  C   UNL A   1      30.862  27.640  23.083  1.00  0.00     0.012 A 
ATOM     18  S   UNL A   1      31.013  25.142  23.376  1.00  0.00    -0.122 S 
ATOM     19  C   UNL A   1      30.061  26.532  23.296  1.00  0.00     0.012 A 
ATOM     20  C   UNL A   1      28.587  26.384  23.498  1.00  0.00     0.057 C 
BRANCH  16  21
ATOM     21  C   UNL A   1      33.327  28.177  22.485  1.00  0.00     0.341 C 
ATOM     22  O   UNL A   1      33.936  28.177  21.428  1.00  0.00    -0.246 OA
BRANCH  21  23
ATOM     23  O   UNL A   1      33.603  28.986  23.548  1.00  0.00    -0.462 OA
BRANCH  23  24
ATOM     24  C   UNL A   1      33.446  28.414  24.851  1.00  0.00     0.230 C 
ATOM     25  C   UNL A   1      34.633  28.710  25.750  1.00  0.00     0.049 C 
ENDBRANCH  23  24
ENDBRANCH  21  23
ENDBRANCH  16  21
BRANCH  17  26
ATOM     26  C   UNL A   1      30.302  28.982  23.141  1.00  0.00    -0.016 A 
ATOM     27  C   UNL A   1      30.462  29.777  24.274  1.00  0.00     0.009 A 
ATOM     28  C   UNL A   1      29.583  29.477  22.045  1.00  0.00     0.012 A 
ATOM     29  C   UNL A   1      29.890  31.050  24.311  1.00  0.00     0.004 A 
ATOM     30  C   UNL A   1      29.025  30.763  22.059  1.00  0.00    -0.048 A 
ATOM     31  C   UNL A   1      29.168  31.555  23.213  1.00  0.00    -0.048 A 
ATOM     32  C   UNL A   1      28.287  31.236  20.838  1.00  0.00     0.044 C 
ATOM     33  C   UNL A   1      28.555  32.922  23.348  1.00  0.00     0.044 C 
ENDBRANCH  17  26
ENDBRANCH  12  15
ENDBRANCH  10  11
ENDBRANCH   7   9
ENDBRANCH   6   7
ENDBRANCH   5   6
ENDBRANCH   4   5
ENDBRANCH   3   4
ENDBRANCH   2   3
ENDBRANCH   1   2
BRANCH   1  34
ATOM     34  O   UNL A   1      34.447  23.920  26.530  1.00  0.00    -0.377 OA
BRANCH  34  35
ATOM     35  C   UNL A   1      35.691  23.849  25.844  1.00  0.00     0.188 C 
BRANCH  35  36
ATOM     36  C   UNL A   1      36.787  22.841  26.270  1.00  0.00     0.188 C 
BRANCH  36  37
ATOM     37  O   UNL A   1      36.686  21.548  25.690  1.00  0.00    -0.376 OA
BRANCH  37  38
ATOM     38  C   UNL A   1      37.759  21.126  24.866  1.00  0.00     0.202 C 
BRANCH  38  39
ATOM     39  C   UNL A   1      38.779  20.166  25.499  1.00  0.00     0.261 C 
BRANCH  39  40
ATOM     40  O   UNL A   1      39.450  20.648  26.672  1.00  0.00    -0.460 OA
BRANCH  40  41
ATOM     41  C   UNL A   1      40.801  20.586  26.684  1.00  0.00     0.338 C 
ATOM     42  O   UNL A   1      41.496  19.665  26.295  1.00  0.00    -0.246 OA
BRANCH  41  43
ATOM     43  C   UNL A   1      41.302  21.925  27.059  1.00  0.00     0.060 A 
ATOM     44  C   UNL A   1      41.231  22.969  26.126  1.00  0.00     0.016 A 
ATOM     45  C   UNL A   1      41.799  22.156  28.343  1.00  0.00     0.016 A 
ATOM     46  C   UNL A   1      41.675  24.246  26.472  1.00  0.00     0.010 A 
ATOM     47  C   UNL A   1      42.271  23.428  28.677  1.00  0.00     0.010 A 
ATOM     48  C   UNL A   1      42.235  24.472  27.736  1.00  0.00    -0.014 A 
BRANCH  48  49
ATOM     49  C   UNL A   1      42.951  25.741  28.009  1.00  0.00     0.031 A 
ATOM     50  C   UNL A   1      42.155  26.907  28.529  1.00  0.00     0.074 A 
ATOM     51  C   UNL A   1      44.276  25.857  27.811  1.00  0.00     0.049 A 
ATOM     52  N   UNL A   1      42.546  28.126  28.792  1.00  0.00    -0.248 NA
ATOM     53  C   UNL A   1      40.723  26.666  28.781  1.00  0.00     0.031 C 
ATOM     54  C   UNL A   1      45.162  24.790  27.347  1.00  0.00     0.029 A 
ATOM     55  N   UNL A   1      45.107  26.941  27.963  1.00  0.00    -0.354 N 
ATOM     56  C   UNL A   1      41.410  28.802  29.220  1.00  0.00     0.074 A 
ATOM     57  C   UNL A   1      40.311  27.865  29.166  1.00  0.00     0.031 C 
ATOM     58  C   UNL A   1      46.411  25.278  27.237  1.00  0.00     0.029 A 
ATOM     59  C   UNL A   1      46.407  26.698  27.583  1.00  0.00     0.049 A 
ATOM     60  H   UNL A   1      44.800  27.810  28.312  1.00  0.00     0.167 HD
ATOM     61  C   UNL A   1      41.293  30.090  29.621  1.00  0.00     0.031 A 
ATOM     62  C   UNL A   1      47.461  27.535  27.496  1.00  0.00     0.031 A 
ATOM     63  C   UNL A   1      42.389  31.020  29.664  1.00  0.00     0.049 A 
ATOM     64  C   UNL A   1      47.290  28.983  27.888  1.00  0.00     0.074 A 
ATOM     65  C   UNL A   1      42.377  32.336  30.091  1.00  0.00     0.029 A 
ATOM     66  N   UNL A   1      43.684  30.742  29.254  1.00  0.00    -0.354 N 
ATOM     67  N   UNL A   1      46.221  29.594  28.341  1.00  0.00    -0.248 NA
ATOM     68  C   UNL A   1      48.471  29.849  27.767  1.00  0.00     0.031 C 
ATOM     69  C   UNL A   1      43.647  32.877  29.867  1.00  0.00     0.029 A 
ATOM     70  C   UNL A   1      44.471  31.875  29.379  1.00  0.00     0.049 A 
ATOM     71  H   UNL A   1      43.997  29.870  28.923  1.00  0.00     0.167 HD
ATOM     72  C   UNL A   1      46.609  30.909  28.585  1.00  0.00     0.074 A 
ATOM     73  C   UNL A   1      48.015  30.998  28.249  1.00  0.00     0.031 C 
ATOM     74  C   UNL A   1      45.870  31.949  29.045  1.00  0.00     0.031 A 
BRANCH  61  75
ATOM     75  C   UNL A   1      39.924  30.588  30.001  1.00  0.00    -0.014 A 
ATOM     76  C   UNL A   1      39.575  30.828  31.343  1.00  0.00     0.010 A 
ATOM     77  C   UNL A   1      38.995  30.886  28.988  1.00  0.00     0.010 A 
ATOM     78  C   UNL A   1      38.314  31.339  31.662  1.00  0.00     0.020 A 
ATOM     79  C   UNL A   1      37.745  31.425  29.301  1.00  0.00     0.020 A 
ATOM     80  C   UNL A   1      37.409  31.639  30.639  1.00  0.00     0.054 A 
BRANCH  80  81
ATOM     81  S   UNL A   1      35.803  32.355  31.082  1.00  0.00     0.124 S 
ATOM     82  O   UNL A   1      36.142  33.762  31.276  1.00  0.00    -0.237 OA
ATOM     83  O   UNL A   1      34.989  32.062  29.905  1.00  0.00    -0.237 OA
ATOM     84  O   UNL A   1      35.421  31.633  32.294  1.00  0.00    -0.744 OA
ENDBRANCH  80  81
ENDBRANCH  61  75
BRANCH  62  85
ATOM     85  C   UNL A   1      48.769  27.042  26.974  1.00  0.00    -0.014 A 
ATOM     86  C   UNL A   1      49.755  26.542  27.842  1.00  0.00     0.010 A 
ATOM     87  C   UNL A   1      49.042  27.097  25.594  1.00  0.00     0.010 A 
ATOM     88  C   UNL A   1      50.997  26.133  27.344  1.00  0.00     0.020 A 
ATOM     89  C   UNL A   1      50.268  26.658  25.089  1.00  0.00     0.020 A 
ATOM     90  C   UNL A   1      51.245  26.192  25.970  1.00  0.00     0.054 A 
BRANCH  90  91
ATOM     91  S   UNL A   1      52.851  25.623  25.345  1.00  0.00     0.124 S 
ATOM     92  O   UNL A   1      53.784  26.317  26.227  1.00  0.00    -0.237 OA
ATOM     93  O   UNL A   1      52.763  24.176  25.527  1.00  0.00    -0.237 OA
ATOM     94  O   UNL A   1      52.855  26.069  23.954  1.00  0.00    -0.744 OA
ENDBRANCH  90  91
ENDBRANCH  62  85
BRANCH  74  95
ATOM     95  C   UNL A   1      46.570  33.269  29.259  1.00  0.00    -0.014 A 
ATOM     96  C   UNL A   1      46.705  34.206  28.221  1.00  0.00     0.010 A 
ATOM     97  C   UNL A   1      47.043  33.598  30.543  1.00  0.00     0.010 A 
ATOM     98  C   UNL A   1      47.331  35.434  28.454  1.00  0.00     0.020 A 
ATOM     99  C   UNL A   1      47.639  34.838  30.789  1.00  0.00     0.020 A 
ATOM    100  C   UNL A   1      47.793  35.743  29.738  1.00  0.00     0.054 A 
BRANCH 100 101
ATOM    101  S   UNL A   1      48.563  37.360  30.023  1.00  0.00     0.124 S 
ATOM    102  O   UNL A   1      49.985  37.036  29.955  1.00  0.00    -0.237 OA
ATOM    103  O   UNL A   1      48.046  38.160  28.915  1.00  0.00    -0.237 OA
ATOM    104  O   UNL A   1      48.077  37.749  31.345  1.00  0.00    -0.744 OA
ENDBRANCH 100 101
ENDBRANCH  74  95
ENDBRANCH  48  49
ENDBRANCH  41  43
ENDBRANCH  40  41
ENDBRANCH  39  40
ENDBRANCH  38  39
ENDBRANCH  37  38
ENDBRANCH  36  37
ENDBRANCH  35  36
ENDBRANCH  34  35
ENDBRANCH   1  34
TORSDOF 29
ENDMDL
