MODEL 1
REMARK VINA RESULT:      -6.8      0.000      0.000
REMARK SMILES O=C(C[C@@H]1CN(c2cc(C(F)(F)F)ccn2)CCO1)OCCOCCOCCOCCOC(=O)c1ccc(-c2c3nc(c(-c4ccc(S(=O)(=O)[O-])cc4)c4ccc([nH]4)c(-c4ccc(S(=O)(=O)[O-])cc4)c4nc(c(-c5ccc(S(=O)(=O)[O-])cc5)c5ccc2[nH]5)C=C4)C=C3)cc1
REMARK SMILES IDX 26 1 25 2 24 3 23 4 22 5 21 6 20 7 2 8 1 9 3 10 4 11 5 12
REMARK SMILES IDX 19 13 6 14 18 15 17 16 7 17 8 18 16 19 9 20 15 21 14 22
REMARK SMILES IDX 10 23 11 24 12 25 13 26 27 27 28 28 29 29 30 30 31 31 32 32
REMARK SMILES IDX 33 33 34 34 35 35 36 36 94 37 37 38 93 39 38 40 39 41 40 42
REMARK SMILES IDX 87 43 41 44 92 45 86 46 88 47 42 48 91 49 85 50 84 51 43 53
REMARK SMILES IDX 73 54 54 55 72 56 55 57 58 58 71 59 89 60 56 61 57 62 70 64
REMARK SMILES IDX 90 65 59 66 44 67 45 68 53 69 46 70 52 71 47 72 48 73 49 74
REMARK SMILES IDX 50 75 51 76 74 77 75 78 83 79 76 80 82 81 77 82 78 83 79 84
REMARK SMILES IDX 80 85 81 86 60 87 61 88 69 89 62 90 68 91 63 92 64 93 65 94
REMARK SMILES IDX 66 95 67 96
REMARK H PARENT 88 52 58 63
REMARK Flexibility Score: inf
ROOT
ATOM      1  O   UNL A   1      36.302  31.986  32.940  1.00  0.00    -0.377 OA
ENDROOT
BRANCH   1   2
ATOM      2  C   UNL A   1      37.615  31.630  32.543  1.00  0.00     0.188 C 
BRANCH   2   3
ATOM      3  C   UNL A   1      38.668  32.676  32.885  1.00  0.00     0.188 C 
BRANCH   3   4
ATOM      4  O   UNL A   1      39.089  32.804  34.233  1.00  0.00    -0.376 OA
BRANCH   4   5
ATOM      5  C   UNL A   1      39.462  31.713  35.050  1.00  0.00     0.202 C 
BRANCH   5   6
ATOM      6  C   UNL A   1      40.791  30.992  34.896  1.00  0.00     0.261 C 
BRANCH   6   7
ATOM      7  O   UNL A   1      41.652  31.272  33.771  1.00  0.00    -0.463 OA
BRANCH   7   8
ATOM      8  C   UNL A   1      42.957  31.507  33.574  1.00  0.00     0.308 C 
ATOM      9  O   UNL A   1      43.746  31.175  34.460  1.00  0.00    -0.252 OA
BRANCH   8  10
ATOM     10  C   UNL A   1      43.454  32.302  32.396  1.00  0.00     0.156 C 
BRANCH  10  11
ATOM     11  C   UNL A   1      43.113  33.784  32.371  1.00  0.00     0.148 C 
ATOM     12  C   UNL A   1      43.477  34.387  31.012  1.00  0.00     0.150 C 
ATOM     13  O   UNL A   1      43.740  34.468  33.461  1.00  0.00    -0.374 OA
ATOM     14  N   UNL A   1      43.301  35.837  30.977  1.00  0.00    -0.352 N 
ATOM     15  C   UNL A   1      43.449  35.877  33.411  1.00  0.00     0.182 C 
ATOM     16  C   UNL A   1      43.967  36.506  32.104  1.00  0.00     0.146 C 
BRANCH  14  17
ATOM     17  C   UNL A   1      43.541  36.353  29.700  1.00  0.00     0.129 A 
ATOM     18  C   UNL A   1      43.533  35.485  28.607  1.00  0.00     0.060 A 
ATOM     19  N   UNL A   1      43.842  37.655  29.545  1.00  0.00    -0.239 NA
ATOM     20  C   UNL A   1      43.860  35.947  27.329  1.00  0.00     0.061 A 
ATOM     21  C   UNL A   1      44.165  38.097  28.308  1.00  0.00     0.114 A 
ATOM     22  C   UNL A   1      44.187  37.294  27.181  1.00  0.00     0.033 A 
BRANCH  20  23
ATOM     23  C   UNL A   1      43.817  35.019  26.147  1.00  0.00     0.416 C 
ATOM     24  F   UNL A   1      44.862  35.217  25.299  1.00  0.00    -0.166 F 
ATOM     25  F   UNL A   1      43.858  33.706  26.497  1.00  0.00    -0.166 F 
ATOM     26  F   UNL A   1      42.691  35.166  25.391  1.00  0.00    -0.166 F 
ENDBRANCH  20  23
ENDBRANCH  14  17
ENDBRANCH  10  11
ENDBRANCH   8  10
ENDBRANCH   7   8
ENDBRANCH   6   7
ENDBRANCH   5   6
ENDBRANCH   4   5
ENDBRANCH   3   4
ENDBRANCH   2   3
ENDBRANCH   1   2
BRANCH   1  27
ATOM     27  C   UNL A   1      35.679  32.961  32.127  1.00  0.00     0.188 C 
BRANCH  27  28
ATOM     28  C   UNL A   1      35.807  32.763  30.598  1.00  0.00     0.188 C 
BRANCH  28  29
ATOM     29  O   UNL A   1      34.692  32.468  29.768  1.00  0.00    -0.376 OA
BRANCH  29  30
ATOM     30  C   UNL A   1      34.871  32.156  28.399  1.00  0.00     0.202 C 
BRANCH  30  31
ATOM     31  C   UNL A   1      35.768  30.974  28.003  1.00  0.00     0.261 C 
BRANCH  31  32
ATOM     32  O   UNL A   1      37.060  30.953  28.622  1.00  0.00    -0.460 OA
BRANCH  32  33
ATOM     33  C   UNL A   1      37.392  29.794  29.246  1.00  0.00     0.338 C 
ATOM     34  O   UNL A   1      36.651  29.072  29.894  1.00  0.00    -0.246 OA
BRANCH  33  35
ATOM     35  C   UNL A   1      38.759  29.396  28.840  1.00  0.00     0.060 A 
ATOM     36  C   UNL A   1      39.660  29.034  29.851  1.00  0.00     0.016 A 
ATOM     37  C   UNL A   1      39.145  29.332  27.497  1.00  0.00     0.016 A 
ATOM     38  C   UNL A   1      40.959  28.646  29.530  1.00  0.00     0.010 A 
ATOM     39  C   UNL A   1      40.460  28.974  27.176  1.00  0.00     0.010 A 
ATOM     40  C   UNL A   1      41.381  28.672  28.195  1.00  0.00    -0.014 A 
BRANCH  40  41
ATOM     41  C   UNL A   1      42.837  28.681  27.911  1.00  0.00     0.031 A 
ATOM     42  C   UNL A   1      43.437  27.415  27.357  1.00  0.00     0.074 A 
ATOM     43  C   UNL A   1      43.596  29.779  28.078  1.00  0.00     0.049 A 
ATOM     44  N   UNL A   1      44.674  27.160  27.021  1.00  0.00    -0.248 NA
ATOM     45  C   UNL A   1      42.511  26.287  27.153  1.00  0.00     0.031 C 
ATOM     46  C   UNL A   1      43.124  31.080  28.548  1.00  0.00     0.029 A 
ATOM     47  N   UNL A   1      44.939  29.966  27.861  1.00  0.00    -0.354 N 
ATOM     48  C   UNL A   1      44.672  25.848  26.561  1.00  0.00     0.074 A 
ATOM     49  C   UNL A   1      43.323  25.348  26.694  1.00  0.00     0.031 C 
ATOM     50  C   UNL A   1      44.167  31.929  28.597  1.00  0.00     0.029 A 
ATOM     51  C   UNL A   1      45.382  31.227  28.185  1.00  0.00     0.049 A 
ATOM     52  H   UNL A   1      45.530  29.263  27.508  1.00  0.00     0.167 HD
ATOM     53  C   UNL A   1      45.698  25.122  26.061  1.00  0.00     0.031 A 
ATOM     54  C   UNL A   1      46.628  31.742  28.166  1.00  0.00     0.031 A 
ATOM     55  C   UNL A   1      47.047  25.605  25.958  1.00  0.00     0.049 A 
ATOM     56  C   UNL A   1      47.777  30.882  27.699  1.00  0.00     0.074 A 
ATOM     57  C   UNL A   1      48.164  24.941  25.486  1.00  0.00     0.029 A 
ATOM     58  N   UNL A   1      47.462  26.870  26.343  1.00  0.00    -0.354 N 
ATOM     59  N   UNL A   1      47.758  29.647  27.254  1.00  0.00    -0.248 NA
ATOM     60  C   UNL A   1      49.116  31.489  27.723  1.00  0.00     0.031 C 
ATOM     61  C   UNL A   1      49.267  25.789  25.633  1.00  0.00     0.029 A 
ATOM     62  C   UNL A   1      48.824  27.001  26.138  1.00  0.00     0.049 A 
ATOM     63  H   UNL A   1      46.875  27.571  26.709  1.00  0.00     0.167 HD
ATOM     64  C   UNL A   1      49.074  29.343  26.916  1.00  0.00     0.074 A 
ATOM     65  C   UNL A   1      49.859  30.527  27.194  1.00  0.00     0.031 C 
ATOM     66  C   UNL A   1      49.587  28.191  26.417  1.00  0.00     0.031 A 
BRANCH  53  67
ATOM     67  C   UNL A   1      45.395  23.716  25.622  1.00  0.00    -0.014 A 
ATOM     68  C   UNL A   1      45.175  22.694  26.563  1.00  0.00     0.010 A 
ATOM     69  C   UNL A   1      45.319  23.414  24.251  1.00  0.00     0.010 A 
ATOM     70  C   UNL A   1      44.919  21.388  26.140  1.00  0.00     0.020 A 
ATOM     71  C   UNL A   1      45.035  22.115  23.824  1.00  0.00     0.020 A 
ATOM     72  C   UNL A   1      44.852  21.106  24.773  1.00  0.00     0.054 A 
BRANCH  72  73
ATOM     73  S   UNL A   1      44.495  19.406  24.252  1.00  0.00     0.124 S 
ATOM     74  O   UNL A   1      44.524  19.525  22.796  1.00  0.00    -0.237 OA
ATOM     75  O   UNL A   1      45.599  18.653  24.843  1.00  0.00    -0.237 OA
ATOM     76  O   UNL A   1      43.181  19.135  24.829  1.00  0.00    -0.744 OA
ENDBRANCH  72  73
ENDBRANCH  53  67
BRANCH  54  77
ATOM     77  C   UNL A   1      46.872  33.139  28.625  1.00  0.00    -0.014 A 
ATOM     78  C   UNL A   1      47.065  34.180  27.699  1.00  0.00     0.010 A 
ATOM     79  C   UNL A   1      46.949  33.429  30.001  1.00  0.00     0.010 A 
ATOM     80  C   UNL A   1      47.353  35.477  28.139  1.00  0.00     0.020 A 
ATOM     81  C   UNL A   1      47.208  34.728  30.444  1.00  0.00     0.020 A 
ATOM     82  C   UNL A   1      47.423  35.742  29.510  1.00  0.00     0.054 A 
BRANCH  82  83
ATOM     83  S   UNL A   1      47.762  37.439  30.058  1.00  0.00     0.124 S 
ATOM     84  O   UNL A   1      46.756  37.630  31.097  1.00  0.00    -0.237 OA
ATOM     85  O   UNL A   1      49.144  37.349  30.522  1.00  0.00    -0.237 OA
ATOM     86  O   UNL A   1      47.570  38.232  28.845  1.00  0.00    -0.744 OA
ENDBRANCH  82  83
ENDBRANCH  54  77
BRANCH  66  87
ATOM     87  C   UNL A   1      51.060  28.164  26.095  1.00  0.00    -0.014 A 
ATOM     88  C   UNL A   1      51.548  28.605  24.853  1.00  0.00     0.010 A 
ATOM     89  C   UNL A   1      51.973  27.740  27.079  1.00  0.00     0.010 A 
ATOM     90  C   UNL A   1      52.920  28.589  24.588  1.00  0.00     0.020 A 
ATOM     91  C   UNL A   1      53.347  27.750  26.827  1.00  0.00     0.020 A 
ATOM     92  C   UNL A   1      53.811  28.160  25.577  1.00  0.00     0.054 A 
BRANCH  92  93
ATOM     93  S   UNL A   1      55.589  28.181  25.220  1.00  0.00     0.124 S 
ATOM     94  O   UNL A   1      55.633  27.649  23.861  1.00  0.00    -0.237 OA
ATOM     95  O   UNL A   1      55.926  29.596  25.351  1.00  0.00    -0.237 OA
ATOM     96  O   UNL A   1      56.159  27.313  26.248  1.00  0.00    -0.744 OA
ENDBRANCH  92  93
ENDBRANCH  66  87
ENDBRANCH  40  41
ENDBRANCH  33  35
ENDBRANCH  32  33
ENDBRANCH  31  32
ENDBRANCH  30  31
ENDBRANCH  29  30
ENDBRANCH  28  29
ENDBRANCH  27  28
ENDBRANCH   1  27
TORSDOF 26
ENDMDL
MODEL 2
REMARK VINA RESULT:      -6.5      8.414     15.219
REMARK SMILES O=C(C[C@@H]1CN(c2cc(C(F)(F)F)ccn2)CCO1)OCCOCCOCCOCCOC(=O)c1ccc(-c2c3nc(c(-c4ccc(S(=O)(=O)[O-])cc4)c4ccc([nH]4)c(-c4ccc(S(=O)(=O)[O-])cc4)c4nc(c(-c5ccc(S(=O)(=O)[O-])cc5)c5ccc2[nH]5)C=C4)C=C3)cc1
REMARK SMILES IDX 26 1 25 2 24 3 23 4 22 5 21 6 20 7 2 8 1 9 3 10 4 11 5 12
REMARK SMILES IDX 19 13 6 14 18 15 17 16 7 17 8 18 16 19 9 20 15 21 14 22
REMARK SMILES IDX 10 23 11 24 12 25 13 26 27 27 28 28 29 29 30 30 31 31 32 32
REMARK SMILES IDX 33 33 34 34 35 35 36 36 94 37 37 38 93 39 38 40 39 41 40 42
REMARK SMILES IDX 87 43 41 44 92 45 86 46 88 47 42 48 91 49 85 50 84 51 43 53
REMARK SMILES IDX 73 54 54 55 72 56 55 57 58 58 71 59 89 60 56 61 57 62 70 64
REMARK SMILES IDX 90 65 59 66 44 67 45 68 53 69 46 70 52 71 47 72 48 73 49 74
REMARK SMILES IDX 50 75 51 76 74 77 75 78 83 79 76 80 82 81 77 82 78 83 79 84
REMARK SMILES IDX 80 85 81 86 60 87 61 88 69 89 62 90 68 91 63 92 64 93 65 94
REMARK SMILES IDX 66 95 67 96
REMARK H PARENT 88 52 58 63
REMARK Flexibility Score: inf
ROOT
ATOM      1  O   UNL A   1      44.753  24.111  28.785  1.00  0.00    -0.377 OA
ENDROOT
BRANCH   1   2
ATOM      2  C   UNL A   1      44.575  25.333  29.479  1.00  0.00     0.188 C 
BRANCH   2   3
ATOM      3  C   UNL A   1      44.286  25.163  30.965  1.00  0.00     0.188 C 
BRANCH   3   4
ATOM      4  O   UNL A   1      44.697  23.967  31.606  1.00  0.00    -0.376 OA
BRANCH   4   5
ATOM      5  C   UNL A   1      44.477  23.690  32.975  1.00  0.00     0.202 C 
BRANCH   5   6
ATOM      6  C   UNL A   1      45.582  23.778  34.016  1.00  0.00     0.261 C 
BRANCH   6   7
ATOM      7  O   UNL A   1      46.359  22.612  34.361  1.00  0.00    -0.463 OA
BRANCH   7   8
ATOM      8  C   UNL A   1      46.115  21.377  34.824  1.00  0.00     0.308 C 
ATOM      9  O   UNL A   1      44.945  21.067  35.058  1.00  0.00    -0.252 OA
BRANCH   8  10
ATOM     10  C   UNL A   1      47.225  20.439  35.215  1.00  0.00     0.156 C 
BRANCH  10  11
ATOM     11  C   UNL A   1      47.485  20.261  36.703  1.00  0.00     0.148 C 
ATOM     12  C   UNL A   1      46.475  19.279  37.302  1.00  0.00     0.150 C 
ATOM     13  O   UNL A   1      47.485  21.526  37.373  1.00  0.00    -0.374 OA
ATOM     14  N   UNL A   1      46.589  19.176  38.754  1.00  0.00    -0.352 N 
ATOM     15  C   UNL A   1      47.690  21.351  38.787  1.00  0.00     0.182 C 
ATOM     16  C   UNL A   1      46.573  20.492  39.409  1.00  0.00     0.146 C 
BRANCH  14  17
ATOM     17  C   UNL A   1      45.728  18.201  39.269  1.00  0.00     0.129 A 
ATOM     18  C   UNL A   1      45.836  17.844  40.613  1.00  0.00     0.060 A 
ATOM     19  N   UNL A   1      44.857  17.575  38.456  1.00  0.00    -0.239 NA
ATOM     20  C   UNL A   1      45.057  16.809  41.140  1.00  0.00     0.061 A 
ATOM     21  C   UNL A   1      44.110  16.569  38.967  1.00  0.00     0.114 A 
ATOM     22  C   UNL A   1      44.171  16.155  40.286  1.00  0.00     0.033 A 
BRANCH  20  23
ATOM     23  C   UNL A   1      45.150  16.448  42.596  1.00  0.00     0.416 C 
ATOM     24  F   UNL A   1      44.462  17.316  43.387  1.00  0.00    -0.166 F 
ATOM     25  F   UNL A   1      44.653  15.213  42.872  1.00  0.00    -0.166 F 
ATOM     26  F   UNL A   1      46.429  16.448  43.068  1.00  0.00    -0.166 F 
ENDBRANCH  20  23
ENDBRANCH  14  17
ENDBRANCH  10  11
ENDBRANCH   8  10
ENDBRANCH   7   8
ENDBRANCH   6   7
ENDBRANCH   5   6
ENDBRANCH   4   5
ENDBRANCH   3   4
ENDBRANCH   2   3
ENDBRANCH   1   2
BRANCH   1  27
ATOM     27  C   UNL A   1      45.508  24.208  27.592  1.00  0.00     0.188 C 
BRANCH  27  28
ATOM     28  C   UNL A   1      44.914  23.507  26.347  1.00  0.00     0.188 C 
BRANCH  28  29
ATOM     29  O   UNL A   1      43.737  23.967  25.698  1.00  0.00    -0.376 OA
BRANCH  29  30
ATOM     30  C   UNL A   1      42.480  23.374  25.973  1.00  0.00     0.202 C 
BRANCH  30  31
ATOM     31  C   UNL A   1      41.618  23.926  27.117  1.00  0.00     0.261 C 
BRANCH  31  32
ATOM     32  O   UNL A   1      40.540  24.779  26.713  1.00  0.00    -0.460 OA
BRANCH  32  33
ATOM     33  C   UNL A   1      40.888  26.050  26.390  1.00  0.00     0.338 C 
ATOM     34  O   UNL A   1      41.198  26.467  25.285  1.00  0.00    -0.246 OA
BRANCH  33  35
ATOM     35  C   UNL A   1      40.622  26.937  27.546  1.00  0.00     0.060 A 
ATOM     36  C   UNL A   1      41.337  28.141  27.622  1.00  0.00     0.016 A 
ATOM     37  C   UNL A   1      39.662  26.626  28.513  1.00  0.00     0.016 A 
ATOM     38  C   UNL A   1      41.126  29.018  28.683  1.00  0.00     0.010 A 
ATOM     39  C   UNL A   1      39.474  27.492  29.597  1.00  0.00     0.010 A 
ATOM     40  C   UNL A   1      40.236  28.669  29.705  1.00  0.00    -0.014 A 
BRANCH  40  41
ATOM     41  C   UNL A   1      40.337  29.375  31.006  1.00  0.00     0.031 A 
ATOM     42  C   UNL A   1      39.323  30.454  31.283  1.00  0.00     0.074 A 
ATOM     43  C   UNL A   1      41.249  29.043  31.937  1.00  0.00     0.049 A 
ATOM     44  N   UNL A   1      39.187  31.216  32.336  1.00  0.00    -0.248 NA
ATOM     45  C   UNL A   1      38.327  30.702  30.225  1.00  0.00     0.031 C 
ATOM     46  C   UNL A   1      42.245  27.979  31.815  1.00  0.00     0.029 A 
ATOM     47  N   UNL A   1      41.478  29.578  33.181  1.00  0.00    -0.354 N 
ATOM     48  C   UNL A   1      38.088  32.026  32.070  1.00  0.00     0.074 A 
ATOM     49  C   UNL A   1      37.618  31.691  30.746  1.00  0.00     0.031 C 
ATOM     50  C   UNL A   1      42.987  27.948  32.937  1.00  0.00     0.029 A 
ATOM     51  C   UNL A   1      42.536  29.004  33.844  1.00  0.00     0.049 A 
ATOM     52  H   UNL A   1      40.936  30.305  33.562  1.00  0.00     0.167 HD
ATOM     53  C   UNL A   1      37.512  32.961  32.860  1.00  0.00     0.031 A 
ATOM     54  C   UNL A   1      43.085  29.311  35.038  1.00  0.00     0.031 A 
ATOM     55  C   UNL A   1      37.998  33.320  34.163  1.00  0.00     0.049 A 
ATOM     56  C   UNL A   1      42.488  30.428  35.860  1.00  0.00     0.074 A 
ATOM     57  C   UNL A   1      37.499  34.270  35.035  1.00  0.00     0.029 A 
ATOM     58  N   UNL A   1      39.102  32.750  34.776  1.00  0.00    -0.354 N 
ATOM     59  N   UNL A   1      41.440  31.176  35.602  1.00  0.00    -0.248 NA
ATOM     60  C   UNL A   1      43.142  30.734  37.141  1.00  0.00     0.031 C 
ATOM     61  C   UNL A   1      38.333  34.309  36.157  1.00  0.00     0.029 A 
ATOM     62  C   UNL A   1      39.313  33.341  36.009  1.00  0.00     0.049 A 
ATOM     63  H   UNL A   1      39.654  32.031  34.392  1.00  0.00     0.167 HD
ATOM     64  C   UNL A   1      41.293  32.017  36.701  1.00  0.00     0.074 A 
ATOM     65  C   UNL A   1      42.349  31.676  37.632  1.00  0.00     0.031 C 
ATOM     66  C   UNL A   1      40.367  32.983  36.924  1.00  0.00     0.031 A 
BRANCH  53  67
ATOM     67  C   UNL A   1      36.312  33.680  32.309  1.00  0.00    -0.014 A 
ATOM     68  C   UNL A   1      35.560  33.134  31.253  1.00  0.00     0.010 A 
ATOM     69  C   UNL A   1      35.924  34.914  32.861  1.00  0.00     0.010 A 
ATOM     70  C   UNL A   1      34.462  33.826  30.736  1.00  0.00     0.020 A 
ATOM     71  C   UNL A   1      34.809  35.596  32.366  1.00  0.00     0.020 A 
ATOM     72  C   UNL A   1      34.095  35.053  31.295  1.00  0.00     0.054 A 
BRANCH  72  73
ATOM     73  S   UNL A   1      32.651  35.918  30.619  1.00  0.00     0.124 S 
ATOM     74  O   UNL A   1      33.046  37.318  30.761  1.00  0.00    -0.237 OA
ATOM     75  O   UNL A   1      32.593  35.418  29.248  1.00  0.00    -0.237 OA
ATOM     76  O   UNL A   1      31.554  35.490  31.483  1.00  0.00    -0.744 OA
ENDBRANCH  72  73
ENDBRANCH  53  67
BRANCH  54  77
ATOM     77  C   UNL A   1      44.283  28.573  35.528  1.00  0.00    -0.014 A 
ATOM     78  C   UNL A   1      45.582  29.024  35.229  1.00  0.00     0.010 A 
ATOM     79  C   UNL A   1      44.129  27.388  36.272  1.00  0.00     0.010 A 
ATOM     80  C   UNL A   1      46.700  28.292  35.643  1.00  0.00     0.020 A 
ATOM     81  C   UNL A   1      45.244  26.669  36.712  1.00  0.00     0.020 A 
ATOM     82  C   UNL A   1      46.523  27.118  36.382  1.00  0.00     0.054 A 
BRANCH  82  83
ATOM     83  S   UNL A   1      47.989  26.204  36.939  1.00  0.00     0.124 S 
ATOM     84  O   UNL A   1      49.076  27.053  36.463  1.00  0.00    -0.237 OA
ATOM     85  O   UNL A   1      47.803  26.165  38.387  1.00  0.00    -0.237 OA
ATOM     86  O   UNL A   1      47.860  24.913  36.266  1.00  0.00    -0.744 OA
ENDBRANCH  82  83
ENDBRANCH  54  77
BRANCH  66  87
ATOM     87  C   UNL A   1      40.421  33.712  38.242  1.00  0.00    -0.014 A 
ATOM     88  C   UNL A   1      39.881  33.152  39.413  1.00  0.00     0.010 A 
ATOM     89  C   UNL A   1      41.076  34.956  38.316  1.00  0.00     0.010 A 
ATOM     90  C   UNL A   1      39.964  33.841  40.627  1.00  0.00     0.020 A 
ATOM     91  C   UNL A   1      41.186  35.633  39.533  1.00  0.00     0.020 A 
ATOM     92  C   UNL A   1      40.614  35.078  40.679  1.00  0.00     0.054 A 
BRANCH  92  93
ATOM     93  S   UNL A   1      40.738  35.934  42.272  1.00  0.00     0.124 S 
ATOM     94  O   UNL A   1      41.085  34.842  43.177  1.00  0.00    -0.237 OA
ATOM     95  O   UNL A   1      41.797  36.911  42.031  1.00  0.00    -0.237 OA
ATOM     96  O   UNL A   1      39.406  36.503  42.465  1.00  0.00    -0.744 OA
ENDBRANCH  92  93
ENDBRANCH  66  87
ENDBRANCH  40  41
ENDBRANCH  33  35
ENDBRANCH  32  33
ENDBRANCH  31  32
ENDBRANCH  30  31
ENDBRANCH  29  30
ENDBRANCH  28  29
ENDBRANCH  27  28
ENDBRANCH   1  27
TORSDOF 26
ENDMDL
MODEL 3
REMARK VINA RESULT:      -6.5      8.137     13.814
REMARK SMILES O=C(C[C@@H]1CN(c2cc(C(F)(F)F)ccn2)CCO1)OCCOCCOCCOCCOC(=O)c1ccc(-c2c3nc(c(-c4ccc(S(=O)(=O)[O-])cc4)c4ccc([nH]4)c(-c4ccc(S(=O)(=O)[O-])cc4)c4nc(c(-c5ccc(S(=O)(=O)[O-])cc5)c5ccc2[nH]5)C=C4)C=C3)cc1
REMARK SMILES IDX 26 1 25 2 24 3 23 4 22 5 21 6 20 7 2 8 1 9 3 10 4 11 5 12
REMARK SMILES IDX 19 13 6 14 18 15 17 16 7 17 8 18 16 19 9 20 15 21 14 22
REMARK SMILES IDX 10 23 11 24 12 25 13 26 27 27 28 28 29 29 30 30 31 31 32 32
REMARK SMILES IDX 33 33 34 34 35 35 36 36 94 37 37 38 93 39 38 40 39 41 40 42
REMARK SMILES IDX 87 43 41 44 92 45 86 46 88 47 42 48 91 49 85 50 84 51 43 53
REMARK SMILES IDX 73 54 54 55 72 56 55 57 58 58 71 59 89 60 56 61 57 62 70 64
REMARK SMILES IDX 90 65 59 66 44 67 45 68 53 69 46 70 52 71 47 72 48 73 49 74
REMARK SMILES IDX 50 75 51 76 74 77 75 78 83 79 76 80 82 81 77 82 78 83 79 84
REMARK SMILES IDX 80 85 81 86 60 87 61 88 69 89 62 90 68 91 63 92 64 93 65 94
REMARK SMILES IDX 66 95 67 96
REMARK H PARENT 88 52 58 63
REMARK Flexibility Score: inf
ROOT
ATOM      1  O   UNL A   1      35.766  31.868  28.299  1.00  0.00    -0.377 OA
ENDROOT
BRANCH   1   2
ATOM      2  C   UNL A   1      36.966  32.153  28.995  1.00  0.00     0.188 C 
BRANCH   2   3
ATOM      3  C   UNL A   1      37.193  33.636  29.255  1.00  0.00     0.188 C 
BRANCH   3   4
ATOM      4  O   UNL A   1      37.954  34.021  30.387  1.00  0.00    -0.376 OA
BRANCH   4   5
ATOM      5  C   UNL A   1      39.356  34.207  30.369  1.00  0.00     0.202 C 
BRANCH   5   6
ATOM      6  C   UNL A   1      40.297  33.423  31.269  1.00  0.00     0.261 C 
BRANCH   6   7
ATOM      7  O   UNL A   1      41.413  32.699  30.709  1.00  0.00    -0.463 OA
BRANCH   7   8
ATOM      8  C   UNL A   1      42.664  32.391  31.083  1.00  0.00     0.308 C 
ATOM      9  O   UNL A   1      43.596  32.835  30.409  1.00  0.00    -0.252 OA
BRANCH   8  10
ATOM     10  C   UNL A   1      42.947  31.402  32.181  1.00  0.00     0.156 C 
BRANCH  10  11
ATOM     11  C   UNL A   1      42.037  31.444  33.399  1.00  0.00     0.148 C 
ATOM     12  C   UNL A   1      42.858  31.711  34.662  1.00  0.00     0.150 C 
ATOM     13  O   UNL A   1      41.259  30.247  33.493  1.00  0.00    -0.374 OA
ATOM     14  N   UNL A   1      42.056  31.624  35.880  1.00  0.00    -0.352 N 
ATOM     15  C   UNL A   1      40.429  30.271  34.669  1.00  0.00     0.182 C 
ATOM     16  C   UNL A   1      41.279  30.378  35.947  1.00  0.00     0.146 C 
BRANCH  14  17
ATOM     17  C   UNL A   1      42.801  31.970  37.012  1.00  0.00     0.129 A 
ATOM     18  C   UNL A   1      44.067  32.533  36.842  1.00  0.00     0.060 A 
ATOM     19  N   UNL A   1      42.325  31.700  38.241  1.00  0.00    -0.239 NA
ATOM     20  C   UNL A   1      44.878  32.806  37.947  1.00  0.00     0.061 A 
ATOM     21  C   UNL A   1      43.116  31.959  39.307  1.00  0.00     0.114 A 
ATOM     22  C   UNL A   1      44.383  32.506  39.215  1.00  0.00     0.033 A 
BRANCH  20  23
ATOM     23  C   UNL A   1      46.227  33.444  37.766  1.00  0.00     0.416 C 
ATOM     24  F   UNL A   1      46.667  34.050  38.902  1.00  0.00    -0.166 F 
ATOM     25  F   UNL A   1      47.194  32.555  37.413  1.00  0.00    -0.166 F 
ATOM     26  F   UNL A   1      46.239  34.408  36.802  1.00  0.00    -0.166 F 
ENDBRANCH  20  23
ENDBRANCH  14  17
ENDBRANCH  10  11
ENDBRANCH   8  10
ENDBRANCH   7   8
ENDBRANCH   6   7
ENDBRANCH   5   6
ENDBRANCH   4   5
ENDBRANCH   3   4
ENDBRANCH   2   3
ENDBRANCH   1   2
BRANCH   1  27
ATOM     27  C   UNL A   1      35.147  32.988  27.695  1.00  0.00     0.188 C 
BRANCH  27  28
ATOM     28  C   UNL A   1      33.774  33.406  28.272  1.00  0.00     0.188 C 
BRANCH  28  29
ATOM     29  O   UNL A   1      33.476  34.745  28.643  1.00  0.00    -0.376 OA
BRANCH  29  30
ATOM     30  C   UNL A   1      33.010  35.049  29.945  1.00  0.00     0.202 C 
BRANCH  30  31
ATOM     31  C   UNL A   1      34.000  35.065  31.119  1.00  0.00     0.261 C 
BRANCH  31  32
ATOM     32  O   UNL A   1      33.694  34.164  32.189  1.00  0.00    -0.460 OA
BRANCH  32  33
ATOM     33  C   UNL A   1      34.434  33.026  32.228  1.00  0.00     0.338 C 
ATOM     34  O   UNL A   1      34.460  32.141  31.388  1.00  0.00    -0.246 OA
BRANCH  33  35
ATOM     35  C   UNL A   1      35.397  33.109  33.350  1.00  0.00     0.060 A 
ATOM     36  C   UNL A   1      35.167  34.078  34.337  1.00  0.00     0.016 A 
ATOM     37  C   UNL A   1      36.478  32.230  33.464  1.00  0.00     0.016 A 
ATOM     38  C   UNL A   1      36.036  34.200  35.419  1.00  0.00     0.010 A 
ATOM     39  C   UNL A   1      37.369  32.374  34.535  1.00  0.00     0.010 A 
ATOM     40  C   UNL A   1      37.173  33.387  35.490  1.00  0.00    -0.014 A 
BRANCH  40  41
ATOM     41  C   UNL A   1      38.287  33.801  36.377  1.00  0.00     0.031 A 
ATOM     42  C   UNL A   1      38.159  33.472  37.841  1.00  0.00     0.074 A 
ATOM     43  C   UNL A   1      39.399  34.395  35.907  1.00  0.00     0.049 A 
ATOM     44  N   UNL A   1      38.986  33.717  38.823  1.00  0.00    -0.248 NA
ATOM     45  C   UNL A   1      36.931  32.767  38.248  1.00  0.00     0.031 C 
ATOM     46  C   UNL A   1      39.670  34.712  34.506  1.00  0.00     0.029 A 
ATOM     47  N   UNL A   1      40.516  34.834  36.575  1.00  0.00    -0.354 N 
ATOM     48  C   UNL A   1      38.381  33.191  39.959  1.00  0.00     0.074 A 
ATOM     49  C   UNL A   1      37.105  32.647  39.554  1.00  0.00     0.031 C 
ATOM     50  C   UNL A   1      40.874  35.308  34.420  1.00  0.00     0.029 A 
ATOM     51  C   UNL A   1      41.446  35.436  35.761  1.00  0.00     0.049 A 
ATOM     52  H   UNL A   1      40.639  34.728  37.545  1.00  0.00     0.167 HD
ATOM     53  C   UNL A   1      38.847  33.152  41.229  1.00  0.00     0.031 A 
ATOM     54  C   UNL A   1      42.615  36.036  36.070  1.00  0.00     0.031 A 
ATOM     55  C   UNL A   1      40.100  33.721  41.641  1.00  0.00     0.049 A 
ATOM     56  C   UNL A   1      43.069  36.070  37.509  1.00  0.00     0.074 A 
ATOM     57  C   UNL A   1      40.654  33.754  42.907  1.00  0.00     0.029 A 
ATOM     58  N   UNL A   1      40.988  34.365  40.795  1.00  0.00    -0.354 N 
ATOM     59  N   UNL A   1      42.493  35.556  38.571  1.00  0.00    -0.248 NA
ATOM     60  C   UNL A   1      44.338  36.757  37.789  1.00  0.00     0.031 C 
ATOM     61  C   UNL A   1      41.857  34.464  42.835  1.00  0.00     0.029 A 
ATOM     62  C   UNL A   1      42.080  34.818  41.514  1.00  0.00     0.049 A 
ATOM     63  H   UNL A   1      40.861  34.483  39.826  1.00  0.00     0.167 HD
ATOM     64  C   UNL A   1      43.345  35.831  39.637  1.00  0.00     0.074 A 
ATOM     65  C   UNL A   1      44.481  36.543  39.090  1.00  0.00     0.031 C 
ATOM     66  C   UNL A   1      43.204  35.521  40.950  1.00  0.00     0.031 A 
BRANCH  53  67
ATOM     67  C   UNL A   1      37.972  32.499  42.262  1.00  0.00    -0.014 A 
ATOM     68  C   UNL A   1      38.116  31.136  42.579  1.00  0.00     0.010 A 
ATOM     69  C   UNL A   1      36.999  33.260  42.935  1.00  0.00     0.010 A 
ATOM     70  C   UNL A   1      37.279  30.538  43.524  1.00  0.00     0.020 A 
ATOM     71  C   UNL A   1      36.179  32.672  43.901  1.00  0.00     0.020 A 
ATOM     72  C   UNL A   1      36.315  31.310  44.178  1.00  0.00     0.054 A 
BRANCH  72  73
ATOM     73  S   UNL A   1      35.257  30.513  45.417  1.00  0.00     0.124 S 
ATOM     74  O   UNL A   1      35.209  31.525  46.468  1.00  0.00    -0.237 OA
ATOM     75  O   UNL A   1      34.008  30.308  44.686  1.00  0.00    -0.237 OA
ATOM     76  O   UNL A   1      35.982  29.292  45.759  1.00  0.00    -0.744 OA
ENDBRANCH  72  73
ENDBRANCH  53  67
BRANCH  54  77
ATOM     77  C   UNL A   1      43.436  36.679  35.006  1.00  0.00    -0.014 A 
ATOM     78  C   UNL A   1      44.469  35.972  34.365  1.00  0.00     0.010 A 
ATOM     79  C   UNL A   1      43.209  38.022  34.651  1.00  0.00     0.010 A 
ATOM     80  C   UNL A   1      45.274  36.602  33.409  1.00  0.00     0.020 A 
ATOM     81  C   UNL A   1      43.992  38.647  33.677  1.00  0.00     0.020 A 
ATOM     82  C   UNL A   1      45.029  37.937  33.072  1.00  0.00     0.054 A 
BRANCH  82  83
ATOM     83  S   UNL A   1      46.063  38.724  31.804  1.00  0.00     0.124 S 
ATOM     84  O   UNL A   1      47.401  38.286  32.188  1.00  0.00    -0.237 OA
ATOM     85  O   UNL A   1      45.538  38.148  30.569  1.00  0.00    -0.237 OA
ATOM     86  O   UNL A   1      45.793  40.149  31.982  1.00  0.00    -0.744 OA
ENDBRANCH  82  83
ENDBRANCH  54  77
BRANCH  66  87
ATOM     87  C   UNL A   1      44.323  35.907  41.884  1.00  0.00    -0.014 A 
ATOM     88  C   UNL A   1      45.384  35.027  42.159  1.00  0.00     0.010 A 
ATOM     89  C   UNL A   1      44.336  37.195  42.449  1.00  0.00     0.010 A 
ATOM     90  C   UNL A   1      46.420  35.418  43.012  1.00  0.00     0.020 A 
ATOM     91  C   UNL A   1      45.385  37.599  43.278  1.00  0.00     0.020 A 
ATOM     92  C   UNL A   1      46.413  36.701  43.568  1.00  0.00     0.054 A 
BRANCH  92  93
ATOM     93  S   UNL A   1      47.786  37.196  44.644  1.00  0.00     0.124 S 
ATOM     94  O   UNL A   1      47.194  38.291  45.408  1.00  0.00    -0.237 OA
ATOM     95  O   UNL A   1      48.057  35.977  45.401  1.00  0.00    -0.237 OA
ATOM     96  O   UNL A   1      48.837  37.588  43.707  1.00  0.00    -0.744 OA
ENDBRANCH  92  93
ENDBRANCH  66  87
ENDBRANCH  40  41
ENDBRANCH  33  35
ENDBRANCH  32  33
ENDBRANCH  31  32
ENDBRANCH  30  31
ENDBRANCH  29  30
ENDBRANCH  28  29
ENDBRANCH  27  28
ENDBRANCH   1  27
TORSDOF 26
ENDMDL
