MODEL 1
REMARK VINA RESULT:     -10.0      0.000      0.000
REMARK SMILES Cn1ncc(C(=O)OCCOCCOCCOCCOC(=O)c2ccc(-c3c4nc(c(-c5ccc(S(=O)(=O)[O-])cc5)c5ccc([nH]5)c(-c5ccc(S(=O)(=O)[O-])cc5)c5nc(c(-c6ccc(S(=O)(=O)[O-])cc6)c6ccc3[nH]6)C=C5)C=C4)cc2)c1C(=O)Nc1nccc(-c2ccc(OC(F)F)cc2)n1
REMARK SMILES IDX 13 1 12 2 11 3 10 4 9 5 8 6 6 7 7 8 5 9 1 10 2 11 3 12 83 13
REMARK SMILES IDX 4 14 84 15 85 16 86 17 87 19 88 20 102 21 89 22 91 23 90 24
REMARK SMILES IDX 92 25 93 26 101 27 94 28 100 29 95 30 96 31 97 32 98 33
REMARK SMILES IDX 99 34 14 35 15 36 16 37 17 38 18 39 19 40 20 41 21 42 22 43
REMARK SMILES IDX 23 44 24 45 82 46 25 47 81 48 26 49 27 50 28 51 75 52 29 53
REMARK SMILES IDX 80 54 74 55 76 56 30 57 79 58 73 59 72 60 31 62 61 63 42 64
REMARK SMILES IDX 60 65 43 66 46 67 59 68 77 69 44 70 45 71 58 73 78 74 47 75
REMARK SMILES IDX 32 76 33 77 41 78 34 79 40 80 35 81 36 82 37 83 38 84 39 85
REMARK SMILES IDX 62 86 63 87 71 88 64 89 70 90 65 91 66 92 67 93 68 94 69 95
REMARK SMILES IDX 48 96 49 97 57 98 50 99 56 100 51 101 52 102 53 103 54 104
REMARK SMILES IDX 55 105
REMARK H PARENT 86 18 76 61 46 72
REMARK Flexibility Score: inf
ROOT
ATOM      1  C   UNL A   1      34.474  22.415  27.198  1.00  0.00     0.188 C 
ENDROOT
BRANCH   1   2
ATOM      2  C   UNL A   1      33.096  22.287  27.891  1.00  0.00     0.188 C 
BRANCH   2   3
ATOM      3  O   UNL A   1      32.146  23.309  27.595  1.00  0.00    -0.376 OA
BRANCH   3   4
ATOM      4  C   UNL A   1      32.376  24.094  26.430  1.00  0.00     0.202 C 
BRANCH   4   5
ATOM      5  C   UNL A   1      31.685  25.459  26.490  1.00  0.00     0.261 C 
BRANCH   5   6
ATOM      6  O   UNL A   1      32.602  26.503  26.837  1.00  0.00    -0.460 OA
BRANCH   6   7
ATOM      7  C   UNL A   1      33.381  26.958  25.827  1.00  0.00     0.342 C 
ATOM      8  O   UNL A   1      34.422  26.421  25.459  1.00  0.00    -0.246 OA
BRANCH   7   9
ATOM      9  C   UNL A   1      32.760  28.016  25.058  1.00  0.00     0.111 A 
ATOM     10  C   UNL A   1      30.732  29.325  22.535  1.00  0.00     0.174 C 
ATOM     11  N   UNL A   1      31.749  29.202  23.551  1.00  0.00    -0.262 N 
ATOM     12  N   UNL A   1      31.481  29.854  24.706  1.00  0.00    -0.180 NA
ATOM     13  C   UNL A   1      32.735  28.241  23.672  1.00  0.00     0.140 A 
ATOM     14  C   UNL A   1      32.013  29.063  25.628  1.00  0.00     0.151 A 
BRANCH  13  15
ATOM     15  C   UNL A   1      33.419  27.439  22.670  1.00  0.00     0.277 C 
ATOM     16  O   UNL A   1      34.330  27.937  22.000  1.00  0.00    -0.267 OA
ATOM     17  N   UNL A   1      33.244  26.110  22.439  1.00  0.00    -0.289 N 
ATOM     18  H   UNL A   1      33.941  25.750  21.845  1.00  0.00     0.173 HD
BRANCH  17  19
ATOM     19  C   UNL A   1      32.349  25.136  22.816  1.00  0.00     0.230 A 
ATOM     20  N   UNL A   1      31.121  25.631  23.031  1.00  0.00    -0.221 NA
ATOM     21  N   UNL A   1      32.652  23.837  22.861  1.00  0.00    -0.213 NA
ATOM     22  C   UNL A   1      30.123  24.754  23.211  1.00  0.00     0.117 A 
ATOM     23  C   UNL A   1      31.628  22.981  23.109  1.00  0.00     0.076 A 
ATOM     24  C   UNL A   1      30.318  23.400  23.249  1.00  0.00     0.049 A 
BRANCH  23  25
ATOM     25  C   UNL A   1      31.970  21.557  23.148  1.00  0.00     0.001 A 
ATOM     26  C   UNL A   1      31.912  20.770  21.991  1.00  0.00     0.014 A 
ATOM     27  C   UNL A   1      32.369  20.943  24.346  1.00  0.00     0.014 A 
ATOM     28  C   UNL A   1      32.227  19.409  22.040  1.00  0.00     0.047 A 
ATOM     29  C   UNL A   1      32.663  19.576  24.398  1.00  0.00     0.047 A 
ATOM     30  C   UNL A   1      32.584  18.798  23.245  1.00  0.00     0.126 A 
BRANCH  30  31
ATOM     31  O   UNL A   1      32.828  17.458  23.158  1.00  0.00    -0.435 OA
BRANCH  31  32
ATOM     32  C   UNL A   1      33.957  16.934  23.845  1.00  0.00     0.542 C 
ATOM     33  F   UNL A   1      34.423  15.836  23.201  1.00  0.00    -0.167 F 
ATOM     34  F   UNL A   1      34.951  17.853  23.891  1.00  0.00    -0.167 F 
ENDBRANCH  31  32
ENDBRANCH  30  31
ENDBRANCH  23  25
ENDBRANCH  17  19
ENDBRANCH  13  15
ENDBRANCH   7   9
ENDBRANCH   6   7
ENDBRANCH   5   6
ENDBRANCH   4   5
ENDBRANCH   3   4
ENDBRANCH   2   3
ENDBRANCH   1   2
BRANCH   1  35
ATOM     35  O   UNL A   1      35.092  21.337  26.509  1.00  0.00    -0.377 OA
BRANCH  35  36
ATOM     36  C   UNL A   1      35.618  21.568  25.216  1.00  0.00     0.188 C 
BRANCH  36  37
ATOM     37  C   UNL A   1      37.019  22.200  25.232  1.00  0.00     0.188 C 
BRANCH  37  38
ATOM     38  O   UNL A   1      36.993  23.614  25.441  1.00  0.00    -0.376 OA
BRANCH  38  39
ATOM     39  C   UNL A   1      37.846  24.097  26.475  1.00  0.00     0.202 C 
BRANCH  39  40
ATOM     40  C   UNL A   1      39.353  23.920  26.232  1.00  0.00     0.261 C 
BRANCH  40  41
ATOM     41  O   UNL A   1      40.212  24.700  27.080  1.00  0.00    -0.460 OA
BRANCH  41  42
ATOM     42  C   UNL A   1      40.553  25.938  26.662  1.00  0.00     0.338 C 
ATOM     43  O   UNL A   1      40.855  26.284  25.535  1.00  0.00    -0.246 OA
BRANCH  42  44
ATOM     44  C   UNL A   1      40.327  26.864  27.789  1.00  0.00     0.060 A 
ATOM     45  C   UNL A   1      40.880  28.148  27.732  1.00  0.00     0.016 A 
ATOM     46  C   UNL A   1      39.561  26.465  28.888  1.00  0.00     0.016 A 
ATOM     47  C   UNL A   1      40.694  29.032  28.794  1.00  0.00     0.010 A 
ATOM     48  C   UNL A   1      39.393  27.342  29.960  1.00  0.00     0.010 A 
ATOM     49  C   UNL A   1      39.984  28.617  29.930  1.00  0.00    -0.014 A 
BRANCH  49  50
ATOM     50  C   UNL A   1      40.031  29.429  31.168  1.00  0.00     0.031 A 
ATOM     51  C   UNL A   1      41.137  29.156  32.149  1.00  0.00     0.074 A 
ATOM     52  C   UNL A   1      39.115  30.379  31.422  1.00  0.00     0.049 A 
ATOM     53  N   UNL A   1      41.372  29.712  33.309  1.00  0.00    -0.248 NA
ATOM     54  C   UNL A   1      42.107  28.113  31.772  1.00  0.00     0.031 C 
ATOM     55  C   UNL A   1      38.012  30.755  30.538  1.00  0.00     0.029 A 
ATOM     56  N   UNL A   1      38.967  31.198  32.514  1.00  0.00    -0.354 N 
ATOM     57  C   UNL A   1      42.517  29.093  33.796  1.00  0.00     0.074 A 
ATOM     58  C   UNL A   1      42.913  28.100  32.823  1.00  0.00     0.031 C 
ATOM     59  C   UNL A   1      37.293  31.726  31.130  1.00  0.00     0.029 A 
ATOM     60  C   UNL A   1      37.868  32.021  32.441  1.00  0.00     0.049 A 
ATOM     61  H   UNL A   1      39.589  31.196  33.277  1.00  0.00     0.167 HD
ATOM     62  C   UNL A   1      43.182  29.331  34.951  1.00  0.00     0.031 A 
ATOM     63  C   UNL A   1      37.378  32.898  33.340  1.00  0.00     0.031 A 
ATOM     64  C   UNL A   1      42.772  30.293  35.935  1.00  0.00     0.049 A 
ATOM     65  C   UNL A   1      38.093  33.090  34.654  1.00  0.00     0.074 A 
ATOM     66  C   UNL A   1      43.382  30.610  37.135  1.00  0.00     0.029 A 
ATOM     67  N   UNL A   1      41.638  31.084  35.839  1.00  0.00    -0.354 N 
ATOM     68  N   UNL A   1      39.195  32.523  35.084  1.00  0.00    -0.248 NA
ATOM     69  C   UNL A   1      37.497  34.043  35.602  1.00  0.00     0.031 C 
ATOM     70  C   UNL A   1      42.591  31.561  37.787  1.00  0.00     0.029 A 
ATOM     71  C   UNL A   1      41.515  31.871  36.969  1.00  0.00     0.049 A 
ATOM     72  H   UNL A   1      41.013  31.084  35.077  1.00  0.00     0.167 HD
ATOM     73  C   UNL A   1      39.436  33.069  36.342  1.00  0.00     0.074 A 
ATOM     74  C   UNL A   1      38.372  34.017  36.598  1.00  0.00     0.031 C 
ATOM     75  C   UNL A   1      40.448  32.809  37.207  1.00  0.00     0.031 A 
BRANCH  62  76
ATOM     76  C   UNL A   1      44.409  28.506  35.216  1.00  0.00    -0.014 A 
ATOM     77  C   UNL A   1      45.691  29.004  34.922  1.00  0.00     0.010 A 
ATOM     78  C   UNL A   1      44.282  27.223  35.778  1.00  0.00     0.010 A 
ATOM     79  C   UNL A   1      46.824  28.219  35.154  1.00  0.00     0.020 A 
ATOM     80  C   UNL A   1      45.413  26.444  36.031  1.00  0.00     0.020 A 
ATOM     81  C   UNL A   1      46.676  26.941  35.702  1.00  0.00     0.054 A 
BRANCH  81  82
ATOM     82  S   UNL A   1      48.162  25.947  36.008  1.00  0.00     0.124 S 
ATOM     83  O   UNL A   1      48.980  26.865  36.799  1.00  0.00    -0.237 OA
ATOM     84  O   UNL A   1      47.635  24.793  36.732  1.00  0.00    -0.237 OA
ATOM     85  O   UNL A   1      48.669  25.660  34.668  1.00  0.00    -0.744 OA
ENDBRANCH  81  82
ENDBRANCH  62  76
BRANCH  63  86
ATOM     86  C   UNL A   1      36.131  33.654  33.043  1.00  0.00    -0.014 A 
ATOM     87  C   UNL A   1      36.189  34.968  32.549  1.00  0.00     0.010 A 
ATOM     88  C   UNL A   1      34.875  33.064  33.274  1.00  0.00     0.010 A 
ATOM     89  C   UNL A   1      35.013  35.687  32.309  1.00  0.00     0.020 A 
ATOM     90  C   UNL A   1      33.697  33.771  33.013  1.00  0.00     0.020 A 
ATOM     91  C   UNL A   1      33.774  35.084  32.545  1.00  0.00     0.054 A 
BRANCH  91  92
ATOM     92  S   UNL A   1      32.259  36.020  32.191  1.00  0.00     0.124 S 
ATOM     93  O   UNL A   1      32.423  37.193  33.043  1.00  0.00    -0.237 OA
ATOM     94  O   UNL A   1      32.363  36.261  30.754  1.00  0.00    -0.237 OA
ATOM     95  O   UNL A   1      31.192  35.103  32.586  1.00  0.00    -0.744 OA
ENDBRANCH  91  92
ENDBRANCH  63  86
BRANCH  75  96
ATOM     96  C   UNL A   1      40.474  33.579  38.499  1.00  0.00    -0.014 A 
ATOM     97  C   UNL A   1      39.945  33.031  39.681  1.00  0.00     0.010 A 
ATOM     98  C   UNL A   1      41.099  34.838  38.546  1.00  0.00     0.010 A 
ATOM     99  C   UNL A   1      40.020  33.741  40.883  1.00  0.00     0.020 A 
ATOM    100  C   UNL A   1      41.195  35.540  39.749  1.00  0.00     0.020 A 
ATOM    101  C   UNL A   1      40.644  34.992  40.910  1.00  0.00     0.054 A 
BRANCH 101 102
ATOM    102  S   UNL A   1      40.777  35.872  42.490  1.00  0.00     0.124 S 
ATOM    103  O   UNL A   1      40.935  34.773  43.437  1.00  0.00    -0.237 OA
ATOM    104  O   UNL A   1      41.959  36.709  42.295  1.00  0.00    -0.237 OA
ATOM    105  O   UNL A   1      39.515  36.602  42.587  1.00  0.00    -0.744 OA
ENDBRANCH 101 102
ENDBRANCH  75  96
ENDBRANCH  49  50
ENDBRANCH  42  44
ENDBRANCH  41  42
ENDBRANCH  40  41
ENDBRANCH  39  40
ENDBRANCH  38  39
ENDBRANCH  37  38
ENDBRANCH  36  37
ENDBRANCH  35  36
ENDBRANCH   1  35
TORSDOF 28
ENDMDL
MODEL 2
REMARK VINA RESULT:      -9.9      6.319      9.240
REMARK SMILES Cn1ncc(C(=O)OCCOCCOCCOCCOC(=O)c2ccc(-c3c4nc(c(-c5ccc(S(=O)(=O)[O-])cc5)c5ccc([nH]5)c(-c5ccc(S(=O)(=O)[O-])cc5)c5nc(c(-c6ccc(S(=O)(=O)[O-])cc6)c6ccc3[nH]6)C=C5)C=C4)cc2)c1C(=O)Nc1nccc(-c2ccc(OC(F)F)cc2)n1
REMARK SMILES IDX 13 1 12 2 11 3 10 4 9 5 8 6 6 7 7 8 5 9 1 10 2 11 3 12 83 13
REMARK SMILES IDX 4 14 84 15 85 16 86 17 87 19 88 20 102 21 89 22 91 23 90 24
REMARK SMILES IDX 92 25 93 26 101 27 94 28 100 29 95 30 96 31 97 32 98 33
REMARK SMILES IDX 99 34 14 35 15 36 16 37 17 38 18 39 19 40 20 41 21 42 22 43
REMARK SMILES IDX 23 44 24 45 82 46 25 47 81 48 26 49 27 50 28 51 75 52 29 53
REMARK SMILES IDX 80 54 74 55 76 56 30 57 79 58 73 59 72 60 31 62 61 63 42 64
REMARK SMILES IDX 60 65 43 66 46 67 59 68 77 69 44 70 45 71 58 73 78 74 47 75
REMARK SMILES IDX 32 76 33 77 41 78 34 79 40 80 35 81 36 82 37 83 38 84 39 85
REMARK SMILES IDX 62 86 63 87 71 88 64 89 70 90 65 91 66 92 67 93 68 94 69 95
REMARK SMILES IDX 48 96 49 97 57 98 50 99 56 100 51 101 52 102 53 103 54 104
REMARK SMILES IDX 55 105
REMARK H PARENT 86 18 76 61 46 72
REMARK Flexibility Score: inf
ROOT
ATOM      1  C   UNL A   1      34.420  22.548  26.797  1.00  0.00     0.188 C 
ENDROOT
BRANCH   1   2
ATOM      2  C   UNL A   1      33.317  22.252  27.840  1.00  0.00     0.188 C 
BRANCH   2   3
ATOM      3  O   UNL A   1      32.062  22.897  27.628  1.00  0.00    -0.376 OA
BRANCH   3   4
ATOM      4  C   UNL A   1      32.058  24.060  26.807  1.00  0.00     0.202 C 
BRANCH   4   5
ATOM      5  C   UNL A   1      31.081  23.953  25.634  1.00  0.00     0.261 C 
BRANCH   5   6
ATOM      6  O   UNL A   1      31.765  23.877  24.378  1.00  0.00    -0.460 OA
BRANCH   6   7
ATOM      7  C   UNL A   1      31.136  24.464  23.332  1.00  0.00     0.342 C 
ATOM      8  O   UNL A   1      29.937  24.349  23.092  1.00  0.00    -0.246 OA
BRANCH   7   9
ATOM      9  C   UNL A   1      31.958  25.436  22.641  1.00  0.00     0.111 A 
ATOM     10  C   UNL A   1      33.911  28.319  22.382  1.00  0.00     0.174 C 
ATOM     11  N   UNL A   1      33.075  27.193  22.039  1.00  0.00    -0.262 N 
ATOM     12  N   UNL A   1      33.718  26.175  21.420  1.00  0.00    -0.180 NA
ATOM     13  C   UNL A   1      31.851  26.834  22.571  1.00  0.00     0.140 A 
ATOM     14  C   UNL A   1      33.092  25.100  21.880  1.00  0.00     0.151 A 
BRANCH  13  15
ATOM     15  C   UNL A   1      30.795  27.635  23.168  1.00  0.00     0.277 C 
ATOM     16  O   UNL A   1      29.711  27.757  22.585  1.00  0.00    -0.267 OA
ATOM     17  N   UNL A   1      30.813  28.211  24.400  1.00  0.00    -0.289 N 
ATOM     18  H   UNL A   1      29.923  28.543  24.658  1.00  0.00     0.173 HD
BRANCH  17  19
ATOM     19  C   UNL A   1      31.745  28.451  25.381  1.00  0.00     0.230 A 
ATOM     20  N   UNL A   1      32.399  27.337  25.744  1.00  0.00    -0.221 NA
ATOM     21  N   UNL A   1      32.031  29.670  25.841  1.00  0.00    -0.213 NA
ATOM     22  C   UNL A   1      33.463  27.477  26.548  1.00  0.00     0.117 A 
ATOM     23  C   UNL A   1      33.075  29.766  26.704  1.00  0.00     0.076 A 
ATOM     24  C   UNL A   1      33.859  28.684  27.056  1.00  0.00     0.049 A 
BRANCH  23  25
ATOM     25  C   UNL A   1      33.385  31.111  27.196  1.00  0.00     0.001 A 
ATOM     26  C   UNL A   1      32.413  32.120  27.196  1.00  0.00     0.014 A 
ATOM     27  C   UNL A   1      34.663  31.425  27.684  1.00  0.00     0.014 A 
ATOM     28  C   UNL A   1      32.721  33.404  27.654  1.00  0.00     0.047 A 
ATOM     29  C   UNL A   1      34.976  32.717  28.122  1.00  0.00     0.047 A 
ATOM     30  C   UNL A   1      34.008  33.718  28.101  1.00  0.00     0.126 A 
BRANCH  30  31
ATOM     31  O   UNL A   1      34.181  35.017  28.482  1.00  0.00    -0.435 OA
BRANCH  31  32
ATOM     32  C   UNL A   1      33.297  35.553  29.457  1.00  0.00     0.542 C 
ATOM     33  F   UNL A   1      33.541  34.989  30.665  1.00  0.00    -0.167 F 
ATOM     34  F   UNL A   1      33.473  36.891  29.571  1.00  0.00    -0.167 F 
ENDBRANCH  31  32
ENDBRANCH  30  31
ENDBRANCH  23  25
ENDBRANCH  17  19
ENDBRANCH  13  15
ENDBRANCH   7   9
ENDBRANCH   6   7
ENDBRANCH   5   6
ENDBRANCH   4   5
ENDBRANCH   3   4
ENDBRANCH   2   3
ENDBRANCH   1   2
BRANCH   1  35
ATOM     35  O   UNL A   1      34.715  21.669  25.720  1.00  0.00    -0.377 OA
BRANCH  35  36
ATOM     36  C   UNL A   1      35.305  22.203  24.549  1.00  0.00     0.188 C 
BRANCH  36  37
ATOM     37  C   UNL A   1      36.762  21.758  24.343  1.00  0.00     0.188 C 
BRANCH  37  38
ATOM     38  O   UNL A   1      37.709  22.658  24.924  1.00  0.00    -0.376 OA
BRANCH  38  39
ATOM     39  C   UNL A   1      38.518  22.110  25.960  1.00  0.00     0.202 C 
BRANCH  39  40
ATOM     40  C   UNL A   1      39.199  20.771  25.637  1.00  0.00     0.261 C 
BRANCH  40  41
ATOM     41  O   UNL A   1      40.212  20.352  26.566  1.00  0.00    -0.460 OA
BRANCH  41  42
ATOM     42  C   UNL A   1      41.469  20.195  26.098  1.00  0.00     0.338 C 
ATOM     43  O   UNL A   1      41.896  19.288  25.408  1.00  0.00    -0.246 OA
BRANCH  42  44
ATOM     44  C   UNL A   1      42.219  21.424  26.422  1.00  0.00     0.060 A 
ATOM     45  C   UNL A   1      42.589  21.660  27.752  1.00  0.00     0.016 A 
ATOM     46  C   UNL A   1      42.565  22.328  25.415  1.00  0.00     0.016 A 
ATOM     47  C   UNL A   1      43.282  22.824  28.083  1.00  0.00     0.010 A 
ATOM     48  C   UNL A   1      43.238  23.503  25.750  1.00  0.00     0.010 A 
ATOM     49  C   UNL A   1      43.573  23.769  27.089  1.00  0.00    -0.014 A 
BRANCH  49  50
ATOM     50  C   UNL A   1      44.037  25.123  27.469  1.00  0.00     0.031 A 
ATOM     51  C   UNL A   1      45.487  25.459  27.253  1.00  0.00     0.074 A 
ATOM     52  C   UNL A   1      43.199  26.031  27.999  1.00  0.00     0.049 A 
ATOM     53  N   UNL A   1      46.132  26.561  27.531  1.00  0.00    -0.248 NA
ATOM     54  C   UNL A   1      46.321  24.407  26.645  1.00  0.00     0.031 C 
ATOM     55  C   UNL A   1      41.770  25.834  28.232  1.00  0.00     0.029 A 
ATOM     56  N   UNL A   1      43.443  27.306  28.446  1.00  0.00    -0.354 N 
ATOM     57  C   UNL A   1      47.443  26.340  27.126  1.00  0.00     0.074 A 
ATOM     58  C   UNL A   1      47.510  24.990  26.612  1.00  0.00     0.031 C 
ATOM     59  C   UNL A   1      41.263  26.949  28.791  1.00  0.00     0.029 A 
ATOM     60  C   UNL A   1      42.336  27.925  28.977  1.00  0.00     0.049 A 
ATOM     61  H   UNL A   1      44.327  27.737  28.392  1.00  0.00     0.167 HD
ATOM     62  C   UNL A   1      48.499  27.185  27.176  1.00  0.00     0.031 A 
ATOM     63  C   UNL A   1      42.212  29.134  29.560  1.00  0.00     0.031 A 
ATOM     64  C   UNL A   1      48.443  28.514  27.717  1.00  0.00     0.049 A 
ATOM     65  C   UNL A   1      43.421  30.029  29.675  1.00  0.00     0.074 A 
ATOM     66  C   UNL A   1      49.459  29.449  27.808  1.00  0.00     0.029 A 
ATOM     67  N   UNL A   1      47.314  29.092  28.273  1.00  0.00    -0.354 N 
ATOM     68  N   UNL A   1      44.646  29.818  29.255  1.00  0.00    -0.248 NA
ATOM     69  C   UNL A   1      43.227  31.325  30.342  1.00  0.00     0.031 C 
ATOM     70  C   UNL A   1      48.954  30.578  28.462  1.00  0.00     0.029 A 
ATOM     71  C   UNL A   1      47.611  30.362  28.732  1.00  0.00     0.049 A 
ATOM     72  H   UNL A   1      46.430  28.661  28.331  1.00  0.00     0.167 HD
ATOM     73  C   UNL A   1      45.362  30.966  29.585  1.00  0.00     0.074 A 
ATOM     74  C   UNL A   1      44.432  31.869  30.230  1.00  0.00     0.031 C 
ATOM     75  C   UNL A   1      46.672  31.247  29.372  1.00  0.00     0.031 A 
BRANCH  62  76
ATOM     76  C   UNL A   1      49.811  26.673  26.653  1.00  0.00    -0.014 A 
ATOM     77  C   UNL A   1      50.174  26.858  25.307  1.00  0.00     0.010 A 
ATOM     78  C   UNL A   1      50.698  26.010  27.520  1.00  0.00     0.010 A 
ATOM     79  C   UNL A   1      51.387  26.359  24.828  1.00  0.00     0.020 A 
ATOM     80  C   UNL A   1      51.922  25.528  27.050  1.00  0.00     0.020 A 
ATOM     81  C   UNL A   1      52.251  25.692  25.702  1.00  0.00     0.054 A 
BRANCH  81  82
ATOM     82  S   UNL A   1      53.829  25.067  25.060  1.00  0.00     0.124 S 
ATOM     83  O   UNL A   1      54.758  25.453  26.120  1.00  0.00    -0.237 OA
ATOM     84  O   UNL A   1      53.580  23.633  24.935  1.00  0.00    -0.237 OA
ATOM     85  O   UNL A   1      53.995  25.780  23.796  1.00  0.00    -0.744 OA
ENDBRANCH  81  82
ENDBRANCH  62  76
BRANCH  63  86
ATOM     86  C   UNL A   1      40.898  29.570  30.104  1.00  0.00    -0.014 A 
ATOM     87  C   UNL A   1      39.933  30.156  29.265  1.00  0.00     0.010 A 
ATOM     88  C   UNL A   1      40.612  29.419  31.473  1.00  0.00     0.010 A 
ATOM     89  C   UNL A   1      38.714  30.600  29.790  1.00  0.00     0.020 A 
ATOM     90  C   UNL A   1      39.386  29.840  31.996  1.00  0.00     0.020 A 
ATOM     91  C   UNL A   1      38.449  30.440  31.153  1.00  0.00     0.054 A 
BRANCH  91  92
ATOM     92  S   UNL A   1      36.847  30.988  31.807  1.00  0.00     0.124 S 
ATOM     93  O   UNL A   1      35.939  29.985  31.260  1.00  0.00    -0.237 OA
ATOM     94  O   UNL A   1      37.057  30.931  33.252  1.00  0.00    -0.237 OA
ATOM     95  O   UNL A   1      36.698  32.334  31.259  1.00  0.00    -0.744 OA
ENDBRANCH  91  92
ENDBRANCH  63  86
BRANCH  75  96
ATOM     96  C   UNL A   1      47.175  32.595  29.813  1.00  0.00    -0.014 A 
ATOM     97  C   UNL A   1      48.089  32.717  30.875  1.00  0.00     0.010 A 
ATOM     98  C   UNL A   1      46.781  33.747  29.110  1.00  0.00     0.010 A 
ATOM     99  C   UNL A   1      48.582  33.973  31.240  1.00  0.00     0.020 A 
ATOM    100  C   UNL A   1      47.289  35.001  29.458  1.00  0.00     0.020 A 
ATOM    101  C   UNL A   1      48.178  35.108  30.530  1.00  0.00     0.054 A 
BRANCH 101 102
ATOM    102  S   UNL A   1      48.871  36.721  30.987  1.00  0.00     0.124 S 
ATOM    103  O   UNL A   1      50.305  36.446  30.985  1.00  0.00    -0.237 OA
ATOM    104  O   UNL A   1      48.397  37.592  29.914  1.00  0.00    -0.237 OA
ATOM    105  O   UNL A   1      48.289  36.988  32.300  1.00  0.00    -0.744 OA
ENDBRANCH 101 102
ENDBRANCH  75  96
ENDBRANCH  49  50
ENDBRANCH  42  44
ENDBRANCH  41  42
ENDBRANCH  40  41
ENDBRANCH  39  40
ENDBRANCH  38  39
ENDBRANCH  37  38
ENDBRANCH  36  37
ENDBRANCH  35  36
ENDBRANCH   1  35
TORSDOF 28
ENDMDL
MODEL 3
REMARK VINA RESULT:      -9.5      1.341      7.711
REMARK SMILES Cn1ncc(C(=O)OCCOCCOCCOCCOC(=O)c2ccc(-c3c4nc(c(-c5ccc(S(=O)(=O)[O-])cc5)c5ccc([nH]5)c(-c5ccc(S(=O)(=O)[O-])cc5)c5nc(c(-c6ccc(S(=O)(=O)[O-])cc6)c6ccc3[nH]6)C=C5)C=C4)cc2)c1C(=O)Nc1nccc(-c2ccc(OC(F)F)cc2)n1
REMARK SMILES IDX 13 1 12 2 11 3 10 4 9 5 8 6 6 7 7 8 5 9 1 10 2 11 3 12 83 13
REMARK SMILES IDX 4 14 84 15 85 16 86 17 87 19 88 20 102 21 89 22 91 23 90 24
REMARK SMILES IDX 92 25 93 26 101 27 94 28 100 29 95 30 96 31 97 32 98 33
REMARK SMILES IDX 99 34 14 35 15 36 16 37 17 38 18 39 19 40 20 41 21 42 22 43
REMARK SMILES IDX 23 44 24 45 82 46 25 47 81 48 26 49 27 50 28 51 75 52 29 53
REMARK SMILES IDX 80 54 74 55 76 56 30 57 79 58 73 59 72 60 31 62 61 63 42 64
REMARK SMILES IDX 60 65 43 66 46 67 59 68 77 69 44 70 45 71 58 73 78 74 47 75
REMARK SMILES IDX 32 76 33 77 41 78 34 79 40 80 35 81 36 82 37 83 38 84 39 85
REMARK SMILES IDX 62 86 63 87 71 88 64 89 70 90 65 91 66 92 67 93 68 94 69 95
REMARK SMILES IDX 48 96 49 97 57 98 50 99 56 100 51 101 52 102 53 103 54 104
REMARK SMILES IDX 55 105
REMARK H PARENT 86 18 76 61 46 72
REMARK Flexibility Score: inf
ROOT
ATOM      1  C   UNL A   1      35.679  21.609  26.066  1.00  0.00     0.188 C 
ENDROOT
BRANCH   1   2
ATOM      2  C   UNL A   1      35.330  23.054  25.638  1.00  0.00     0.188 C 
BRANCH   2   3
ATOM      3  O   UNL A   1      34.405  23.750  26.472  1.00  0.00    -0.376 OA
BRANCH   3   4
ATOM      4  C   UNL A   1      33.846  24.955  25.960  1.00  0.00     0.202 C 
BRANCH   4   5
ATOM      5  C   UNL A   1      34.674  25.555  24.821  1.00  0.00     0.261 C 
BRANCH   5   6
ATOM      6  O   UNL A   1      33.845  26.016  23.747  1.00  0.00    -0.460 OA
BRANCH   6   7
ATOM      7  C   UNL A   1      33.487  27.321  23.803  1.00  0.00     0.342 C 
ATOM      8  O   UNL A   1      34.277  28.259  23.724  1.00  0.00    -0.246 OA
BRANCH   7   9
ATOM      9  C   UNL A   1      32.056  27.526  23.733  1.00  0.00     0.111 A 
ATOM     10  C   UNL A   1      28.708  26.534  23.791  1.00  0.00     0.174 C 
ATOM     11  N   UNL A   1      29.908  27.298  23.548  1.00  0.00    -0.262 N 
ATOM     12  N   UNL A   1      30.050  28.397  24.327  1.00  0.00    -0.180 NA
ATOM     13  C   UNL A   1      31.083  26.892  22.943  1.00  0.00     0.140 A 
ATOM     14  C   UNL A   1      31.360  28.462  24.519  1.00  0.00     0.151 A 
BRANCH  13  15
ATOM     15  C   UNL A   1      31.338  25.879  21.933  1.00  0.00     0.277 C 
ATOM     16  O   UNL A   1      31.399  26.200  20.741  1.00  0.00    -0.267 OA
ATOM     17  N   UNL A   1      31.639  24.570  22.156  1.00  0.00    -0.289 N 
ATOM     18  H   UNL A   1      31.950  24.125  21.335  1.00  0.00     0.173 HD
BRANCH  17  19
ATOM     19  C   UNL A   1      31.623  23.706  23.224  1.00  0.00     0.230 A 
ATOM     20  N   UNL A   1      31.012  24.234  24.296  1.00  0.00    -0.221 NA
ATOM     21  N   UNL A   1      32.075  22.452  23.162  1.00  0.00    -0.213 NA
ATOM     22  C   UNL A   1      30.762  23.419  25.330  1.00  0.00     0.117 A 
ATOM     23  C   UNL A   1      31.860  21.673  24.254  1.00  0.00     0.076 A 
ATOM     24  C   UNL A   1      31.157  22.110  25.360  1.00  0.00     0.049 A 
BRANCH  23  25
ATOM     25  C   UNL A   1      32.353  20.296  24.171  1.00  0.00     0.001 A 
ATOM     26  C   UNL A   1      32.962  19.681  25.273  1.00  0.00     0.014 A 
ATOM     27  C   UNL A   1      32.227  19.553  22.986  1.00  0.00     0.014 A 
ATOM     28  C   UNL A   1      33.444  18.372  25.182  1.00  0.00     0.047 A 
ATOM     29  C   UNL A   1      32.728  18.250  22.890  1.00  0.00     0.047 A 
ATOM     30  C   UNL A   1      33.349  17.654  23.986  1.00  0.00     0.126 A 
BRANCH  30  31
ATOM     31  O   UNL A   1      33.892  16.403  24.024  1.00  0.00    -0.435 OA
BRANCH  31  32
ATOM     32  C   UNL A   1      34.082  15.792  25.293  1.00  0.00     0.542 C 
ATOM     33  F   UNL A   1      33.001  15.038  25.611  1.00  0.00    -0.167 F 
ATOM     34  F   UNL A   1      35.169  14.985  25.273  1.00  0.00    -0.167 F 
ENDBRANCH  31  32
ENDBRANCH  30  31
ENDBRANCH  23  25
ENDBRANCH  17  19
ENDBRANCH  13  15
ENDBRANCH   7   9
ENDBRANCH   6   7
ENDBRANCH   5   6
ENDBRANCH   4   5
ENDBRANCH   3   4
ENDBRANCH   2   3
ENDBRANCH   1   2
BRANCH   1  35
ATOM     35  O   UNL A   1      36.558  20.777  25.321  1.00  0.00    -0.377 OA
BRANCH  35  36
ATOM     36  C   UNL A   1      37.701  21.358  24.721  1.00  0.00     0.188 C 
BRANCH  36  37
ATOM     37  C   UNL A   1      38.865  21.566  25.703  1.00  0.00     0.188 C 
BRANCH  37  38
ATOM     38  O   UNL A   1      38.751  22.776  26.457  1.00  0.00    -0.376 OA
BRANCH  38  39
ATOM     39  C   UNL A   1      39.979  23.442  26.735  1.00  0.00     0.202 C 
BRANCH  39  40
ATOM     40  C   UNL A   1      40.029  24.931  26.356  1.00  0.00     0.261 C 
BRANCH  40  41
ATOM     41  O   UNL A   1      41.038  25.706  27.025  1.00  0.00    -0.460 OA
BRANCH  41  42
ATOM     42  C   UNL A   1      41.117  27.022  26.734  1.00  0.00     0.338 C 
ATOM     43  O   UNL A   1      41.208  27.534  25.634  1.00  0.00    -0.246 OA
BRANCH  42  44
ATOM     44  C   UNL A   1      40.891  27.766  27.989  1.00  0.00     0.060 A 
ATOM     45  C   UNL A   1      41.476  29.030  28.140  1.00  0.00     0.016 A 
ATOM     46  C   UNL A   1      40.097  27.222  29.001  1.00  0.00     0.016 A 
ATOM     47  C   UNL A   1      41.291  29.742  29.324  1.00  0.00     0.010 A 
ATOM     48  C   UNL A   1      39.931  27.925  30.194  1.00  0.00     0.010 A 
ATOM     49  C   UNL A   1      40.552  29.174  30.371  1.00  0.00    -0.014 A 
BRANCH  49  50
ATOM     50  C   UNL A   1      40.596  29.782  31.721  1.00  0.00     0.031 A 
ATOM     51  C   UNL A   1      39.508  30.751  32.096  1.00  0.00     0.074 A 
ATOM     52  C   UNL A   1      41.577  29.490  32.593  1.00  0.00     0.049 A 
ATOM     53  N   UNL A   1      39.347  31.428  33.202  1.00  0.00    -0.248 NA
ATOM     54  C   UNL A   1      38.464  30.988  31.083  1.00  0.00     0.031 C 
ATOM     55  C   UNL A   1      42.670  28.548  32.358  1.00  0.00     0.029 A 
ATOM     56  N   UNL A   1      41.811  29.971  33.857  1.00  0.00    -0.354 N 
ATOM     57  C   UNL A   1      38.183  32.166  33.023  1.00  0.00     0.074 A 
ATOM     58  C   UNL A   1      37.694  31.878  31.693  1.00  0.00     0.031 C 
ATOM     59  C   UNL A   1      43.468  28.529  33.442  1.00  0.00     0.029 A 
ATOM     60  C   UNL A   1      42.955  29.473  34.434  1.00  0.00     0.049 A 
ATOM     61  H   UNL A   1      41.216  30.613  34.308  1.00  0.00     0.167 HD
ATOM     62  C   UNL A   1      37.573  33.009  33.888  1.00  0.00     0.031 A 
ATOM     63  C   UNL A   1      43.528  29.762  35.619  1.00  0.00     0.031 A 
ATOM     64  C   UNL A   1      38.073  33.323  35.197  1.00  0.00     0.049 A 
ATOM     65  C   UNL A   1      42.870  30.763  36.536  1.00  0.00     0.074 A 
ATOM     66  C   UNL A   1      37.524  34.162  36.150  1.00  0.00     0.029 A 
ATOM     67  N   UNL A   1      39.250  32.823  35.731  1.00  0.00    -0.354 N 
ATOM     68  N   UNL A   1      41.750  31.426  36.366  1.00  0.00    -0.248 NA
ATOM     69  C   UNL A   1      43.555  31.053  37.804  1.00  0.00     0.031 C 
ATOM     70  C   UNL A   1      38.394  34.205  37.245  1.00  0.00     0.029 A 
ATOM     71  C   UNL A   1      39.458  33.354  36.991  1.00  0.00     0.049 A 
ATOM     72  H   UNL A   1      39.848  32.184  35.280  1.00  0.00     0.167 HD
ATOM     73  C   UNL A   1      41.585  32.191  37.517  1.00  0.00     0.074 A 
ATOM     74  C   UNL A   1      42.714  31.903  38.377  1.00  0.00     0.031 C 
ATOM     75  C   UNL A   1      40.588  33.055  37.833  1.00  0.00     0.031 A 
BRANCH  62  76
ATOM     76  C   UNL A   1      36.306  33.669  33.422  1.00  0.00    -0.014 A 
ATOM     77  C   UNL A   1      35.052  33.089  33.681  1.00  0.00     0.010 A 
ATOM     78  C   UNL A   1      36.369  34.891  32.730  1.00  0.00     0.010 A 
ATOM     79  C   UNL A   1      33.882  33.702  33.224  1.00  0.00     0.020 A 
ATOM     80  C   UNL A   1      35.201  35.519  32.291  1.00  0.00     0.020 A 
ATOM     81  C   UNL A   1      33.966  34.912  32.527  1.00  0.00     0.054 A 
BRANCH  81  82
ATOM     82  S   UNL A   1      32.433  35.697  31.958  1.00  0.00     0.124 S 
ATOM     83  O   UNL A   1      32.485  35.451  30.519  1.00  0.00    -0.237 OA
ATOM     84  O   UNL A   1      31.403  34.958  32.685  1.00  0.00    -0.237 OA
ATOM     85  O   UNL A   1      32.591  37.094  32.357  1.00  0.00    -0.744 OA
ENDBRANCH  81  82
ENDBRANCH  62  76
BRANCH  63  86
ATOM     86  C   UNL A   1      44.808  29.112  36.008  1.00  0.00    -0.014 A 
ATOM     87  C   UNL A   1      44.811  27.902  36.724  1.00  0.00     0.010 A 
ATOM     88  C   UNL A   1      46.037  29.714  35.680  1.00  0.00     0.010 A 
ATOM     89  C   UNL A   1      46.018  27.316  37.121  1.00  0.00     0.020 A 
ATOM     90  C   UNL A   1      47.245  29.120  36.054  1.00  0.00     0.020 A 
ATOM     91  C   UNL A   1      47.228  27.930  36.785  1.00  0.00     0.054 A 
BRANCH  91  92
ATOM     92  S   UNL A   1      48.783  27.135  37.276  1.00  0.00     0.124 S 
ATOM     93  O   UNL A   1      49.570  27.227  36.050  1.00  0.00    -0.237 OA
ATOM     94  O   UNL A   1      49.235  27.976  38.382  1.00  0.00    -0.237 OA
ATOM     95  O   UNL A   1      48.371  25.786  37.657  1.00  0.00    -0.744 OA
ENDBRANCH  91  92
ENDBRANCH  63  86
BRANCH  75  96
ATOM     96  C   UNL A   1      40.653  33.731  39.176  1.00  0.00    -0.014 A 
ATOM     97  C   UNL A   1      41.103  35.058  39.300  1.00  0.00     0.010 A 
ATOM     98  C   UNL A   1      40.192  33.053  40.318  1.00  0.00     0.010 A 
ATOM     99  C   UNL A   1      41.111  35.686  40.549  1.00  0.00     0.020 A 
ATOM    100  C   UNL A   1      40.179  33.685  41.564  1.00  0.00     0.020 A 
ATOM    101  C   UNL A   1      40.650  34.995  41.674  1.00  0.00     0.054 A 
BRANCH 101 102
ATOM    102  S   UNL A   1      40.621  35.847  43.275  1.00  0.00     0.124 S 
ATOM    103  O   UNL A   1      39.555  36.825  43.078  1.00  0.00    -0.237 OA
ATOM    104  O   UNL A   1      40.317  34.766  44.210  1.00  0.00    -0.237 OA
ATOM    105  O   UNL A   1      41.966  36.405  43.395  1.00  0.00    -0.744 OA
ENDBRANCH 101 102
ENDBRANCH  75  96
ENDBRANCH  49  50
ENDBRANCH  42  44
ENDBRANCH  41  42
ENDBRANCH  40  41
ENDBRANCH  39  40
ENDBRANCH  38  39
ENDBRANCH  37  38
ENDBRANCH  36  37
ENDBRANCH  35  36
ENDBRANCH   1  35
TORSDOF 28
ENDMDL
