MODEL 1
REMARK VINA RESULT:      -6.7      0.000      0.000
REMARK SMILES C[C@@H]1[C@H](C(=O)OCCOCCOCCOCCOC(=O)c2ccc(-c3c4nc(c(-c5ccc(S(=O)(=O)[O-])cc5)c5ccc([nH]5)c(-c5ccc(S(=O)(=O)[O-])cc5)c5nc(c(-c6ccc(S(=O)(=O)[O-])cc6)c6ccc3[nH]6)C=C5)C=C4)cc2)CC[N@@H+]1CCOc1c(Cl)cccc1Cl
REMARK SMILES IDX 11 1 10 2 9 3 8 4 7 5 6 6 4 7 5 8 3 9 1 10 2 11 83 12 81 13
REMARK SMILES IDX 82 14 84 16 85 17 86 18 87 19 88 20 93 21 89 22 90 23 92 24
REMARK SMILES IDX 94 25 91 26 12 27 13 28 14 29 15 30 16 31 17 32 18 33 19 34
REMARK SMILES IDX 20 35 21 36 22 37 80 38 23 39 79 40 24 41 25 42 26 43 73 44
REMARK SMILES IDX 27 45 78 46 72 47 74 48 28 49 77 50 71 51 70 52 29 54 59 55
REMARK SMILES IDX 40 56 58 57 41 58 44 59 57 60 75 61 42 62 43 63 56 65 76 66
REMARK SMILES IDX 45 67 30 68 31 69 39 70 32 71 38 72 33 73 34 74 35 75 36 76
REMARK SMILES IDX 37 77 60 78 61 79 69 80 62 81 68 82 63 83 64 84 65 85 66 86
REMARK SMILES IDX 67 87 46 88 47 89 55 90 48 91 54 92 49 93 50 94 51 95 52 96
REMARK SMILES IDX 53 97
REMARK H PARENT 83 15 74 53 44 64
REMARK Flexibility Score: inf
ROOT
ATOM      1  C   UNL A   1      45.848  19.214  24.796  1.00  0.00     0.188 C 
ENDROOT
BRANCH   1   2
ATOM      2  C   UNL A   1      44.502  19.252  24.051  1.00  0.00     0.188 C 
BRANCH   2   3
ATOM      3  O   UNL A   1      43.395  18.998  24.890  1.00  0.00    -0.376 OA
BRANCH   3   4
ATOM      4  C   UNL A   1      43.023  19.935  25.892  1.00  0.00     0.202 C 
BRANCH   4   5
ATOM      5  C   UNL A   1      41.555  20.250  26.251  1.00  0.00     0.261 C 
BRANCH   5   6
ATOM      6  O   UNL A   1      41.068  21.524  25.810  1.00  0.00    -0.463 OA
BRANCH   6   7
ATOM      7  C   UNL A   1      41.726  22.606  26.293  1.00  0.00     0.315 C 
ATOM      8  O   UNL A   1      42.751  23.060  25.787  1.00  0.00    -0.252 OA
BRANCH   7   9
ATOM      9  C   UNL A   1      40.949  23.365  27.354  1.00  0.00     0.162 C 
ATOM     10  C   UNL A   1      43.113  24.475  28.385  1.00  0.00     0.076 C 
ATOM     11  C   UNL A   1      41.600  24.289  28.405  1.00  0.00     0.195 C 
ATOM     12  N   UNL A   1      40.756  25.518  28.453  1.00  0.00    -0.329 N 
ATOM     13  C   UNL A   1      39.935  24.259  26.679  1.00  0.00     0.083 C 
ATOM     14  C   UNL A   1      39.511  25.212  27.760  1.00  0.00     0.263 C 
ATOM     15  H   UNL A   1      40.626  25.707  29.447  1.00  0.00     0.348 HD
BRANCH  12  16
ATOM     16  C   UNL A   1      41.326  26.834  28.106  1.00  0.00     0.304 C 
BRANCH  16  17
ATOM     17  C   UNL A   1      41.566  27.919  29.188  1.00  0.00     0.291 C 
BRANCH  17  18
ATOM     18  O   UNL A   1      40.656  29.040  29.135  1.00  0.00    -0.485 OA
BRANCH  18  19
ATOM     19  C   UNL A   1      40.099  29.412  30.337  1.00  0.00     0.156 A 
ATOM     20  C   UNL A   1      39.273  28.595  31.131  1.00  0.00     0.084 A 
ATOM     21  C   UNL A   1      40.464  30.674  30.840  1.00  0.00     0.084 A 
ATOM     22  Cl  UNL A   1      38.532  27.148  30.544  1.00  0.00    -0.080 Cl
ATOM     23  C   UNL A   1      39.026  28.935  32.469  1.00  0.00     0.024 A 
ATOM     24  C   UNL A   1      40.212  31.011  32.175  1.00  0.00     0.024 A 
ATOM     25  Cl  UNL A   1      41.312  31.827  29.868  1.00  0.00    -0.080 Cl
ATOM     26  C   UNL A   1      39.533  30.120  33.003  1.00  0.00     0.003 A 
ENDBRANCH  18  19
ENDBRANCH  17  18
ENDBRANCH  16  17
ENDBRANCH  12  16
ENDBRANCH   7   9
ENDBRANCH   6   7
ENDBRANCH   5   6
ENDBRANCH   4   5
ENDBRANCH   3   4
ENDBRANCH   2   3
ENDBRANCH   1   2
BRANCH   1  27
ATOM     27  O   UNL A   1      46.590  20.417  24.940  1.00  0.00    -0.377 OA
BRANCH  27  28
ATOM     28  C   UNL A   1      45.953  21.563  25.505  1.00  0.00     0.188 C 
BRANCH  28  29
ATOM     29  C   UNL A   1      46.381  22.969  25.035  1.00  0.00     0.188 C 
BRANCH  29  30
ATOM     30  O   UNL A   1      46.406  23.960  26.047  1.00  0.00    -0.376 OA
BRANCH  30  31
ATOM     31  C   UNL A   1      45.666  25.153  25.827  1.00  0.00     0.202 C 
BRANCH  31  32
ATOM     32  C   UNL A   1      46.425  26.459  25.530  1.00  0.00     0.261 C 
BRANCH  32  33
ATOM     33  O   UNL A   1      45.887  27.670  26.089  1.00  0.00    -0.460 OA
BRANCH  33  34
ATOM     34  C   UNL A   1      46.330  28.850  25.603  1.00  0.00     0.338 C 
ATOM     35  O   UNL A   1      46.796  29.067  24.503  1.00  0.00    -0.246 OA
BRANCH  34  36
ATOM     36  C   UNL A   1      45.980  29.898  26.583  1.00  0.00     0.060 A 
ATOM     37  C   UNL A   1      46.959  30.347  27.480  1.00  0.00     0.016 A 
ATOM     38  C   UNL A   1      44.683  30.409  26.636  1.00  0.00     0.016 A 
ATOM     39  C   UNL A   1      46.629  31.279  28.465  1.00  0.00     0.010 A 
ATOM     40  C   UNL A   1      44.347  31.323  27.638  1.00  0.00     0.010 A 
ATOM     41  C   UNL A   1      45.309  31.729  28.582  1.00  0.00    -0.014 A 
BRANCH  41  42
ATOM     42  C   UNL A   1      44.888  32.439  29.814  1.00  0.00     0.031 A 
ATOM     43  C   UNL A   1      44.468  31.612  31.000  1.00  0.00     0.074 A 
ATOM     44  C   UNL A   1      44.907  33.781  29.896  1.00  0.00     0.049 A 
ATOM     45  N   UNL A   1      44.028  32.000  32.169  1.00  0.00    -0.248 NA
ATOM     46  C   UNL A   1      44.558  30.150  30.847  1.00  0.00     0.031 C 
ATOM     47  C   UNL A   1      45.348  34.689  28.838  1.00  0.00     0.029 A 
ATOM     48  N   UNL A   1      44.540  34.614  30.924  1.00  0.00    -0.354 N 
ATOM     49  C   UNL A   1      43.778  30.834  32.883  1.00  0.00     0.074 A 
ATOM     50  C   UNL A   1      44.087  29.724  32.009  1.00  0.00     0.031 C 
ATOM     51  C   UNL A   1      45.217  35.956  29.271  1.00  0.00     0.029 A 
ATOM     52  C   UNL A   1      44.648  35.949  30.618  1.00  0.00     0.049 A 
ATOM     53  H   UNL A   1      44.228  34.285  31.798  1.00  0.00     0.167 HD
ATOM     54  C   UNL A   1      43.334  30.697  34.155  1.00  0.00     0.031 A 
ATOM     55  C   UNL A   1      44.305  37.039  31.335  1.00  0.00     0.031 A 
ATOM     56  C   UNL A   1      43.011  31.804  35.016  1.00  0.00     0.049 A 
ATOM     57  C   UNL A   1      43.728  36.861  32.718  1.00  0.00     0.074 A 
ATOM     58  C   UNL A   1      42.562  31.771  36.324  1.00  0.00     0.029 A 
ATOM     59  N   UNL A   1      43.091  33.139  34.654  1.00  0.00    -0.354 N 
ATOM     60  N   UNL A   1      43.516  35.753  33.389  1.00  0.00    -0.248 NA
ATOM     61  C   UNL A   1      43.352  38.083  33.443  1.00  0.00     0.031 C 
ATOM     62  C   UNL A   1      42.305  33.084  36.729  1.00  0.00     0.029 A 
ATOM     63  C   UNL A   1      42.669  33.939  35.701  1.00  0.00     0.049 A 
ATOM     64  H   UNL A   1      43.402  33.470  33.779  1.00  0.00     0.167 HD
ATOM     65  C   UNL A   1      43.014  36.147  34.626  1.00  0.00     0.074 A 
ATOM     66  C   UNL A   1      42.968  37.595  34.615  1.00  0.00     0.031 C 
ATOM     67  C   UNL A   1      42.631  35.380  35.678  1.00  0.00     0.031 A 
BRANCH  54  68
ATOM     68  C   UNL A   1      43.131  29.298  34.677  1.00  0.00    -0.014 A 
ATOM     69  C   UNL A   1      44.221  28.483  35.033  1.00  0.00     0.010 A 
ATOM     70  C   UNL A   1      41.825  28.804  34.847  1.00  0.00     0.010 A 
ATOM     71  C   UNL A   1      44.008  27.188  35.516  1.00  0.00     0.020 A 
ATOM     72  C   UNL A   1      41.607  27.522  35.358  1.00  0.00     0.020 A 
ATOM     73  C   UNL A   1      42.701  26.717  35.674  1.00  0.00     0.054 A 
BRANCH  73  74
ATOM     74  S   UNL A   1      42.455  25.043  36.329  1.00  0.00     0.124 S 
ATOM     75  O   UNL A   1      43.792  24.469  36.199  1.00  0.00    -0.237 OA
ATOM     76  O   UNL A   1      42.013  25.298  37.697  1.00  0.00    -0.237 OA
ATOM     77  O   UNL A   1      41.443  24.469  35.447  1.00  0.00    -0.744 OA
ENDBRANCH  73  74
ENDBRANCH  54  68
BRANCH  55  78
ATOM     78  C   UNL A   1      44.473  38.400  30.752  1.00  0.00    -0.014 A 
ATOM     79  C   UNL A   1      43.405  39.045  30.105  1.00  0.00     0.010 A 
ATOM     80  C   UNL A   1      45.717  39.056  30.831  1.00  0.00     0.010 A 
ATOM     81  C   UNL A   1      43.580  40.310  29.534  1.00  0.00     0.020 A 
ATOM     82  C   UNL A   1      45.887  40.334  30.291  1.00  0.00     0.020 A 
ATOM     83  C   UNL A   1      44.820  40.949  29.636  1.00  0.00     0.054 A 
BRANCH  83  84
ATOM     84  S   UNL A   1      45.006  42.610  28.931  1.00  0.00     0.124 S 
ATOM     85  O   UNL A   1      46.454  42.789  28.950  1.00  0.00    -0.237 OA
ATOM     86  O   UNL A   1      44.404  42.458  27.609  1.00  0.00    -0.237 OA
ATOM     87  O   UNL A   1      44.258  43.459  29.855  1.00  0.00    -0.744 OA
ENDBRANCH  83  84
ENDBRANCH  55  78
BRANCH  67  88
ATOM     88  C   UNL A   1      42.168  36.087  36.928  1.00  0.00    -0.014 A 
ATOM     89  C   UNL A   1      40.802  36.286  37.199  1.00  0.00     0.010 A 
ATOM     90  C   UNL A   1      43.121  36.505  37.877  1.00  0.00     0.010 A 
ATOM     91  C   UNL A   1      40.402  36.920  38.379  1.00  0.00     0.020 A 
ATOM     92  C   UNL A   1      42.723  37.108  39.072  1.00  0.00     0.020 A 
ATOM     93  C   UNL A   1      41.365  37.325  39.309  1.00  0.00     0.054 A 
BRANCH  93  94
ATOM     94  S   UNL A   1      40.815  38.108  40.850  1.00  0.00     0.124 S 
ATOM     95  O   UNL A   1      41.458  37.275  41.862  1.00  0.00    -0.237 OA
ATOM     96  O   UNL A   1      41.343  39.465  40.724  1.00  0.00    -0.237 OA
ATOM     97  O   UNL A   1      39.359  38.006  40.792  1.00  0.00    -0.744 OA
ENDBRANCH  93  94
ENDBRANCH  67  88
ENDBRANCH  41  42
ENDBRANCH  34  36
ENDBRANCH  33  34
ENDBRANCH  32  33
ENDBRANCH  31  32
ENDBRANCH  30  31
ENDBRANCH  29  30
ENDBRANCH  28  29
ENDBRANCH  27  28
ENDBRANCH   1  27
TORSDOF 27
ENDMDL
MODEL 2
REMARK VINA RESULT:      -6.7      2.962      4.043
REMARK SMILES C[C@@H]1[C@H](C(=O)OCCOCCOCCOCCOC(=O)c2ccc(-c3c4nc(c(-c5ccc(S(=O)(=O)[O-])cc5)c5ccc([nH]5)c(-c5ccc(S(=O)(=O)[O-])cc5)c5nc(c(-c6ccc(S(=O)(=O)[O-])cc6)c6ccc3[nH]6)C=C5)C=C4)cc2)CC[N@@H+]1CCOc1c(Cl)cccc1Cl
REMARK SMILES IDX 11 1 10 2 9 3 8 4 7 5 6 6 4 7 5 8 3 9 1 10 2 11 83 12 81 13
REMARK SMILES IDX 82 14 84 16 85 17 86 18 87 19 88 20 93 21 89 22 90 23 92 24
REMARK SMILES IDX 94 25 91 26 12 27 13 28 14 29 15 30 16 31 17 32 18 33 19 34
REMARK SMILES IDX 20 35 21 36 22 37 80 38 23 39 79 40 24 41 25 42 26 43 73 44
REMARK SMILES IDX 27 45 78 46 72 47 74 48 28 49 77 50 71 51 70 52 29 54 59 55
REMARK SMILES IDX 40 56 58 57 41 58 44 59 57 60 75 61 42 62 43 63 56 65 76 66
REMARK SMILES IDX 45 67 30 68 31 69 39 70 32 71 38 72 33 73 34 74 35 75 36 76
REMARK SMILES IDX 37 77 60 78 61 79 69 80 62 81 68 82 63 83 64 84 65 85 66 86
REMARK SMILES IDX 67 87 46 88 47 89 55 90 48 91 54 92 49 93 50 94 51 95 52 96
REMARK SMILES IDX 53 97
REMARK H PARENT 83 15 74 53 44 64
REMARK Flexibility Score: inf
ROOT
ATOM      1  C   UNL A   1      45.935  19.468  24.999  1.00  0.00     0.188 C 
ENDROOT
BRANCH   1   2
ATOM      2  C   UNL A   1      44.509  19.285  24.451  1.00  0.00     0.188 C 
BRANCH   2   3
ATOM      3  O   UNL A   1      43.569  18.950  25.448  1.00  0.00    -0.376 OA
BRANCH   3   4
ATOM      4  C   UNL A   1      42.761  19.958  26.042  1.00  0.00     0.202 C 
BRANCH   4   5
ATOM      5  C   UNL A   1      41.390  19.671  26.690  1.00  0.00     0.261 C 
BRANCH   5   6
ATOM      6  O   UNL A   1      40.246  19.975  25.882  1.00  0.00    -0.463 OA
BRANCH   6   7
ATOM      7  C   UNL A   1      39.730  21.218  26.035  1.00  0.00     0.315 C 
ATOM      8  O   UNL A   1      40.400  22.246  25.956  1.00  0.00    -0.252 OA
BRANCH   7   9
ATOM      9  C   UNL A   1      38.212  21.247  26.055  1.00  0.00     0.162 C 
ATOM     10  C   UNL A   1      38.094  23.885  25.992  1.00  0.00     0.076 C 
ATOM     11  C   UNL A   1      37.373  22.543  26.043  1.00  0.00     0.195 C 
ATOM     12  N   UNL A   1      36.276  22.314  25.058  1.00  0.00    -0.329 N 
ATOM     13  C   UNL A   1      37.687  20.476  24.867  1.00  0.00     0.083 C 
ATOM     14  C   UNL A   1      36.244  20.885  24.774  1.00  0.00     0.263 C 
ATOM     15  H   UNL A   1      35.432  22.648  25.524  1.00  0.00     0.348 HD
BRANCH  12  16
ATOM     16  C   UNL A   1      36.152  23.165  23.859  1.00  0.00     0.304 C 
BRANCH  16  17
ATOM     17  C   UNL A   1      34.824  23.889  23.519  1.00  0.00     0.291 C 
BRANCH  17  18
ATOM     18  O   UNL A   1      34.612  25.131  24.226  1.00  0.00    -0.485 OA
BRANCH  18  19
ATOM     19  C   UNL A   1      33.298  25.491  24.416  1.00  0.00     0.156 A 
ATOM     20  C   UNL A   1      32.590  26.408  23.618  1.00  0.00     0.084 A 
ATOM     21  C   UNL A   1      32.597  24.818  25.434  1.00  0.00     0.084 A 
ATOM     22  Cl  UNL A   1      33.361  27.494  22.517  1.00  0.00    -0.080 Cl
ATOM     23  C   UNL A   1      31.190  26.463  23.685  1.00  0.00     0.024 A 
ATOM     24  C   UNL A   1      31.200  24.878  25.499  1.00  0.00     0.024 A 
ATOM     25  Cl  UNL A   1      33.413  23.820  26.588  1.00  0.00    -0.080 Cl
ATOM     26  C   UNL A   1      30.493  25.666  24.593  1.00  0.00     0.003 A 
ENDBRANCH  18  19
ENDBRANCH  17  18
ENDBRANCH  16  17
ENDBRANCH  12  16
ENDBRANCH   7   9
ENDBRANCH   6   7
ENDBRANCH   5   6
ENDBRANCH   4   5
ENDBRANCH   3   4
ENDBRANCH   2   3
ENDBRANCH   1   2
BRANCH   1  27
ATOM     27  O   UNL A   1      46.491  20.774  25.055  1.00  0.00    -0.377 OA
BRANCH  27  28
ATOM     28  C   UNL A   1      45.740  21.823  25.670  1.00  0.00     0.188 C 
BRANCH  28  29
ATOM     29  C   UNL A   1      45.884  23.262  25.136  1.00  0.00     0.188 C 
BRANCH  29  30
ATOM     30  O   UNL A   1      45.878  24.275  26.126  1.00  0.00    -0.376 OA
BRANCH  30  31
ATOM     31  C   UNL A   1      45.142  25.462  25.859  1.00  0.00     0.202 C 
BRANCH  31  32
ATOM     32  C   UNL A   1      45.905  26.740  25.467  1.00  0.00     0.261 C 
BRANCH  32  33
ATOM     33  O   UNL A   1      45.434  27.979  26.027  1.00  0.00    -0.460 OA
BRANCH  33  34
ATOM     34  C   UNL A   1      46.063  29.121  25.670  1.00  0.00     0.338 C 
ATOM     35  O   UNL A   1      46.687  29.332  24.651  1.00  0.00    -0.246 OA
BRANCH  34  36
ATOM     36  C   UNL A   1      45.710  30.156  26.664  1.00  0.00     0.060 A 
ATOM     37  C   UNL A   1      46.692  30.612  27.553  1.00  0.00     0.016 A 
ATOM     38  C   UNL A   1      44.406  30.648  26.734  1.00  0.00     0.016 A 
ATOM     39  C   UNL A   1      46.359  31.531  28.549  1.00  0.00     0.010 A 
ATOM     40  C   UNL A   1      44.068  31.548  27.748  1.00  0.00     0.010 A 
ATOM     41  C   UNL A   1      45.034  31.960  28.684  1.00  0.00    -0.014 A 
BRANCH  41  42
ATOM     42  C   UNL A   1      44.617  32.654  29.927  1.00  0.00     0.031 A 
ATOM     43  C   UNL A   1      44.148  31.813  31.085  1.00  0.00     0.074 A 
ATOM     44  C   UNL A   1      44.681  33.992  30.043  1.00  0.00     0.049 A 
ATOM     45  N   UNL A   1      43.702  32.187  32.256  1.00  0.00    -0.248 NA
ATOM     46  C   UNL A   1      44.191  30.353  30.897  1.00  0.00     0.031 C 
ATOM     47  C   UNL A   1      45.170  34.910  29.016  1.00  0.00     0.029 A 
ATOM     48  N   UNL A   1      44.325  34.811  31.086  1.00  0.00    -0.354 N 
ATOM     49  C   UNL A   1      43.400  31.014  32.936  1.00  0.00     0.074 A 
ATOM     50  C   UNL A   1      43.686  29.916  32.039  1.00  0.00     0.031 C 
ATOM     51  C   UNL A   1      45.076  36.170  29.478  1.00  0.00     0.029 A 
ATOM     52  C   UNL A   1      44.483  36.149  30.815  1.00  0.00     0.049 A 
ATOM     53  H   UNL A   1      43.986  34.472  31.946  1.00  0.00     0.167 HD
ATOM     54  C   UNL A   1      42.930  30.861  34.197  1.00  0.00     0.031 A 
ATOM     55  C   UNL A   1      44.165  37.233  31.553  1.00  0.00     0.031 A 
ATOM     56  C   UNL A   1      42.630  31.956  35.080  1.00  0.00     0.049 A 
ATOM     57  C   UNL A   1      43.559  37.041  32.922  1.00  0.00     0.074 A 
ATOM     58  C   UNL A   1      42.158  31.908  36.380  1.00  0.00     0.029 A 
ATOM     59  N   UNL A   1      42.762  33.297  34.753  1.00  0.00    -0.354 N 
ATOM     60  N   UNL A   1      43.298  35.924  33.561  1.00  0.00    -0.248 NA
ATOM     61  C   UNL A   1      43.213  38.257  33.671  1.00  0.00     0.031 C 
ATOM     62  C   UNL A   1      41.940  33.218  36.813  1.00  0.00     0.029 A 
ATOM     63  C   UNL A   1      42.350  34.085  35.813  1.00  0.00     0.049 A 
ATOM     64  H   UNL A   1      43.099  33.638  33.892  1.00  0.00     0.167 HD
ATOM     65  C   UNL A   1      42.789  36.306  34.799  1.00  0.00     0.074 A 
ATOM     66  C   UNL A   1      42.792  37.754  34.824  1.00  0.00     0.031 C 
ATOM     67  C   UNL A   1      42.361  35.527  35.826  1.00  0.00     0.031 A 
BRANCH  54  68
ATOM     68  C   UNL A   1      42.671  29.457  34.680  1.00  0.00    -0.014 A 
ATOM     69  C   UNL A   1      41.477  28.783  34.367  1.00  0.00     0.010 A 
ATOM     70  C   UNL A   1      43.655  28.790  35.432  1.00  0.00     0.010 A 
ATOM     71  C   UNL A   1      41.258  27.480  34.826  1.00  0.00     0.020 A 
ATOM     72  C   UNL A   1      43.454  27.477  35.866  1.00  0.00     0.020 A 
ATOM     73  C   UNL A   1      42.250  26.837  35.573  1.00  0.00     0.054 A 
BRANCH  73  74
ATOM     74  S   UNL A   1      41.950  25.137  36.131  1.00  0.00     0.124 S 
ATOM     75  O   UNL A   1      42.867  25.025  37.263  1.00  0.00    -0.237 OA
ATOM     76  O   UNL A   1      40.531  25.159  36.474  1.00  0.00    -0.237 OA
ATOM     77  O   UNL A   1      42.295  24.323  34.969  1.00  0.00    -0.744 OA
ENDBRANCH  73  74
ENDBRANCH  54  68
BRANCH  55  78
ATOM     78  C   UNL A   1      44.391  38.601  31.008  1.00  0.00    -0.014 A 
ATOM     79  C   UNL A   1      45.592  39.288  31.257  1.00  0.00     0.010 A 
ATOM     80  C   UNL A   1      43.392  39.232  30.243  1.00  0.00     0.010 A 
ATOM     81  C   UNL A   1      45.784  40.584  30.767  1.00  0.00     0.020 A 
ATOM     82  C   UNL A   1      43.592  40.514  29.723  1.00  0.00     0.020 A 
ATOM     83  C   UNL A   1      44.783  41.187  29.998  1.00  0.00     0.054 A 
BRANCH  83  84
ATOM     84  S   UNL A   1      45.077  42.849  29.332  1.00  0.00     0.124 S 
ATOM     85  O   UNL A   1      44.793  42.663  27.913  1.00  0.00    -0.237 OA
ATOM     86  O   UNL A   1      44.111  43.657  30.071  1.00  0.00    -0.237 OA
ATOM     87  O   UNL A   1      46.477  43.107  29.662  1.00  0.00    -0.744 OA
ENDBRANCH  83  84
ENDBRANCH  55  78
BRANCH  67  88
ATOM     88  C   UNL A   1      41.901  36.219  37.085  1.00  0.00    -0.014 A 
ATOM     89  C   UNL A   1      40.537  36.372  37.385  1.00  0.00     0.010 A 
ATOM     90  C   UNL A   1      42.860  36.668  38.014  1.00  0.00     0.010 A 
ATOM     91  C   UNL A   1      40.140  36.993  38.574  1.00  0.00     0.020 A 
ATOM     92  C   UNL A   1      42.468  37.258  39.217  1.00  0.00     0.020 A 
ATOM     93  C   UNL A   1      41.109  37.430  39.483  1.00  0.00     0.054 A 
BRANCH  93  94
ATOM     94  S   UNL A   1      40.566  38.195  41.035  1.00  0.00     0.124 S 
ATOM     95  O   UNL A   1      40.709  37.095  41.984  1.00  0.00    -0.237 OA
ATOM     96  O   UNL A   1      41.515  39.294  41.198  1.00  0.00    -0.237 OA
ATOM     97  O   UNL A   1      39.190  38.604  40.760  1.00  0.00    -0.744 OA
ENDBRANCH  93  94
ENDBRANCH  67  88
ENDBRANCH  41  42
ENDBRANCH  34  36
ENDBRANCH  33  34
ENDBRANCH  32  33
ENDBRANCH  31  32
ENDBRANCH  30  31
ENDBRANCH  29  30
ENDBRANCH  28  29
ENDBRANCH  27  28
ENDBRANCH   1  27
TORSDOF 27
ENDMDL
MODEL 3
REMARK VINA RESULT:      -6.5      6.682     11.821
REMARK SMILES C[C@@H]1[C@H](C(=O)OCCOCCOCCOCCOC(=O)c2ccc(-c3c4nc(c(-c5ccc(S(=O)(=O)[O-])cc5)c5ccc([nH]5)c(-c5ccc(S(=O)(=O)[O-])cc5)c5nc(c(-c6ccc(S(=O)(=O)[O-])cc6)c6ccc3[nH]6)C=C5)C=C4)cc2)CC[N@@H+]1CCOc1c(Cl)cccc1Cl
REMARK SMILES IDX 11 1 10 2 9 3 8 4 7 5 6 6 4 7 5 8 3 9 1 10 2 11 83 12 81 13
REMARK SMILES IDX 82 14 84 16 85 17 86 18 87 19 88 20 93 21 89 22 90 23 92 24
REMARK SMILES IDX 94 25 91 26 12 27 13 28 14 29 15 30 16 31 17 32 18 33 19 34
REMARK SMILES IDX 20 35 21 36 22 37 80 38 23 39 79 40 24 41 25 42 26 43 73 44
REMARK SMILES IDX 27 45 78 46 72 47 74 48 28 49 77 50 71 51 70 52 29 54 59 55
REMARK SMILES IDX 40 56 58 57 41 58 44 59 57 60 75 61 42 62 43 63 56 65 76 66
REMARK SMILES IDX 45 67 30 68 31 69 39 70 32 71 38 72 33 73 34 74 35 75 36 76
REMARK SMILES IDX 37 77 60 78 61 79 69 80 62 81 68 82 63 83 64 84 65 85 66 86
REMARK SMILES IDX 67 87 46 88 47 89 55 90 48 91 54 92 49 93 50 94 51 95 52 96
REMARK SMILES IDX 53 97
REMARK H PARENT 83 15 74 53 44 64
REMARK Flexibility Score: inf
ROOT
ATOM      1  C   UNL A   1      38.201  28.351  29.895  1.00  0.00     0.188 C 
ENDROOT
BRANCH   1   2
ATOM      2  C   UNL A   1      37.294  29.440  30.493  1.00  0.00     0.188 C 
BRANCH   2   3
ATOM      3  O   UNL A   1      37.016  30.489  29.590  1.00  0.00    -0.376 OA
BRANCH   3   4
ATOM      4  C   UNL A   1      35.752  30.566  28.944  1.00  0.00     0.202 C 
BRANCH   4   5
ATOM      5  C   UNL A   1      35.440  29.856  27.610  1.00  0.00     0.261 C 
BRANCH   5   6
ATOM      6  O   UNL A   1      34.212  29.116  27.573  1.00  0.00    -0.463 OA
BRANCH   6   7
ATOM      7  C   UNL A   1      33.116  29.812  27.187  1.00  0.00     0.315 C 
ATOM      8  O   UNL A   1      33.063  31.041  27.167  1.00  0.00    -0.252 OA
BRANCH   7   9
ATOM      9  C   UNL A   1      32.048  28.951  26.535  1.00  0.00     0.162 C 
ATOM     10  C   UNL A   1      33.068  29.226  24.114  1.00  0.00     0.076 C 
ATOM     11  C   UNL A   1      31.990  28.647  25.023  1.00  0.00     0.195 C 
ATOM     12  N   UNL A   1      31.702  27.188  24.906  1.00  0.00    -0.329 N 
ATOM     13  C   UNL A   1      32.064  27.580  27.169  1.00  0.00     0.083 C 
ATOM     14  C   UNL A   1      31.269  26.729  26.220  1.00  0.00     0.263 C 
ATOM     15  H   UNL A   1      30.971  27.121  24.198  1.00  0.00     0.348 HD
BRANCH  12  16
ATOM     16  C   UNL A   1      32.661  26.284  24.243  1.00  0.00     0.304 C 
BRANCH  16  17
ATOM     17  C   UNL A   1      32.969  24.876  24.816  1.00  0.00     0.291 C 
BRANCH  17  18
ATOM     18  O   UNL A   1      34.207  24.292  24.355  1.00  0.00    -0.485 OA
BRANCH  18  19
ATOM     19  C   UNL A   1      34.427  22.987  24.733  1.00  0.00     0.156 A 
ATOM     20  C   UNL A   1      33.455  21.970  24.726  1.00  0.00     0.084 A 
ATOM     21  C   UNL A   1      35.750  22.639  25.065  1.00  0.00     0.084 A 
ATOM     22  Cl  UNL A   1      31.761  22.284  24.601  1.00  0.00    -0.080 Cl
ATOM     23  C   UNL A   1      33.845  20.626  24.812  1.00  0.00     0.024 A 
ATOM     24  C   UNL A   1      36.134  21.296  25.154  1.00  0.00     0.024 A 
ATOM     25  Cl  UNL A   1      36.974  23.840  25.289  1.00  0.00    -0.080 Cl
ATOM     26  C   UNL A   1      35.188  20.288  24.981  1.00  0.00     0.003 A 
ENDBRANCH  18  19
ENDBRANCH  17  18
ENDBRANCH  16  17
ENDBRANCH  12  16
ENDBRANCH   7   9
ENDBRANCH   6   7
ENDBRANCH   5   6
ENDBRANCH   4   5
ENDBRANCH   3   4
ENDBRANCH   2   3
ENDBRANCH   1   2
BRANCH   1  27
ATOM     27  O   UNL A   1      39.385  28.737  29.212  1.00  0.00    -0.377 OA
BRANCH  27  28
ATOM     28  C   UNL A   1      39.648  28.196  27.916  1.00  0.00     0.188 C 
BRANCH  28  29
ATOM     29  C   UNL A   1      39.892  26.680  27.771  1.00  0.00     0.188 C 
BRANCH  29  30
ATOM     30  O   UNL A   1      40.373  26.267  26.505  1.00  0.00    -0.376 OA
BRANCH  30  31
ATOM     31  C   UNL A   1      41.093  25.043  26.434  1.00  0.00     0.202 C 
BRANCH  31  32
ATOM     32  C   UNL A   1      41.248  24.193  27.708  1.00  0.00     0.261 C 
BRANCH  32  33
ATOM     33  O   UNL A   1      42.549  24.168  28.322  1.00  0.00    -0.460 OA
BRANCH  33  34
ATOM     34  C   UNL A   1      43.517  23.430  27.737  1.00  0.00     0.338 C 
ATOM     35  O   UNL A   1      43.429  22.294  27.318  1.00  0.00    -0.246 OA
BRANCH  34  36
ATOM     36  C   UNL A   1      44.683  24.312  27.519  1.00  0.00     0.060 A 
ATOM     37  C   UNL A   1      45.417  24.758  28.626  1.00  0.00     0.016 A 
ATOM     38  C   UNL A   1      45.026  24.720  26.230  1.00  0.00     0.016 A 
ATOM     39  C   UNL A   1      46.472  25.653  28.449  1.00  0.00     0.010 A 
ATOM     40  C   UNL A   1      46.067  25.636  26.056  1.00  0.00     0.010 A 
ATOM     41  C   UNL A   1      46.766  26.138  27.169  1.00  0.00    -0.014 A 
BRANCH  41  42
ATOM     42  C   UNL A   1      47.641  27.326  27.024  1.00  0.00     0.031 A 
ATOM     43  C   UNL A   1      49.122  27.102  26.875  1.00  0.00     0.074 A 
ATOM     44  C   UNL A   1      47.137  28.573  26.992  1.00  0.00     0.049 A 
ATOM     45  N   UNL A   1      50.088  27.977  26.770  1.00  0.00    -0.248 NA
ATOM     46  C   UNL A   1      49.574  25.701  26.838  1.00  0.00     0.031 C 
ATOM     47  C   UNL A   1      45.718  28.917  27.068  1.00  0.00     0.029 A 
ATOM     48  N   UNL A   1      47.773  29.785  26.889  1.00  0.00    -0.354 N 
ATOM     49  C   UNL A   1      51.259  27.235  26.667  1.00  0.00     0.074 A 
ATOM     50  C   UNL A   1      50.887  25.840  26.751  1.00  0.00     0.031 C 
ATOM     51  C   UNL A   1      45.592  30.255  27.017  1.00  0.00     0.029 A 
ATOM     52  C   UNL A   1      46.921  30.862  26.945  1.00  0.00     0.049 A 
ATOM     53  H   UNL A   1      48.748  29.875  26.785  1.00  0.00     0.167 HD
ATOM     54  C   UNL A   1      52.530  27.674  26.512  1.00  0.00     0.031 A 
ATOM     55  C   UNL A   1      47.186  32.185  26.960  1.00  0.00     0.031 A 
ATOM     56  C   UNL A   1      52.898  29.064  26.447  1.00  0.00     0.049 A 
ATOM     57  C   UNL A   1      48.618  32.652  26.876  1.00  0.00     0.074 A 
ATOM     58  C   UNL A   1      54.157  29.612  26.283  1.00  0.00     0.029 A 
ATOM     59  N   UNL A   1      52.011  30.123  26.552  1.00  0.00    -0.354 N 
ATOM     60  N   UNL A   1      49.714  31.939  26.759  1.00  0.00    -0.248 NA
ATOM     61  C   UNL A   1      48.847  34.102  26.919  1.00  0.00     0.031 C 
ATOM     62  C   UNL A   1      54.040  31.003  26.358  1.00  0.00     0.029 A 
ATOM     63  C   UNL A   1      52.698  31.323  26.490  1.00  0.00     0.049 A 
ATOM     64  H   UNL A   1      51.035  30.035  26.657  1.00  0.00     0.167 HD
ATOM     65  C   UNL A   1      50.758  32.857  26.680  1.00  0.00     0.074 A 
ATOM     66  C   UNL A   1      50.161  34.174  26.748  1.00  0.00     0.031 C 
ATOM     67  C   UNL A   1      52.090  32.629  26.557  1.00  0.00     0.031 A 
BRANCH  54  68
ATOM     68  C   UNL A   1      53.624  26.639  26.447  1.00  0.00    -0.014 A 
ATOM     69  C   UNL A   1      54.233  26.141  27.613  1.00  0.00     0.010 A 
ATOM     70  C   UNL A   1      54.022  26.129  25.198  1.00  0.00     0.010 A 
ATOM     71  C   UNL A   1      55.245  25.180  27.528  1.00  0.00     0.020 A 
ATOM     72  C   UNL A   1      55.011  25.146  25.110  1.00  0.00     0.020 A 
ATOM     73  C   UNL A   1      55.627  24.689  26.275  1.00  0.00     0.054 A 
BRANCH  73  74
ATOM     74  S   UNL A   1      56.922  23.422  26.197  1.00  0.00     0.124 S 
ATOM     75  O   UNL A   1      57.279  23.442  24.780  1.00  0.00    -0.237 OA
ATOM     76  O   UNL A   1      57.937  23.947  27.107  1.00  0.00    -0.237 OA
ATOM     77  O   UNL A   1      56.250  22.208  26.652  1.00  0.00    -0.744 OA
ENDBRANCH  73  74
ENDBRANCH  54  68
BRANCH  55  78
ATOM     78  C   UNL A   1      46.072  33.168  27.081  1.00  0.00    -0.014 A 
ATOM     79  C   UNL A   1      45.369  33.606  25.945  1.00  0.00     0.010 A 
ATOM     80  C   UNL A   1      45.718  33.685  28.342  1.00  0.00     0.010 A 
ATOM     81  C   UNL A   1      44.346  34.552  26.064  1.00  0.00     0.020 A 
ATOM     82  C   UNL A   1      44.674  34.606  28.469  1.00  0.00     0.020 A 
ATOM     83  C   UNL A   1      44.002  35.042  27.328  1.00  0.00     0.054 A 
BRANCH  83  84
ATOM     84  S   UNL A   1      42.637  36.231  27.460  1.00  0.00     0.124 S 
ATOM     85  O   UNL A   1      43.324  37.505  27.279  1.00  0.00    -0.237 OA
ATOM     86  O   UNL A   1      41.760  35.822  26.367  1.00  0.00    -0.237 OA
ATOM     87  O   UNL A   1      42.104  35.991  28.800  1.00  0.00    -0.744 OA
ENDBRANCH  83  84
ENDBRANCH  55  78
BRANCH  67  88
ATOM     88  C   UNL A   1      52.998  33.829  26.442  1.00  0.00    -0.014 A 
ATOM     89  C   UNL A   1      53.289  34.417  25.199  1.00  0.00     0.010 A 
ATOM     90  C   UNL A   1      53.518  34.414  27.613  1.00  0.00     0.010 A 
ATOM     91  C   UNL A   1      54.110  35.546  25.126  1.00  0.00     0.020 A 
ATOM     92  C   UNL A   1      54.311  35.561  27.547  1.00  0.00     0.020 A 
ATOM     93  C   UNL A   1      54.615  36.112  26.301  1.00  0.00     0.054 A 
BRANCH  93  94
ATOM     94  S   UNL A   1      55.645  37.600  26.181  1.00  0.00     0.124 S 
ATOM     95  O   UNL A   1      56.191  37.703  27.530  1.00  0.00    -0.237 OA
ATOM     96  O   UNL A   1      56.604  37.240  25.139  1.00  0.00    -0.237 OA
ATOM     97  O   UNL A   1      54.698  38.650  25.811  1.00  0.00    -0.744 OA
ENDBRANCH  93  94
ENDBRANCH  67  88
ENDBRANCH  41  42
ENDBRANCH  34  36
ENDBRANCH  33  34
ENDBRANCH  32  33
ENDBRANCH  31  32
ENDBRANCH  30  31
ENDBRANCH  29  30
ENDBRANCH  28  29
ENDBRANCH  27  28
ENDBRANCH   1  27
TORSDOF 27
ENDMDL
