MODEL 1
REMARK VINA RESULT:      -9.8      0.000      0.000
REMARK SMILES CS(=O)(=O)c1ccc(N2N=C(C(=O)OCCOCCOCCOCCOC(=O)c3ccc(-c4c5nc(c(-c6ccc(S(=O)(=O)[O-])cc6)c6ccc([nH]6)c(-c6ccc(S(=O)(=O)[O-])cc6)c6nc(c(-c7ccc(S(=O)(=O)[O-])cc7)c7ccc4[nH]7)C=C6)C=C5)cc3)C[C@H]2c2cccs2)cc1
REMARK SMILES IDX 21 1 20 2 19 3 18 4 17 5 16 6 15 7 14 8 12 9 13 10 11 11
REMARK SMILES IDX 9 12 10 13 90 14 89 15 8 16 5 17 6 18 97 19 7 20 96 21 2 22
REMARK SMILES IDX 1 23 3 24 4 25 91 26 92 27 95 28 93 29 94 30 22 31 23 32
REMARK SMILES IDX 24 33 25 34 26 35 27 36 28 37 29 38 30 39 88 40 31 41 87 42
REMARK SMILES IDX 32 43 33 44 34 45 81 46 35 47 86 48 80 49 82 50 36 51 85 52
REMARK SMILES IDX 79 53 78 54 37 56 67 57 48 58 66 59 49 60 52 61 65 62 83 63
REMARK SMILES IDX 50 64 51 65 64 67 84 68 53 69 38 70 39 71 47 72 40 73 46 74
REMARK SMILES IDX 41 75 42 76 43 77 44 78 45 79 68 80 69 81 77 82 70 83 76 84
REMARK SMILES IDX 71 85 72 86 73 87 74 88 75 89 54 90 55 91 63 92 56 93 62 94
REMARK SMILES IDX 57 95 58 96 59 97 60 98 61 99
REMARK H PARENT 82 55 52 66
REMARK Flexibility Score: inf
ROOT
ATOM      1  C   UNL A   1      40.475  21.026  26.243  1.00  0.00     0.188 C 
ENDROOT
BRANCH   1   2
ATOM      2  O   UNL A   1      39.604  21.980  26.853  1.00  0.00    -0.377 OA
BRANCH   2   3
ATOM      3  C   UNL A   1      38.573  22.552  26.068  1.00  0.00     0.188 C 
BRANCH   3   4
ATOM      4  C   UNL A   1      37.686  21.526  25.340  1.00  0.00     0.188 C 
BRANCH   4   5
ATOM      5  O   UNL A   1      37.528  21.743  23.953  1.00  0.00    -0.376 OA
BRANCH   5   6
ATOM      6  C   UNL A   1      36.568  22.640  23.417  1.00  0.00     0.202 C 
BRANCH   6   7
ATOM      7  C   UNL A   1      35.122  22.847  23.912  1.00  0.00     0.261 C 
BRANCH   7   8
ATOM      8  O   UNL A   1      34.541  24.126  23.700  1.00  0.00    -0.459 OA
BRANCH   8   9
ATOM      9  C   UNL A   1      33.626  24.223  22.726  1.00  0.00     0.354 C 
ATOM     10  O   UNL A   1      33.614  23.672  21.643  1.00  0.00    -0.245 OA
BRANCH   9  11
ATOM     11  C   UNL A   1      32.465  25.010  23.273  1.00  0.00     0.148 C 
ATOM     12  N   UNL A   1      30.969  26.489  23.463  1.00  0.00    -0.256 N 
ATOM     13  N   UNL A   1      31.939  26.013  22.632  1.00  0.00    -0.169 NA
ATOM     14  C   UNL A   1      31.131  25.973  24.842  1.00  0.00     0.154 C 
ATOM     15  C   UNL A   1      31.780  24.612  24.546  1.00  0.00     0.099 C 
BRANCH  12  16
ATOM     16  C   UNL A   1      30.327  27.668  23.116  1.00  0.00     0.060 A 
ATOM     17  C   UNL A   1      28.999  30.062  22.457  1.00  0.00     0.067 A 
ATOM     18  C   UNL A   1      28.282  29.009  23.030  1.00  0.00     0.022 A 
ATOM     19  C   UNL A   1      30.357  29.915  22.172  1.00  0.00     0.022 A 
ATOM     20  C   UNL A   1      28.951  27.820  23.350  1.00  0.00     0.029 A 
ATOM     21  C   UNL A   1      31.004  28.718  22.488  1.00  0.00     0.029 A 
BRANCH  17  22
ATOM     22  S   UNL A   1      28.216  31.617  22.103  1.00  0.00     0.175 S 
ATOM     23  C   UNL A   1      27.932  31.646  20.357  1.00  0.00     0.163 C 
ATOM     24  O   UNL A   1      29.181  32.665  22.386  1.00  0.00    -0.224 OA
ATOM     25  O   UNL A   1      26.928  31.596  22.770  1.00  0.00    -0.224 OA
ENDBRANCH  17  22
ENDBRANCH  12  16
BRANCH  14  26
ATOM     26  C   UNL A   1      31.954  26.824  25.806  1.00  0.00     0.030 A 
ATOM     27  C   UNL A   1      31.481  27.585  26.863  1.00  0.00     0.017 A 
ATOM     28  S   UNL A   1      33.668  26.969  25.689  1.00  0.00    -0.147 S 
ATOM     29  C   UNL A   1      32.515  28.282  27.551  1.00  0.00     0.012 A 
ATOM     30  C   UNL A   1      33.758  27.999  27.038  1.00  0.00     0.065 A 
ENDBRANCH  14  26
ENDBRANCH   9  11
ENDBRANCH   8   9
ENDBRANCH   7   8
ENDBRANCH   6   7
ENDBRANCH   5   6
ENDBRANCH   4   5
ENDBRANCH   3   4
ENDBRANCH   2   3
ENDBRANCH   1   2
BRANCH   1  31
ATOM     31  C   UNL A   1      41.990  20.988  26.551  1.00  0.00     0.188 C 
BRANCH  31  32
ATOM     32  O   UNL A   1      42.797  21.762  25.676  1.00  0.00    -0.376 OA
BRANCH  32  33
ATOM     33  C   UNL A   1      42.555  23.156  25.581  1.00  0.00     0.202 C 
BRANCH  33  34
ATOM     34  C   UNL A   1      42.375  23.923  26.900  1.00  0.00     0.261 C 
BRANCH  34  35
ATOM     35  O   UNL A   1      42.587  25.341  26.836  1.00  0.00    -0.460 OA
BRANCH  35  36
ATOM     36  C   UNL A   1      41.553  26.097  26.409  1.00  0.00     0.338 C 
ATOM     37  O   UNL A   1      40.949  25.985  25.355  1.00  0.00    -0.246 OA
BRANCH  36  38
ATOM     38  C   UNL A   1      41.142  26.975  27.523  1.00  0.00     0.060 A 
ATOM     39  C   UNL A   1      41.580  28.305  27.531  1.00  0.00     0.016 A 
ATOM     40  C   UNL A   1      40.341  26.486  28.557  1.00  0.00     0.016 A 
ATOM     41  C   UNL A   1      41.261  29.137  28.605  1.00  0.00     0.010 A 
ATOM     42  C   UNL A   1      40.034  27.316  29.638  1.00  0.00     0.010 A 
ATOM     43  C   UNL A   1      40.528  28.632  29.687  1.00  0.00    -0.014 A 
BRANCH  43  44
ATOM     44  C   UNL A   1      40.453  29.411  30.947  1.00  0.00     0.031 A 
ATOM     45  C   UNL A   1      41.504  29.171  32.000  1.00  0.00     0.074 A 
ATOM     46  C   UNL A   1      39.496  30.335  31.146  1.00  0.00     0.049 A 
ATOM     47  N   UNL A   1      41.635  29.714  33.182  1.00  0.00    -0.248 NA
ATOM     48  C   UNL A   1      42.546  28.182  31.674  1.00  0.00     0.031 C 
ATOM     49  C   UNL A   1      38.452  30.693  30.187  1.00  0.00     0.029 A 
ATOM     50  N   UNL A   1      39.252  31.142  32.229  1.00  0.00    -0.354 N 
ATOM     51  C   UNL A   1      42.763  29.129  33.743  1.00  0.00     0.074 A 
ATOM     52  C   UNL A   1      43.263  28.164  32.788  1.00  0.00     0.031 C 
ATOM     53  C   UNL A   1      37.676  31.648  30.728  1.00  0.00     0.029 A 
ATOM     54  C   UNL A   1      38.144  31.943  32.081  1.00  0.00     0.049 A 
ATOM     55  H   UNL A   1      39.816  31.148  33.036  1.00  0.00     0.167 HD
ATOM     56  C   UNL A   1      43.340  29.376  34.945  1.00  0.00     0.031 A 
ATOM     57  C   UNL A   1      37.564  32.800  32.946  1.00  0.00     0.031 A 
ATOM     58  C   UNL A   1      42.833  30.324  35.900  1.00  0.00     0.049 A 
ATOM     59  C   UNL A   1      38.179  33.002  34.308  1.00  0.00     0.074 A 
ATOM     60  C   UNL A   1      43.351  30.658  37.139  1.00  0.00     0.029 A 
ATOM     61  N   UNL A   1      41.686  31.085  35.728  1.00  0.00    -0.354 N 
ATOM     62  N   UNL A   1      39.261  32.460  34.816  1.00  0.00    -0.248 NA
ATOM     63  C   UNL A   1      37.498  33.941  35.211  1.00  0.00     0.031 C 
ATOM     64  C   UNL A   1      42.480  31.569  37.745  1.00  0.00     0.029 A 
ATOM     65  C   UNL A   1      41.462  31.864  36.852  1.00  0.00     0.049 A 
ATOM     66  H   UNL A   1      41.114  31.074  34.927  1.00  0.00     0.167 HD
ATOM     67  C   UNL A   1      39.408  33.019  36.083  1.00  0.00     0.074 A 
ATOM     68  C   UNL A   1      38.314  33.952  36.256  1.00  0.00     0.031 C 
ATOM     69  C   UNL A   1      40.367  32.787  37.015  1.00  0.00     0.031 A 
BRANCH  56  70
ATOM     70  C   UNL A   1      44.564  28.576  35.308  1.00  0.00    -0.014 A 
ATOM     71  C   UNL A   1      44.465  27.364  36.016  1.00  0.00     0.010 A 
ATOM     72  C   UNL A   1      45.833  29.027  34.902  1.00  0.00     0.010 A 
ATOM     73  C   UNL A   1      45.614  26.640  36.344  1.00  0.00     0.020 A 
ATOM     74  C   UNL A   1      46.982  28.291  35.200  1.00  0.00     0.020 A 
ATOM     75  C   UNL A   1      46.867  27.109  35.933  1.00  0.00     0.054 A 
BRANCH  75  76
ATOM     76  S   UNL A   1      48.338  26.135  36.351  1.00  0.00     0.124 S 
ATOM     77  O   UNL A   1      48.751  25.634  35.042  1.00  0.00    -0.237 OA
ATOM     78  O   UNL A   1      49.223  27.131  36.949  1.00  0.00    -0.237 OA
ATOM     79  O   UNL A   1      47.833  25.120  37.272  1.00  0.00    -0.744 OA
ENDBRANCH  75  76
ENDBRANCH  56  70
BRANCH  57  80
ATOM     80  C   UNL A   1      36.320  33.523  32.559  1.00  0.00    -0.014 A 
ATOM     81  C   UNL A   1      36.243  34.226  31.343  1.00  0.00     0.010 A 
ATOM     82  C   UNL A   1      35.203  33.518  33.414  1.00  0.00     0.010 A 
ATOM     83  C   UNL A   1      35.080  34.923  30.999  1.00  0.00     0.020 A 
ATOM     84  C   UNL A   1      34.028  34.186  33.060  1.00  0.00     0.020 A 
ATOM     85  C   UNL A   1      33.977  34.893  31.858  1.00  0.00     0.054 A 
BRANCH  85  86
ATOM     86  S   UNL A   1      32.460  35.758  31.364  1.00  0.00     0.124 S 
ATOM     87  O   UNL A   1      32.881  37.154  31.398  1.00  0.00    -0.237 OA
ATOM     88  O   UNL A   1      32.202  35.204  30.038  1.00  0.00    -0.237 OA
ATOM     89  O   UNL A   1      31.496  35.369  32.391  1.00  0.00    -0.744 OA
ENDBRANCH  85  86
ENDBRANCH  57  80
BRANCH  69  90
ATOM     90  C   UNL A   1      40.306  33.585  38.293  1.00  0.00    -0.014 A 
ATOM     91  C   UNL A   1      40.910  34.849  38.404  1.00  0.00     0.010 A 
ATOM     92  C   UNL A   1      39.585  33.074  39.390  1.00  0.00     0.010 A 
ATOM     93  C   UNL A   1      40.830  35.570  39.600  1.00  0.00     0.020 A 
ATOM     94  C   UNL A   1      39.474  33.805  40.575  1.00  0.00     0.020 A 
ATOM     95  C   UNL A   1      40.113  35.041  40.679  1.00  0.00     0.054 A 
BRANCH  95  96
ATOM     96  S   UNL A   1      39.999  36.008  42.208  1.00  0.00     0.124 S 
ATOM     97  O   UNL A   1      39.722  37.350  41.700  1.00  0.00    -0.237 OA
ATOM     98  O   UNL A   1      38.895  35.363  42.914  1.00  0.00    -0.237 OA
ATOM     99  O   UNL A   1      41.312  35.837  42.827  1.00  0.00    -0.744 OA
ENDBRANCH  95  96
ENDBRANCH  69  90
ENDBRANCH  43  44
ENDBRANCH  36  38
ENDBRANCH  35  36
ENDBRANCH  34  35
ENDBRANCH  33  34
ENDBRANCH  32  33
ENDBRANCH  31  32
ENDBRANCH   1  31
TORSDOF 26
ENDMDL
MODEL 2
REMARK VINA RESULT:      -9.4      6.341      7.525
REMARK SMILES CS(=O)(=O)c1ccc(N2N=C(C(=O)OCCOCCOCCOCCOC(=O)c3ccc(-c4c5nc(c(-c6ccc(S(=O)(=O)[O-])cc6)c6ccc([nH]6)c(-c6ccc(S(=O)(=O)[O-])cc6)c6nc(c(-c7ccc(S(=O)(=O)[O-])cc7)c7ccc4[nH]7)C=C6)C=C5)cc3)C[C@H]2c2cccs2)cc1
REMARK SMILES IDX 21 1 20 2 19 3 18 4 17 5 16 6 15 7 14 8 12 9 13 10 11 11
REMARK SMILES IDX 9 12 10 13 90 14 89 15 8 16 5 17 6 18 97 19 7 20 96 21 2 22
REMARK SMILES IDX 1 23 3 24 4 25 91 26 92 27 95 28 93 29 94 30 22 31 23 32
REMARK SMILES IDX 24 33 25 34 26 35 27 36 28 37 29 38 30 39 88 40 31 41 87 42
REMARK SMILES IDX 32 43 33 44 34 45 81 46 35 47 86 48 80 49 82 50 36 51 85 52
REMARK SMILES IDX 79 53 78 54 37 56 67 57 48 58 66 59 49 60 52 61 65 62 83 63
REMARK SMILES IDX 50 64 51 65 64 67 84 68 53 69 38 70 39 71 47 72 40 73 46 74
REMARK SMILES IDX 41 75 42 76 43 77 44 78 45 79 68 80 69 81 77 82 70 83 76 84
REMARK SMILES IDX 71 85 72 86 73 87 74 88 75 89 54 90 55 91 63 92 56 93 62 94
REMARK SMILES IDX 57 95 58 96 59 97 60 98 61 99
REMARK H PARENT 82 55 52 66
REMARK Flexibility Score: inf
ROOT
ATOM      1  C   UNL A   1      40.437  21.309  26.310  1.00  0.00     0.188 C 
ENDROOT
BRANCH   1   2
ATOM      2  O   UNL A   1      39.863  22.520  26.806  1.00  0.00    -0.377 OA
BRANCH   2   3
ATOM      3  C   UNL A   1      38.701  23.025  26.173  1.00  0.00     0.188 C 
BRANCH   3   4
ATOM      4  C   UNL A   1      37.752  21.942  25.629  1.00  0.00     0.188 C 
BRANCH   4   5
ATOM      5  O   UNL A   1      37.525  21.983  24.235  1.00  0.00    -0.376 OA
BRANCH   5   6
ATOM      6  C   UNL A   1      36.444  22.695  23.652  1.00  0.00     0.202 C 
BRANCH   6   7
ATOM      7  C   UNL A   1      35.012  22.817  24.211  1.00  0.00     0.261 C 
BRANCH   7   8
ATOM      8  O   UNL A   1      34.318  24.030  23.955  1.00  0.00    -0.459 OA
BRANCH   8   9
ATOM      9  C   UNL A   1      33.161  23.937  23.284  1.00  0.00     0.354 C 
ATOM     10  O   UNL A   1      32.860  23.158  22.401  1.00  0.00    -0.245 OA
BRANCH   9  11
ATOM     11  C   UNL A   1      32.180  24.868  23.944  1.00  0.00     0.148 C 
ATOM     12  N   UNL A   1      30.799  26.443  24.223  1.00  0.00    -0.256 N 
ATOM     13  N   UNL A   1      31.534  25.784  23.281  1.00  0.00    -0.169 NA
ATOM     14  C   UNL A   1      31.276  26.145  25.593  1.00  0.00     0.154 C 
ATOM     15  C   UNL A   1      31.810  24.719  25.389  1.00  0.00     0.099 C 
BRANCH  12  16
ATOM     16  C   UNL A   1      30.115  27.586  23.839  1.00  0.00     0.060 A 
ATOM     17  C   UNL A   1      28.769  29.925  23.036  1.00  0.00     0.067 A 
ATOM     18  C   UNL A   1      30.083  30.009  23.500  1.00  0.00     0.022 A 
ATOM     19  C   UNL A   1      28.111  28.695  23.009  1.00  0.00     0.022 A 
ATOM     20  C   UNL A   1      30.744  28.840  23.903  1.00  0.00     0.029 A 
ATOM     21  C   UNL A   1      28.781  27.542  23.426  1.00  0.00     0.029 A 
BRANCH  17  22
ATOM     22  S   UNL A   1      27.915  31.365  22.441  1.00  0.00     0.175 S 
ATOM     23  C   UNL A   1      29.082  32.694  22.494  1.00  0.00     0.163 C 
ATOM     24  O   UNL A   1      26.876  31.684  23.405  1.00  0.00    -0.224 OA
ATOM     25  O   UNL A   1      27.584  31.109  21.052  1.00  0.00    -0.224 OA
ENDBRANCH  17  22
ENDBRANCH  12  16
BRANCH  14  26
ATOM     26  C   UNL A   1      32.320  27.091  26.182  1.00  0.00     0.030 A 
ATOM     27  C   UNL A   1      33.613  27.295  25.728  1.00  0.00     0.017 A 
ATOM     28  S   UNL A   1      32.015  28.067  27.570  1.00  0.00    -0.147 S 
ATOM     29  C   UNL A   1      34.338  28.230  26.522  1.00  0.00     0.012 A 
ATOM     30  C   UNL A   1      33.568  28.756  27.531  1.00  0.00     0.065 A 
ENDBRANCH  14  26
ENDBRANCH   9  11
ENDBRANCH   8   9
ENDBRANCH   7   8
ENDBRANCH   6   7
ENDBRANCH   5   6
ENDBRANCH   4   5
ENDBRANCH   3   4
ENDBRANCH   2   3
ENDBRANCH   1   2
BRANCH   1  31
ATOM     31  C   UNL A   1      41.931  20.967  26.519  1.00  0.00     0.188 C 
BRANCH  31  32
ATOM     32  O   UNL A   1      42.762  21.208  25.394  1.00  0.00    -0.376 OA
BRANCH  32  33
ATOM     33  C   UNL A   1      43.526  22.402  25.355  1.00  0.00     0.202 C 
BRANCH  33  34
ATOM     34  C   UNL A   1      43.817  23.087  26.699  1.00  0.00     0.261 C 
BRANCH  34  35
ATOM     35  O   UNL A   1      45.168  22.992  27.173  1.00  0.00    -0.460 OA
BRANCH  35  36
ATOM     36  C   UNL A   1      46.128  23.544  26.402  1.00  0.00     0.338 C 
ATOM     37  O   UNL A   1      46.754  22.999  25.508  1.00  0.00    -0.246 OA
BRANCH  36  38
ATOM     38  C   UNL A   1      46.170  24.991  26.694  1.00  0.00     0.060 A 
ATOM     39  C   UNL A   1      46.551  25.411  27.974  1.00  0.00     0.016 A 
ATOM     40  C   UNL A   1      45.825  25.925  25.715  1.00  0.00     0.016 A 
ATOM     41  C   UNL A   1      46.535  26.769  28.295  1.00  0.00     0.010 A 
ATOM     42  C   UNL A   1      45.796  27.283  26.042  1.00  0.00     0.010 A 
ATOM     43  C   UNL A   1      46.109  27.707  27.346  1.00  0.00    -0.014 A 
BRANCH  43  44
ATOM     44  C   UNL A   1      45.802  29.093  27.773  1.00  0.00     0.031 A 
ATOM     45  C   UNL A   1      46.831  30.164  27.523  1.00  0.00     0.074 A 
ATOM     46  C   UNL A   1      44.623  29.408  28.340  1.00  0.00     0.049 A 
ATOM     47  N   UNL A   1      46.797  31.437  27.823  1.00  0.00    -0.248 NA
ATOM     48  C   UNL A   1      48.069  29.741  26.845  1.00  0.00     0.031 C 
ATOM     49  C   UNL A   1      43.528  28.473  28.593  1.00  0.00     0.029 A 
ATOM     50  N   UNL A   1      44.156  30.611  28.808  1.00  0.00    -0.354 N 
ATOM     51  C   UNL A   1      48.005  31.962  27.380  1.00  0.00     0.074 A 
ATOM     52  C   UNL A   1      48.766  30.866  26.822  1.00  0.00     0.031 C 
ATOM     53  C   UNL A   1      42.514  29.139  29.174  1.00  0.00     0.029 A 
ATOM     54  C   UNL A   1      42.901  30.536  29.367  1.00  0.00     0.049 A 
ATOM     55  H   UNL A   1      44.669  31.450  28.749  1.00  0.00     0.167 HD
ATOM     56  C   UNL A   1      48.441  33.244  27.426  1.00  0.00     0.031 A 
ATOM     57  C   UNL A   1      42.161  31.481  29.981  1.00  0.00     0.031 A 
ATOM     58  C   UNL A   1      47.689  34.330  27.996  1.00  0.00     0.049 A 
ATOM     59  C   UNL A   1      42.700  32.885  30.090  1.00  0.00     0.074 A 
ATOM     60  C   UNL A   1      48.037  35.666  28.080  1.00  0.00     0.029 A 
ATOM     61  N   UNL A   1      46.441  34.204  28.588  1.00  0.00    -0.354 N 
ATOM     62  N   UNL A   1      43.834  33.373  29.645  1.00  0.00    -0.248 NA
ATOM     63  C   UNL A   1      41.852  33.870  30.777  1.00  0.00     0.031 C 
ATOM     64  C   UNL A   1      47.030  36.336  28.783  1.00  0.00     0.029 A 
ATOM     65  C   UNL A   1      46.018  35.433  29.067  1.00  0.00     0.049 A 
ATOM     66  H   UNL A   1      45.930  33.365  28.658  1.00  0.00     0.167 HD
ATOM     67  C   UNL A   1      43.819  34.727  29.967  1.00  0.00     0.074 A 
ATOM     68  C   UNL A   1      42.557  34.983  30.631  1.00  0.00     0.031 C 
ATOM     69  C   UNL A   1      44.761  35.675  29.729  1.00  0.00     0.031 A 
BRANCH  56  70
ATOM     70  C   UNL A   1      49.815  33.532  26.880  1.00  0.00    -0.014 A 
ATOM     71  C   UNL A   1      49.997  34.033  25.578  1.00  0.00     0.010 A 
ATOM     72  C   UNL A   1      50.943  33.332  27.698  1.00  0.00     0.010 A 
ATOM     73  C   UNL A   1      51.282  34.292  25.092  1.00  0.00     0.020 A 
ATOM     74  C   UNL A   1      52.227  33.619  27.227  1.00  0.00     0.020 A 
ATOM     75  C   UNL A   1      52.390  34.082  25.921  1.00  0.00     0.054 A 
BRANCH  75  76
ATOM     76  S   UNL A   1      54.042  34.450  25.271  1.00  0.00     0.124 S 
ATOM     77  O   UNL A   1      53.914  34.045  23.874  1.00  0.00    -0.237 OA
ATOM     78  O   UNL A   1      54.163  35.887  25.499  1.00  0.00    -0.237 OA
ATOM     79  O   UNL A   1      54.928  33.616  26.081  1.00  0.00    -0.744 OA
ENDBRANCH  75  76
ENDBRANCH  56  70
BRANCH  57  80
ATOM     80  C   UNL A   1      40.832  31.130  30.556  1.00  0.00    -0.014 A 
ATOM     81  C   UNL A   1      40.711  30.715  31.894  1.00  0.00     0.010 A 
ATOM     82  C   UNL A   1      39.674  31.201  29.759  1.00  0.00     0.010 A 
ATOM     83  C   UNL A   1      39.463  30.363  32.419  1.00  0.00     0.020 A 
ATOM     84  C   UNL A   1      38.422  30.882  30.288  1.00  0.00     0.020 A 
ATOM     85  C   UNL A   1      38.325  30.454  31.612  1.00  0.00     0.054 A 
BRANCH  85  86
ATOM     86  S   UNL A   1      36.709  30.046  32.330  1.00  0.00     0.124 S 
ATOM     87  O   UNL A   1      35.930  29.694  31.148  1.00  0.00    -0.237 OA
ATOM     88  O   UNL A   1      37.035  28.941  33.228  1.00  0.00    -0.237 OA
ATOM     89  O   UNL A   1      36.311  31.284  32.998  1.00  0.00    -0.744 OA
ENDBRANCH  85  86
ENDBRANCH  57  80
BRANCH  69  90
ATOM     90  C   UNL A   1      44.449  37.090  30.148  1.00  0.00    -0.014 A 
ATOM     91  C   UNL A   1      43.744  37.969  29.309  1.00  0.00     0.010 A 
ATOM     92  C   UNL A   1      44.831  37.528  31.431  1.00  0.00     0.010 A 
ATOM     93  C   UNL A   1      43.463  39.275  29.727  1.00  0.00     0.020 A 
ATOM     94  C   UNL A   1      44.522  38.819  31.866  1.00  0.00     0.020 A 
ATOM     95  C   UNL A   1      43.856  39.690  31.004  1.00  0.00     0.054 A 
BRANCH  95  96
ATOM     96  S   UNL A   1      43.453  41.378  31.533  1.00  0.00     0.124 S 
ATOM     97  O   UNL A   1      42.015  41.440  31.282  1.00  0.00    -0.237 OA
ATOM     98  O   UNL A   1      43.845  41.374  32.940  1.00  0.00    -0.237 OA
ATOM     99  O   UNL A   1      44.273  42.220  30.665  1.00  0.00    -0.744 OA
ENDBRANCH  95  96
ENDBRANCH  69  90
ENDBRANCH  43  44
ENDBRANCH  36  38
ENDBRANCH  35  36
ENDBRANCH  34  35
ENDBRANCH  33  34
ENDBRANCH  32  33
ENDBRANCH  31  32
ENDBRANCH   1  31
TORSDOF 26
ENDMDL
MODEL 3
REMARK VINA RESULT:      -9.3      8.963     13.180
REMARK SMILES CS(=O)(=O)c1ccc(N2N=C(C(=O)OCCOCCOCCOCCOC(=O)c3ccc(-c4c5nc(c(-c6ccc(S(=O)(=O)[O-])cc6)c6ccc([nH]6)c(-c6ccc(S(=O)(=O)[O-])cc6)c6nc(c(-c7ccc(S(=O)(=O)[O-])cc7)c7ccc4[nH]7)C=C6)C=C5)cc3)C[C@H]2c2cccs2)cc1
REMARK SMILES IDX 21 1 20 2 19 3 18 4 17 5 16 6 15 7 14 8 12 9 13 10 11 11
REMARK SMILES IDX 9 12 10 13 90 14 89 15 8 16 5 17 6 18 97 19 7 20 96 21 2 22
REMARK SMILES IDX 1 23 3 24 4 25 91 26 92 27 95 28 93 29 94 30 22 31 23 32
REMARK SMILES IDX 24 33 25 34 26 35 27 36 28 37 29 38 30 39 88 40 31 41 87 42
REMARK SMILES IDX 32 43 33 44 34 45 81 46 35 47 86 48 80 49 82 50 36 51 85 52
REMARK SMILES IDX 79 53 78 54 37 56 67 57 48 58 66 59 49 60 52 61 65 62 83 63
REMARK SMILES IDX 50 64 51 65 64 67 84 68 53 69 38 70 39 71 47 72 40 73 46 74
REMARK SMILES IDX 41 75 42 76 43 77 44 78 45 79 68 80 69 81 77 82 70 83 76 84
REMARK SMILES IDX 71 85 72 86 73 87 74 88 75 89 54 90 55 91 63 92 56 93 62 94
REMARK SMILES IDX 57 95 58 96 59 97 60 98 61 99
REMARK H PARENT 82 55 52 66
REMARK Flexibility Score: inf
ROOT
ATOM      1  C   UNL A   1      39.746  22.404  26.665  1.00  0.00     0.188 C 
ENDROOT
BRANCH   1   2
ATOM      2  O   UNL A   1      38.986  23.558  27.024  1.00  0.00    -0.377 OA
BRANCH   2   3
ATOM      3  C   UNL A   1      37.821  23.858  26.277  1.00  0.00     0.188 C 
BRANCH   3   4
ATOM      4  C   UNL A   1      37.061  22.622  25.761  1.00  0.00     0.188 C 
BRANCH   4   5
ATOM      5  O   UNL A   1      37.337  22.259  24.423  1.00  0.00    -0.376 OA
BRANCH   5   6
ATOM      6  C   UNL A   1      36.577  22.735  23.323  1.00  0.00     0.202 C 
BRANCH   6   7
ATOM      7  C   UNL A   1      35.056  22.989  23.294  1.00  0.00     0.261 C 
BRANCH   7   8
ATOM      8  O   UNL A   1      34.625  24.298  22.948  1.00  0.00    -0.459 OA
BRANCH   8   9
ATOM      9  C   UNL A   1      33.591  24.392  22.101  1.00  0.00     0.354 C 
ATOM     10  O   UNL A   1      33.453  23.863  21.016  1.00  0.00    -0.245 OA
BRANCH   9  11
ATOM     11  C   UNL A   1      32.494  25.142  22.808  1.00  0.00     0.148 C 
ATOM     12  N   UNL A   1      30.988  26.569  23.209  1.00  0.00    -0.256 N 
ATOM     13  N   UNL A   1      31.846  26.122  22.247  1.00  0.00    -0.169 NA
ATOM     14  C   UNL A   1      31.364  26.066  24.551  1.00  0.00     0.154 C 
ATOM     15  C   UNL A   1      32.011  24.728  24.166  1.00  0.00     0.099 C 
BRANCH  12  16
ATOM     16  C   UNL A   1      30.262  27.723  22.956  1.00  0.00     0.060 A 
ATOM     17  C   UNL A   1      28.765  30.061  22.490  1.00  0.00     0.067 A 
ATOM     18  C   UNL A   1      28.143  28.942  23.046  1.00  0.00     0.022 A 
ATOM     19  C   UNL A   1      30.112  30.009  22.128  1.00  0.00     0.022 A 
ATOM     20  C   UNL A   1      28.895  27.780  23.270  1.00  0.00     0.029 A 
ATOM     21  C   UNL A   1      30.843  28.839  22.347  1.00  0.00     0.029 A 
BRANCH  17  22
ATOM     22  S   UNL A   1      27.877  31.582  22.258  1.00  0.00     0.175 S 
ATOM     23  C   UNL A   1      29.055  32.885  22.472  1.00  0.00     0.163 C 
ATOM     24  O   UNL A   1      26.923  31.700  23.347  1.00  0.00    -0.224 OA
ATOM     25  O   UNL A   1      27.432  31.598  20.878  1.00  0.00    -0.224 OA
ENDBRANCH  17  22
ENDBRANCH  12  16
BRANCH  14  26
ATOM     26  C   UNL A   1      32.286  26.952  25.387  1.00  0.00     0.030 A 
ATOM     27  C   UNL A   1      33.465  27.553  24.978  1.00  0.00     0.017 A 
ATOM     28  S   UNL A   1      31.970  27.325  27.040  1.00  0.00    -0.147 S 
ATOM     29  C   UNL A   1      34.098  28.295  26.015  1.00  0.00     0.012 A 
ATOM     30  C   UNL A   1      33.364  28.287  27.177  1.00  0.00     0.065 A 
ENDBRANCH  14  26
ENDBRANCH   9  11
ENDBRANCH   8   9
ENDBRANCH   7   8
ENDBRANCH   6   7
ENDBRANCH   5   6
ENDBRANCH   4   5
ENDBRANCH   3   4
ENDBRANCH   2   3
ENDBRANCH   1   2
BRANCH   1  31
ATOM     31  C   UNL A   1      40.978  21.950  27.483  1.00  0.00     0.188 C 
BRANCH  31  32
ATOM     32  O   UNL A   1      41.721  20.887  26.904  1.00  0.00    -0.376 OA
BRANCH  32  33
ATOM     33  C   UNL A   1      42.932  21.190  26.232  1.00  0.00     0.202 C 
BRANCH  33  34
ATOM     34  C   UNL A   1      43.613  22.521  26.587  1.00  0.00     0.261 C 
BRANCH  34  35
ATOM     35  O   UNL A   1      44.981  22.433  27.009  1.00  0.00    -0.460 OA
BRANCH  35  36
ATOM     36  C   UNL A   1      45.927  22.584  26.058  1.00  0.00     0.338 C 
ATOM     37  O   UNL A   1      46.238  21.777  25.198  1.00  0.00    -0.246 OA
BRANCH  36  38
ATOM     38  C   UNL A   1      46.404  23.981  26.108  1.00  0.00     0.060 A 
ATOM     39  C   UNL A   1      46.123  24.830  25.031  1.00  0.00     0.016 A 
ATOM     40  C   UNL A   1      47.133  24.444  27.205  1.00  0.00     0.016 A 
ATOM     41  C   UNL A   1      46.618  26.134  25.025  1.00  0.00     0.010 A 
ATOM     42  C   UNL A   1      47.641  25.746  27.191  1.00  0.00     0.010 A 
ATOM     43  C   UNL A   1      47.422  26.583  26.081  1.00  0.00    -0.014 A 
BRANCH  43  44
ATOM     44  C   UNL A   1      48.192  27.841  25.933  1.00  0.00     0.031 A 
ATOM     45  C   UNL A   1      47.615  29.106  26.514  1.00  0.00     0.074 A 
ATOM     46  C   UNL A   1      49.393  27.863  25.327  1.00  0.00     0.049 A 
ATOM     47  N   UNL A   1      48.092  30.323  26.494  1.00  0.00    -0.248 NA
ATOM     48  C   UNL A   1      46.323  28.979  27.211  1.00  0.00     0.031 C 
ATOM     49  C   UNL A   1      50.080  26.700  24.766  1.00  0.00     0.029 A 
ATOM     50  N   UNL A   1      50.247  28.910  25.084  1.00  0.00    -0.354 N 
ATOM     51  C   UNL A   1      47.159  31.106  27.163  1.00  0.00     0.074 A 
ATOM     52  C   UNL A   1      46.071  30.234  27.548  1.00  0.00     0.031 C 
ATOM     53  C   UNL A   1      51.251  27.100  24.240  1.00  0.00     0.029 A 
ATOM     54  C   UNL A   1      51.380  28.549  24.394  1.00  0.00     0.049 A 
ATOM     55  H   UNL A   1      50.065  29.833  25.375  1.00  0.00     0.167 HD
ATOM     56  C   UNL A   1      47.204  32.432  27.440  1.00  0.00     0.031 A 
ATOM     57  C   UNL A   1      52.394  29.303  23.924  1.00  0.00     0.031 A 
ATOM     58  C   UNL A   1      48.280  33.300  27.042  1.00  0.00     0.049 A 
ATOM     59  C   UNL A   1      52.386  30.790  24.177  1.00  0.00     0.074 A 
ATOM     60  C   UNL A   1      48.427  34.654  27.285  1.00  0.00     0.029 A 
ATOM     61  N   UNL A   1      49.389  32.902  26.310  1.00  0.00    -0.354 N 
ATOM     62  N   UNL A   1      51.509  31.513  24.833  1.00  0.00    -0.248 NA
ATOM     63  C   UNL A   1      53.513  31.562  23.634  1.00  0.00     0.031 C 
ATOM     64  C   UNL A   1      49.590  35.088  26.642  1.00  0.00     0.029 A 
ATOM     65  C   UNL A   1      50.210  33.991  26.065  1.00  0.00     0.049 A 
ATOM     66  H   UNL A   1      49.568  31.982  26.008  1.00  0.00     0.167 HD
ATOM     67  C   UNL A   1      51.996  32.817  24.810  1.00  0.00     0.074 A 
ATOM     68  C   UNL A   1      53.252  32.779  24.089  1.00  0.00     0.031 C 
ATOM     69  C   UNL A   1      51.457  33.942  25.344  1.00  0.00     0.031 A 
BRANCH  56  70
ATOM     70  C   UNL A   1      46.034  33.030  28.176  1.00  0.00    -0.014 A 
ATOM     71  C   UNL A   1      44.823  33.318  27.520  1.00  0.00     0.010 A 
ATOM     72  C   UNL A   1      46.137  33.276  29.558  1.00  0.00     0.010 A 
ATOM     73  C   UNL A   1      43.752  33.875  28.223  1.00  0.00     0.020 A 
ATOM     74  C   UNL A   1      45.057  33.804  30.271  1.00  0.00     0.020 A 
ATOM     75  C   UNL A   1      43.876  34.115  29.595  1.00  0.00     0.054 A 
BRANCH  75  76
ATOM     76  S   UNL A   1      42.460  34.815  30.486  1.00  0.00     0.124 S 
ATOM     77  O   UNL A   1      43.110  35.472  31.617  1.00  0.00    -0.237 OA
ATOM     78  O   UNL A   1      41.869  35.710  29.496  1.00  0.00    -0.237 OA
ATOM     79  O   UNL A   1      41.652  33.646  30.828  1.00  0.00    -0.744 OA
ENDBRANCH  75  76
ENDBRANCH  56  70
BRANCH  57  80
ATOM     80  C   UNL A   1      53.499  28.669  23.151  1.00  0.00    -0.014 A 
ATOM     81  C   UNL A   1      53.370  28.428  21.772  1.00  0.00     0.010 A 
ATOM     82  C   UNL A   1      54.691  28.294  23.798  1.00  0.00     0.010 A 
ATOM     83  C   UNL A   1      54.402  27.810  21.059  1.00  0.00     0.020 A 
ATOM     84  C   UNL A   1      55.738  27.706  23.085  1.00  0.00     0.020 A 
ATOM     85  C   UNL A   1      55.583  27.458  21.721  1.00  0.00     0.054 A 
BRANCH  85  86
ATOM     86  S   UNL A   1      56.931  26.708  20.764  1.00  0.00     0.124 S 
ATOM     87  O   UNL A   1      57.496  27.864  20.077  1.00  0.00    -0.237 OA
ATOM     88  O   UNL A   1      57.766  26.120  21.808  1.00  0.00    -0.237 OA
ATOM     89  O   UNL A   1      56.245  25.743  19.908  1.00  0.00    -0.744 OA
ENDBRANCH  85  86
ENDBRANCH  57  80
BRANCH  69  90
ATOM     90  C   UNL A   1      52.240  35.223  25.209  1.00  0.00    -0.014 A 
ATOM     91  C   UNL A   1      53.212  35.597  26.154  1.00  0.00     0.010 A 
ATOM     92  C   UNL A   1      52.030  36.045  24.085  1.00  0.00     0.010 A 
ATOM     93  C   UNL A   1      53.929  36.788  26.000  1.00  0.00     0.020 A 
ATOM     94  C   UNL A   1      52.768  37.218  23.909  1.00  0.00     0.020 A 
ATOM     95  C   UNL A   1      53.700  37.591  24.877  1.00  0.00     0.054 A 
BRANCH  95  96
ATOM     96  S   UNL A   1      54.665  39.115  24.685  1.00  0.00     0.124 S 
ATOM     97  O   UNL A   1      54.444  39.439  23.278  1.00  0.00    -0.237 OA
ATOM     98  O   UNL A   1      54.032  40.017  25.644  1.00  0.00    -0.237 OA
ATOM     99  O   UNL A   1      56.027  38.710  25.023  1.00  0.00    -0.744 OA
ENDBRANCH  95  96
ENDBRANCH  69  90
ENDBRANCH  43  44
ENDBRANCH  36  38
ENDBRANCH  35  36
ENDBRANCH  34  35
ENDBRANCH  33  34
ENDBRANCH  32  33
ENDBRANCH  31  32
ENDBRANCH   1  31
TORSDOF 26
ENDMDL
