MODEL 1
REMARK VINA RESULT:      -9.0      0.000      0.000
REMARK SMILES O=C(OCCOCCOCCOCCOC(=O)c1cc(N2CCN(c3ccc(F)cc3)CC2)ccc1NC(=O)C1CCCC1)c1ccc(-c2c3nc(c(-c4ccc(S(=O)(=O)[O-])cc4)c4ccc([nH]4)c(-c4ccc(S(=O)(=O)[O-])cc4)c4nc(c(-c5ccc(S(=O)(=O)[O-])cc5)c5ccc2[nH]5)C=C4)C=C3)cc1
REMARK SMILES IDX 8 1 7 2 6 3 5 4 4 5 3 6 2 7 1 8 45 9 46 10 104 11 47 12
REMARK SMILES IDX 103 13 48 14 49 15 50 16 97 17 51 18 102 19 96 20 98 21
REMARK SMILES IDX 52 22 101 23 95 24 94 25 53 27 83 28 64 29 82 30 65 31 68 32
REMARK SMILES IDX 81 33 99 34 66 35 67 36 80 38 100 39 69 40 54 41 55 42 63 43
REMARK SMILES IDX 56 44 62 45 57 46 58 47 59 48 60 49 61 50 84 51 85 52 93 53
REMARK SMILES IDX 86 54 92 55 87 56 88 57 89 58 90 59 91 60 70 61 71 62 79 63
REMARK SMILES IDX 72 64 78 65 73 66 74 67 75 68 76 69 77 70 9 71 10 72 11 73
REMARK SMILES IDX 12 74 13 75 14 76 15 77 16 78 17 79 18 80 19 81 36 82 20 83
REMARK SMILES IDX 35 84 34 85 37 86 38 87 39 89 40 90 41 91 44 92 42 93 43 94
REMARK SMILES IDX 21 95 22 96 33 97 23 98 32 99 24 100 25 101 26 102 31 103
REMARK SMILES IDX 27 104 30 105 28 106 29 107
REMARK H PARENT 98 26 68 37 37 88
REMARK Flexibility Score: inf
ROOT
ATOM      1  C   UNL A   1      34.714  29.157  27.129  1.00  0.00     0.188 C 
ENDROOT
BRANCH   1   2
ATOM      2  C   UNL A   1      34.450  30.559  27.676  1.00  0.00     0.188 C 
BRANCH   2   3
ATOM      3  O   UNL A   1      35.652  31.151  28.138  1.00  0.00    -0.376 OA
BRANCH   3   4
ATOM      4  C   UNL A   1      35.710  31.793  29.400  1.00  0.00     0.202 C 
BRANCH   4   5
ATOM      5  C   UNL A   1      36.282  31.015  30.581  1.00  0.00     0.261 C 
BRANCH   5   6
ATOM      6  O   UNL A   1      36.851  31.794  31.650  1.00  0.00    -0.460 OA
BRANCH   6   7
ATOM      7  C   UNL A   1      38.135  32.033  32.002  1.00  0.00     0.338 C 
ATOM      8  O   UNL A   1      38.365  32.906  32.835  1.00  0.00    -0.246 OA
BRANCH   7   9
ATOM      9  C   UNL A   1      39.287  31.282  31.446  1.00  0.00     0.060 A 
ATOM     10  C   UNL A   1      40.121  30.454  32.187  1.00  0.00     0.016 A 
ATOM     11  C   UNL A   1      39.468  31.314  30.059  1.00  0.00     0.016 A 
ATOM     12  C   UNL A   1      41.245  29.866  31.636  1.00  0.00     0.010 A 
ATOM     13  C   UNL A   1      40.532  30.629  29.467  1.00  0.00     0.010 A 
ATOM     14  C   UNL A   1      41.473  29.971  30.271  1.00  0.00    -0.014 A 
BRANCH  14  15
ATOM     15  C   UNL A   1      42.791  29.564  29.750  1.00  0.00     0.031 A 
ATOM     16  C   UNL A   1      42.890  28.206  29.114  1.00  0.00     0.074 A 
ATOM     17  C   UNL A   1      43.816  30.436  29.715  1.00  0.00     0.049 A 
ATOM     18  N   UNL A   1      43.939  27.572  28.672  1.00  0.00    -0.248 NA
ATOM     19  C   UNL A   1      41.629  27.456  28.959  1.00  0.00     0.031 C 
ATOM     20  C   UNL A   1      43.764  31.830  30.169  1.00  0.00     0.029 A 
ATOM     21  N   UNL A   1      45.090  30.295  29.235  1.00  0.00    -0.354 N 
ATOM     22  C   UNL A   1      43.476  26.327  28.260  1.00  0.00     0.074 A 
ATOM     23  C   UNL A   1      42.053  26.292  28.499  1.00  0.00     0.031 C 
ATOM     24  C   UNL A   1      44.934  32.427  29.895  1.00  0.00     0.029 A 
ATOM     25  C   UNL A   1      45.849  31.438  29.342  1.00  0.00     0.049 A 
ATOM     26  H   UNL A   1      45.432  29.456  28.852  1.00  0.00     0.167 HD
ATOM     27  C   UNL A   1      44.186  25.302  27.738  1.00  0.00     0.031 A 
ATOM     28  C   UNL A   1      47.148  31.640  29.055  1.00  0.00     0.031 A 
ATOM     29  C   UNL A   1      45.597  25.387  27.490  1.00  0.00     0.049 A 
ATOM     30  C   UNL A   1      47.937  30.461  28.550  1.00  0.00     0.074 A 
ATOM     31  C   UNL A   1      46.455  24.414  27.017  1.00  0.00     0.029 A 
ATOM     32  N   UNL A   1      46.355  26.535  27.690  1.00  0.00    -0.354 N 
ATOM     33  N   UNL A   1      47.515  29.252  28.259  1.00  0.00    -0.248 NA
ATOM     34  C   UNL A   1      49.376  30.665  28.353  1.00  0.00     0.031 C 
ATOM     35  C   UNL A   1      47.743  24.961  26.979  1.00  0.00     0.029 A 
ATOM     36  C   UNL A   1      47.675  26.292  27.366  1.00  0.00     0.049 A 
ATOM     37  H   UNL A   1      46.002  27.394  28.015  1.00  0.00     0.167 HD
ATOM     38  C   UNL A   1      48.633  28.552  27.826  1.00  0.00     0.074 A 
ATOM     39  C   UNL A   1      49.745  29.484  27.875  1.00  0.00     0.031 C 
ATOM     40  C   UNL A   1      48.742  27.260  27.428  1.00  0.00     0.031 A 
BRANCH  27  41
ATOM     41  C   UNL A   1      43.457  24.005  27.513  1.00  0.00    -0.014 A 
ATOM     42  C   UNL A   1      43.159  23.120  28.565  1.00  0.00     0.010 A 
ATOM     43  C   UNL A   1      43.111  23.640  26.198  1.00  0.00     0.010 A 
ATOM     44  C   UNL A   1      42.581  21.874  28.301  1.00  0.00     0.020 A 
ATOM     45  C   UNL A   1      42.506  22.409  25.932  1.00  0.00     0.020 A 
ATOM     46  C   UNL A   1      42.266  21.524  26.984  1.00  0.00     0.054 A 
BRANCH  46  47
ATOM     47  S   UNL A   1      41.530  19.896  26.664  1.00  0.00     0.124 S 
ATOM     48  O   UNL A   1      42.033  19.113  27.789  1.00  0.00    -0.237 OA
ATOM     49  O   UNL A   1      40.098  20.181  26.688  1.00  0.00    -0.237 OA
ATOM     50  O   UNL A   1      42.066  19.525  25.356  1.00  0.00    -0.744 OA
ENDBRANCH  46  47
ENDBRANCH  27  41
BRANCH  28  51
ATOM     51  C   UNL A   1      47.784  32.967  29.295  1.00  0.00    -0.014 A 
ATOM     52  C   UNL A   1      48.393  33.267  30.525  1.00  0.00     0.010 A 
ATOM     53  C   UNL A   1      47.786  33.949  28.283  1.00  0.00     0.010 A 
ATOM     54  C   UNL A   1      48.976  34.521  30.745  1.00  0.00     0.020 A 
ATOM     55  C   UNL A   1      48.395  35.191  28.487  1.00  0.00     0.020 A 
ATOM     56  C   UNL A   1      48.974  35.474  29.724  1.00  0.00     0.054 A 
BRANCH  56  57
ATOM     57  S   UNL A   1      49.767  37.081  30.017  1.00  0.00     0.124 S 
ATOM     58  O   UNL A   1      49.249  37.438  31.334  1.00  0.00    -0.237 OA
ATOM     59  O   UNL A   1      51.188  36.746  29.964  1.00  0.00    -0.237 OA
ATOM     60  O   UNL A   1      49.288  37.906  28.911  1.00  0.00    -0.744 OA
ENDBRANCH  56  57
ENDBRANCH  28  51
BRANCH  40  61
ATOM     61  C   UNL A   1      50.097  26.806  26.970  1.00  0.00    -0.014 A 
ATOM     62  C   UNL A   1      51.034  26.276  27.874  1.00  0.00     0.010 A 
ATOM     63  C   UNL A   1      50.410  26.865  25.600  1.00  0.00     0.010 A 
ATOM     64  C   UNL A   1      52.279  25.844  27.416  1.00  0.00     0.020 A 
ATOM     65  C   UNL A   1      51.641  26.405  25.136  1.00  0.00     0.020 A 
ATOM     66  C   UNL A   1      52.575  25.913  26.050  1.00  0.00     0.054 A 
BRANCH  66  67
ATOM     67  S   UNL A   1      54.182  25.308  25.474  1.00  0.00     0.124 S 
ATOM     68  O   UNL A   1      54.667  24.581  26.644  1.00  0.00    -0.237 OA
ATOM     69  O   UNL A   1      53.822  24.483  24.324  1.00  0.00    -0.237 OA
ATOM     70  O   UNL A   1      54.916  26.530  25.151  1.00  0.00    -0.744 OA
ENDBRANCH  66  67
ENDBRANCH  40  61
ENDBRANCH  14  15
ENDBRANCH   7   9
ENDBRANCH   6   7
ENDBRANCH   5   6
ENDBRANCH   4   5
ENDBRANCH   3   4
ENDBRANCH   2   3
ENDBRANCH   1   2
BRANCH   1  71
ATOM     71  O   UNL A   1      33.859  28.754  26.065  1.00  0.00    -0.377 OA
BRANCH  71  72
ATOM     72  C   UNL A   1      32.458  28.832  26.313  1.00  0.00     0.188 C 
BRANCH  72  73
ATOM     73  C   UNL A   1      31.754  27.686  27.086  1.00  0.00     0.188 C 
BRANCH  73  74
ATOM     74  O   UNL A   1      31.756  26.434  26.414  1.00  0.00    -0.376 OA
BRANCH  74  75
ATOM     75  C   UNL A   1      32.345  25.355  27.134  1.00  0.00     0.202 C 
BRANCH  75  76
ATOM     76  C   UNL A   1      32.779  24.162  26.272  1.00  0.00     0.261 C 
BRANCH  76  77
ATOM     77  O   UNL A   1      32.209  22.887  26.636  1.00  0.00    -0.460 OA
BRANCH  77  78
ATOM     78  C   UNL A   1      31.317  22.293  25.809  1.00  0.00     0.340 C 
ATOM     79  O   UNL A   1      30.372  21.597  26.135  1.00  0.00    -0.246 OA
BRANCH  78  80
ATOM     80  C   UNL A   1      31.567  22.817  24.435  1.00  0.00     0.085 A 
ATOM     81  C   UNL A   1      30.849  23.981  24.064  1.00  0.00     0.043 A 
ATOM     82  C   UNL A   1      32.575  22.291  23.598  1.00  0.00     0.055 A 
ATOM     83  C   UNL A   1      31.150  24.681  22.891  1.00  0.00     0.038 A 
ATOM     84  C   UNL A   1      32.763  22.934  22.372  1.00  0.00     0.029 A 
ATOM     85  C   UNL A   1      32.089  24.117  22.038  1.00  0.00     0.028 A 
BRANCH  82  86
ATOM     86  N   UNL A   1      33.374  21.215  24.067  1.00  0.00    -0.325 N 
ATOM     87  C   UNL A   1      34.581  21.092  24.694  1.00  0.00     0.227 C 
ATOM     88  H   UNL A   1      32.953  20.342  23.899  1.00  0.00     0.169 HD
ATOM     89  O   UNL A   1      34.945  19.962  25.032  1.00  0.00    -0.274 OA
BRANCH  87  90
ATOM     90  C   UNL A   1      35.456  22.293  24.939  1.00  0.00     0.079 C 
ATOM     91  C   UNL A   1      36.626  21.989  25.874  1.00  0.00     0.013 C 
ATOM     92  C   UNL A   1      36.210  22.826  23.722  1.00  0.00     0.013 C 
ATOM     93  C   UNL A   1      37.437  23.273  25.789  1.00  0.00     0.001 C 
ATOM     94  C   UNL A   1      37.263  23.749  24.343  1.00  0.00     0.001 C 
ENDBRANCH  87  90
ENDBRANCH  82  86
BRANCH  83  95
ATOM     95  N   UNL A   1      30.536  25.877  22.594  1.00  0.00    -0.368 N 
ATOM     96  C   UNL A   1      29.285  26.288  23.269  1.00  0.00     0.138 C 
ATOM     97  C   UNL A   1      31.344  26.949  21.997  1.00  0.00     0.138 C 
ATOM     98  C   UNL A   1      29.446  27.548  24.173  1.00  0.00     0.138 C 
ATOM     99  C   UNL A   1      31.546  28.122  22.976  1.00  0.00     0.138 C 
ATOM    100  N   UNL A   1      30.264  28.587  23.524  1.00  0.00    -0.368 N 
BRANCH 100 101
ATOM    101  C   UNL A   1      29.731  29.805  23.156  1.00  0.00     0.037 A 
ATOM    102  C   UNL A   1      29.518  30.811  24.113  1.00  0.00     0.029 A 
ATOM    103  C   UNL A   1      29.427  30.107  21.819  1.00  0.00     0.029 A 
ATOM    104  C   UNL A   1      29.056  32.081  23.743  1.00  0.00     0.041 A 
ATOM    105  C   UNL A   1      28.946  31.366  21.445  1.00  0.00     0.041 A 
ATOM    106  C   UNL A   1      28.776  32.345  22.410  1.00  0.00     0.123 A 
ATOM    107  F   UNL A   1      28.345  33.562  22.051  1.00  0.00    -0.207 F 
ENDBRANCH 100 101
ENDBRANCH  83  95
ENDBRANCH  78  80
ENDBRANCH  77  78
ENDBRANCH  76  77
ENDBRANCH  75  76
ENDBRANCH  74  75
ENDBRANCH  73  74
ENDBRANCH  72  73
ENDBRANCH  71  72
ENDBRANCH   1  71
TORSDOF 27
ENDMDL
MODEL 2
REMARK VINA RESULT:      -8.2      4.551     10.627
REMARK SMILES O=C(OCCOCCOCCOCCOC(=O)c1cc(N2CCN(c3ccc(F)cc3)CC2)ccc1NC(=O)C1CCCC1)c1ccc(-c2c3nc(c(-c4ccc(S(=O)(=O)[O-])cc4)c4ccc([nH]4)c(-c4ccc(S(=O)(=O)[O-])cc4)c4nc(c(-c5ccc(S(=O)(=O)[O-])cc5)c5ccc2[nH]5)C=C4)C=C3)cc1
REMARK SMILES IDX 8 1 7 2 6 3 5 4 4 5 3 6 2 7 1 8 45 9 46 10 104 11 47 12
REMARK SMILES IDX 103 13 48 14 49 15 50 16 97 17 51 18 102 19 96 20 98 21
REMARK SMILES IDX 52 22 101 23 95 24 94 25 53 27 83 28 64 29 82 30 65 31 68 32
REMARK SMILES IDX 81 33 99 34 66 35 67 36 80 38 100 39 69 40 54 41 55 42 63 43
REMARK SMILES IDX 56 44 62 45 57 46 58 47 59 48 60 49 61 50 84 51 85 52 93 53
REMARK SMILES IDX 86 54 92 55 87 56 88 57 89 58 90 59 91 60 70 61 71 62 79 63
REMARK SMILES IDX 72 64 78 65 73 66 74 67 75 68 76 69 77 70 9 71 10 72 11 73
REMARK SMILES IDX 12 74 13 75 14 76 15 77 16 78 17 79 18 80 19 81 36 82 20 83
REMARK SMILES IDX 35 84 34 85 37 86 38 87 39 89 40 90 41 91 44 92 42 93 43 94
REMARK SMILES IDX 21 95 22 96 33 97 23 98 32 99 24 100 25 101 26 102 31 103
REMARK SMILES IDX 27 104 30 105 28 106 29 107
REMARK H PARENT 98 26 68 37 37 88
REMARK Flexibility Score: inf
ROOT
ATOM      1  C   UNL A   1      38.008  28.201  31.090  1.00  0.00     0.188 C 
ENDROOT
BRANCH   1   2
ATOM      2  C   UNL A   1      39.390  28.132  31.737  1.00  0.00     0.188 C 
BRANCH   2   3
ATOM      3  O   UNL A   1      39.865  29.432  32.046  1.00  0.00    -0.376 OA
BRANCH   3   4
ATOM      4  C   UNL A   1      39.849  29.916  33.377  1.00  0.00     0.202 C 
BRANCH   4   5
ATOM      5  C   UNL A   1      38.620  30.685  33.852  1.00  0.00     0.261 C 
BRANCH   5   6
ATOM      6  O   UNL A   1      38.018  31.584  32.903  1.00  0.00    -0.460 OA
BRANCH   6   7
ATOM      7  C   UNL A   1      38.226  32.898  32.655  1.00  0.00     0.338 C 
ATOM      8  O   UNL A   1      37.365  33.706  32.997  1.00  0.00    -0.246 OA
BRANCH   7   9
ATOM      9  C   UNL A   1      39.450  33.422  32.003  1.00  0.00     0.060 A 
ATOM     10  C   UNL A   1      39.511  33.889  30.695  1.00  0.00     0.016 A 
ATOM     11  C   UNL A   1      40.591  33.572  32.799  1.00  0.00     0.016 A 
ATOM     12  C   UNL A   1      40.704  34.264  30.107  1.00  0.00     0.010 A 
ATOM     13  C   UNL A   1      41.779  34.062  32.251  1.00  0.00     0.010 A 
ATOM     14  C   UNL A   1      41.857  34.328  30.877  1.00  0.00    -0.014 A 
BRANCH  14  15
ATOM     15  C   UNL A   1      43.151  34.478  30.187  1.00  0.00     0.031 A 
ATOM     16  C   UNL A   1      43.754  35.854  30.145  1.00  0.00     0.074 A 
ATOM     17  C   UNL A   1      43.826  33.398  29.749  1.00  0.00     0.049 A 
ATOM     18  N   UNL A   1      44.820  36.274  29.524  1.00  0.00    -0.248 NA
ATOM     19  C   UNL A   1      43.053  36.906  30.908  1.00  0.00     0.031 C 
ATOM     20  C   UNL A   1      43.387  32.006  29.888  1.00  0.00     0.029 A 
ATOM     21  N   UNL A   1      45.046  33.298  29.138  1.00  0.00    -0.354 N 
ATOM     22  C   UNL A   1      44.872  37.644  29.759  1.00  0.00     0.074 A 
ATOM     23  C   UNL A   1      43.737  37.988  30.580  1.00  0.00     0.031 C 
ATOM     24  C   UNL A   1      44.349  31.192  29.427  1.00  0.00     0.029 A 
ATOM     25  C   UNL A   1      45.424  32.002  28.870  1.00  0.00     0.049 A 
ATOM     26  H   UNL A   1      45.602  34.078  28.911  1.00  0.00     0.167 HD
ATOM     27  C   UNL A   1      45.787  38.534  29.313  1.00  0.00     0.031 A 
ATOM     28  C   UNL A   1      46.503  31.536  28.214  1.00  0.00     0.031 A 
ATOM     29  C   UNL A   1      46.919  38.146  28.520  1.00  0.00     0.049 A 
ATOM     30  C   UNL A   1      47.466  32.551  27.658  1.00  0.00     0.074 A 
ATOM     31  C   UNL A   1      47.896  38.942  27.954  1.00  0.00     0.029 A 
ATOM     32  N   UNL A   1      47.227  36.831  28.192  1.00  0.00    -0.354 N 
ATOM     33  N   UNL A   1      47.455  33.857  27.795  1.00  0.00    -0.248 NA
ATOM     34  C   UNL A   1      48.573  32.035  26.846  1.00  0.00     0.031 C 
ATOM     35  C   UNL A   1      48.766  38.109  27.242  1.00  0.00     0.029 A 
ATOM     36  C   UNL A   1      48.369  36.791  27.418  1.00  0.00     0.049 A 
ATOM     37  H   UNL A   1      46.706  36.043  28.472  1.00  0.00     0.167 HD
ATOM     38  C   UNL A   1      48.564  34.322  27.100  1.00  0.00     0.074 A 
ATOM     39  C   UNL A   1      49.233  33.150  26.564  1.00  0.00     0.031 C 
ATOM     40  C   UNL A   1      48.996  35.594  26.914  1.00  0.00     0.031 A 
BRANCH  27  41
ATOM     41  C   UNL A   1      45.525  39.989  29.594  1.00  0.00    -0.014 A 
ATOM     42  C   UNL A   1      46.092  40.652  30.698  1.00  0.00     0.010 A 
ATOM     43  C   UNL A   1      44.641  40.693  28.756  1.00  0.00     0.010 A 
ATOM     44  C   UNL A   1      45.736  41.973  30.988  1.00  0.00     0.020 A 
ATOM     45  C   UNL A   1      44.305  42.022  29.026  1.00  0.00     0.020 A 
ATOM     46  C   UNL A   1      44.838  42.647  30.154  1.00  0.00     0.054 A 
BRANCH  46  47
ATOM     47  S   UNL A   1      44.380  44.355  30.560  1.00  0.00     0.124 S 
ATOM     48  O   UNL A   1      44.905  45.088  29.411  1.00  0.00    -0.237 OA
ATOM     49  O   UNL A   1      42.924  44.284  30.646  1.00  0.00    -0.237 OA
ATOM     50  O   UNL A   1      45.065  44.607  31.826  1.00  0.00    -0.744 OA
ENDBRANCH  46  47
ENDBRANCH  27  41
BRANCH  28  51
ATOM     51  C   UNL A   1      46.689  30.073  27.997  1.00  0.00    -0.014 A 
ATOM     52  C   UNL A   1      47.084  29.229  29.050  1.00  0.00     0.010 A 
ATOM     53  C   UNL A   1      46.467  29.507  26.725  1.00  0.00     0.010 A 
ATOM     54  C   UNL A   1      47.268  27.858  28.833  1.00  0.00     0.020 A 
ATOM     55  C   UNL A   1      46.619  28.134  26.512  1.00  0.00     0.020 A 
ATOM     56  C   UNL A   1      47.033  27.320  27.565  1.00  0.00     0.054 A 
BRANCH  56  57
ATOM     57  S   UNL A   1      47.244  25.533  27.314  1.00  0.00     0.124 S 
ATOM     58  O   UNL A   1      47.107  25.019  28.673  1.00  0.00    -0.237 OA
ATOM     59  O   UNL A   1      46.150  25.212  26.401  1.00  0.00    -0.237 OA
ATOM     60  O   UNL A   1      48.581  25.425  26.735  1.00  0.00    -0.744 OA
ENDBRANCH  56  57
ENDBRANCH  28  51
BRANCH  40  61
ATOM     61  C   UNL A   1      50.271  35.769  26.143  1.00  0.00    -0.014 A 
ATOM     62  C   UNL A   1      50.261  35.989  24.755  1.00  0.00     0.010 A 
ATOM     63  C   UNL A   1      51.495  35.766  26.837  1.00  0.00     0.010 A 
ATOM     64  C   UNL A   1      51.462  36.167  24.067  1.00  0.00     0.020 A 
ATOM     65  C   UNL A   1      52.693  35.976  26.157  1.00  0.00     0.020 A 
ATOM     66  C   UNL A   1      52.670  36.159  24.773  1.00  0.00     0.054 A 
BRANCH  66  67
ATOM     67  S   UNL A   1      54.212  36.434  23.864  1.00  0.00     0.124 S 
ATOM     68  O   UNL A   1      55.213  35.964  24.818  1.00  0.00    -0.237 OA
ATOM     69  O   UNL A   1      54.038  35.603  22.675  1.00  0.00    -0.237 OA
ATOM     70  O   UNL A   1      54.215  37.874  23.615  1.00  0.00    -0.744 OA
ENDBRANCH  66  67
ENDBRANCH  40  61
ENDBRANCH  14  15
ENDBRANCH   7   9
ENDBRANCH   6   7
ENDBRANCH   5   6
ENDBRANCH   4   5
ENDBRANCH   3   4
ENDBRANCH   2   3
ENDBRANCH   1   2
BRANCH   1  71
ATOM     71  O   UNL A   1      37.744  29.391  30.357  1.00  0.00    -0.377 OA
BRANCH  71  72
ATOM     72  C   UNL A   1      36.429  29.929  30.473  1.00  0.00     0.188 C 
BRANCH  72  73
ATOM     73  C   UNL A   1      35.713  30.473  29.209  1.00  0.00     0.188 C 
BRANCH  73  74
ATOM     74  O   UNL A   1      36.513  30.481  28.035  1.00  0.00    -0.376 OA
BRANCH  74  75
ATOM     75  C   UNL A   1      36.106  29.579  27.011  1.00  0.00     0.202 C 
BRANCH  75  76
ATOM     76  C   UNL A   1      34.763  28.878  27.261  1.00  0.00     0.261 C 
BRANCH  76  77
ATOM     77  O   UNL A   1      34.283  28.046  26.184  1.00  0.00    -0.460 OA
BRANCH  77  78
ATOM     78  C   UNL A   1      33.280  27.167  26.414  1.00  0.00     0.340 C 
ATOM     79  O   UNL A   1      32.413  27.256  27.265  1.00  0.00    -0.246 OA
BRANCH  78  80
ATOM     80  C   UNL A   1      33.295  26.175  25.300  1.00  0.00     0.085 A 
ATOM     81  C   UNL A   1      33.341  24.808  25.675  1.00  0.00     0.043 A 
ATOM     82  C   UNL A   1      33.112  26.550  23.952  1.00  0.00     0.055 A 
ATOM     83  C   UNL A   1      33.149  23.789  24.736  1.00  0.00     0.038 A 
ATOM     84  C   UNL A   1      33.056  25.511  23.019  1.00  0.00     0.029 A 
ATOM     85  C   UNL A   1      33.045  24.162  23.403  1.00  0.00     0.028 A 
BRANCH  82  86
ATOM     86  N   UNL A   1      32.921  27.920  23.633  1.00  0.00    -0.325 N 
ATOM     87  C   UNL A   1      31.863  28.705  23.273  1.00  0.00     0.227 C 
ATOM     88  H   UNL A   1      33.761  28.432  23.686  1.00  0.00     0.169 HD
ATOM     89  O   UNL A   1      32.059  29.917  23.143  1.00  0.00    -0.274 OA
BRANCH  87  90
ATOM     90  C   UNL A   1      30.505  28.107  23.014  1.00  0.00     0.079 C 
ATOM     91  C   UNL A   1      30.006  27.253  24.178  1.00  0.00     0.013 C 
ATOM     92  C   UNL A   1      29.353  29.102  22.892  1.00  0.00     0.013 C 
ATOM     93  C   UNL A   1      28.576  26.952  23.755  1.00  0.00     0.001 C 
ATOM     94  C   UNL A   1      28.111  28.215  23.023  1.00  0.00     0.001 C 
ENDBRANCH  87  90
ENDBRANCH  82  86
BRANCH  83  95
ATOM     95  N   UNL A   1      33.072  22.469  25.120  1.00  0.00    -0.368 N 
ATOM     96  C   UNL A   1      31.988  21.587  24.633  1.00  0.00     0.138 C 
ATOM     97  C   UNL A   1      34.295  21.806  25.594  1.00  0.00     0.138 C 
ATOM     98  C   UNL A   1      32.486  20.429  23.716  1.00  0.00     0.138 C 
ATOM     99  C   UNL A   1      34.788  20.740  24.597  1.00  0.00     0.138 C 
ATOM    100  N   UNL A   1      33.712  19.803  24.240  1.00  0.00    -0.368 N 
BRANCH 100 101
ATOM    101  C   UNL A   1      33.728  18.497  24.683  1.00  0.00     0.037 A 
ATOM    102  C   UNL A   1      32.648  17.977  25.414  1.00  0.00     0.029 A 
ATOM    103  C   UNL A   1      34.788  17.627  24.386  1.00  0.00     0.029 A 
ATOM    104  C   UNL A   1      32.611  16.630  25.799  1.00  0.00     0.041 A 
ATOM    105  C   UNL A   1      34.769  16.286  24.784  1.00  0.00     0.041 A 
ATOM    106  C   UNL A   1      33.673  15.798  25.477  1.00  0.00     0.123 A 
ATOM    107  F   UNL A   1      33.637  14.506  25.834  1.00  0.00    -0.207 F 
ENDBRANCH 100 101
ENDBRANCH  83  95
ENDBRANCH  78  80
ENDBRANCH  77  78
ENDBRANCH  76  77
ENDBRANCH  75  76
ENDBRANCH  74  75
ENDBRANCH  73  74
ENDBRANCH  72  73
ENDBRANCH  71  72
ENDBRANCH   1  71
TORSDOF 27
ENDMDL
MODEL 3
REMARK VINA RESULT:      -7.8      5.002      8.491
REMARK SMILES O=C(OCCOCCOCCOCCOC(=O)c1cc(N2CCN(c3ccc(F)cc3)CC2)ccc1NC(=O)C1CCCC1)c1ccc(-c2c3nc(c(-c4ccc(S(=O)(=O)[O-])cc4)c4ccc([nH]4)c(-c4ccc(S(=O)(=O)[O-])cc4)c4nc(c(-c5ccc(S(=O)(=O)[O-])cc5)c5ccc2[nH]5)C=C4)C=C3)cc1
REMARK SMILES IDX 8 1 7 2 6 3 5 4 4 5 3 6 2 7 1 8 45 9 46 10 104 11 47 12
REMARK SMILES IDX 103 13 48 14 49 15 50 16 97 17 51 18 102 19 96 20 98 21
REMARK SMILES IDX 52 22 101 23 95 24 94 25 53 27 83 28 64 29 82 30 65 31 68 32
REMARK SMILES IDX 81 33 99 34 66 35 67 36 80 38 100 39 69 40 54 41 55 42 63 43
REMARK SMILES IDX 56 44 62 45 57 46 58 47 59 48 60 49 61 50 84 51 85 52 93 53
REMARK SMILES IDX 86 54 92 55 87 56 88 57 89 58 90 59 91 60 70 61 71 62 79 63
REMARK SMILES IDX 72 64 78 65 73 66 74 67 75 68 76 69 77 70 9 71 10 72 11 73
REMARK SMILES IDX 12 74 13 75 14 76 15 77 16 78 17 79 18 80 19 81 36 82 20 83
REMARK SMILES IDX 35 84 34 85 37 86 38 87 39 89 40 90 41 91 44 92 42 93 43 94
REMARK SMILES IDX 21 95 22 96 33 97 23 98 32 99 24 100 25 101 26 102 31 103
REMARK SMILES IDX 27 104 30 105 28 106 29 107
REMARK H PARENT 98 26 68 37 37 88
REMARK Flexibility Score: inf
ROOT
ATOM      1  C   UNL A   1      36.929  33.726  35.501  1.00  0.00     0.188 C 
ENDROOT
BRANCH   1   2
ATOM      2  C   UNL A   1      38.225  32.952  35.261  1.00  0.00     0.188 C 
BRANCH   2   3
ATOM      3  O   UNL A   1      39.265  33.446  36.089  1.00  0.00    -0.376 OA
BRANCH   3   4
ATOM      4  C   UNL A   1      39.005  33.855  37.420  1.00  0.00     0.202 C 
BRANCH   4   5
ATOM      5  C   UNL A   1      39.699  33.109  38.555  1.00  0.00     0.261 C 
BRANCH   5   6
ATOM      6  O   UNL A   1      40.869  32.348  38.202  1.00  0.00    -0.460 OA
BRANCH   6   7
ATOM      7  C   UNL A   1      42.173  32.695  38.109  1.00  0.00     0.338 C 
ATOM      8  O   UNL A   1      42.788  32.959  39.140  1.00  0.00    -0.246 OA
BRANCH   7   9
ATOM      9  C   UNL A   1      42.911  32.761  36.825  1.00  0.00     0.060 A 
ATOM     10  C   UNL A   1      43.924  31.886  36.450  1.00  0.00     0.016 A 
ATOM     11  C   UNL A   1      42.472  33.690  35.875  1.00  0.00     0.016 A 
ATOM     12  C   UNL A   1      44.651  32.063  35.288  1.00  0.00     0.010 A 
ATOM     13  C   UNL A   1      43.120  33.805  34.643  1.00  0.00     0.010 A 
ATOM     14  C   UNL A   1      44.269  33.044  34.384  1.00  0.00    -0.014 A 
BRANCH  14  15
ATOM     15  C   UNL A   1      45.195  33.384  33.288  1.00  0.00     0.031 A 
ATOM     16  C   UNL A   1      44.977  32.704  31.966  1.00  0.00     0.074 A 
ATOM     17  C   UNL A   1      46.098  34.372  33.433  1.00  0.00     0.049 A 
ATOM     18  N   UNL A   1      45.699  32.748  30.882  1.00  0.00    -0.248 NA
ATOM     19  C   UNL A   1      43.778  31.851  31.852  1.00  0.00     0.031 C 
ATOM     20  C   UNL A   1      46.275  35.195  34.635  1.00  0.00     0.029 A 
ATOM     21  N   UNL A   1      47.008  34.885  32.548  1.00  0.00    -0.354 N 
ATOM     22  C   UNL A   1      45.085  31.874  29.990  1.00  0.00     0.074 A 
ATOM     23  C   UNL A   1      43.931  31.316  30.653  1.00  0.00     0.031 C 
ATOM     24  C   UNL A   1      47.194  36.141  34.391  1.00  0.00     0.029 A 
ATOM     25  C   UNL A   1      47.742  35.932  33.057  1.00  0.00     0.049 A 
ATOM     26  H   UNL A   1      47.126  34.538  31.635  1.00  0.00     0.167 HD
ATOM     27  C   UNL A   1      45.465  31.561  28.731  1.00  0.00     0.031 A 
ATOM     28  C   UNL A   1      48.766  36.612  32.510  1.00  0.00     0.031 A 
ATOM     29  C   UNL A   1      46.606  32.160  28.098  1.00  0.00     0.049 A 
ATOM     30  C   UNL A   1      49.222  36.192  31.138  1.00  0.00     0.074 A 
ATOM     31  C   UNL A   1      47.140  31.903  26.851  1.00  0.00     0.029 A 
ATOM     32  N   UNL A   1      47.382  33.158  28.674  1.00  0.00    -0.354 N 
ATOM     33  N   UNL A   1      48.701  35.290  30.338  1.00  0.00    -0.248 NA
ATOM     34  C   UNL A   1      50.412  36.863  30.603  1.00  0.00     0.031 C 
ATOM     35  C   UNL A   1      48.272  32.711  26.695  1.00  0.00     0.029 A 
ATOM     36  C   UNL A   1      48.403  33.518  27.818  1.00  0.00     0.049 A 
ATOM     37  H   UNL A   1      47.227  33.551  29.564  1.00  0.00     0.167 HD
ATOM     38  C   UNL A   1      49.489  35.297  29.194  1.00  0.00     0.074 A 
ATOM     39  C   UNL A   1      50.508  36.309  29.402  1.00  0.00     0.031 C 
ATOM     40  C   UNL A   1      49.389  34.538  28.074  1.00  0.00     0.031 A 
BRANCH  27  41
ATOM     41  C   UNL A   1      44.701  30.469  28.033  1.00  0.00    -0.014 A 
ATOM     42  C   UNL A   1      43.576  30.736  27.233  1.00  0.00     0.010 A 
ATOM     43  C   UNL A   1      45.093  29.132  28.234  1.00  0.00     0.010 A 
ATOM     44  C   UNL A   1      42.827  29.685  26.693  1.00  0.00     0.020 A 
ATOM     45  C   UNL A   1      44.365  28.081  27.672  1.00  0.00     0.020 A 
ATOM     46  C   UNL A   1      43.222  28.364  26.923  1.00  0.00     0.054 A 
BRANCH  46  47
ATOM     47  S   UNL A   1      42.226  27.017  26.225  1.00  0.00     0.124 S 
ATOM     48  O   UNL A   1      40.882  27.378  26.667  1.00  0.00    -0.237 OA
ATOM     49  O   UNL A   1      42.471  27.148  24.791  1.00  0.00    -0.237 OA
ATOM     50  O   UNL A   1      42.784  25.817  26.842  1.00  0.00    -0.744 OA
ENDBRANCH  46  47
ENDBRANCH  27  41
BRANCH  28  51
ATOM     51  C   UNL A   1      49.454  37.694  33.271  1.00  0.00    -0.014 A 
ATOM     52  C   UNL A   1      49.047  39.035  33.152  1.00  0.00     0.010 A 
ATOM     53  C   UNL A   1      50.529  37.389  34.130  1.00  0.00     0.010 A 
ATOM     54  C   UNL A   1      49.707  40.045  33.862  1.00  0.00     0.020 A 
ATOM     55  C   UNL A   1      51.170  38.390  34.864  1.00  0.00     0.020 A 
ATOM     56  C   UNL A   1      50.765  39.716  34.714  1.00  0.00     0.054 A 
BRANCH  56  57
ATOM     57  S   UNL A   1      51.584  41.037  35.652  1.00  0.00     0.124 S 
ATOM     58  O   UNL A   1      52.262  41.782  34.596  1.00  0.00    -0.237 OA
ATOM     59  O   UNL A   1      50.458  41.718  36.287  1.00  0.00    -0.237 OA
ATOM     60  O   UNL A   1      52.461  40.312  36.569  1.00  0.00    -0.744 OA
ENDBRANCH  56  57
ENDBRANCH  28  51
BRANCH  40  61
ATOM     61  C   UNL A   1      50.377  34.818  26.979  1.00  0.00    -0.014 A 
ATOM     62  C   UNL A   1      50.128  35.798  26.003  1.00  0.00     0.010 A 
ATOM     63  C   UNL A   1      51.599  34.119  26.967  1.00  0.00     0.010 A 
ATOM     64  C   UNL A   1      51.074  36.049  25.009  1.00  0.00     0.020 A 
ATOM     65  C   UNL A   1      52.558  34.391  25.993  1.00  0.00     0.020 A 
ATOM     66  C   UNL A   1      52.282  35.343  25.009  1.00  0.00     0.054 A 
BRANCH  66  67
ATOM     67  S   UNL A   1      53.511  35.716  23.732  1.00  0.00     0.124 S 
ATOM     68  O   UNL A   1      53.346  37.158  23.567  1.00  0.00    -0.237 OA
ATOM     69  O   UNL A   1      54.762  35.293  24.357  1.00  0.00    -0.237 OA
ATOM     70  O   UNL A   1      53.084  34.904  22.594  1.00  0.00    -0.744 OA
ENDBRANCH  66  67
ENDBRANCH  40  61
ENDBRANCH  14  15
ENDBRANCH   7   9
ENDBRANCH   6   7
ENDBRANCH   5   6
ENDBRANCH   4   5
ENDBRANCH   3   4
ENDBRANCH   2   3
ENDBRANCH   1   2
BRANCH   1  71
ATOM     71  O   UNL A   1      36.570  34.635  34.468  1.00  0.00    -0.377 OA
BRANCH  71  72
ATOM     72  C   UNL A   1      35.183  34.720  34.152  1.00  0.00     0.188 C 
BRANCH  72  73
ATOM     73  C   UNL A   1      34.484  33.522  33.457  1.00  0.00     0.188 C 
BRANCH  73  74
ATOM     74  O   UNL A   1      33.736  33.866  32.300  1.00  0.00    -0.376 OA
BRANCH  74  75
ATOM     75  C   UNL A   1      33.449  35.253  32.147  1.00  0.00     0.202 C 
BRANCH  75  76
ATOM     76  C   UNL A   1      33.267  35.722  30.697  1.00  0.00     0.261 C 
BRANCH  76  77
ATOM     77  O   UNL A   1      33.056  34.678  29.724  1.00  0.00    -0.460 OA
BRANCH  77  78
ATOM     78  C   UNL A   1      33.982  34.466  28.759  1.00  0.00     0.340 C 
ATOM     79  O   UNL A   1      34.525  35.312  28.072  1.00  0.00    -0.246 OA
BRANCH  78  80
ATOM     80  C   UNL A   1      34.379  33.030  28.832  1.00  0.00     0.085 A 
ATOM     81  C   UNL A   1      33.673  32.137  27.987  1.00  0.00     0.043 A 
ATOM     82  C   UNL A   1      35.497  32.592  29.574  1.00  0.00     0.055 A 
ATOM     83  C   UNL A   1      34.091  30.814  27.813  1.00  0.00     0.038 A 
ATOM     84  C   UNL A   1      35.811  31.234  29.483  1.00  0.00     0.029 A 
ATOM     85  C   UNL A   1      35.144  30.371  28.602  1.00  0.00     0.028 A 
BRANCH  82  86
ATOM     86  N   UNL A   1      36.269  33.544  30.292  1.00  0.00    -0.325 N 
ATOM     87  C   UNL A   1      37.505  33.568  30.871  1.00  0.00     0.227 C 
ATOM     88  H   UNL A   1      35.794  34.400  30.398  1.00  0.00     0.169 HD
ATOM     89  O   UNL A   1      37.895  34.631  31.361  1.00  0.00    -0.274 OA
BRANCH  87  90
ATOM     90  C   UNL A   1      38.357  32.327  30.935  1.00  0.00     0.079 C 
ATOM     91  C   UNL A   1      39.319  32.211  29.753  1.00  0.00     0.013 C 
ATOM     92  C   UNL A   1      39.345  32.258  32.098  1.00  0.00     0.013 C 
ATOM     93  C   UNL A   1      40.173  31.020  30.160  1.00  0.00     0.001 C 
ATOM     94  C   UNL A   1      40.292  31.127  31.684  1.00  0.00     0.001 C 
ENDBRANCH  87  90
ENDBRANCH  82  86
BRANCH  83  95
ATOM     95  N   UNL A   1      33.479  29.985  26.901  1.00  0.00    -0.368 N 
ATOM     96  C   UNL A   1      34.257  29.011  26.102  1.00  0.00     0.138 C 
ATOM     97  C   UNL A   1      32.045  29.708  27.060  1.00  0.00     0.138 C 
ATOM     98  C   UNL A   1      33.924  27.523  26.430  1.00  0.00     0.138 C 
ATOM     99  C   UNL A   1      31.790  28.246  27.478  1.00  0.00     0.138 C 
ATOM    100  N   UNL A   1      32.474  27.306  26.578  1.00  0.00    -0.368 N 
BRANCH 100 101
ATOM    101  C   UNL A   1      31.765  26.520  25.694  1.00  0.00     0.037 A 
ATOM    102  C   UNL A   1      31.133  27.092  24.577  1.00  0.00     0.029 A 
ATOM    103  C   UNL A   1      31.682  25.127  25.842  1.00  0.00     0.029 A 
ATOM    104  C   UNL A   1      30.479  26.298  23.626  1.00  0.00     0.041 A 
ATOM    105  C   UNL A   1      31.013  24.330  24.908  1.00  0.00     0.041 A 
ATOM    106  C   UNL A   1      30.428  24.923  23.801  1.00  0.00     0.123 A 
ATOM    107  F   UNL A   1      29.812  24.159  22.887  1.00  0.00    -0.207 F 
ENDBRANCH 100 101
ENDBRANCH  83  95
ENDBRANCH  78  80
ENDBRANCH  77  78
ENDBRANCH  76  77
ENDBRANCH  75  76
ENDBRANCH  74  75
ENDBRANCH  73  74
ENDBRANCH  72  73
ENDBRANCH  71  72
ENDBRANCH   1  71
TORSDOF 27
ENDMDL
