MODEL 1
REMARK VINA RESULT:      -9.5      0.000      0.000
REMARK SMILES O=C(COc1ccccc1C[N@H+]1C[C@@H]2[C@H]3CC[C@H](C3)[C@@H]2C1)OCCOCCOCCOCCOC(=O)c1ccc(-c2c3nc(c(-c4ccc(S(=O)(=O)[O-])cc4)c4ccc([nH]4)c(-c4ccc(S(=O)(=O)[O-])cc4)c4nc(c(-c5ccc(S(=O)(=O)[O-])cc5)c5ccc2[nH]5)C=C4)C=C3)cc1
REMARK SMILES IDX 27 1 26 2 25 3 24 4 23 5 22 6 2 7 1 8 3 9 4 10 5 11 6 12
REMARK SMILES IDX 10 13 7 14 9 15 8 16 11 17 12 18 13 19 21 20 14 22 20 23
REMARK SMILES IDX 15 24 18 25 16 26 19 27 17 28 28 29 29 30 30 31 31 32 32 33
REMARK SMILES IDX 33 34 34 35 35 36 36 37 37 38 38 39 96 40 39 41 95 42 40 43
REMARK SMILES IDX 41 44 42 45 89 46 43 47 94 48 88 49 90 50 44 51 93 52 87 53
REMARK SMILES IDX 86 54 45 56 75 57 56 58 74 59 57 60 60 61 73 62 91 63 58 64
REMARK SMILES IDX 59 65 72 67 92 68 61 69 46 70 47 71 55 72 48 73 54 74 49 75
REMARK SMILES IDX 50 76 51 77 52 78 53 79 76 80 77 81 85 82 78 83 84 84 79 85
REMARK SMILES IDX 80 86 81 87 82 88 83 89 62 90 63 91 71 92 64 93 70 94 65 95
REMARK SMILES IDX 66 96 67 97 68 98 69 99
REMARK H PARENT 12 21 90 55 60 66
REMARK Flexibility Score: inf
ROOT
ATOM      1  C   UNL A   1      37.263  22.582  25.416  1.00  0.00     0.188 C 
ENDROOT
BRANCH   1   2
ATOM      2  C   UNL A   1      35.866  22.712  26.078  1.00  0.00     0.188 C 
BRANCH   2   3
ATOM      3  O   UNL A   1      34.901  21.704  25.817  1.00  0.00    -0.376 OA
BRANCH   3   4
ATOM      4  C   UNL A   1      33.527  21.781  26.137  1.00  0.00     0.202 C 
BRANCH   4   5
ATOM      5  C   UNL A   1      33.087  22.141  27.547  1.00  0.00     0.261 C 
BRANCH   5   6
ATOM      6  O   UNL A   1      32.165  23.244  27.634  1.00  0.00    -0.461 OA
BRANCH   6   7
ATOM      7  C   UNL A   1      30.904  23.314  27.145  1.00  0.00     0.344 C 
ATOM      8  O   UNL A   1      30.025  22.602  27.628  1.00  0.00    -0.248 OA
BRANCH   7   9
ATOM      9  C   UNL A   1      30.616  24.246  25.986  1.00  0.00     0.351 C 
BRANCH   9  10
ATOM     10  O   UNL A   1      31.159  25.552  26.107  1.00  0.00    -0.481 OA
BRANCH  10  11
ATOM     11  C   UNL A   1      31.924  25.882  25.021  1.00  0.00     0.129 A 
ATOM     12  C   UNL A   1      33.276  25.555  25.137  1.00  0.00     0.047 A 
ATOM     13  C   UNL A   1      31.412  26.540  23.882  1.00  0.00     0.048 A 
ATOM     14  C   UNL A   1      34.134  25.806  24.076  1.00  0.00     0.004 A 
ATOM     15  C   UNL A   1      32.288  26.742  22.813  1.00  0.00     0.013 A 
ATOM     16  C   UNL A   1      33.635  26.379  22.908  1.00  0.00     0.001 A 
BRANCH  13  17
ATOM     17  C   UNL A   1      29.964  26.974  23.802  1.00  0.00     0.302 C 
BRANCH  17  18
ATOM     18  N   UNL A   1      29.698  28.337  23.418  1.00  0.00    -0.331 N 
ATOM     19  C   UNL A   1      30.431  29.350  24.148  1.00  0.00     0.266 C 
ATOM     20  C   UNL A   1      30.007  28.627  22.000  1.00  0.00     0.266 C 
ATOM     21  H   UNL A   1      28.701  28.394  23.624  1.00  0.00     0.348 HD
ATOM     22  C   UNL A   1      29.986  30.594  23.398  1.00  0.00     0.056 C 
ATOM     23  C   UNL A   1      29.877  30.152  21.920  1.00  0.00     0.056 C 
ATOM     24  C   UNL A   1      28.531  31.056  23.709  1.00  0.00    -0.002 C 
ATOM     25  C   UNL A   1      28.467  30.654  21.523  1.00  0.00    -0.002 C 
ATOM     26  C   UNL A   1      28.393  32.466  23.123  1.00  0.00     0.004 C 
ATOM     27  C   UNL A   1      27.621  30.285  22.738  1.00  0.00     0.008 C 
ATOM     28  C   UNL A   1      28.437  32.196  21.607  1.00  0.00     0.004 C 
ENDBRANCH  17  18
ENDBRANCH  13  17
ENDBRANCH  10  11
ENDBRANCH   9  10
ENDBRANCH   7   9
ENDBRANCH   6   7
ENDBRANCH   5   6
ENDBRANCH   4   5
ENDBRANCH   3   4
ENDBRANCH   2   3
ENDBRANCH   1   2
BRANCH   1  29
ATOM     29  O   UNL A   1      38.166  21.554  25.801  1.00  0.00    -0.377 OA
BRANCH  29  30
ATOM     30  C   UNL A   1      39.539  21.880  25.896  1.00  0.00     0.188 C 
BRANCH  30  31
ATOM     31  C   UNL A   1      40.353  20.851  26.698  1.00  0.00     0.188 C 
BRANCH  31  32
ATOM     32  O   UNL A   1      41.610  20.505  26.152  1.00  0.00    -0.376 OA
BRANCH  32  33
ATOM     33  C   UNL A   1      42.097  19.174  26.122  1.00  0.00     0.202 C 
BRANCH  33  34
ATOM     34  C   UNL A   1      43.348  18.661  25.382  1.00  0.00     0.261 C 
BRANCH  34  35
ATOM     35  O   UNL A   1      43.847  19.401  24.273  1.00  0.00    -0.460 OA
BRANCH  35  36
ATOM     36  C   UNL A   1      45.061  19.962  24.396  1.00  0.00     0.338 C 
ATOM     37  O   UNL A   1      46.119  19.541  23.957  1.00  0.00    -0.246 OA
BRANCH  36  38
ATOM     38  C   UNL A   1      44.837  21.307  24.963  1.00  0.00     0.060 A 
ATOM     39  C   UNL A   1      44.403  22.334  24.113  1.00  0.00     0.016 A 
ATOM     40  C   UNL A   1      45.008  21.534  26.333  1.00  0.00     0.016 A 
ATOM     41  C   UNL A   1      44.182  23.607  24.621  1.00  0.00     0.010 A 
ATOM     42  C   UNL A   1      44.834  22.822  26.834  1.00  0.00     0.010 A 
ATOM     43  C   UNL A   1      44.473  23.866  25.965  1.00  0.00    -0.014 A 
BRANCH  43  44
ATOM     44  C   UNL A   1      44.735  25.263  26.362  1.00  0.00     0.031 A 
ATOM     45  C   UNL A   1      46.118  25.796  26.104  1.00  0.00     0.074 A 
ATOM     46  C   UNL A   1      43.775  26.043  26.882  1.00  0.00     0.049 A 
ATOM     47  N   UNL A   1      46.617  26.973  26.364  1.00  0.00    -0.248 NA
ATOM     48  C   UNL A   1      47.068  24.866  25.464  1.00  0.00     0.031 C 
ATOM     49  C   UNL A   1      42.386  25.648  27.104  1.00  0.00     0.029 A 
ATOM     50  N   UNL A   1      43.835  27.341  27.315  1.00  0.00    -0.354 N 
ATOM     51  C   UNL A   1      47.938  26.920  25.935  1.00  0.00     0.074 A 
ATOM     52  C   UNL A   1      48.173  25.588  25.427  1.00  0.00     0.031 C 
ATOM     53  C   UNL A   1      41.723  26.688  27.640  1.00  0.00     0.029 A 
ATOM     54  C   UNL A   1      42.649  27.803  27.829  1.00  0.00     0.049 A 
ATOM     55  H   UNL A   1      44.651  27.891  27.262  1.00  0.00     0.167 HD
ATOM     56  C   UNL A   1      48.874  27.896  25.961  1.00  0.00     0.031 A 
ATOM     57  C   UNL A   1      42.360  28.988  28.402  1.00  0.00     0.031 A 
ATOM     58  C   UNL A   1      48.635  29.207  26.499  1.00  0.00     0.049 A 
ATOM     59  C   UNL A   1      43.443  30.031  28.506  1.00  0.00     0.074 A 
ATOM     60  C   UNL A   1      49.507  30.276  26.579  1.00  0.00     0.029 A 
ATOM     61  N   UNL A   1      47.436  29.620  27.062  1.00  0.00    -0.354 N 
ATOM     62  N   UNL A   1      44.686  29.978  28.088  1.00  0.00    -0.248 NA
ATOM     63  C   UNL A   1      43.077  31.300  29.149  1.00  0.00     0.031 C 
ATOM     64  C   UNL A   1      48.856  31.313  27.255  1.00  0.00     0.029 A 
ATOM     65  C   UNL A   1      47.553  30.919  27.521  1.00  0.00     0.049 A 
ATOM     66  H   UNL A   1      46.622  29.068  27.126  1.00  0.00     0.167 HD
ATOM     67  C   UNL A   1      45.240  31.220  28.382  1.00  0.00     0.074 A 
ATOM     68  C   UNL A   1      44.194  32.002  29.009  1.00  0.00     0.031 C 
ATOM     69  C   UNL A   1      46.497  31.678  28.146  1.00  0.00     0.031 A 
BRANCH  56  70
ATOM     70  C   UNL A   1      50.247  27.544  25.453  1.00  0.00    -0.014 A 
ATOM     71  C   UNL A   1      51.230  26.997  26.300  1.00  0.00     0.010 A 
ATOM     72  C   UNL A   1      50.567  27.788  24.105  1.00  0.00     0.010 A 
ATOM     73  C   UNL A   1      52.521  26.755  25.821  1.00  0.00     0.020 A 
ATOM     74  C   UNL A   1      51.846  27.514  23.614  1.00  0.00     0.020 A 
ATOM     75  C   UNL A   1      52.821  27.020  24.483  1.00  0.00     0.054 A 
BRANCH  75  76
ATOM     76  S   UNL A   1      54.505  26.703  23.888  1.00  0.00     0.124 S 
ATOM     77  O   UNL A   1      54.267  26.324  22.497  1.00  0.00    -0.237 OA
ATOM     78  O   UNL A   1      55.161  27.993  24.084  1.00  0.00    -0.237 OA
ATOM     79  O   UNL A   1      54.983  25.627  24.754  1.00  0.00    -0.744 OA
ENDBRANCH  75  76
ENDBRANCH  56  70
BRANCH  57  80
ATOM     80  C   UNL A   1      40.987  29.244  28.915  1.00  0.00    -0.014 A 
ATOM     81  C   UNL A   1      40.014  29.830  28.089  1.00  0.00     0.010 A 
ATOM     82  C   UNL A   1      40.639  28.878  30.229  1.00  0.00     0.010 A 
ATOM     83  C   UNL A   1      38.718  30.048  28.566  1.00  0.00     0.020 A 
ATOM     84  C   UNL A   1      39.337  29.068  30.700  1.00  0.00     0.020 A 
ATOM     85  C   UNL A   1      38.386  29.657  29.866  1.00  0.00     0.054 A 
BRANCH  85  86
ATOM     86  S   UNL A   1      36.677  29.880  30.434  1.00  0.00     0.124 S 
ATOM     87  O   UNL A   1      35.911  29.327  29.322  1.00  0.00    -0.237 OA
ATOM     88  O   UNL A   1      36.655  29.099  31.669  1.00  0.00    -0.237 OA
ATOM     89  O   UNL A   1      36.562  31.325  30.618  1.00  0.00    -0.744 OA
ENDBRANCH  85  86
ENDBRANCH  57  80
BRANCH  69  90
ATOM     90  C   UNL A   1      46.799  33.107  28.517  1.00  0.00    -0.014 A 
ATOM     91  C   UNL A   1      47.381  33.444  29.752  1.00  0.00     0.010 A 
ATOM     92  C   UNL A   1      46.545  34.126  27.579  1.00  0.00     0.010 A 
ATOM     93  C   UNL A   1      47.667  34.778  30.056  1.00  0.00     0.020 A 
ATOM     94  C   UNL A   1      46.861  35.455  27.866  1.00  0.00     0.020 A 
ATOM     95  C   UNL A   1      47.405  35.776  29.110  1.00  0.00     0.054 A 
BRANCH  95  96
ATOM     96  S   UNL A   1      47.817  37.494  29.516  1.00  0.00     0.124 S 
ATOM     97  O   UNL A   1      47.794  38.130  28.202  1.00  0.00    -0.237 OA
ATOM     98  O   UNL A   1      46.736  37.878  30.419  1.00  0.00    -0.237 OA
ATOM     99  O   UNL A   1      49.136  37.397  30.137  1.00  0.00    -0.744 OA
ENDBRANCH  95  96
ENDBRANCH  69  90
ENDBRANCH  43  44
ENDBRANCH  36  38
ENDBRANCH  35  36
ENDBRANCH  34  35
ENDBRANCH  33  34
ENDBRANCH  32  33
ENDBRANCH  31  32
ENDBRANCH  30  31
ENDBRANCH  29  30
ENDBRANCH   1  29
TORSDOF 27
ENDMDL
MODEL 2
REMARK VINA RESULT:      -9.3      1.474      2.627
REMARK SMILES O=C(COc1ccccc1C[N@H+]1C[C@@H]2[C@H]3CC[C@H](C3)[C@@H]2C1)OCCOCCOCCOCCOC(=O)c1ccc(-c2c3nc(c(-c4ccc(S(=O)(=O)[O-])cc4)c4ccc([nH]4)c(-c4ccc(S(=O)(=O)[O-])cc4)c4nc(c(-c5ccc(S(=O)(=O)[O-])cc5)c5ccc2[nH]5)C=C4)C=C3)cc1
REMARK SMILES IDX 27 1 26 2 25 3 24 4 23 5 22 6 2 7 1 8 3 9 4 10 5 11 6 12
REMARK SMILES IDX 10 13 7 14 9 15 8 16 11 17 12 18 13 19 21 20 14 22 20 23
REMARK SMILES IDX 15 24 18 25 16 26 19 27 17 28 28 29 29 30 30 31 31 32 32 33
REMARK SMILES IDX 33 34 34 35 35 36 36 37 37 38 38 39 96 40 39 41 95 42 40 43
REMARK SMILES IDX 41 44 42 45 89 46 43 47 94 48 88 49 90 50 44 51 93 52 87 53
REMARK SMILES IDX 86 54 45 56 75 57 56 58 74 59 57 60 60 61 73 62 91 63 58 64
REMARK SMILES IDX 59 65 72 67 92 68 61 69 46 70 47 71 55 72 48 73 54 74 49 75
REMARK SMILES IDX 50 76 51 77 52 78 53 79 76 80 77 81 85 82 78 83 84 84 79 85
REMARK SMILES IDX 80 86 81 87 82 88 83 89 62 90 63 91 71 92 64 93 70 94 65 95
REMARK SMILES IDX 66 96 67 97 68 98 69 99
REMARK H PARENT 12 21 90 55 60 66
REMARK Flexibility Score: inf
ROOT
ATOM      1  C   UNL A   1      38.538  21.457  25.962  1.00  0.00     0.188 C 
ENDROOT
BRANCH   1   2
ATOM      2  C   UNL A   1      37.515  21.441  24.795  1.00  0.00     0.188 C 
BRANCH   2   3
ATOM      3  O   UNL A   1      36.172  21.807  25.072  1.00  0.00    -0.376 OA
BRANCH   3   4
ATOM      4  C   UNL A   1      35.206  22.174  24.110  1.00  0.00     0.202 C 
BRANCH   4   5
ATOM      5  C   UNL A   1      35.555  23.163  23.009  1.00  0.00     0.261 C 
BRANCH   5   6
ATOM      6  O   UNL A   1      34.509  24.093  22.672  1.00  0.00    -0.461 OA
BRANCH   6   7
ATOM      7  C   UNL A   1      33.371  23.848  21.980  1.00  0.00     0.344 C 
ATOM      8  O   UNL A   1      33.352  24.017  20.761  1.00  0.00    -0.248 OA
BRANCH   7   9
ATOM      9  C   UNL A   1      32.134  23.403  22.733  1.00  0.00     0.351 C 
BRANCH   9  10
ATOM     10  O   UNL A   1      31.744  24.242  23.810  1.00  0.00    -0.481 OA
BRANCH  10  11
ATOM     11  C   UNL A   1      32.200  23.764  25.009  1.00  0.00     0.129 A 
ATOM     12  C   UNL A   1      31.697  22.514  25.370  1.00  0.00     0.047 A 
ATOM     13  C   UNL A   1      33.075  24.486  25.850  1.00  0.00     0.048 A 
ATOM     14  C   UNL A   1      32.126  21.917  26.547  1.00  0.00     0.004 A 
ATOM     15  C   UNL A   1      33.524  23.844  27.007  1.00  0.00     0.013 A 
ATOM     16  C   UNL A   1      33.055  22.572  27.352  1.00  0.00     0.001 A 
BRANCH  13  17
ATOM     17  C   UNL A   1      33.544  25.880  25.496  1.00  0.00     0.302 C 
BRANCH  17  18
ATOM     18  N   UNL A   1      32.593  26.764  24.871  1.00  0.00    -0.331 N 
ATOM     19  C   UNL A   1      31.538  27.261  25.731  1.00  0.00     0.266 C 
ATOM     20  C   UNL A   1      33.200  27.991  24.308  1.00  0.00     0.266 C 
ATOM     21  H   UNL A   1      32.212  26.147  24.154  1.00  0.00     0.348 HD
ATOM     22  C   UNL A   1      30.844  28.217  24.777  1.00  0.00     0.056 C 
ATOM     23  C   UNL A   1      31.982  28.845  23.940  1.00  0.00     0.056 C 
ATOM     24  C   UNL A   1      29.977  27.527  23.681  1.00  0.00    -0.002 C 
ATOM     25  C   UNL A   1      31.480  28.650  22.489  1.00  0.00    -0.002 C 
ATOM     26  C   UNL A   1      29.126  28.633  23.046  1.00  0.00     0.004 C 
ATOM     27  C   UNL A   1      30.927  27.228  22.510  1.00  0.00     0.008 C 
ATOM     28  C   UNL A   1      30.181  29.463  22.290  1.00  0.00     0.004 C 
ENDBRANCH  17  18
ENDBRANCH  13  17
ENDBRANCH  10  11
ENDBRANCH   9  10
ENDBRANCH   7   9
ENDBRANCH   6   7
ENDBRANCH   5   6
ENDBRANCH   4   5
ENDBRANCH   3   4
ENDBRANCH   2   3
ENDBRANCH   1   2
BRANCH   1  29
ATOM     29  O   UNL A   1      39.750  22.193  25.865  1.00  0.00    -0.377 OA
BRANCH  29  30
ATOM     30  C   UNL A   1      40.156  22.950  26.989  1.00  0.00     0.188 C 
BRANCH  30  31
ATOM     31  C   UNL A   1      41.058  22.165  27.957  1.00  0.00     0.188 C 
BRANCH  31  32
ATOM     32  O   UNL A   1      40.817  20.773  28.025  1.00  0.00    -0.376 OA
BRANCH  32  33
ATOM     33  C   UNL A   1      41.751  19.807  27.573  1.00  0.00     0.202 C 
BRANCH  33  34
ATOM     34  C   UNL A   1      42.003  19.372  26.117  1.00  0.00     0.261 C 
BRANCH  34  35
ATOM     35  O   UNL A   1      42.637  20.281  25.223  1.00  0.00    -0.460 OA
BRANCH  35  36
ATOM     36  C   UNL A   1      43.967  20.177  25.071  1.00  0.00     0.338 C 
ATOM     37  O   UNL A   1      44.593  19.208  24.672  1.00  0.00    -0.246 OA
BRANCH  36  38
ATOM     38  C   UNL A   1      44.509  21.538  25.254  1.00  0.00     0.060 A 
ATOM     39  C   UNL A   1      45.297  21.805  26.382  1.00  0.00     0.016 A 
ATOM     40  C   UNL A   1      44.280  22.525  24.290  1.00  0.00     0.016 A 
ATOM     41  C   UNL A   1      45.822  23.076  26.576  1.00  0.00     0.010 A 
ATOM     42  C   UNL A   1      44.764  23.813  24.509  1.00  0.00     0.010 A 
ATOM     43  C   UNL A   1      45.489  24.097  25.679  1.00  0.00    -0.014 A 
BRANCH  43  44
ATOM     44  C   UNL A   1      45.598  25.493  26.144  1.00  0.00     0.031 A 
ATOM     45  C   UNL A   1      46.957  26.133  26.061  1.00  0.00     0.074 A 
ATOM     46  C   UNL A   1      44.529  26.181  26.574  1.00  0.00     0.049 A 
ATOM     47  N   UNL A   1      47.332  27.333  26.410  1.00  0.00    -0.248 NA
ATOM     48  C   UNL A   1      48.039  25.300  25.506  1.00  0.00     0.031 C 
ATOM     49  C   UNL A   1      43.158  25.679  26.625  1.00  0.00     0.029 A 
ATOM     50  N   UNL A   1      44.442  27.464  27.048  1.00  0.00    -0.354 N 
ATOM     51  C   UNL A   1      48.693  27.392  26.132  1.00  0.00     0.074 A 
ATOM     52  C   UNL A   1      49.084  26.101  25.616  1.00  0.00     0.031 C 
ATOM     53  C   UNL A   1      42.363  26.647  27.112  1.00  0.00     0.029 A 
ATOM     54  C   UNL A   1      43.175  27.818  27.438  1.00  0.00     0.049 A 
ATOM     55  H   UNL A   1      45.215  28.072  27.105  1.00  0.00     0.167 HD
ATOM     56  C   UNL A   1      49.543  28.431  26.293  1.00  0.00     0.031 A 
ATOM     57  C   UNL A   1      42.735  28.957  28.008  1.00  0.00     0.031 A 
ATOM     58  C   UNL A   1      49.148  29.700  26.838  1.00  0.00     0.049 A 
ATOM     59  C   UNL A   1      43.716  30.072  28.265  1.00  0.00     0.074 A 
ATOM     60  C   UNL A   1      49.921  30.826  27.049  1.00  0.00     0.029 A 
ATOM     61  N   UNL A   1      47.865  30.004  27.273  1.00  0.00    -0.354 N 
ATOM     62  N   UNL A   1      44.999  30.124  27.990  1.00  0.00    -0.248 NA
ATOM     63  C   UNL A   1      43.186  31.285  28.899  1.00  0.00     0.031 C 
ATOM     64  C   UNL A   1      49.122  31.787  27.676  1.00  0.00     0.029 A 
ATOM     65  C   UNL A   1      47.831  31.290  27.781  1.00  0.00     0.049 A 
ATOM     66  H   UNL A   1      47.094  29.393  27.228  1.00  0.00     0.167 HD
ATOM     67  C   UNL A   1      45.421  31.391  28.381  1.00  0.00     0.074 A 
ATOM     68  C   UNL A   1      44.254  32.071  28.907  1.00  0.00     0.031 C 
ATOM     69  C   UNL A   1      46.657  31.947  28.303  1.00  0.00     0.031 A 
BRANCH  56  70
ATOM     70  C   UNL A   1      50.988  28.199  25.935  1.00  0.00    -0.014 A 
ATOM     71  C   UNL A   1      51.462  28.379  24.622  1.00  0.00     0.010 A 
ATOM     72  C   UNL A   1      51.883  27.769  26.931  1.00  0.00     0.010 A 
ATOM     73  C   UNL A   1      52.789  28.079  24.302  1.00  0.00     0.020 A 
ATOM     74  C   UNL A   1      53.219  27.503  26.622  1.00  0.00     0.020 A 
ATOM     75  C   UNL A   1      53.657  27.637  25.304  1.00  0.00     0.054 A 
BRANCH  75  76
ATOM     76  S   UNL A   1      55.373  27.250  24.861  1.00  0.00     0.124 S 
ATOM     77  O   UNL A   1      56.013  28.559  24.962  1.00  0.00    -0.237 OA
ATOM     78  O   UNL A   1      55.756  26.283  25.886  1.00  0.00    -0.237 OA
ATOM     79  O   UNL A   1      55.270  26.710  23.508  1.00  0.00    -0.744 OA
ENDBRANCH  75  76
ENDBRANCH  56  70
BRANCH  57  80
ATOM     80  C   UNL A   1      41.297  29.094  28.369  1.00  0.00    -0.014 A 
ATOM     81  C   UNL A   1      40.898  29.110  29.716  1.00  0.00     0.010 A 
ATOM     82  C   UNL A   1      40.322  29.236  27.365  1.00  0.00     0.010 A 
ATOM     83  C   UNL A   1      39.550  29.262  30.053  1.00  0.00     0.020 A 
ATOM     84  C   UNL A   1      38.977  29.418  27.698  1.00  0.00     0.020 A 
ATOM     85  C   UNL A   1      38.599  29.424  29.041  1.00  0.00     0.054 A 
BRANCH  85  86
ATOM     86  S   UNL A   1      36.867  29.699  29.508  1.00  0.00     0.124 S 
ATOM     87  O   UNL A   1      36.772  28.972  30.770  1.00  0.00    -0.237 OA
ATOM     88  O   UNL A   1      36.799  31.155  29.608  1.00  0.00    -0.237 OA
ATOM     89  O   UNL A   1      36.117  29.123  28.394  1.00  0.00    -0.744 OA
ENDBRANCH  85  86
ENDBRANCH  57  80
BRANCH  69  90
ATOM     90  C   UNL A   1      46.807  33.379  28.747  1.00  0.00    -0.014 A 
ATOM     91  C   UNL A   1      46.605  34.453  27.863  1.00  0.00     0.010 A 
ATOM     92  C   UNL A   1      47.098  33.650  30.098  1.00  0.00     0.010 A 
ATOM     93  C   UNL A   1      46.731  35.771  28.314  1.00  0.00     0.020 A 
ATOM     94  C   UNL A   1      47.191  34.964  30.559  1.00  0.00     0.020 A 
ATOM     95  C   UNL A   1      47.024  36.017  29.660  1.00  0.00     0.054 A 
BRANCH  95  96
ATOM     96  S   UNL A   1      47.148  37.735  30.226  1.00  0.00     0.124 S 
ATOM     97  O   UNL A   1      45.849  38.278  29.837  1.00  0.00    -0.237 OA
ATOM     98  O   UNL A   1      47.361  37.583  31.663  1.00  0.00    -0.237 OA
ATOM     99  O   UNL A   1      48.291  38.264  29.485  1.00  0.00    -0.744 OA
ENDBRANCH  95  96
ENDBRANCH  69  90
ENDBRANCH  43  44
ENDBRANCH  36  38
ENDBRANCH  35  36
ENDBRANCH  34  35
ENDBRANCH  33  34
ENDBRANCH  32  33
ENDBRANCH  31  32
ENDBRANCH  30  31
ENDBRANCH  29  30
ENDBRANCH   1  29
TORSDOF 27
ENDMDL
MODEL 3
REMARK VINA RESULT:      -8.9      3.727      4.617
REMARK SMILES O=C(COc1ccccc1C[N@H+]1C[C@@H]2[C@H]3CC[C@H](C3)[C@@H]2C1)OCCOCCOCCOCCOC(=O)c1ccc(-c2c3nc(c(-c4ccc(S(=O)(=O)[O-])cc4)c4ccc([nH]4)c(-c4ccc(S(=O)(=O)[O-])cc4)c4nc(c(-c5ccc(S(=O)(=O)[O-])cc5)c5ccc2[nH]5)C=C4)C=C3)cc1
REMARK SMILES IDX 27 1 26 2 25 3 24 4 23 5 22 6 2 7 1 8 3 9 4 10 5 11 6 12
REMARK SMILES IDX 10 13 7 14 9 15 8 16 11 17 12 18 13 19 21 20 14 22 20 23
REMARK SMILES IDX 15 24 18 25 16 26 19 27 17 28 28 29 29 30 30 31 31 32 32 33
REMARK SMILES IDX 33 34 34 35 35 36 36 37 37 38 38 39 96 40 39 41 95 42 40 43
REMARK SMILES IDX 41 44 42 45 89 46 43 47 94 48 88 49 90 50 44 51 93 52 87 53
REMARK SMILES IDX 86 54 45 56 75 57 56 58 74 59 57 60 60 61 73 62 91 63 58 64
REMARK SMILES IDX 59 65 72 67 92 68 61 69 46 70 47 71 55 72 48 73 54 74 49 75
REMARK SMILES IDX 50 76 51 77 52 78 53 79 76 80 77 81 85 82 78 83 84 84 79 85
REMARK SMILES IDX 80 86 81 87 82 88 83 89 62 90 63 91 71 92 64 93 70 94 65 95
REMARK SMILES IDX 66 96 67 97 68 98 69 99
REMARK H PARENT 12 21 90 55 60 66
REMARK Flexibility Score: inf
ROOT
ATOM      1  C   UNL A   1      38.346  21.392  26.050  1.00  0.00     0.188 C 
ENDROOT
BRANCH   1   2
ATOM      2  C   UNL A   1      37.246  21.232  24.967  1.00  0.00     0.188 C 
BRANCH   2   3
ATOM      3  O   UNL A   1      36.010  21.901  25.160  1.00  0.00    -0.376 OA
BRANCH   3   4
ATOM      4  C   UNL A   1      35.099  22.253  24.139  1.00  0.00     0.202 C 
BRANCH   4   5
ATOM      5  C   UNL A   1      35.452  23.340  23.136  1.00  0.00     0.261 C 
BRANCH   5   6
ATOM      6  O   UNL A   1      34.333  24.103  22.647  1.00  0.00    -0.461 OA
BRANCH   6   7
ATOM      7  C   UNL A   1      33.280  23.661  21.919  1.00  0.00     0.344 C 
ATOM      8  O   UNL A   1      33.436  23.381  20.732  1.00  0.00    -0.248 OA
BRANCH   7   9
ATOM      9  C   UNL A   1      31.921  23.557  22.581  1.00  0.00     0.351 C 
BRANCH   9  10
ATOM     10  O   UNL A   1      31.643  24.550  23.556  1.00  0.00    -0.481 OA
BRANCH  10  11
ATOM     11  C   UNL A   1      31.898  24.097  24.823  1.00  0.00     0.129 A 
ATOM     12  C   UNL A   1      31.180  22.960  25.193  1.00  0.00     0.047 A 
ATOM     13  C   UNL A   1      32.781  24.744  25.714  1.00  0.00     0.048 A 
ATOM     14  C   UNL A   1      31.393  22.391  26.440  1.00  0.00     0.004 A 
ATOM     15  C   UNL A   1      33.010  24.127  26.947  1.00  0.00     0.013 A 
ATOM     16  C   UNL A   1      32.323  22.963  27.306  1.00  0.00     0.001 A 
BRANCH  13  17
ATOM     17  C   UNL A   1      33.486  26.029  25.339  1.00  0.00     0.302 C 
BRANCH  17  18
ATOM     18  N   UNL A   1      32.704  27.054  24.694  1.00  0.00    -0.331 N 
ATOM     19  C   UNL A   1      32.600  28.308  25.411  1.00  0.00     0.266 C 
ATOM     20  C   UNL A   1      33.219  27.446  23.363  1.00  0.00     0.266 C 
ATOM     21  H   UNL A   1      31.797  26.590  24.646  1.00  0.00     0.348 HD
ATOM     22  C   UNL A   1      31.835  29.135  24.391  1.00  0.00     0.056 C 
ATOM     23  C   UNL A   1      32.383  28.683  23.018  1.00  0.00     0.056 C 
ATOM     24  C   UNL A   1      30.323  28.782  24.271  1.00  0.00    -0.002 C 
ATOM     25  C   UNL A   1      31.089  28.380  22.223  1.00  0.00    -0.002 C 
ATOM     26  C   UNL A   1      29.681  29.911  23.456  1.00  0.00     0.004 C 
ATOM     27  C   UNL A   1      30.230  27.641  23.245  1.00  0.00     0.008 C 
ATOM     28  C   UNL A   1      30.281  29.685  22.056  1.00  0.00     0.004 C 
ENDBRANCH  17  18
ENDBRANCH  13  17
ENDBRANCH  10  11
ENDBRANCH   9  10
ENDBRANCH   7   9
ENDBRANCH   6   7
ENDBRANCH   5   6
ENDBRANCH   4   5
ENDBRANCH   3   4
ENDBRANCH   2   3
ENDBRANCH   1   2
BRANCH   1  29
ATOM     29  O   UNL A   1      39.508  22.174  25.807  1.00  0.00    -0.377 OA
BRANCH  29  30
ATOM     30  C   UNL A   1      40.067  22.885  26.895  1.00  0.00     0.188 C 
BRANCH  30  31
ATOM     31  C   UNL A   1      40.786  21.978  27.908  1.00  0.00     0.188 C 
BRANCH  31  32
ATOM     32  O   UNL A   1      40.585  20.589  27.736  1.00  0.00    -0.376 OA
BRANCH  32  33
ATOM     33  C   UNL A   1      41.652  19.669  27.589  1.00  0.00     0.202 C 
BRANCH  33  34
ATOM     34  C   UNL A   1      41.937  18.767  26.373  1.00  0.00     0.261 C 
BRANCH  34  35
ATOM     35  O   UNL A   1      42.474  19.350  25.190  1.00  0.00    -0.460 OA
BRANCH  35  36
ATOM     36  C   UNL A   1      43.791  19.208  24.970  1.00  0.00     0.338 C 
ATOM     37  O   UNL A   1      44.360  18.248  24.478  1.00  0.00    -0.246 OA
BRANCH  36  38
ATOM     38  C   UNL A   1      44.394  20.533  25.219  1.00  0.00     0.060 A 
ATOM     39  C   UNL A   1      45.786  20.671  25.121  1.00  0.00     0.016 A 
ATOM     40  C   UNL A   1      43.583  21.637  25.499  1.00  0.00     0.016 A 
ATOM     41  C   UNL A   1      46.378  21.906  25.347  1.00  0.00     0.010 A 
ATOM     42  C   UNL A   1      44.179  22.866  25.775  1.00  0.00     0.010 A 
ATOM     43  C   UNL A   1      45.580  22.982  25.750  1.00  0.00    -0.014 A 
BRANCH  43  44
ATOM     44  C   UNL A   1      46.227  24.096  26.470  1.00  0.00     0.031 A 
ATOM     45  C   UNL A   1      47.228  24.914  25.700  1.00  0.00     0.074 A 
ATOM     46  C   UNL A   1      45.907  24.401  27.737  1.00  0.00     0.049 A 
ATOM     47  N   UNL A   1      47.945  25.932  26.090  1.00  0.00    -0.248 NA
ATOM     48  C   UNL A   1      47.446  24.525  24.294  1.00  0.00     0.031 C 
ATOM     49  C   UNL A   1      44.900  23.719  28.547  1.00  0.00     0.029 A 
ATOM     50  N   UNL A   1      46.404  25.378  28.559  1.00  0.00    -0.354 N 
ATOM     51  C   UNL A   1      48.708  26.293  24.986  1.00  0.00     0.074 A 
ATOM     52  C   UNL A   1      48.391  25.370  23.921  1.00  0.00     0.031 C 
ATOM     53  C   UNL A   1      44.858  24.299  29.759  1.00  0.00     0.029 A 
ATOM     54  C   UNL A   1      45.858  25.364  29.818  1.00  0.00     0.049 A 
ATOM     55  H   UNL A   1      47.089  26.026  28.274  1.00  0.00     0.167 HD
ATOM     56  C   UNL A   1      49.595  27.307  24.868  1.00  0.00     0.031 A 
ATOM     57  C   UNL A   1      46.151  26.121  30.894  1.00  0.00     0.031 A 
ATOM     58  C   UNL A   1      49.925  28.199  25.945  1.00  0.00     0.049 A 
ATOM     59  C   UNL A   1      47.210  27.186  30.770  1.00  0.00     0.074 A 
ATOM     60  C   UNL A   1      50.809  29.261  25.944  1.00  0.00     0.029 A 
ATOM     61  N   UNL A   1      49.390  28.120  27.224  1.00  0.00    -0.354 N 
ATOM     62  N   UNL A   1      47.919  27.530  29.720  1.00  0.00    -0.248 NA
ATOM     63  C   UNL A   1      47.499  27.973  31.975  1.00  0.00     0.031 C 
ATOM     64  C   UNL A   1      50.861  29.781  27.241  1.00  0.00     0.029 A 
ATOM     65  C   UNL A   1      49.949  29.095  28.030  1.00  0.00     0.049 A 
ATOM     66  H   UNL A   1      48.715  27.465  27.514  1.00  0.00     0.167 HD
ATOM     67  C   UNL A   1      48.710  28.600  30.127  1.00  0.00     0.074 A 
ATOM     68  C   UNL A   1      48.386  28.847  31.518  1.00  0.00     0.031 C 
ATOM     69  C   UNL A   1      49.613  29.320  29.415  1.00  0.00     0.031 A 
BRANCH  56  70
ATOM     70  C   UNL A   1      50.308  27.446  23.549  1.00  0.00    -0.014 A 
ATOM     71  C   UNL A   1      49.705  28.078  22.445  1.00  0.00     0.010 A 
ATOM     72  C   UNL A   1      51.602  26.912  23.406  1.00  0.00     0.010 A 
ATOM     73  C   UNL A   1      50.358  28.122  21.211  1.00  0.00     0.020 A 
ATOM     74  C   UNL A   1      52.273  26.986  22.183  1.00  0.00     0.020 A 
ATOM     75  C   UNL A   1      51.636  27.571  21.087  1.00  0.00     0.054 A 
BRANCH  75  76
ATOM     76  S   UNL A   1      52.461  27.636  19.473  1.00  0.00     0.124 S 
ATOM     77  O   UNL A   1      53.432  26.551  19.586  1.00  0.00    -0.237 OA
ATOM     78  O   UNL A   1      51.360  27.399  18.542  1.00  0.00    -0.237 OA
ATOM     79  O   UNL A   1      53.031  28.981  19.427  1.00  0.00    -0.744 OA
ENDBRANCH  75  76
ENDBRANCH  56  70
BRANCH  57  80
ATOM     80  C   UNL A   1      45.428  25.894  32.175  1.00  0.00    -0.014 A 
ATOM     81  C   UNL A   1      44.263  26.620  32.475  1.00  0.00     0.010 A 
ATOM     82  C   UNL A   1      45.888  24.930  33.090  1.00  0.00     0.010 A 
ATOM     83  C   UNL A   1      43.573  26.389  33.669  1.00  0.00     0.020 A 
ATOM     84  C   UNL A   1      45.186  24.676  34.271  1.00  0.00     0.020 A 
ATOM     85  C   UNL A   1      44.034  25.411  34.555  1.00  0.00     0.054 A 
BRANCH  85  86
ATOM     86  S   UNL A   1      43.076  25.076  36.059  1.00  0.00     0.124 S 
ATOM     87  O   UNL A   1      42.524  26.391  36.369  1.00  0.00    -0.237 OA
ATOM     88  O   UNL A   1      42.115  24.077  35.600  1.00  0.00    -0.237 OA
ATOM     89  O   UNL A   1      44.078  24.579  37.000  1.00  0.00    -0.744 OA
ENDBRANCH  85  86
ENDBRANCH  57  80
BRANCH  69  90
ATOM     90  C   UNL A   1      50.281  30.480  30.108  1.00  0.00    -0.014 A 
ATOM     91  C   UNL A   1      51.433  30.309  30.895  1.00  0.00     0.010 A 
ATOM     92  C   UNL A   1      49.772  31.778  29.914  1.00  0.00     0.010 A 
ATOM     93  C   UNL A   1      52.040  31.410  31.507  1.00  0.00     0.020 A 
ATOM     94  C   UNL A   1      50.395  32.885  30.495  1.00  0.00     0.020 A 
ATOM     95  C   UNL A   1      51.516  32.691  31.303  1.00  0.00     0.054 A 
BRANCH  95  96
ATOM     96  S   UNL A   1      52.342  34.106  32.080  1.00  0.00     0.124 S 
ATOM     97  O   UNL A   1      53.208  33.453  33.058  1.00  0.00    -0.237 OA
ATOM     98  O   UNL A   1      53.027  34.734  30.953  1.00  0.00    -0.237 OA
ATOM     99  O   UNL A   1      51.241  34.884  32.644  1.00  0.00    -0.744 OA
ENDBRANCH  95  96
ENDBRANCH  69  90
ENDBRANCH  43  44
ENDBRANCH  36  38
ENDBRANCH  35  36
ENDBRANCH  34  35
ENDBRANCH  33  34
ENDBRANCH  32  33
ENDBRANCH  31  32
ENDBRANCH  30  31
ENDBRANCH  29  30
ENDBRANCH   1  29
TORSDOF 27
ENDMDL
