MODEL 1
REMARK VINA RESULT:      -9.8      0.000      0.000
REMARK SMILES O=C(OCCOCCOCCOCCOC(=O)c1ccccc1C(=O)Nc1ccc(Cl)cn1)c1ccc(-c2c3nc(c(-c4ccc(S(=O)(=O)[O-])cc4)c4ccc([nH]4)c(-c4ccc(S(=O)(=O)[O-])cc4)c4nc(c(-c5ccc(S(=O)(=O)[O-])cc5)c5ccc2[nH]5)C=C4)C=C3)cc1
REMARK SMILES IDX 8 1 7 2 6 3 5 4 4 5 3 6 2 7 1 8 34 9 35 10 93 11 36 12 92 13
REMARK SMILES IDX 37 14 38 15 39 16 86 17 40 18 91 19 85 20 87 21 41 22 90 23
REMARK SMILES IDX 84 24 83 25 42 27 72 28 53 29 71 30 54 31 57 32 70 33 88 34
REMARK SMILES IDX 55 35 56 36 69 38 89 39 58 40 43 41 44 42 52 43 45 44 51 45
REMARK SMILES IDX 46 46 47 47 48 48 49 49 50 50 73 51 74 52 82 53 75 54 81 55
REMARK SMILES IDX 76 56 77 57 78 58 79 59 80 60 59 61 60 62 68 63 61 64 67 65
REMARK SMILES IDX 62 66 63 67 64 68 65 69 66 70 9 71 10 72 11 73 12 74 13 75
REMARK SMILES IDX 14 76 15 77 16 78 17 79 18 80 19 81 23 82 20 83 22 84 21 85
REMARK SMILES IDX 24 86 25 87 26 88 27 90 28 91 33 92 29 93 32 94 30 95 31 96
REMARK H PARENT 87 26 57 37 26 89
REMARK Flexibility Score: inf
ROOT
ATOM      1  C   UNL A   1      38.580  21.936  25.548  1.00  0.00     0.188 C 
ENDROOT
BRANCH   1   2
ATOM      2  C   UNL A   1      39.514  20.907  26.128  1.00  0.00     0.188 C 
BRANCH   2   3
ATOM      3  O   UNL A   1      40.054  21.321  27.356  1.00  0.00    -0.376 OA
BRANCH   3   4
ATOM      4  C   UNL A   1      41.469  21.254  27.467  1.00  0.00     0.202 C 
BRANCH   4   5
ATOM      5  C   UNL A   1      42.165  21.237  26.100  1.00  0.00     0.261 C 
BRANCH   5   6
ATOM      6  O   UNL A   1      43.210  20.245  26.089  1.00  0.00    -0.460 OA
BRANCH   6   7
ATOM      7  C   UNL A   1      44.137  20.378  25.100  1.00  0.00     0.338 C 
ATOM      8  O   UNL A   1      44.472  19.511  24.309  1.00  0.00    -0.246 OA
BRANCH   7   9
ATOM      9  C   UNL A   1      44.819  21.692  25.249  1.00  0.00     0.060 A 
ATOM     10  C   UNL A   1      45.218  22.097  26.533  1.00  0.00     0.016 A 
ATOM     11  C   UNL A   1      45.166  22.471  24.139  1.00  0.00     0.016 A 
ATOM     12  C   UNL A   1      45.971  23.228  26.731  1.00  0.00     0.010 A 
ATOM     13  C   UNL A   1      45.796  23.703  24.349  1.00  0.00     0.010 A 
ATOM     14  C   UNL A   1      46.148  24.087  25.656  1.00  0.00    -0.014 A 
BRANCH  14  15
ATOM     15  C   UNL A   1      46.252  25.499  26.051  1.00  0.00     0.031 A 
ATOM     16  C   UNL A   1      47.616  26.121  25.906  1.00  0.00     0.074 A 
ATOM     17  C   UNL A   1      45.159  26.233  26.291  1.00  0.00     0.049 A 
ATOM     18  N   UNL A   1      48.004  27.343  26.139  1.00  0.00    -0.248 NA
ATOM     19  C   UNL A   1      48.684  25.248  25.374  1.00  0.00     0.031 C 
ATOM     20  C   UNL A   1      43.780  25.748  26.223  1.00  0.00     0.029 A 
ATOM     21  N   UNL A   1      45.043  27.551  26.625  1.00  0.00    -0.354 N 
ATOM     22  C   UNL A   1      49.353  27.372  25.805  1.00  0.00     0.074 A 
ATOM     23  C   UNL A   1      49.718  26.066  25.324  1.00  0.00     0.031 C 
ATOM     24  C   UNL A   1      42.955  26.754  26.561  1.00  0.00     0.029 A 
ATOM     25  C   UNL A   1      43.755  27.924  26.916  1.00  0.00     0.049 A 
ATOM     26  H   UNL A   1      45.807  28.173  26.655  1.00  0.00     0.167 HD
ATOM     27  C   UNL A   1      50.224  28.396  25.936  1.00  0.00     0.031 A 
ATOM     28  C   UNL A   1      43.304  29.064  27.473  1.00  0.00     0.031 A 
ATOM     29  C   UNL A   1      49.839  29.653  26.507  1.00  0.00     0.049 A 
ATOM     30  C   UNL A   1      44.312  30.139  27.787  1.00  0.00     0.074 A 
ATOM     31  C   UNL A   1      50.626  30.745  26.802  1.00  0.00     0.029 A 
ATOM     32  N   UNL A   1      48.542  29.960  26.902  1.00  0.00    -0.354 N 
ATOM     33  N   UNL A   1      45.606  30.145  27.552  1.00  0.00    -0.248 NA
ATOM     34  C   UNL A   1      43.813  31.352  28.441  1.00  0.00     0.031 C 
ATOM     35  C   UNL A   1      49.819  31.683  27.453  1.00  0.00     0.029 A 
ATOM     36  C   UNL A   1      48.510  31.214  27.473  1.00  0.00     0.049 A 
ATOM     37  H   UNL A   1      47.763  29.370  26.790  1.00  0.00     0.167 HD
ATOM     38  C   UNL A   1      46.072  31.375  28.001  1.00  0.00     0.074 A 
ATOM     39  C   UNL A   1      44.918  32.083  28.525  1.00  0.00     0.031 C 
ATOM     40  C   UNL A   1      47.331  31.881  27.974  1.00  0.00     0.031 A 
BRANCH  27  41
ATOM     41  C   UNL A   1      51.666  28.108  25.616  1.00  0.00    -0.014 A 
ATOM     42  C   UNL A   1      52.572  27.643  26.589  1.00  0.00     0.010 A 
ATOM     43  C   UNL A   1      52.145  28.402  24.327  1.00  0.00     0.010 A 
ATOM     44  C   UNL A   1      53.937  27.544  26.295  1.00  0.00     0.020 A 
ATOM     45  C   UNL A   1      53.499  28.270  24.018  1.00  0.00     0.020 A 
ATOM     46  C   UNL A   1      54.392  27.868  25.012  1.00  0.00     0.054 A 
BRANCH  46  47
ATOM     47  S   UNL A   1      56.168  27.765  24.665  1.00  0.00     0.124 S 
ATOM     48  O   UNL A   1      56.746  27.894  26.000  1.00  0.00    -0.237 OA
ATOM     49  O   UNL A   1      56.296  26.445  24.050  1.00  0.00    -0.237 OA
ATOM     50  O   UNL A   1      56.414  28.892  23.770  1.00  0.00    -0.744 OA
ENDBRANCH  46  47
ENDBRANCH  27  41
BRANCH  28  51
ATOM     51  C   UNL A   1      41.868  29.174  27.846  1.00  0.00    -0.014 A 
ATOM     52  C   UNL A   1      41.468  29.528  29.144  1.00  0.00     0.010 A 
ATOM     53  C   UNL A   1      40.880  28.976  26.860  1.00  0.00     0.010 A 
ATOM     54  C   UNL A   1      40.110  29.698  29.444  1.00  0.00     0.020 A 
ATOM     55  C   UNL A   1      39.527  29.173  27.146  1.00  0.00     0.020 A 
ATOM     56  C   UNL A   1      39.150  29.533  28.438  1.00  0.00     0.054 A 
BRANCH  56  57
ATOM     57  S   UNL A   1      37.407  29.857  28.827  1.00  0.00     0.124 S 
ATOM     58  O   UNL A   1      37.443  31.250  29.260  1.00  0.00    -0.237 OA
ATOM     59  O   UNL A   1      36.750  29.608  27.547  1.00  0.00    -0.237 OA
ATOM     60  O   UNL A   1      37.101  28.884  29.874  1.00  0.00    -0.744 OA
ENDBRANCH  56  57
ENDBRANCH  28  51
BRANCH  40  61
ATOM     61  C   UNL A   1      47.533  33.287  28.464  1.00  0.00    -0.014 A 
ATOM     62  C   UNL A   1      47.952  33.555  29.776  1.00  0.00     0.010 A 
ATOM     63  C   UNL A   1      47.450  34.339  27.533  1.00  0.00     0.010 A 
ATOM     64  C   UNL A   1      48.292  34.857  30.148  1.00  0.00     0.020 A 
ATOM     65  C   UNL A   1      47.821  35.634  27.891  1.00  0.00     0.020 A 
ATOM     66  C   UNL A   1      48.239  35.884  29.198  1.00  0.00     0.054 A 
BRANCH  66  67
ATOM     67  S   UNL A   1      48.795  37.541  29.677  1.00  0.00     0.124 S 
ATOM     68  O   UNL A   1      49.248  37.326  31.048  1.00  0.00    -0.237 OA
ATOM     69  O   UNL A   1      49.847  37.818  28.701  1.00  0.00    -0.237 OA
ATOM     70  O   UNL A   1      47.595  38.365  29.541  1.00  0.00    -0.744 OA
ENDBRANCH  66  67
ENDBRANCH  40  61
ENDBRANCH  14  15
ENDBRANCH   7   9
ENDBRANCH   6   7
ENDBRANCH   5   6
ENDBRANCH   4   5
ENDBRANCH   3   4
ENDBRANCH   2   3
ENDBRANCH   1   2
BRANCH   1  71
ATOM     71  O   UNL A   1      38.040  22.982  26.356  1.00  0.00    -0.377 OA
BRANCH  71  72
ATOM     72  C   UNL A   1      36.874  23.816  26.134  1.00  0.00     0.188 C 
BRANCH  72  73
ATOM     73  C   UNL A   1      35.209  23.668  26.488  1.00  0.00     0.188 C 
BRANCH  73  74
ATOM     74  O   UNL A   1      34.302  22.672  27.222  1.00  0.00    -0.376 OA
BRANCH  74  75
ATOM     75  C   UNL A   1      32.762  22.307  27.307  1.00  0.00     0.202 C 
BRANCH  75  76
ATOM     76  C   UNL A   1      31.261  23.447  26.952  1.00  0.00     0.261 C 
BRANCH  76  77
ATOM     77  O   UNL A   1      31.050  24.202  25.049  1.00  0.00    -0.460 OA
BRANCH  77  78
ATOM     78  C   UNL A   1      31.044  23.853  23.616  1.00  0.00     0.339 C 
ATOM     79  O   UNL A   1      30.050  23.843  22.856  1.00  0.00    -0.246 OA
BRANCH  78  80
ATOM     80  C   UNL A   1      32.112  23.164  22.950  1.00  0.00     0.072 A 
ATOM     81  C   UNL A   1      32.294  21.871  23.557  1.00  0.00     0.016 A 
ATOM     82  C   UNL A   1      33.209  23.933  22.581  1.00  0.00     0.054 A 
ATOM     83  C   UNL A   1      33.556  21.403  23.902  1.00  0.00     0.001 A 
ATOM     84  C   UNL A   1      34.485  23.358  22.824  1.00  0.00     0.015 A 
ATOM     85  C   UNL A   1      34.658  22.146  23.519  1.00  0.00     0.001 A 
BRANCH  82  86
ATOM     86  C   UNL A   1      33.216  25.285  21.935  1.00  0.00     0.257 C 
ATOM     87  O   UNL A   1      33.211  25.249  20.694  1.00  0.00    -0.269 OA
ATOM     88  N   UNL A   1      33.248  26.561  22.495  1.00  0.00    -0.307 N 
ATOM     89  H   UNL A   1      33.668  27.257  21.939  1.00  0.00     0.171 HD
BRANCH  88  90
ATOM     90  C   UNL A   1      32.762  26.997  23.747  1.00  0.00     0.132 A 
ATOM     91  C   UNL A   1      31.092  27.575  23.873  1.00  0.00     0.049 A 
ATOM     92  N   UNL A   1      34.078  27.707  24.560  1.00  0.00    -0.238 NA
ATOM     93  C   UNL A   1      30.842  29.141  24.785  1.00  0.00     0.026 A 
ATOM     94  C   UNL A   1      33.902  29.154  25.404  1.00  0.00     0.134 A 
ATOM     95  C   UNL A   1      32.355  29.935  25.610  1.00  0.00     0.059 A 
ATOM     96  Cl  UNL A   1      32.579  30.879  27.195  1.00  0.00    -0.083 Cl
ENDBRANCH  88  90
ENDBRANCH  82  86
ENDBRANCH  78  80
ENDBRANCH  77  78
ENDBRANCH  76  77
ENDBRANCH  75  76
ENDBRANCH  74  75
ENDBRANCH  73  74
ENDBRANCH  72  73
ENDBRANCH  71  72
ENDBRANCH   1  71
TORSDOF 25
ENDMDL
MODEL 2
REMARK VINA RESULT:      -9.2      6.453     10.937
REMARK SMILES O=C(OCCOCCOCCOCCOC(=O)c1ccccc1C(=O)Nc1ccc(Cl)cn1)c1ccc(-c2c3nc(c(-c4ccc(S(=O)(=O)[O-])cc4)c4ccc([nH]4)c(-c4ccc(S(=O)(=O)[O-])cc4)c4nc(c(-c5ccc(S(=O)(=O)[O-])cc5)c5ccc2[nH]5)C=C4)C=C3)cc1
REMARK SMILES IDX 8 1 7 2 6 3 5 4 4 5 3 6 2 7 1 8 34 9 35 10 93 11 36 12 92 13
REMARK SMILES IDX 37 14 38 15 39 16 86 17 40 18 91 19 85 20 87 21 41 22 90 23
REMARK SMILES IDX 84 24 83 25 42 27 72 28 53 29 71 30 54 31 57 32 70 33 88 34
REMARK SMILES IDX 55 35 56 36 69 38 89 39 58 40 43 41 44 42 52 43 45 44 51 45
REMARK SMILES IDX 46 46 47 47 48 48 49 49 50 50 73 51 74 52 82 53 75 54 81 55
REMARK SMILES IDX 76 56 77 57 78 58 79 59 80 60 59 61 60 62 68 63 61 64 67 65
REMARK SMILES IDX 62 66 63 67 64 68 65 69 66 70 9 71 10 72 11 73 12 74 13 75
REMARK SMILES IDX 14 76 15 77 16 78 17 79 18 80 19 81 23 82 20 83 22 84 21 85
REMARK SMILES IDX 24 86 25 87 26 88 27 90 28 91 33 92 29 93 32 94 30 95 31 96
REMARK H PARENT 87 26 57 37 26 89
REMARK Flexibility Score: inf
ROOT
ATOM      1  C   UNL A   1      40.978  20.136  26.531  1.00  0.00     0.188 C 
ENDROOT
BRANCH   1   2
ATOM      2  C   UNL A   1      41.413  21.569  26.691  1.00  0.00     0.188 C 
BRANCH   2   3
ATOM      3  O   UNL A   1      42.478  21.696  27.597  1.00  0.00    -0.376 OA
BRANCH   3   4
ATOM      4  C   UNL A   1      43.050  22.993  27.704  1.00  0.00     0.202 C 
BRANCH   4   5
ATOM      5  C   UNL A   1      43.103  23.725  26.358  1.00  0.00     0.261 C 
BRANCH   5   6
ATOM      6  O   UNL A   1      43.271  25.139  26.570  1.00  0.00    -0.460 OA
BRANCH   6   7
ATOM      7  C   UNL A   1      42.289  25.932  26.059  1.00  0.00     0.338 C 
ATOM      8  O   UNL A   1      42.015  26.066  24.877  1.00  0.00    -0.246 OA
BRANCH   7   9
ATOM      9  C   UNL A   1      41.717  26.761  27.155  1.00  0.00     0.060 A 
ATOM     10  C   UNL A   1      42.194  28.071  27.322  1.00  0.00     0.016 A 
ATOM     11  C   UNL A   1      40.652  26.308  27.941  1.00  0.00     0.016 A 
ATOM     12  C   UNL A   1      41.622  28.939  28.218  1.00  0.00     0.010 A 
ATOM     13  C   UNL A   1      40.168  27.133  28.963  1.00  0.00     0.010 A 
ATOM     14  C   UNL A   1      40.698  28.427  29.118  1.00  0.00    -0.014 A 
BRANCH  14  15
ATOM     15  C   UNL A   1      40.711  29.113  30.418  1.00  0.00     0.031 A 
ATOM     16  C   UNL A   1      39.645  30.157  30.618  1.00  0.00     0.074 A 
ATOM     17  C   UNL A   1      41.465  28.665  31.428  1.00  0.00     0.049 A 
ATOM     18  N   UNL A   1      39.386  30.894  31.661  1.00  0.00    -0.248 NA
ATOM     19  C   UNL A   1      38.706  30.363  29.496  1.00  0.00     0.031 C 
ATOM     20  C   UNL A   1      42.358  27.506  31.373  1.00  0.00     0.029 A 
ATOM     21  N   UNL A   1      41.585  29.129  32.707  1.00  0.00    -0.354 N 
ATOM     22  C   UNL A   1      38.278  31.657  31.309  1.00  0.00     0.074 A 
ATOM     23  C   UNL A   1      37.888  31.280  29.976  1.00  0.00     0.031 C 
ATOM     24  C   UNL A   1      42.975  27.384  32.560  1.00  0.00     0.029 A 
ATOM     25  C   UNL A   1      42.558  28.484  33.427  1.00  0.00     0.049 A 
ATOM     26  H   UNL A   1      41.029  29.855  33.075  1.00  0.00     0.167 HD
ATOM     27  C   UNL A   1      37.669  32.626  32.025  1.00  0.00     0.031 A 
ATOM     28  C   UNL A   1      43.086  28.806  34.623  1.00  0.00     0.031 A 
ATOM     29  C   UNL A   1      38.148  33.034  33.313  1.00  0.00     0.049 A 
ATOM     30  C   UNL A   1      42.522  30.005  35.341  1.00  0.00     0.074 A 
ATOM     31  C   UNL A   1      37.705  34.066  34.112  1.00  0.00     0.029 A 
ATOM     32  N   UNL A   1      39.215  32.433  33.969  1.00  0.00    -0.354 N 
ATOM     33  N   UNL A   1      41.528  30.786  34.978  1.00  0.00    -0.248 NA
ATOM     34  C   UNL A   1      43.143  30.374  36.616  1.00  0.00     0.031 C 
ATOM     35  C   UNL A   1      38.561  34.142  35.215  1.00  0.00     0.029 A 
ATOM     36  C   UNL A   1      39.473  33.094  35.151  1.00  0.00     0.049 A 
ATOM     37  H   UNL A   1      39.714  31.651  33.639  1.00  0.00     0.167 HD
ATOM     38  C   UNL A   1      41.383  31.721  35.995  1.00  0.00     0.074 A 
ATOM     39  C   UNL A   1      42.397  31.408  36.987  1.00  0.00     0.031 C 
ATOM     40  C   UNL A   1      40.491  32.738  36.110  1.00  0.00     0.031 A 
BRANCH  27  41
ATOM     41  C   UNL A   1      36.563  33.385  31.341  1.00  0.00    -0.014 A 
ATOM     42  C   UNL A   1      35.213  33.246  31.717  1.00  0.00     0.010 A 
ATOM     43  C   UNL A   1      36.881  34.186  30.230  1.00  0.00     0.010 A 
ATOM     44  C   UNL A   1      34.202  33.839  30.953  1.00  0.00     0.020 A 
ATOM     45  C   UNL A   1      35.878  34.810  29.487  1.00  0.00     0.020 A 
ATOM     46  C   UNL A   1      34.542  34.610  29.836  1.00  0.00     0.054 A 
BRANCH  46  47
ATOM     47  S   UNL A   1      33.213  35.341  28.843  1.00  0.00     0.124 S 
ATOM     48  O   UNL A   1      32.532  34.156  28.330  1.00  0.00    -0.237 OA
ATOM     49  O   UNL A   1      32.466  36.116  29.832  1.00  0.00    -0.237 OA
ATOM     50  O   UNL A   1      33.923  36.133  27.842  1.00  0.00    -0.744 OA
ENDBRANCH  46  47
ENDBRANCH  27  41
BRANCH  28  51
ATOM     51  C   UNL A   1      44.256  28.040  35.133  1.00  0.00    -0.014 A 
ATOM     52  C   UNL A   1      44.141  27.146  36.208  1.00  0.00     0.010 A 
ATOM     53  C   UNL A   1      45.502  28.169  34.486  1.00  0.00     0.010 A 
ATOM     54  C   UNL A   1      45.243  26.384  36.616  1.00  0.00     0.020 A 
ATOM     55  C   UNL A   1      46.596  27.390  34.870  1.00  0.00     0.020 A 
ATOM     56  C   UNL A   1      46.459  26.501  35.934  1.00  0.00     0.054 A 
BRANCH  56  57
ATOM     57  S   UNL A   1      47.843  25.430  36.417  1.00  0.00     0.124 S 
ATOM     58  O   UNL A   1      47.457  24.150  35.835  1.00  0.00    -0.237 OA
ATOM     59  O   UNL A   1      48.984  26.094  35.792  1.00  0.00    -0.237 OA
ATOM     60  O   UNL A   1      47.827  25.485  37.878  1.00  0.00    -0.744 OA
ENDBRANCH  56  57
ENDBRANCH  28  51
BRANCH  40  61
ATOM     61  C   UNL A   1      40.516  33.552  37.372  1.00  0.00    -0.014 A 
ATOM     62  C   UNL A   1      39.905  33.099  38.552  1.00  0.00     0.010 A 
ATOM     63  C   UNL A   1      41.304  34.718  37.402  1.00  0.00     0.010 A 
ATOM     64  C   UNL A   1      40.090  33.797  39.746  1.00  0.00     0.020 A 
ATOM     65  C   UNL A   1      41.518  35.398  38.600  1.00  0.00     0.020 A 
ATOM     66  C   UNL A   1      40.907  34.934  39.764  1.00  0.00     0.054 A 
BRANCH  66  67
ATOM     67  S   UNL A   1      41.223  35.754  41.350  1.00  0.00     0.124 S 
ATOM     68  O   UNL A   1      39.959  36.443  41.592  1.00  0.00    -0.237 OA
ATOM     69  O   UNL A   1      41.509  34.630  42.238  1.00  0.00    -0.237 OA
ATOM     70  O   UNL A   1      42.363  36.625  41.070  1.00  0.00    -0.744 OA
ENDBRANCH  66  67
ENDBRANCH  40  61
ENDBRANCH  14  15
ENDBRANCH   7   9
ENDBRANCH   6   7
ENDBRANCH   5   6
ENDBRANCH   4   5
ENDBRANCH   3   4
ENDBRANCH   2   3
ENDBRANCH   1   2
BRANCH   1  71
ATOM     71  O   UNL A   1      39.763  19.803  25.858  1.00  0.00    -0.377 OA
BRANCH  71  72
ATOM     72  C   UNL A   1      38.526  20.552  25.756  1.00  0.00     0.188 C 
BRANCH  72  73
ATOM     73  C   UNL A   1      37.103  20.397  24.824  1.00  0.00     0.188 C 
BRANCH  73  74
ATOM     74  O   UNL A   1      35.986  19.361  24.646  1.00  0.00    -0.376 OA
BRANCH  74  75
ATOM     75  C   UNL A   1      34.443  19.208  24.977  1.00  0.00     0.202 C 
BRANCH  75  76
ATOM     76  C   UNL A   1      33.064  20.528  24.795  1.00  0.00     0.261 C 
BRANCH  76  77
ATOM     77  O   UNL A   1      33.060  21.694  23.098  1.00  0.00    -0.460 OA
BRANCH  77  78
ATOM     78  C   UNL A   1      33.593  22.929  22.494  1.00  0.00     0.339 C 
ATOM     79  O   UNL A   1      33.646  23.199  21.273  1.00  0.00    -0.246 OA
BRANCH  78  80
ATOM     80  C   UNL A   1      34.423  23.873  23.187  1.00  0.00     0.072 A 
ATOM     81  C   UNL A   1      35.729  23.301  23.383  1.00  0.00     0.016 A 
ATOM     82  C   UNL A   1      33.814  24.608  24.197  1.00  0.00     0.054 A 
ATOM     83  C   UNL A   1      36.369  23.360  24.616  1.00  0.00     0.001 A 
ATOM     84  C   UNL A   1      34.561  24.762  25.395  1.00  0.00     0.015 A 
ATOM     85  C   UNL A   1      35.786  24.108  25.622  1.00  0.00     0.001 A 
BRANCH  82  86
ATOM     86  C   UNL A   1      32.475  25.280  24.173  1.00  0.00     0.257 C 
ATOM     87  O   UNL A   1      31.611  24.657  23.535  1.00  0.00    -0.269 OA
ATOM     88  N   UNL A   1      32.052  26.488  24.726  1.00  0.00    -0.307 N 
ATOM     89  H   UNL A   1      31.311  26.934  24.254  1.00  0.00     0.171 HD
BRANCH  88  90
ATOM     90  C   UNL A   1      32.536  27.163  25.868  1.00  0.00     0.132 A 
ATOM     91  C   UNL A   1      31.380  27.818  27.039  1.00  0.00     0.049 A 
ATOM     92  N   UNL A   1      33.965  27.956  25.396  1.00  0.00    -0.238 NA
ATOM     93  C   UNL A   1      31.680  29.532  27.604  1.00  0.00     0.026 A 
ATOM     94  C   UNL A   1      34.282  29.538  25.880  1.00  0.00     0.134 A 
ATOM     95  C   UNL A   1      33.249  30.403  26.989  1.00  0.00     0.059 A 
ATOM     96  Cl  UNL A   1      34.418  31.610  27.783  1.00  0.00    -0.083 Cl
ENDBRANCH  88  90
ENDBRANCH  82  86
ENDBRANCH  78  80
ENDBRANCH  77  78
ENDBRANCH  76  77
ENDBRANCH  75  76
ENDBRANCH  74  75
ENDBRANCH  73  74
ENDBRANCH  72  73
ENDBRANCH  71  72
ENDBRANCH   1  71
TORSDOF 25
ENDMDL
MODEL 3
REMARK VINA RESULT:      -9.1      3.220      4.869
REMARK SMILES O=C(OCCOCCOCCOCCOC(=O)c1ccccc1C(=O)Nc1ccc(Cl)cn1)c1ccc(-c2c3nc(c(-c4ccc(S(=O)(=O)[O-])cc4)c4ccc([nH]4)c(-c4ccc(S(=O)(=O)[O-])cc4)c4nc(c(-c5ccc(S(=O)(=O)[O-])cc5)c5ccc2[nH]5)C=C4)C=C3)cc1
REMARK SMILES IDX 8 1 7 2 6 3 5 4 4 5 3 6 2 7 1 8 34 9 35 10 93 11 36 12 92 13
REMARK SMILES IDX 37 14 38 15 39 16 86 17 40 18 91 19 85 20 87 21 41 22 90 23
REMARK SMILES IDX 84 24 83 25 42 27 72 28 53 29 71 30 54 31 57 32 70 33 88 34
REMARK SMILES IDX 55 35 56 36 69 38 89 39 58 40 43 41 44 42 52 43 45 44 51 45
REMARK SMILES IDX 46 46 47 47 48 48 49 49 50 50 73 51 74 52 82 53 75 54 81 55
REMARK SMILES IDX 76 56 77 57 78 58 79 59 80 60 59 61 60 62 68 63 61 64 67 65
REMARK SMILES IDX 62 66 63 67 64 68 65 69 66 70 9 71 10 72 11 73 12 74 13 75
REMARK SMILES IDX 14 76 15 77 16 78 17 79 18 80 19 81 23 82 20 83 22 84 21 85
REMARK SMILES IDX 24 86 25 87 26 88 27 90 28 91 33 92 29 93 32 94 30 95 31 96
REMARK H PARENT 87 26 57 37 26 89
REMARK Flexibility Score: inf
ROOT
ATOM      1  C   UNL A   1      40.956  19.712  26.438  1.00  0.00     0.188 C 
ENDROOT
BRANCH   1   2
ATOM      2  C   UNL A   1      40.789  20.967  27.254  1.00  0.00     0.188 C 
BRANCH   2   3
ATOM      3  O   UNL A   1      41.890  21.829  27.122  1.00  0.00    -0.376 OA
BRANCH   3   4
ATOM      4  C   UNL A   1      42.637  21.702  25.920  1.00  0.00     0.202 C 
BRANCH   4   5
ATOM      5  C   UNL A   1      43.056  23.059  25.342  1.00  0.00     0.261 C 
BRANCH   5   6
ATOM      6  O   UNL A   1      44.235  23.541  26.015  1.00  0.00    -0.460 OA
BRANCH   6   7
ATOM      7  C   UNL A   1      44.056  24.637  26.803  1.00  0.00     0.338 C 
ATOM      8  O   UNL A   1      43.040  24.922  27.418  1.00  0.00    -0.246 OA
BRANCH   7   9
ATOM      9  C   UNL A   1      45.230  25.539  26.651  1.00  0.00     0.060 A 
ATOM     10  C   UNL A   1      45.847  26.034  27.810  1.00  0.00     0.016 A 
ATOM     11  C   UNL A   1      45.790  25.812  25.398  1.00  0.00     0.016 A 
ATOM     12  C   UNL A   1      47.013  26.757  27.755  1.00  0.00     0.010 A 
ATOM     13  C   UNL A   1      46.887  26.679  25.323  1.00  0.00     0.010 A 
ATOM     14  C   UNL A   1      47.455  27.180  26.509  1.00  0.00    -0.014 A 
BRANCH  14  15
ATOM     15  C   UNL A   1      48.162  28.468  26.550  1.00  0.00     0.031 A 
ATOM     16  C   UNL A   1      49.649  28.407  26.318  1.00  0.00     0.074 A 
ATOM     17  C   UNL A   1      47.490  29.626  26.552  1.00  0.00     0.049 A 
ATOM     18  N   UNL A   1      50.523  29.372  26.261  1.00  0.00    -0.248 NA
ATOM     19  C   UNL A   1      50.221  27.069  26.066  1.00  0.00     0.031 C 
ATOM     20  C   UNL A   1      46.033  29.761  26.543  1.00  0.00     0.029 A 
ATOM     21  N   UNL A   1      47.955  30.910  26.546  1.00  0.00    -0.354 N 
ATOM     22  C   UNL A   1      51.739  28.753  25.992  1.00  0.00     0.074 A 
ATOM     23  C   UNL A   1      51.496  27.340  25.864  1.00  0.00     0.031 C 
ATOM     24  C   UNL A   1      45.724  31.069  26.585  1.00  0.00     0.029 A 
ATOM     25  C   UNL A   1      46.959  31.844  26.678  1.00  0.00     0.049 A 
ATOM     26  H   UNL A   1      48.908  31.142  26.457  1.00  0.00     0.167 HD
ATOM     27  C   UNL A   1      52.963  29.317  25.906  1.00  0.00     0.031 A 
ATOM     28  C   UNL A   1      47.059  33.166  26.917  1.00  0.00     0.031 A 
ATOM     29  C   UNL A   1      53.172  30.716  26.133  1.00  0.00     0.049 A 
ATOM     30  C   UNL A   1      48.440  33.762  27.002  1.00  0.00     0.074 A 
ATOM     31  C   UNL A   1      54.359  31.415  26.186  1.00  0.00     0.029 A 
ATOM     32  N   UNL A   1      52.148  31.623  26.381  1.00  0.00    -0.354 N 
ATOM     33  N   UNL A   1      49.602  33.170  26.832  1.00  0.00    -0.248 NA
ATOM     34  C   UNL A   1      48.533  35.191  27.315  1.00  0.00     0.031 C 
ATOM     35  C   UNL A   1      54.058  32.731  26.550  1.00  0.00     0.029 A 
ATOM     36  C   UNL A   1      52.676  32.873  26.625  1.00  0.00     0.049 A 
ATOM     37  H   UNL A   1      51.188  31.405  26.383  1.00  0.00     0.167 HD
ATOM     38  C   UNL A   1      50.564  34.160  26.986  1.00  0.00     0.074 A 
ATOM     39  C   UNL A   1      49.845  35.390  27.268  1.00  0.00     0.031 C 
ATOM     40  C   UNL A   1      51.915  34.071  26.893  1.00  0.00     0.031 A 
BRANCH  27  41
ATOM     41  C   UNL A   1      54.131  28.384  25.733  1.00  0.00    -0.014 A 
ATOM     42  C   UNL A   1      54.542  27.922  24.467  1.00  0.00     0.010 A 
ATOM     43  C   UNL A   1      54.773  27.884  26.880  1.00  0.00     0.010 A 
ATOM     44  C   UNL A   1      55.524  26.931  24.360  1.00  0.00     0.020 A 
ATOM     45  C   UNL A   1      55.779  26.922  26.776  1.00  0.00     0.020 A 
ATOM     46  C   UNL A   1      56.129  26.431  25.518  1.00  0.00     0.054 A 
BRANCH  46  47
ATOM     47  S   UNL A   1      57.374  25.123  25.357  1.00  0.00     0.124 S 
ATOM     48  O   UNL A   1      56.555  23.965  25.010  1.00  0.00    -0.237 OA
ATOM     49  O   UNL A   1      58.230  25.629  24.286  1.00  0.00    -0.237 OA
ATOM     50  O   UNL A   1      57.997  25.072  26.677  1.00  0.00    -0.744 OA
ENDBRANCH  46  47
ENDBRANCH  27  41
BRANCH  28  51
ATOM     51  C   UNL A   1      45.825  33.953  27.186  1.00  0.00    -0.014 A 
ATOM     52  C   UNL A   1      45.398  34.233  28.493  1.00  0.00     0.010 A 
ATOM     53  C   UNL A   1      45.094  34.485  26.104  1.00  0.00     0.010 A 
ATOM     54  C   UNL A   1      44.275  35.040  28.714  1.00  0.00     0.020 A 
ATOM     55  C   UNL A   1      43.992  35.315  26.319  1.00  0.00     0.020 A 
ATOM     56  C   UNL A   1      43.588  35.588  27.624  1.00  0.00     0.054 A 
BRANCH  56  57
ATOM     57  S   UNL A   1      42.198  36.712  27.937  1.00  0.00     0.124 S 
ATOM     58  O   UNL A   1      41.109  35.782  28.213  1.00  0.00    -0.237 OA
ATOM     59  O   UNL A   1      42.676  37.487  29.079  1.00  0.00    -0.237 OA
ATOM     60  O   UNL A   1      42.078  37.466  26.691  1.00  0.00    -0.744 OA
ENDBRANCH  56  57
ENDBRANCH  28  51
BRANCH  40  61
ATOM     61  C   UNL A   1      52.714  35.335  27.031  1.00  0.00    -0.014 A 
ATOM     62  C   UNL A   1      52.968  36.167  25.929  1.00  0.00     0.010 A 
ATOM     63  C   UNL A   1      53.072  35.765  28.322  1.00  0.00     0.010 A 
ATOM     64  C   UNL A   1      53.565  37.415  26.120  1.00  0.00     0.020 A 
ATOM     65  C   UNL A   1      53.637  37.024  28.520  1.00  0.00     0.020 A 
ATOM     66  C   UNL A   1      53.881  37.840  27.416  1.00  0.00     0.054 A 
BRANCH  66  67
ATOM     67  S   UNL A   1      54.548  39.510  27.645  1.00  0.00     0.124 S 
ATOM     68  O   UNL A   1      53.935  39.912  28.907  1.00  0.00    -0.237 OA
ATOM     69  O   UNL A   1      55.989  39.273  27.692  1.00  0.00    -0.237 OA
ATOM     70  O   UNL A   1      54.080  40.237  26.466  1.00  0.00    -0.744 OA
ENDBRANCH  66  67
ENDBRANCH  40  61
ENDBRANCH  14  15
ENDBRANCH   7   9
ENDBRANCH   6   7
ENDBRANCH   5   6
ENDBRANCH   4   5
ENDBRANCH   3   4
ENDBRANCH   2   3
ENDBRANCH   1   2
BRANCH   1  71
ATOM     71  O   UNL A   1      39.887  19.203  25.639  1.00  0.00    -0.377 OA
BRANCH  71  72
ATOM     72  C   UNL A   1      38.588  19.782  25.354  1.00  0.00     0.188 C 
BRANCH  72  73
ATOM     73  C   UNL A   1      37.169  19.222  24.585  1.00  0.00     0.188 C 
BRANCH  73  74
ATOM     74  O   UNL A   1      35.729  18.887  24.994  1.00  0.00    -0.376 OA
BRANCH  74  75
ATOM     75  C   UNL A   1      34.489  18.082  24.423  1.00  0.00     0.202 C 
BRANCH  75  76
ATOM     76  C   UNL A   1      32.629  18.360  24.800  1.00  0.00     0.261 C 
BRANCH  76  77
ATOM     77  O   UNL A   1      31.922  20.293  24.799  1.00  0.00    -0.460 OA
BRANCH  77  78
ATOM     78  C   UNL A   1      32.100  21.633  24.209  1.00  0.00     0.339 C 
ATOM     79  O   UNL A   1      31.761  21.993  23.060  1.00  0.00    -0.246 OA
BRANCH  78  80
ATOM     80  C   UNL A   1      32.977  22.637  24.741  1.00  0.00     0.072 A 
ATOM     81  C   UNL A   1      34.343  22.237  24.524  1.00  0.00     0.016 A 
ATOM     82  C   UNL A   1      32.593  23.220  25.943  1.00  0.00     0.054 A 
ATOM     83  C   UNL A   1      35.290  22.308  25.540  1.00  0.00     0.001 A 
ATOM     84  C   UNL A   1      33.621  23.402  26.905  1.00  0.00     0.015 A 
ATOM     85  C   UNL A   1      34.928  22.908  26.732  1.00  0.00     0.001 A 
BRANCH  82  86
ATOM     86  C   UNL A   1      31.233  23.704  26.342  1.00  0.00     0.257 C 
ATOM     87  O   UNL A   1      30.842  23.259  27.433  1.00  0.00    -0.269 OA
ATOM     88  N   UNL A   1      30.337  24.547  25.686  1.00  0.00    -0.307 N 
ATOM     89  H   UNL A   1      29.386  24.396  25.890  1.00  0.00     0.171 HD
BRANCH  88  90
ATOM     90  C   UNL A   1      30.601  25.588  24.769  1.00  0.00     0.132 A 
ATOM     91  C   UNL A   1      30.779  25.200  23.049  1.00  0.00     0.049 A 
ATOM     92  N   UNL A   1      31.559  26.730  25.590  1.00  0.00    -0.238 NA
ATOM     93  C   UNL A   1      32.210  25.951  22.191  1.00  0.00     0.026 A 
ATOM     94  C   UNL A   1      32.893  27.442  24.848  1.00  0.00     0.134 A 
ATOM     95  C   UNL A   1      33.293  27.160  23.172  1.00  0.00     0.059 A 
ATOM     96  Cl  UNL A   1      34.200  28.713  22.701  1.00  0.00    -0.083 Cl
ENDBRANCH  88  90
ENDBRANCH  82  86
ENDBRANCH  78  80
ENDBRANCH  77  78
ENDBRANCH  76  77
ENDBRANCH  75  76
ENDBRANCH  74  75
ENDBRANCH  73  74
ENDBRANCH  72  73
ENDBRANCH  71  72
ENDBRANCH   1  71
TORSDOF 25
ENDMDL
