MODEL 1
REMARK VINA RESULT:      -8.2      0.000      0.000
REMARK SMILES O=C(OCCOCCOCCOCCOC(=O)[C@@H](Cc1ccccc1)/N=C1\C(=O)c2ccccc2C(=O)[C@H]1Cl)c1ccc(-c2c3nc(c(-c4ccc(S(=O)(=O)[O-])cc4)c4ccc([nH]4)c(-c4ccc(S(=O)(=O)[O-])cc4)c4nc(c(-c5ccc(S(=O)(=O)[O-])cc5)c5ccc2[nH]5)C=C4)C=C3)cc1
REMARK SMILES IDX 8 1 7 2 6 3 5 4 4 5 3 6 2 7 1 8 40 9 41 10 99 11 42 12 98 13
REMARK SMILES IDX 43 14 44 15 45 16 92 17 46 18 97 19 91 20 93 21 47 22 96 23
REMARK SMILES IDX 90 24 89 25 48 27 78 28 59 29 77 30 60 31 63 32 76 33 94 34
REMARK SMILES IDX 61 35 62 36 75 38 95 39 64 40 49 41 50 42 58 43 51 44 57 45
REMARK SMILES IDX 52 46 53 47 54 48 55 49 56 50 79 51 80 52 88 53 81 54 87 55
REMARK SMILES IDX 82 56 83 57 84 58 85 59 86 60 65 61 66 62 74 63 67 64 73 65
REMARK SMILES IDX 68 66 69 67 70 68 71 69 72 70 9 71 10 72 11 73 12 74 13 75
REMARK SMILES IDX 14 76 15 77 16 78 17 79 18 80 19 81 20 82 21 83 25 84 22 85
REMARK SMILES IDX 24 86 23 87 26 88 27 89 28 90 38 91 29 92 30 93 36 94 39 95
REMARK SMILES IDX 31 96 35 97 37 98 32 99 34 100 33 101
REMARK H PARENT 93 26 63 37
REMARK Flexibility Score: inf
ROOT
ATOM      1  C   UNL A   1      36.357  33.087  31.528  1.00  0.00     0.188 C 
ENDROOT
BRANCH   1   2
ATOM      2  C   UNL A   1      36.881  31.892  32.328  1.00  0.00     0.188 C 
BRANCH   2   3
ATOM      3  O   UNL A   1      36.126  30.715  32.009  1.00  0.00    -0.376 OA
BRANCH   3   4
ATOM      4  C   UNL A   1      36.950  29.589  31.693  1.00  0.00     0.202 C 
BRANCH   4   5
ATOM      5  C   UNL A   1      37.037  29.372  30.178  1.00  0.00     0.261 C 
BRANCH   5   6
ATOM      6  O   UNL A   1      38.302  28.754  29.861  1.00  0.00    -0.460 OA
BRANCH   6   7
ATOM      7  C   UNL A   1      39.457  29.353  29.489  1.00  0.00     0.338 C 
ATOM      8  O   UNL A   1      39.946  29.099  28.390  1.00  0.00    -0.246 OA
BRANCH   7   9
ATOM      9  C   UNL A   1      40.128  30.368  30.336  1.00  0.00     0.060 A 
ATOM     10  C   UNL A   1      41.265  30.102  31.105  1.00  0.00     0.016 A 
ATOM     11  C   UNL A   1      39.664  31.687  30.244  1.00  0.00     0.016 A 
ATOM     12  C   UNL A   1      41.896  31.122  31.820  1.00  0.00     0.010 A 
ATOM     13  C   UNL A   1      40.306  32.715  30.938  1.00  0.00     0.010 A 
ATOM     14  C   UNL A   1      41.420  32.435  31.740  1.00  0.00    -0.014 A 
BRANCH  14  15
ATOM     15  C   UNL A   1      42.072  33.515  32.512  1.00  0.00     0.031 A 
ATOM     16  C   UNL A   1      41.762  33.677  33.970  1.00  0.00     0.074 A 
ATOM     17  C   UNL A   1      42.942  34.346  31.910  1.00  0.00     0.049 A 
ATOM     18  N   UNL A   1      42.147  34.615  34.795  1.00  0.00    -0.248 NA
ATOM     19  C   UNL A   1      40.913  32.641  34.578  1.00  0.00     0.031 C 
ATOM     20  C   UNL A   1      43.367  34.267  30.513  1.00  0.00     0.029 A 
ATOM     21  N   UNL A   1      43.623  35.426  32.409  1.00  0.00    -0.354 N 
ATOM     22  C   UNL A   1      41.575  34.294  36.018  1.00  0.00     0.074 A 
ATOM     23  C   UNL A   1      40.819  33.073  35.827  1.00  0.00     0.031 C 
ATOM     24  C   UNL A   1      44.243  35.257  30.266  1.00  0.00     0.029 A 
ATOM     25  C   UNL A   1      44.409  36.056  31.477  1.00  0.00     0.049 A 
ATOM     26  H   UNL A   1      43.556  35.722  33.346  1.00  0.00     0.167 HD
ATOM     27  C   UNL A   1      41.668  34.954  37.198  1.00  0.00     0.031 A 
ATOM     28  C   UNL A   1      45.155  37.172  31.578  1.00  0.00     0.031 A 
ATOM     29  C   UNL A   1      42.425  36.156  37.401  1.00  0.00     0.049 A 
ATOM     30  C   UNL A   1      45.170  37.941  32.867  1.00  0.00     0.074 A 
ATOM     31  C   UNL A   1      42.596  36.887  38.564  1.00  0.00     0.029 A 
ATOM     32  N   UNL A   1      43.138  36.808  36.409  1.00  0.00    -0.354 N 
ATOM     33  N   UNL A   1      44.596  37.644  34.007  1.00  0.00    -0.248 NA
ATOM     34  C   UNL A   1      45.908  39.212  32.870  1.00  0.00     0.031 C 
ATOM     35  C   UNL A   1      43.402  37.995  38.266  1.00  0.00     0.029 A 
ATOM     36  C   UNL A   1      43.734  37.947  36.922  1.00  0.00     0.049 A 
ATOM     37  H   UNL A   1      43.212  36.506  35.474  1.00  0.00     0.167 HD
ATOM     38  C   UNL A   1      44.891  38.699  34.862  1.00  0.00     0.074 A 
ATOM     39  C   UNL A   1      45.703  39.636  34.111  1.00  0.00     0.031 C 
ATOM     40  C   UNL A   1      44.519  38.876  36.153  1.00  0.00     0.031 A 
BRANCH  27  41
ATOM     41  C   UNL A   1      40.898  34.367  38.341  1.00  0.00    -0.014 A 
ATOM     42  C   UNL A   1      41.517  33.469  39.228  1.00  0.00     0.010 A 
ATOM     43  C   UNL A   1      39.529  34.650  38.481  1.00  0.00     0.010 A 
ATOM     44  C   UNL A   1      40.762  32.820  40.209  1.00  0.00     0.020 A 
ATOM     45  C   UNL A   1      38.773  34.004  39.462  1.00  0.00     0.020 A 
ATOM     46  C   UNL A   1      39.390  33.073  40.301  1.00  0.00     0.054 A 
BRANCH  46  47
ATOM     47  S   UNL A   1      38.402  32.170  41.526  1.00  0.00     0.124 S 
ATOM     48  O   UNL A   1      39.376  31.959  42.594  1.00  0.00    -0.237 OA
ATOM     49  O   UNL A   1      37.324  33.105  41.837  1.00  0.00    -0.237 OA
ATOM     50  O   UNL A   1      37.989  30.967  40.808  1.00  0.00    -0.744 OA
ENDBRANCH  46  47
ENDBRANCH  27  41
BRANCH  28  51
ATOM     51  C   UNL A   1      45.906  37.657  30.396  1.00  0.00    -0.014 A 
ATOM     52  C   UNL A   1      45.304  38.543  29.489  1.00  0.00     0.010 A 
ATOM     53  C   UNL A   1      47.241  37.261  30.197  1.00  0.00     0.010 A 
ATOM     54  C   UNL A   1      46.026  39.032  28.396  1.00  0.00     0.020 A 
ATOM     55  C   UNL A   1      47.965  37.752  29.109  1.00  0.00     0.020 A 
ATOM     56  C   UNL A   1      47.353  38.632  28.213  1.00  0.00     0.054 A 
BRANCH  56  57
ATOM     57  S   UNL A   1      48.327  39.310  26.841  1.00  0.00     0.124 S 
ATOM     58  O   UNL A   1      49.668  39.354  27.415  1.00  0.00    -0.237 OA
ATOM     59  O   UNL A   1      48.132  38.332  25.772  1.00  0.00    -0.237 OA
ATOM     60  O   UNL A   1      47.696  40.606  26.608  1.00  0.00    -0.744 OA
ENDBRANCH  56  57
ENDBRANCH  28  51
BRANCH  40  61
ATOM     61  C   UNL A   1      44.966  40.141  36.822  1.00  0.00    -0.014 A 
ATOM     62  C   UNL A   1      46.184  40.173  37.522  1.00  0.00     0.010 A 
ATOM     63  C   UNL A   1      44.190  41.309  36.725  1.00  0.00     0.010 A 
ATOM     64  C   UNL A   1      46.619  41.354  38.127  1.00  0.00     0.020 A 
ATOM     65  C   UNL A   1      44.625  42.492  37.326  1.00  0.00     0.020 A 
ATOM     66  C   UNL A   1      45.832  42.506  38.032  1.00  0.00     0.054 A 
BRANCH  66  67
ATOM     67  S   UNL A   1      46.416  44.055  38.775  1.00  0.00     0.124 S 
ATOM     68  O   UNL A   1      45.379  44.323  39.768  1.00  0.00    -0.237 OA
ATOM     69  O   UNL A   1      47.725  43.696  39.317  1.00  0.00    -0.237 OA
ATOM     70  O   UNL A   1      46.452  44.976  37.642  1.00  0.00    -0.744 OA
ENDBRANCH  66  67
ENDBRANCH  40  61
ENDBRANCH  14  15
ENDBRANCH   7   9
ENDBRANCH   6   7
ENDBRANCH   5   6
ENDBRANCH   4   5
ENDBRANCH   3   4
ENDBRANCH   2   3
ENDBRANCH   1   2
BRANCH   1  71
ATOM     71  O   UNL A   1      36.227  32.763  30.149  1.00  0.00    -0.377 OA
BRANCH  71  72
ATOM     72  C   UNL A   1      35.009  33.151  29.534  1.00  0.00     0.188 C 
BRANCH  72  73
ATOM     73  C   UNL A   1      34.402  32.119  28.577  1.00  0.00     0.188 C 
BRANCH  73  74
ATOM     74  O   UNL A   1      35.253  31.439  27.666  1.00  0.00    -0.376 OA
BRANCH  74  75
ATOM     75  C   UNL A   1      35.038  30.063  27.358  1.00  0.00     0.202 C 
BRANCH  75  76
ATOM     76  C   UNL A   1      33.819  29.709  26.502  1.00  0.00     0.261 C 
BRANCH  76  77
ATOM     77  O   UNL A   1      32.694  29.487  27.382  1.00  0.00    -0.462 OA
BRANCH  77  78
ATOM     78  C   UNL A   1      32.251  28.208  27.507  1.00  0.00     0.331 C 
ATOM     79  O   UNL A   1      31.598  27.782  28.455  1.00  0.00    -0.250 OA
BRANCH  78  80
ATOM     80  C   UNL A   1      32.580  27.361  26.272  1.00  0.00     0.219 C 
BRANCH  80  81
ATOM     81  C   UNL A   1      33.880  26.537  26.227  1.00  0.00     0.074 C 
BRANCH  81  82
ATOM     82  C   UNL A   1      33.977  25.373  25.264  1.00  0.00    -0.045 A 
ATOM     83  C   UNL A   1      34.023  24.056  25.743  1.00  0.00     0.004 A 
ATOM     84  C   UNL A   1      33.944  25.577  23.883  1.00  0.00     0.004 A 
ATOM     85  C   UNL A   1      34.027  22.976  24.857  1.00  0.00     0.000 A 
ATOM     86  C   UNL A   1      33.944  24.499  22.996  1.00  0.00     0.000 A 
ATOM     87  C   UNL A   1      33.986  23.197  23.482  1.00  0.00     0.000 A 
ENDBRANCH  81  82
ENDBRANCH  80  81
BRANCH  80  88
ATOM     88  N   UNL A   1      31.433  26.638  25.685  1.00  0.00    -0.268 NA
ATOM     89  C   UNL A   1      30.813  26.932  24.594  1.00  0.00     0.110 C 
ATOM     90  C   UNL A   1      31.094  28.076  23.640  1.00  0.00     0.209 C 
ATOM     91  C   UNL A   1      29.613  26.109  24.221  1.00  0.00     0.205 C 
ATOM     92  O   UNL A   1      32.225  28.480  23.436  1.00  0.00    -0.287 OA
ATOM     93  C   UNL A   1      29.943  28.710  22.966  1.00  0.00     0.035 A 
ATOM     94  C   UNL A   1      28.413  26.937  23.846  1.00  0.00     0.187 C 
ATOM     95  Cl  UNL A   1      30.030  25.065  22.840  1.00  0.00    -0.107 Cl
ATOM     96  C   UNL A   1      30.157  29.863  22.196  1.00  0.00     0.013 A 
ATOM     97  C   UNL A   1      28.654  28.201  23.112  1.00  0.00     0.031 A 
ATOM     98  O   UNL A   1      27.261  26.569  24.064  1.00  0.00    -0.292 OA
ATOM     99  C   UNL A   1      29.079  30.518  21.601  1.00  0.00     0.001 A 
ATOM    100  C   UNL A   1      27.571  28.867  22.520  1.00  0.00     0.012 A 
ATOM    101  C   UNL A   1      27.786  30.025  21.769  1.00  0.00     0.001 A 
ENDBRANCH  80  88
ENDBRANCH  78  80
ENDBRANCH  77  78
ENDBRANCH  76  77
ENDBRANCH  75  76
ENDBRANCH  74  75
ENDBRANCH  73  74
ENDBRANCH  72  73
ENDBRANCH  71  72
ENDBRANCH   1  71
TORSDOF 26
ENDMDL
MODEL 2
REMARK VINA RESULT:      -7.8      0.867      7.651
REMARK SMILES O=C(OCCOCCOCCOCCOC(=O)[C@@H](Cc1ccccc1)/N=C1\C(=O)c2ccccc2C(=O)[C@H]1Cl)c1ccc(-c2c3nc(c(-c4ccc(S(=O)(=O)[O-])cc4)c4ccc([nH]4)c(-c4ccc(S(=O)(=O)[O-])cc4)c4nc(c(-c5ccc(S(=O)(=O)[O-])cc5)c5ccc2[nH]5)C=C4)C=C3)cc1
REMARK SMILES IDX 8 1 7 2 6 3 5 4 4 5 3 6 2 7 1 8 40 9 41 10 99 11 42 12 98 13
REMARK SMILES IDX 43 14 44 15 45 16 92 17 46 18 97 19 91 20 93 21 47 22 96 23
REMARK SMILES IDX 90 24 89 25 48 27 78 28 59 29 77 30 60 31 63 32 76 33 94 34
REMARK SMILES IDX 61 35 62 36 75 38 95 39 64 40 49 41 50 42 58 43 51 44 57 45
REMARK SMILES IDX 52 46 53 47 54 48 55 49 56 50 79 51 80 52 88 53 81 54 87 55
REMARK SMILES IDX 82 56 83 57 84 58 85 59 86 60 65 61 66 62 74 63 67 64 73 65
REMARK SMILES IDX 68 66 69 67 70 68 71 69 72 70 9 71 10 72 11 73 12 74 13 75
REMARK SMILES IDX 14 76 15 77 16 78 17 79 18 80 19 81 20 82 21 83 25 84 22 85
REMARK SMILES IDX 24 86 23 87 26 88 27 89 28 90 38 91 29 92 30 93 36 94 39 95
REMARK SMILES IDX 31 96 35 97 37 98 32 99 34 100 33 101
REMARK H PARENT 93 26 63 37
REMARK Flexibility Score: inf
ROOT
ATOM      1  C   UNL A   1      36.676  33.014  31.585  1.00  0.00     0.188 C 
ENDROOT
BRANCH   1   2
ATOM      2  C   UNL A   1      37.282  31.870  32.401  1.00  0.00     0.188 C 
BRANCH   2   3
ATOM      3  O   UNL A   1      36.516  30.671  32.216  1.00  0.00    -0.376 OA
BRANCH   3   4
ATOM      4  C   UNL A   1      37.328  29.519  31.970  1.00  0.00     0.202 C 
BRANCH   4   5
ATOM      5  C   UNL A   1      37.591  29.335  30.471  1.00  0.00     0.261 C 
BRANCH   5   6
ATOM      6  O   UNL A   1      38.969  28.950  30.276  1.00  0.00    -0.460 OA
BRANCH   6   7
ATOM      7  C   UNL A   1      39.982  29.691  29.772  1.00  0.00     0.338 C 
ATOM      8  O   UNL A   1      40.452  29.409  28.673  1.00  0.00    -0.246 OA
BRANCH   7   9
ATOM      9  C   UNL A   1      40.509  30.888  30.473  1.00  0.00     0.060 A 
ATOM     10  C   UNL A   1      39.996  32.176  30.290  1.00  0.00     0.016 A 
ATOM     11  C   UNL A   1      41.478  30.676  31.462  1.00  0.00     0.016 A 
ATOM     12  C   UNL A   1      40.484  33.249  31.039  1.00  0.00     0.010 A 
ATOM     13  C   UNL A   1      41.951  31.743  32.231  1.00  0.00     0.010 A 
ATOM     14  C   UNL A   1      41.464  33.038  32.014  1.00  0.00    -0.014 A 
BRANCH  14  15
ATOM     15  C   UNL A   1      41.999  34.175  32.796  1.00  0.00     0.031 A 
ATOM     16  C   UNL A   1      42.968  35.124  32.157  1.00  0.00     0.074 A 
ATOM     17  C   UNL A   1      41.614  34.359  34.072  1.00  0.00     0.049 A 
ATOM     18  N   UNL A   1      43.625  36.117  32.696  1.00  0.00    -0.248 NA
ATOM     19  C   UNL A   1      43.223  34.932  30.722  1.00  0.00     0.031 C 
ATOM     20  C   UNL A   1      40.642  33.538  34.794  1.00  0.00     0.029 A 
ATOM     21  N   UNL A   1      42.004  35.303  34.985  1.00  0.00    -0.354 N 
ATOM     22  C   UNL A   1      44.387  36.661  31.671  1.00  0.00     0.074 A 
ATOM     23  C   UNL A   1      44.106  35.889  30.477  1.00  0.00     0.031 C 
ATOM     24  C   UNL A   1      40.508  34.019  36.042  1.00  0.00     0.029 A 
ATOM     25  C   UNL A   1      41.410  35.155  36.214  1.00  0.00     0.049 A 
ATOM     26  H   UNL A   1      42.649  36.019  34.781  1.00  0.00     0.167 HD
ATOM     27  C   UNL A   1      45.243  37.709  31.715  1.00  0.00     0.031 A 
ATOM     28  C   UNL A   1      41.595  35.838  37.359  1.00  0.00     0.031 A 
ATOM     29  C   UNL A   1      45.518  38.489  32.889  1.00  0.00     0.049 A 
ATOM     30  C   UNL A   1      42.618  36.936  37.412  1.00  0.00     0.074 A 
ATOM     31  C   UNL A   1      46.354  39.582  33.028  1.00  0.00     0.029 A 
ATOM     32  N   UNL A   1      44.957  38.252  34.133  1.00  0.00    -0.354 N 
ATOM     33  N   UNL A   1      43.356  37.418  36.442  1.00  0.00    -0.248 NA
ATOM     34  C   UNL A   1      42.852  37.558  38.722  1.00  0.00     0.031 C 
ATOM     35  C   UNL A   1      46.313  39.995  34.367  1.00  0.00     0.029 A 
ATOM     36  C   UNL A   1      45.446  39.161  35.055  1.00  0.00     0.049 A 
ATOM     37  H   UNL A   1      44.306  37.541  34.333  1.00  0.00     0.167 HD
ATOM     38  C   UNL A   1      44.155  38.392  37.028  1.00  0.00     0.074 A 
ATOM     39  C   UNL A   1      43.803  38.438  38.432  1.00  0.00     0.031 C 
ATOM     40  C   UNL A   1      45.099  39.175  36.451  1.00  0.00     0.031 A 
BRANCH  27  41
ATOM     41  C   UNL A   1      45.948  38.036  30.434  1.00  0.00    -0.014 A 
ATOM     42  C   UNL A   1      45.318  38.826  29.457  1.00  0.00     0.010 A 
ATOM     43  C   UNL A   1      47.213  37.483  30.171  1.00  0.00     0.010 A 
ATOM     44  C   UNL A   1      45.921  39.014  28.211  1.00  0.00     0.020 A 
ATOM     45  C   UNL A   1      47.819  37.671  28.927  1.00  0.00     0.020 A 
ATOM     46  C   UNL A   1      47.156  38.413  27.946  1.00  0.00     0.054 A 
BRANCH  46  47
ATOM     47  S   UNL A   1      47.899  38.597  26.301  1.00  0.00     0.124 S 
ATOM     48  O   UNL A   1      47.254  37.514  25.562  1.00  0.00    -0.237 OA
ATOM     49  O   UNL A   1      47.502  39.947  25.907  1.00  0.00    -0.237 OA
ATOM     50  O   UNL A   1      49.327  38.420  26.553  1.00  0.00    -0.744 OA
ENDBRANCH  46  47
ENDBRANCH  27  41
BRANCH  28  51
ATOM     51  C   UNL A   1      40.826  35.458  38.567  1.00  0.00    -0.014 A 
ATOM     52  C   UNL A   1      39.621  36.109  38.873  1.00  0.00     0.010 A 
ATOM     53  C   UNL A   1      41.282  34.416  39.395  1.00  0.00     0.010 A 
ATOM     54  C   UNL A   1      38.875  35.722  39.991  1.00  0.00     0.020 A 
ATOM     55  C   UNL A   1      40.536  34.025  40.508  1.00  0.00     0.020 A 
ATOM     56  C   UNL A   1      39.339  34.683  40.803  1.00  0.00     0.054 A 
BRANCH  56  57
ATOM     57  S   UNL A   1      38.351  34.120  42.216  1.00  0.00     0.124 S 
ATOM     58  O   UNL A   1      39.338  34.112  43.291  1.00  0.00    -0.237 OA
ATOM     59  O   UNL A   1      37.309  35.139  42.327  1.00  0.00    -0.237 OA
ATOM     60  O   UNL A   1      37.881  32.808  41.779  1.00  0.00    -0.744 OA
ENDBRANCH  56  57
ENDBRANCH  28  51
BRANCH  40  61
ATOM     61  C   UNL A   1      45.832  40.127  37.348  1.00  0.00    -0.014 A 
ATOM     62  C   UNL A   1      47.041  39.737  37.949  1.00  0.00     0.010 A 
ATOM     63  C   UNL A   1      45.336  41.424  37.565  1.00  0.00     0.010 A 
ATOM     64  C   UNL A   1      47.742  40.628  38.765  1.00  0.00     0.020 A 
ATOM     65  C   UNL A   1      46.037  42.317  38.378  1.00  0.00     0.020 A 
ATOM     66  C   UNL A   1      47.231  41.911  38.981  1.00  0.00     0.054 A 
BRANCH  66  67
ATOM     67  S   UNL A   1      48.162  43.087  40.002  1.00  0.00     0.124 S 
ATOM     68  O   UNL A   1      49.388  43.256  39.227  1.00  0.00    -0.237 OA
ATOM     69  O   UNL A   1      47.286  44.256  40.053  1.00  0.00    -0.237 OA
ATOM     70  O   UNL A   1      48.315  42.379  41.271  1.00  0.00    -0.744 OA
ENDBRANCH  66  67
ENDBRANCH  40  61
ENDBRANCH  14  15
ENDBRANCH   7   9
ENDBRANCH   6   7
ENDBRANCH   5   6
ENDBRANCH   4   5
ENDBRANCH   3   4
ENDBRANCH   2   3
ENDBRANCH   1   2
BRANCH   1  71
ATOM     71  O   UNL A   1      36.562  32.660  30.212  1.00  0.00    -0.377 OA
BRANCH  71  72
ATOM     72  C   UNL A   1      35.363  33.061  29.568  1.00  0.00     0.188 C 
BRANCH  72  73
ATOM     73  C   UNL A   1      34.757  32.027  28.612  1.00  0.00     0.188 C 
BRANCH  73  74
ATOM     74  O   UNL A   1      35.624  31.205  27.845  1.00  0.00    -0.376 OA
BRANCH  74  75
ATOM     75  C   UNL A   1      35.261  29.863  27.526  1.00  0.00     0.202 C 
BRANCH  75  76
ATOM     76  C   UNL A   1      34.025  29.651  26.648  1.00  0.00     0.261 C 
BRANCH  76  77
ATOM     77  O   UNL A   1      32.879  29.474  27.511  1.00  0.00    -0.462 OA
BRANCH  77  78
ATOM     78  C   UNL A   1      32.294  28.246  27.518  1.00  0.00     0.331 C 
ATOM     79  O   UNL A   1      31.540  27.835  28.394  1.00  0.00    -0.250 OA
BRANCH  78  80
ATOM     80  C   UNL A   1      32.609  27.452  26.245  1.00  0.00     0.219 C 
BRANCH  80  81
ATOM     81  C   UNL A   1      33.933  26.673  26.131  1.00  0.00     0.074 C 
BRANCH  81  82
ATOM     82  C   UNL A   1      33.953  25.373  25.357  1.00  0.00    -0.045 A 
ATOM     83  C   UNL A   1      34.079  25.378  23.961  1.00  0.00     0.004 A 
ATOM     84  C   UNL A   1      33.926  24.142  26.017  1.00  0.00     0.004 A 
ATOM     85  C   UNL A   1      34.184  24.180  23.250  1.00  0.00     0.000 A 
ATOM     86  C   UNL A   1      34.034  22.944  25.309  1.00  0.00     0.000 A 
ATOM     87  C   UNL A   1      34.163  22.961  23.925  1.00  0.00     0.000 A 
ENDBRANCH  81  82
ENDBRANCH  80  81
BRANCH  80  88
ATOM     88  N   UNL A   1      31.467  26.711  25.671  1.00  0.00    -0.268 NA
ATOM     89  C   UNL A   1      30.842  26.985  24.578  1.00  0.00     0.110 C 
ATOM     90  C   UNL A   1      31.109  28.118  23.608  1.00  0.00     0.209 C 
ATOM     91  C   UNL A   1      29.648  26.146  24.219  1.00  0.00     0.205 C 
ATOM     92  O   UNL A   1      32.236  28.530  23.395  1.00  0.00    -0.287 OA
ATOM     93  C   UNL A   1      29.952  28.733  22.929  1.00  0.00     0.035 A 
ATOM     94  C   UNL A   1      28.440  26.958  23.836  1.00  0.00     0.187 C 
ATOM     95  Cl  UNL A   1      30.071  25.088  22.851  1.00  0.00    -0.107 Cl
ATOM     96  C   UNL A   1      30.152  29.878  22.144  1.00  0.00     0.013 A 
ATOM     97  C   UNL A   1      28.667  28.215  23.086  1.00  0.00     0.031 A 
ATOM     98  O   UNL A   1      27.292  26.582  24.063  1.00  0.00    -0.292 OA
ATOM     99  C   UNL A   1      29.067  30.515  21.543  1.00  0.00     0.001 A 
ATOM    100  C   UNL A   1      27.577  28.863  22.488  1.00  0.00     0.012 A 
ATOM    101  C   UNL A   1      27.779  30.012  21.721  1.00  0.00     0.001 A 
ENDBRANCH  80  88
ENDBRANCH  78  80
ENDBRANCH  77  78
ENDBRANCH  76  77
ENDBRANCH  75  76
ENDBRANCH  74  75
ENDBRANCH  73  74
ENDBRANCH  72  73
ENDBRANCH  71  72
ENDBRANCH   1  71
TORSDOF 26
ENDMDL
MODEL 3
REMARK VINA RESULT:      -7.6      7.087     15.837
REMARK SMILES O=C(OCCOCCOCCOCCOC(=O)[C@@H](Cc1ccccc1)/N=C1\C(=O)c2ccccc2C(=O)[C@H]1Cl)c1ccc(-c2c3nc(c(-c4ccc(S(=O)(=O)[O-])cc4)c4ccc([nH]4)c(-c4ccc(S(=O)(=O)[O-])cc4)c4nc(c(-c5ccc(S(=O)(=O)[O-])cc5)c5ccc2[nH]5)C=C4)C=C3)cc1
REMARK SMILES IDX 8 1 7 2 6 3 5 4 4 5 3 6 2 7 1 8 40 9 41 10 99 11 42 12 98 13
REMARK SMILES IDX 43 14 44 15 45 16 92 17 46 18 97 19 91 20 93 21 47 22 96 23
REMARK SMILES IDX 90 24 89 25 48 27 78 28 59 29 77 30 60 31 63 32 76 33 94 34
REMARK SMILES IDX 61 35 62 36 75 38 95 39 64 40 49 41 50 42 58 43 51 44 57 45
REMARK SMILES IDX 52 46 53 47 54 48 55 49 56 50 79 51 80 52 88 53 81 54 87 55
REMARK SMILES IDX 82 56 83 57 84 58 85 59 86 60 65 61 66 62 74 63 67 64 73 65
REMARK SMILES IDX 68 66 69 67 70 68 71 69 72 70 9 71 10 72 11 73 12 74 13 75
REMARK SMILES IDX 14 76 15 77 16 78 17 79 18 80 19 81 20 82 21 83 25 84 22 85
REMARK SMILES IDX 24 86 23 87 26 88 27 89 28 90 38 91 29 92 30 93 36 94 39 95
REMARK SMILES IDX 31 96 35 97 37 98 32 99 34 100 33 101
REMARK H PARENT 93 26 63 37
REMARK Flexibility Score: inf
ROOT
ATOM      1  C   UNL A   1      44.761  43.233  30.113  1.00  0.00     0.188 C 
ENDROOT
BRANCH   1   2
ATOM      2  C   UNL A   1      43.912  42.575  31.203  1.00  0.00     0.188 C 
BRANCH   2   3
ATOM      3  O   UNL A   1      44.664  41.544  31.860  1.00  0.00    -0.376 OA
BRANCH   3   4
ATOM      4  C   UNL A   1      45.265  41.981  33.082  1.00  0.00     0.202 C 
BRANCH   4   5
ATOM      5  C   UNL A   1      46.200  40.909  33.655  1.00  0.00     0.261 C 
BRANCH   5   6
ATOM      6  O   UNL A   1      45.745  39.608  33.226  1.00  0.00    -0.460 OA
BRANCH   6   7
ATOM      7  C   UNL A   1      45.997  38.404  33.789  1.00  0.00     0.338 C 
ATOM      8  O   UNL A   1      46.524  38.352  34.898  1.00  0.00    -0.246 OA
BRANCH   7   9
ATOM      9  C   UNL A   1      45.595  37.131  33.143  1.00  0.00     0.060 A 
ATOM     10  C   UNL A   1      45.429  35.931  33.841  1.00  0.00     0.016 A 
ATOM     11  C   UNL A   1      45.238  37.185  31.790  1.00  0.00     0.016 A 
ATOM     12  C   UNL A   1      44.971  34.785  33.188  1.00  0.00     0.010 A 
ATOM     13  C   UNL A   1      44.756  36.047  31.138  1.00  0.00     0.010 A 
ATOM     14  C   UNL A   1      44.632  34.837  31.832  1.00  0.00    -0.014 A 
BRANCH  14  15
ATOM     15  C   UNL A   1      44.167  33.621  31.130  1.00  0.00     0.031 A 
ATOM     16  C   UNL A   1      42.699  33.328  31.047  1.00  0.00     0.074 A 
ATOM     17  C   UNL A   1      45.056  32.784  30.565  1.00  0.00     0.049 A 
ATOM     18  N   UNL A   1      42.096  32.271  30.568  1.00  0.00    -0.248 NA
ATOM     19  C   UNL A   1      41.794  34.364  31.565  1.00  0.00     0.031 C 
ATOM     20  C   UNL A   1      46.506  32.978  30.532  1.00  0.00     0.029 A 
ATOM     21  N   UNL A   1      44.860  31.596  29.910  1.00  0.00    -0.354 N 
ATOM     22  C   UNL A   1      40.739  32.506  30.740  1.00  0.00     0.074 A 
ATOM     23  C   UNL A   1      40.608  33.807  31.365  1.00  0.00     0.031 C 
ATOM     24  C   UNL A   1      47.070  31.944  29.884  1.00  0.00     0.029 A 
ATOM     25  C   UNL A   1      46.025  31.002  29.491  1.00  0.00     0.049 A 
ATOM     26  H   UNL A   1      43.969  31.204  29.754  1.00  0.00     0.167 HD
ATOM     27  C   UNL A   1      39.691  31.713  30.409  1.00  0.00     0.031 A 
ATOM     28  C   UNL A   1      46.230  29.817  28.887  1.00  0.00     0.031 A 
ATOM     29  C   UNL A   1      39.809  30.430  29.777  1.00  0.00     0.049 A 
ATOM     30  C   UNL A   1      45.064  28.911  28.614  1.00  0.00     0.074 A 
ATOM     31  C   UNL A   1      38.806  29.561  29.385  1.00  0.00     0.029 A 
ATOM     32  N   UNL A   1      41.012  29.829  29.447  1.00  0.00    -0.354 N 
ATOM     33  N   UNL A   1      43.788  29.132  28.814  1.00  0.00    -0.248 NA
ATOM     34  C   UNL A   1      45.374  27.584  28.063  1.00  0.00     0.031 C 
ATOM     35  C   UNL A   1      39.408  28.422  28.833  1.00  0.00     0.029 A 
ATOM     36  C   UNL A   1      40.783  28.589  28.877  1.00  0.00     0.049 A 
ATOM     37  H   UNL A   1      41.902  30.225  29.596  1.00  0.00     0.167 HD
ATOM     38  C   UNL A   1      43.140  27.965  28.427  1.00  0.00     0.074 A 
ATOM     39  C   UNL A   1      44.164  27.046  27.972  1.00  0.00     0.031 C 
ATOM     40  C   UNL A   1      41.815  27.681  28.451  1.00  0.00     0.031 A 
BRANCH  27  41
ATOM     41  C   UNL A   1      38.333  32.239  30.760  1.00  0.00    -0.014 A 
ATOM     42  C   UNL A   1      37.792  33.333  30.064  1.00  0.00     0.010 A 
ATOM     43  C   UNL A   1      37.628  31.688  31.844  1.00  0.00     0.010 A 
ATOM     44  C   UNL A   1      36.588  33.906  30.481  1.00  0.00     0.020 A 
ATOM     45  C   UNL A   1      36.424  32.258  32.263  1.00  0.00     0.020 A 
ATOM     46  C   UNL A   1      35.927  33.380  31.595  1.00  0.00     0.054 A 
BRANCH  46  47
ATOM     47  S   UNL A   1      34.403  34.174  32.180  1.00  0.00     0.124 S 
ATOM     48  O   UNL A   1      34.926  35.371  32.834  1.00  0.00    -0.237 OA
ATOM     49  O   UNL A   1      33.657  34.409  30.947  1.00  0.00    -0.237 OA
ATOM     50  O   UNL A   1      33.823  33.175  33.074  1.00  0.00    -0.744 OA
ENDBRANCH  46  47
ENDBRANCH  27  41
BRANCH  28  51
ATOM     51  C   UNL A   1      47.611  29.398  28.553  1.00  0.00    -0.014 A 
ATOM     52  C   UNL A   1      48.232  28.365  29.272  1.00  0.00     0.010 A 
ATOM     53  C   UNL A   1      48.295  30.010  27.487  1.00  0.00     0.010 A 
ATOM     54  C   UNL A   1      49.520  27.943  28.930  1.00  0.00     0.020 A 
ATOM     55  C   UNL A   1      49.580  29.586  27.140  1.00  0.00     0.020 A 
ATOM     56  C   UNL A   1      50.187  28.558  27.866  1.00  0.00     0.054 A 
BRANCH  56  57
ATOM     57  S   UNL A   1      51.830  27.977  27.363  1.00  0.00     0.124 S 
ATOM     58  O   UNL A   1      51.756  28.084  25.909  1.00  0.00    -0.237 OA
ATOM     59  O   UNL A   1      52.736  28.917  28.018  1.00  0.00    -0.237 OA
ATOM     60  O   UNL A   1      51.867  26.617  27.895  1.00  0.00    -0.744 OA
ENDBRANCH  56  57
ENDBRANCH  28  51
BRANCH  40  61
ATOM     61  C   UNL A   1      41.405  26.314  27.995  1.00  0.00    -0.014 A 
ATOM     62  C   UNL A   1      40.533  26.169  26.903  1.00  0.00     0.010 A 
ATOM     63  C   UNL A   1      41.915  25.169  28.632  1.00  0.00     0.010 A 
ATOM     64  C   UNL A   1      40.166  24.897  26.457  1.00  0.00     0.020 A 
ATOM     65  C   UNL A   1      41.552  23.897  28.186  1.00  0.00     0.020 A 
ATOM     66  C   UNL A   1      40.672  23.768  27.107  1.00  0.00     0.054 A 
BRANCH  66  67
ATOM     67  S   UNL A   1      40.236  22.114  26.501  1.00  0.00     0.124 S 
ATOM     68  O   UNL A   1      41.240  21.897  25.463  1.00  0.00    -0.237 OA
ATOM     69  O   UNL A   1      40.372  21.274  27.689  1.00  0.00    -0.237 OA
ATOM     70  O   UNL A   1      38.866  22.284  26.023  1.00  0.00    -0.744 OA
ENDBRANCH  66  67
ENDBRANCH  40  61
ENDBRANCH  14  15
ENDBRANCH   7   9
ENDBRANCH   6   7
ENDBRANCH   5   6
ENDBRANCH   4   5
ENDBRANCH   3   4
ENDBRANCH   2   3
ENDBRANCH   1   2
BRANCH   1  71
ATOM     71  O   UNL A   1      44.571  42.591  28.858  1.00  0.00    -0.377 OA
BRANCH  71  72
ATOM     72  C   UNL A   1      45.554  41.632  28.499  1.00  0.00     0.188 C 
BRANCH  72  73
ATOM     73  C   UNL A   1      45.150  40.169  28.718  1.00  0.00     0.188 C 
BRANCH  73  74
ATOM     74  O   UNL A   1      45.738  39.162  27.907  1.00  0.00    -0.376 OA
BRANCH  74  75
ATOM     75  C   UNL A   1      45.680  39.247  26.485  1.00  0.00     0.202 C 
BRANCH  75  76
ATOM     76  C   UNL A   1      46.980  39.552  25.737  1.00  0.00     0.261 C 
BRANCH  76  77
ATOM     77  O   UNL A   1      47.009  40.963  25.431  1.00  0.00    -0.462 OA
BRANCH  77  78
ATOM     78  C   UNL A   1      46.719  41.325  24.152  1.00  0.00     0.331 C 
ATOM     79  O   UNL A   1      47.010  40.670  23.157  1.00  0.00    -0.250 OA
BRANCH  78  80
ATOM     80  C   UNL A   1      45.895  42.616  24.092  1.00  0.00     0.219 C 
BRANCH  80  81
ATOM     81  C   UNL A   1      45.561  43.377  25.388  1.00  0.00     0.074 C 
BRANCH  81  82
ATOM     82  C   UNL A   1      46.537  44.413  25.902  1.00  0.00    -0.045 A 
ATOM     83  C   UNL A   1      46.229  45.182  27.034  1.00  0.00     0.004 A 
ATOM     84  C   UNL A   1      47.794  44.572  25.314  1.00  0.00     0.004 A 
ATOM     85  C   UNL A   1      47.161  46.078  27.561  1.00  0.00     0.000 A 
ATOM     86  C   UNL A   1      48.728  45.464  25.842  1.00  0.00     0.000 A 
ATOM     87  C   UNL A   1      48.413  46.218  26.966  1.00  0.00     0.000 A 
ENDBRANCH  81  82
ENDBRANCH  80  81
BRANCH  80  88
ATOM     88  N   UNL A   1      46.234  43.523  22.976  1.00  0.00    -0.268 NA
ATOM     89  C   UNL A   1      45.413  44.041  22.128  1.00  0.00     0.110 C 
ATOM     90  C   UNL A   1      43.910  43.861  22.054  1.00  0.00     0.209 C 
ATOM     91  C   UNL A   1      45.982  44.874  21.015  1.00  0.00     0.205 C 
ATOM     92  O   UNL A   1      43.228  43.726  23.054  1.00  0.00    -0.287 OA
ATOM     93  C   UNL A   1      43.284  43.835  20.717  1.00  0.00     0.035 A 
ATOM     94  C   UNL A   1      45.449  44.503  19.657  1.00  0.00     0.187 C 
ATOM     95  Cl  UNL A   1      45.601  46.587  21.319  1.00  0.00    -0.107 Cl
ATOM     96  C   UNL A   1      41.920  43.521  20.610  1.00  0.00     0.013 A 
ATOM     97  C   UNL A   1      44.031  44.083  19.567  1.00  0.00     0.031 A 
ATOM     98  O   UNL A   1      46.122  44.601  18.634  1.00  0.00    -0.292 OA
ATOM     99  C   UNL A   1      41.319  43.428  19.356  1.00  0.00     0.001 A 
ATOM    100  C   UNL A   1      43.425  43.980  18.307  1.00  0.00     0.012 A 
ATOM    101  C   UNL A   1      42.072  43.650  18.204  1.00  0.00     0.001 A 
ENDBRANCH  80  88
ENDBRANCH  78  80
ENDBRANCH  77  78
ENDBRANCH  76  77
ENDBRANCH  75  76
ENDBRANCH  74  75
ENDBRANCH  73  74
ENDBRANCH  72  73
ENDBRANCH  71  72
ENDBRANCH   1  71
TORSDOF 26
ENDMDL
