MODEL 1
REMARK VINA RESULT:      -8.6      0.000      0.000
REMARK SMILES C[C@H](C(=O)OCCOCCOCCOCCOC(=O)c1ccc(-c2c3nc(c(-c4ccc(S(=O)(=O)[O-])cc4)c4ccc([nH]4)c(-c4ccc(S(=O)(=O)[O-])cc4)c4nc(c(-c5ccc(S(=O)(=O)[O-])cc5)c5ccc2[nH]5)C=C4)C=C3)cc1)[C@H](C)[N@@H+]1CC[C@H]([NH+]2CCCCC2)C1
REMARK SMILES IDX 11 1 10 2 9 3 8 4 7 5 6 6 5 7 3 8 4 9 2 10 1 11 80 12 81 13
REMARK SMILES IDX 82 14 83 15 92 16 84 18 85 19 86 20 87 21 91 22 88 24 90 25
REMARK SMILES IDX 89 26 12 27 13 28 14 29 15 30 16 31 17 32 18 33 19 34 20 35
REMARK SMILES IDX 21 36 79 37 22 38 78 39 23 40 24 41 25 42 72 43 26 44 77 45
REMARK SMILES IDX 71 46 73 47 27 48 76 49 70 50 69 51 28 53 58 54 39 55 57 56
REMARK SMILES IDX 40 57 43 58 56 59 74 60 41 61 42 62 55 64 75 65 44 66 29 67
REMARK SMILES IDX 30 68 38 69 31 70 37 71 32 72 33 73 34 74 35 75 36 76 59 77
REMARK SMILES IDX 60 78 68 79 61 80 67 81 62 82 63 83 64 84 65 85 66 86 45 87
REMARK SMILES IDX 46 88 54 89 47 90 53 91 48 92 49 93 50 94 51 95 52 96
REMARK H PARENT 82 17 86 23 73 52 43 63
REMARK Flexibility Score: inf
ROOT
ATOM      1  O   UNL A   1      40.313  21.439  27.138  1.00  0.00    -0.377 OA
ENDROOT
BRANCH   1   2
ATOM      2  C   UNL A   1      40.352  22.802  27.530  1.00  0.00     0.188 C 
BRANCH   2   3
ATOM      3  C   UNL A   1      39.595  23.900  26.746  1.00  0.00     0.188 C 
BRANCH   3   4
ATOM      4  O   UNL A   1      38.180  23.782  26.802  1.00  0.00    -0.376 OA
BRANCH   4   5
ATOM      5  C   UNL A   1      37.509  23.073  25.772  1.00  0.00     0.202 C 
BRANCH   5   6
ATOM      6  C   UNL A   1      36.060  23.466  25.467  1.00  0.00     0.261 C 
BRANCH   6   7
ATOM      7  O   UNL A   1      35.102  22.428  25.697  1.00  0.00    -0.463 OA
BRANCH   7   8
ATOM      8  C   UNL A   1      34.101  22.616  26.575  1.00  0.00     0.314 C 
ATOM      9  O   UNL A   1      34.212  22.419  27.782  1.00  0.00    -0.252 OA
BRANCH   8  10
ATOM     10  C   UNL A   1      32.849  23.244  25.957  1.00  0.00     0.154 C 
ATOM     11  C   UNL A   1      31.766  23.496  27.018  1.00  0.00     0.026 C 
BRANCH  10  12
ATOM     12  C   UNL A   1      32.948  24.480  24.990  1.00  0.00     0.195 C 
ATOM     13  C   UNL A   1      32.379  25.686  25.751  1.00  0.00     0.076 C 
BRANCH  12  14
ATOM     14  N   UNL A   1      32.466  24.266  23.616  1.00  0.00    -0.327 N 
ATOM     15  C   UNL A   1      33.448  24.567  22.561  1.00  0.00     0.269 C 
ATOM     16  C   UNL A   1      31.213  24.905  23.169  1.00  0.00     0.328 C 
ATOM     17  H   UNL A   1      32.279  23.269  23.724  1.00  0.00     0.348 HD
ATOM     18  C   UNL A   1      33.117  25.976  22.116  1.00  0.00     0.132 C 
ATOM     19  C   UNL A   1      31.586  25.978  22.106  1.00  0.00     0.245 C 
BRANCH  19  20
ATOM     20  N   UNL A   1      30.929  27.302  22.178  1.00  0.00    -0.328 N 
ATOM     21  C   UNL A   1      29.687  27.309  22.953  1.00  0.00     0.262 C 
ATOM     22  C   UNL A   1      31.868  28.337  22.646  1.00  0.00     0.262 C 
ATOM     23  H   UNL A   1      30.650  27.526  21.222  1.00  0.00     0.348 HD
ATOM     24  C   UNL A   1      29.008  28.677  22.980  1.00  0.00     0.062 C 
ATOM     25  C   UNL A   1      31.237  29.730  22.668  1.00  0.00     0.062 C 
ATOM     26  C   UNL A   1      29.960  29.743  23.496  1.00  0.00     0.012 C 
ENDBRANCH  19  20
ENDBRANCH  12  14
ENDBRANCH  10  12
ENDBRANCH   8  10
ENDBRANCH   7   8
ENDBRANCH   6   7
ENDBRANCH   5   6
ENDBRANCH   4   5
ENDBRANCH   3   4
ENDBRANCH   2   3
ENDBRANCH   1   2
BRANCH   1  27
ATOM     27  C   UNL A   1      41.491  20.919  26.551  1.00  0.00     0.188 C 
BRANCH  27  28
ATOM     28  C   UNL A   1      42.752  21.635  27.062  1.00  0.00     0.188 C 
BRANCH  28  29
ATOM     29  O   UNL A   1      43.627  22.171  26.087  1.00  0.00    -0.376 OA
BRANCH  29  30
ATOM     30  C   UNL A   1      43.211  23.123  25.120  1.00  0.00     0.202 C 
BRANCH  30  31
ATOM     31  C   UNL A   1      43.689  24.582  24.956  1.00  0.00     0.261 C 
BRANCH  31  32
ATOM     32  O   UNL A   1      43.598  25.483  26.056  1.00  0.00    -0.460 OA
BRANCH  32  33
ATOM     33  C   UNL A   1      42.637  26.428  25.992  1.00  0.00     0.338 C 
ATOM     34  O   UNL A   1      41.869  26.639  25.080  1.00  0.00    -0.246 OA
BRANCH  33  35
ATOM     35  C   UNL A   1      42.565  27.040  27.337  1.00  0.00     0.060 A 
ATOM     36  C   UNL A   1      41.742  26.451  28.304  1.00  0.00     0.016 A 
ATOM     37  C   UNL A   1      43.338  28.163  27.646  1.00  0.00     0.016 A 
ATOM     38  C   UNL A   1      41.668  26.996  29.582  1.00  0.00     0.010 A 
ATOM     39  C   UNL A   1      43.232  28.734  28.915  1.00  0.00     0.010 A 
ATOM     40  C   UNL A   1      42.373  28.170  29.873  1.00  0.00    -0.014 A 
BRANCH  40  41
ATOM     41  C   UNL A   1      42.024  28.931  31.093  1.00  0.00     0.031 A 
ATOM     42  C   UNL A   1      40.819  29.829  31.037  1.00  0.00     0.074 A 
ATOM     43  C   UNL A   1      42.735  28.806  32.225  1.00  0.00     0.049 A 
ATOM     44  N   UNL A   1      40.337  30.627  31.951  1.00  0.00    -0.248 NA
ATOM     45  C   UNL A   1      40.056  29.824  29.775  1.00  0.00     0.031 C 
ATOM     46  C   UNL A   1      43.886  27.924  32.412  1.00  0.00     0.029 A 
ATOM     47  N   UNL A   1      42.592  29.436  33.436  1.00  0.00    -0.354 N 
ATOM     48  C   UNL A   1      39.221  31.224  31.376  1.00  0.00     0.074 A 
ATOM     49  C   UNL A   1      39.116  30.722  30.025  1.00  0.00     0.031 C 
ATOM     50  C   UNL A   1      44.354  28.080  33.663  1.00  0.00     0.029 A 
ATOM     51  C   UNL A   1      43.561  29.099  34.350  1.00  0.00     0.049 A 
ATOM     52  H   UNL A   1      41.863  30.069  33.631  1.00  0.00     0.167 HD
ATOM     53  C   UNL A   1      38.359  32.108  31.927  1.00  0.00     0.031 A 
ATOM     54  C   UNL A   1      43.792  29.580  35.587  1.00  0.00     0.031 A 
ATOM     55  C   UNL A   1      38.485  32.620  33.265  1.00  0.00     0.049 A 
ATOM     56  C   UNL A   1      42.871  30.633  36.149  1.00  0.00     0.074 A 
ATOM     57  C   UNL A   1      37.666  33.520  33.922  1.00  0.00     0.029 A 
ATOM     58  N   UNL A   1      39.501  32.284  34.147  1.00  0.00    -0.354 N 
ATOM     59  N   UNL A   1      41.808  31.179  35.602  1.00  0.00    -0.248 NA
ATOM     60  C   UNL A   1      43.174  31.129  37.499  1.00  0.00     0.031 C 
ATOM     61  C   UNL A   1      38.223  33.779  35.177  1.00  0.00     0.029 A 
ATOM     62  C   UNL A   1      39.347  32.981  35.332  1.00  0.00     0.049 A 
ATOM     63  H   UNL A   1      40.225  31.644  33.958  1.00  0.00     0.167 HD
ATOM     64  C   UNL A   1      41.299  32.057  36.555  1.00  0.00     0.074 A 
ATOM     65  C   UNL A   1      42.161  31.958  37.715  1.00  0.00     0.031 C 
ATOM     66  C   UNL A   1      40.215  32.870  36.479  1.00  0.00     0.031 A 
BRANCH  53  67
ATOM     67  C   UNL A   1      37.229  32.605  31.066  1.00  0.00    -0.014 A 
ATOM     68  C   UNL A   1      37.454  33.511  30.013  1.00  0.00     0.010 A 
ATOM     69  C   UNL A   1      35.923  32.133  31.294  1.00  0.00     0.010 A 
ATOM     70  C   UNL A   1      36.389  33.964  29.230  1.00  0.00     0.020 A 
ATOM     71  C   UNL A   1      34.861  32.559  30.492  1.00  0.00     0.020 A 
ATOM     72  C   UNL A   1      35.099  33.484  29.474  1.00  0.00     0.054 A 
BRANCH  72  73
ATOM     73  S   UNL A   1      33.742  34.066  28.421  1.00  0.00     0.124 S 
ATOM     74  O   UNL A   1      34.391  35.127  27.653  1.00  0.00    -0.237 OA
ATOM     75  O   UNL A   1      33.391  32.868  27.663  1.00  0.00    -0.237 OA
ATOM     76  O   UNL A   1      32.732  34.518  29.374  1.00  0.00    -0.744 OA
ENDBRANCH  72  73
ENDBRANCH  53  67
BRANCH  54  77
ATOM     77  C   UNL A   1      44.963  29.093  36.369  1.00  0.00    -0.014 A 
ATOM     78  C   UNL A   1      44.839  28.013  37.259  1.00  0.00     0.010 A 
ATOM     79  C   UNL A   1      46.216  29.719  36.228  1.00  0.00     0.010 A 
ATOM     80  C   UNL A   1      45.938  27.582  38.008  1.00  0.00     0.020 A 
ATOM     81  C   UNL A   1      47.326  29.271  36.950  1.00  0.00     0.020 A 
ATOM     82  C   UNL A   1      47.176  28.212  37.845  1.00  0.00     0.054 A 
BRANCH  82  83
ATOM     83  S   UNL A   1      48.598  27.602  38.793  1.00  0.00     0.124 S 
ATOM     84  O   UNL A   1      49.717  27.964  37.930  1.00  0.00    -0.237 OA
ATOM     85  O   UNL A   1      48.489  28.355  40.040  1.00  0.00    -0.237 OA
ATOM     86  O   UNL A   1      48.339  26.168  38.915  1.00  0.00    -0.744 OA
ENDBRANCH  82  83
ENDBRANCH  54  77
BRANCH  66  87
ATOM     87  C   UNL A   1      39.866  33.687  37.697  1.00  0.00    -0.014 A 
ATOM     88  C   UNL A   1      39.183  33.124  38.789  1.00  0.00     0.010 A 
ATOM     89  C   UNL A   1      40.291  35.027  37.774  1.00  0.00     0.010 A 
ATOM     90  C   UNL A   1      38.901  33.896  39.920  1.00  0.00     0.020 A 
ATOM     91  C   UNL A   1      40.041  35.792  38.915  1.00  0.00     0.020 A 
ATOM     92  C   UNL A   1      39.333  35.225  39.976  1.00  0.00     0.054 A 
BRANCH  92  93
ATOM     93  S   UNL A   1      38.994  36.190  41.474  1.00  0.00     0.124 S 
ATOM     94  O   UNL A   1      37.781  35.553  41.978  1.00  0.00    -0.237 OA
ATOM     95  O   UNL A   1      40.197  35.975  42.272  1.00  0.00    -0.237 OA
ATOM     96  O   UNL A   1      38.819  37.554  40.976  1.00  0.00    -0.744 OA
ENDBRANCH  92  93
ENDBRANCH  66  87
ENDBRANCH  40  41
ENDBRANCH  33  35
ENDBRANCH  32  33
ENDBRANCH  31  32
ENDBRANCH  30  31
ENDBRANCH  29  30
ENDBRANCH  28  29
ENDBRANCH  27  28
ENDBRANCH   1  27
TORSDOF 26
ENDMDL
MODEL 2
REMARK VINA RESULT:      -8.6      6.117     10.488
REMARK SMILES C[C@H](C(=O)OCCOCCOCCOCCOC(=O)c1ccc(-c2c3nc(c(-c4ccc(S(=O)(=O)[O-])cc4)c4ccc([nH]4)c(-c4ccc(S(=O)(=O)[O-])cc4)c4nc(c(-c5ccc(S(=O)(=O)[O-])cc5)c5ccc2[nH]5)C=C4)C=C3)cc1)[C@H](C)[N@@H+]1CC[C@H]([NH+]2CCCCC2)C1
REMARK SMILES IDX 11 1 10 2 9 3 8 4 7 5 6 6 5 7 3 8 4 9 2 10 1 11 80 12 81 13
REMARK SMILES IDX 82 14 83 15 92 16 84 18 85 19 86 20 87 21 91 22 88 24 90 25
REMARK SMILES IDX 89 26 12 27 13 28 14 29 15 30 16 31 17 32 18 33 19 34 20 35
REMARK SMILES IDX 21 36 79 37 22 38 78 39 23 40 24 41 25 42 72 43 26 44 77 45
REMARK SMILES IDX 71 46 73 47 27 48 76 49 70 50 69 51 28 53 58 54 39 55 57 56
REMARK SMILES IDX 40 57 43 58 56 59 74 60 41 61 42 62 55 64 75 65 44 66 29 67
REMARK SMILES IDX 30 68 38 69 31 70 37 71 32 72 33 73 34 74 35 75 36 76 59 77
REMARK SMILES IDX 60 78 68 79 61 80 67 81 62 82 63 83 64 84 65 85 66 86 45 87
REMARK SMILES IDX 46 88 54 89 47 90 53 91 48 92 49 93 50 94 51 95 52 96
REMARK H PARENT 82 17 86 23 73 52 43 63
REMARK Flexibility Score: inf
ROOT
ATOM      1  O   UNL A   1      39.357  21.485  26.516  1.00  0.00    -0.377 OA
ENDROOT
BRANCH   1   2
ATOM      2  C   UNL A   1      39.937  22.779  26.548  1.00  0.00     0.188 C 
BRANCH   2   3
ATOM      3  C   UNL A   1      39.096  24.059  26.333  1.00  0.00     0.188 C 
BRANCH   3   4
ATOM      4  O   UNL A   1      37.789  23.994  26.886  1.00  0.00    -0.376 OA
BRANCH   4   5
ATOM      5  C   UNL A   1      36.780  23.282  26.185  1.00  0.00     0.202 C 
BRANCH   5   6
ATOM      6  C   UNL A   1      35.536  24.061  25.747  1.00  0.00     0.261 C 
BRANCH   6   7
ATOM      7  O   UNL A   1      35.515  24.416  24.361  1.00  0.00    -0.463 OA
BRANCH   7   8
ATOM      8  C   UNL A   1      35.370  23.464  23.422  1.00  0.00     0.314 C 
ATOM      9  O   UNL A   1      36.314  22.947  22.831  1.00  0.00    -0.252 OA
BRANCH   8  10
ATOM     10  C   UNL A   1      33.930  22.971  23.261  1.00  0.00     0.154 C 
ATOM     11  C   UNL A   1      33.737  21.587  23.898  1.00  0.00     0.026 C 
BRANCH  10  12
ATOM     12  C   UNL A   1      32.707  23.896  23.611  1.00  0.00     0.195 C 
ATOM     13  C   UNL A   1      31.863  23.142  24.648  1.00  0.00     0.076 C 
BRANCH  12  14
ATOM     14  N   UNL A   1      31.993  24.485  22.466  1.00  0.00    -0.327 N 
ATOM     15  C   UNL A   1      32.828  25.304  21.571  1.00  0.00     0.269 C 
ATOM     16  C   UNL A   1      30.774  25.284  22.692  1.00  0.00     0.328 C 
ATOM     17  H   UNL A   1      31.705  23.598  22.054  1.00  0.00     0.348 HD
ATOM     18  C   UNL A   1      32.607  26.728  22.031  1.00  0.00     0.132 C 
ATOM     19  C   UNL A   1      31.106  26.760  22.327  1.00  0.00     0.245 C 
BRANCH  19  20
ATOM     20  N   UNL A   1      30.634  27.834  23.230  1.00  0.00    -0.328 N 
ATOM     21  C   UNL A   1      31.701  28.477  23.998  1.00  0.00     0.262 C 
ATOM     22  C   UNL A   1      29.820  28.822  22.500  1.00  0.00     0.262 C 
ATOM     23  H   UNL A   1      30.043  27.375  23.923  1.00  0.00     0.348 HD
ATOM     24  C   UNL A   1      31.185  29.555  24.949  1.00  0.00     0.062 C 
ATOM     25  C   UNL A   1      29.261  29.911  23.417  1.00  0.00     0.062 C 
ATOM     26  C   UNL A   1      30.375  30.597  24.197  1.00  0.00     0.012 C 
ENDBRANCH  19  20
ENDBRANCH  12  14
ENDBRANCH  10  12
ENDBRANCH   8  10
ENDBRANCH   7   8
ENDBRANCH   6   7
ENDBRANCH   5   6
ENDBRANCH   4   5
ENDBRANCH   3   4
ENDBRANCH   2   3
ENDBRANCH   1   2
BRANCH   1  27
ATOM     27  C   UNL A   1      40.203  20.424  26.116  1.00  0.00     0.188 C 
BRANCH  27  28
ATOM     28  C   UNL A   1      41.689  20.771  26.309  1.00  0.00     0.188 C 
BRANCH  28  29
ATOM     29  O   UNL A   1      42.531  19.746  26.802  1.00  0.00    -0.376 OA
BRANCH  29  30
ATOM     30  C   UNL A   1      42.952  18.647  26.008  1.00  0.00     0.202 C 
BRANCH  30  31
ATOM     31  C   UNL A   1      44.383  18.306  25.539  1.00  0.00     0.261 C 
BRANCH  31  32
ATOM     32  O   UNL A   1      45.312  19.356  25.286  1.00  0.00    -0.460 OA
BRANCH  32  33
ATOM     33  C   UNL A   1      45.027  20.188  24.263  1.00  0.00     0.338 C 
ATOM     34  O   UNL A   1      44.737  19.888  23.126  1.00  0.00    -0.246 OA
BRANCH  33  35
ATOM     35  C   UNL A   1      44.942  21.546  24.843  1.00  0.00     0.060 A 
ATOM     36  C   UNL A   1      44.414  22.582  24.063  1.00  0.00     0.016 A 
ATOM     37  C   UNL A   1      45.345  21.780  26.161  1.00  0.00     0.016 A 
ATOM     38  C   UNL A   1      44.307  23.866  24.589  1.00  0.00     0.010 A 
ATOM     39  C   UNL A   1      45.277  23.076  26.674  1.00  0.00     0.010 A 
ATOM     40  C   UNL A   1      44.788  24.126  25.878  1.00  0.00    -0.014 A 
BRANCH  40  41
ATOM     41  C   UNL A   1      44.996  25.529  26.296  1.00  0.00     0.031 A 
ATOM     42  C   UNL A   1      46.389  26.088  26.201  1.00  0.00     0.074 A 
ATOM     43  C   UNL A   1      43.976  26.295  26.716  1.00  0.00     0.049 A 
ATOM     44  N   UNL A   1      46.834  27.266  26.545  1.00  0.00    -0.248 NA
ATOM     45  C   UNL A   1      47.418  25.193  25.642  1.00  0.00     0.031 C 
ATOM     46  C   UNL A   1      42.577  25.878  26.794  1.00  0.00     0.029 A 
ATOM     47  N   UNL A   1      43.968  27.592  27.165  1.00  0.00    -0.354 N 
ATOM     48  C   UNL A   1      48.193  27.252  26.252  1.00  0.00     0.074 A 
ATOM     49  C   UNL A   1      48.506  25.940  25.734  1.00  0.00     0.031 C 
ATOM     50  C   UNL A   1      41.846  26.898  27.278  1.00  0.00     0.029 A 
ATOM     51  C   UNL A   1      42.731  28.023  27.578  1.00  0.00     0.049 A 
ATOM     52  H   UNL A   1      44.773  28.159  27.188  1.00  0.00     0.167 HD
ATOM     53  C   UNL A   1      49.098  28.247  26.399  1.00  0.00     0.031 A 
ATOM     54  C   UNL A   1      42.365  29.184  28.157  1.00  0.00     0.031 A 
ATOM     55  C   UNL A   1      48.783  29.542  26.938  1.00  0.00     0.049 A 
ATOM     56  C   UNL A   1      43.408  30.246  28.395  1.00  0.00     0.074 A 
ATOM     57  C   UNL A   1      49.625  30.622  27.131  1.00  0.00     0.029 A 
ATOM     58  N   UNL A   1      47.527  29.928  27.382  1.00  0.00    -0.354 N 
ATOM     59  N   UNL A   1      44.688  30.229  28.099  1.00  0.00    -0.248 NA
ATOM     60  C   UNL A   1      42.957  31.489  29.037  1.00  0.00     0.031 C 
ATOM     61  C   UNL A   1      48.893  31.639  27.751  1.00  0.00     0.029 A 
ATOM     62  C   UNL A   1      47.576  31.221  27.874  1.00  0.00     0.049 A 
ATOM     63  H   UNL A   1      46.719  29.367  27.351  1.00  0.00     0.167 HD
ATOM     64  C   UNL A   1      45.185  31.470  28.489  1.00  0.00     0.074 A 
ATOM     65  C   UNL A   1      44.066  32.216  29.028  1.00  0.00     0.031 C 
ATOM     66  C   UNL A   1      46.452  31.949  28.406  1.00  0.00     0.031 A 
BRANCH  53  67
ATOM     67  C   UNL A   1      50.522  27.954  26.006  1.00  0.00    -0.014 A 
ATOM     68  C   UNL A   1      51.435  27.399  26.922  1.00  0.00     0.010 A 
ATOM     69  C   UNL A   1      50.945  28.210  24.689  1.00  0.00     0.010 A 
ATOM     70  C   UNL A   1      52.753  27.141  26.537  1.00  0.00     0.020 A 
ATOM     71  C   UNL A   1      52.253  27.923  24.292  1.00  0.00     0.020 A 
ATOM     72  C   UNL A   1      53.153  27.404  25.224  1.00  0.00     0.054 A 
BRANCH  72  73
ATOM     73  S   UNL A   1      54.862  27.029  24.746  1.00  0.00     0.124 S 
ATOM     74  O   UNL A   1      55.446  26.609  26.018  1.00  0.00    -0.237 OA
ATOM     75  O   UNL A   1      54.691  25.972  23.754  1.00  0.00    -0.237 OA
ATOM     76  O   UNL A   1      55.363  28.298  24.222  1.00  0.00    -0.744 OA
ENDBRANCH  72  73
ENDBRANCH  53  67
BRANCH  54  77
ATOM     77  C   UNL A   1      40.952  29.392  28.580  1.00  0.00    -0.014 A 
ATOM     78  C   UNL A   1      40.625  29.598  29.932  1.00  0.00     0.010 A 
ATOM     79  C   UNL A   1      39.918  29.380  27.624  1.00  0.00     0.010 A 
ATOM     80  C   UNL A   1      39.293  29.766  30.322  1.00  0.00     0.020 A 
ATOM     81  C   UNL A   1      38.589  29.581  28.005  1.00  0.00     0.020 A 
ATOM     82  C   UNL A   1      38.284  29.761  29.354  1.00  0.00     0.054 A 
BRANCH  82  83
ATOM     83  S   UNL A   1      36.568  30.029  29.881  1.00  0.00     0.124 S 
ATOM     84  O   UNL A   1      36.481  29.193  31.073  1.00  0.00    -0.237 OA
ATOM     85  O   UNL A   1      36.534  31.471  30.113  1.00  0.00    -0.237 OA
ATOM     86  O   UNL A   1      35.783  29.571  28.736  1.00  0.00    -0.744 OA
ENDBRANCH  82  83
ENDBRANCH  54  77
BRANCH  66  87
ATOM     87  C   UNL A   1      46.695  33.365  28.867  1.00  0.00    -0.014 A 
ATOM     88  C   UNL A   1      46.924  33.668  30.220  1.00  0.00     0.010 A 
ATOM     89  C   UNL A   1      46.759  34.399  27.914  1.00  0.00     0.010 A 
ATOM     90  C   UNL A   1      47.180  34.985  30.616  1.00  0.00     0.020 A 
ATOM     91  C   UNL A   1      47.046  35.710  28.300  1.00  0.00     0.020 A 
ATOM     92  C   UNL A   1      47.240  35.997  29.652  1.00  0.00     0.054 A 
BRANCH  92  93
ATOM     93  S   UNL A   1      47.617  37.689  30.187  1.00  0.00     0.124 S 
ATOM     94  O   UNL A   1      47.410  37.605  31.630  1.00  0.00    -0.237 OA
ATOM     95  O   UNL A   1      49.003  37.858  29.758  1.00  0.00    -0.237 OA
ATOM     96  O   UNL A   1      46.643  38.507  29.466  1.00  0.00    -0.744 OA
ENDBRANCH  92  93
ENDBRANCH  66  87
ENDBRANCH  40  41
ENDBRANCH  33  35
ENDBRANCH  32  33
ENDBRANCH  31  32
ENDBRANCH  30  31
ENDBRANCH  29  30
ENDBRANCH  28  29
ENDBRANCH  27  28
ENDBRANCH   1  27
TORSDOF 26
ENDMDL
MODEL 3
REMARK VINA RESULT:      -8.5      6.305      8.745
REMARK SMILES C[C@H](C(=O)OCCOCCOCCOCCOC(=O)c1ccc(-c2c3nc(c(-c4ccc(S(=O)(=O)[O-])cc4)c4ccc([nH]4)c(-c4ccc(S(=O)(=O)[O-])cc4)c4nc(c(-c5ccc(S(=O)(=O)[O-])cc5)c5ccc2[nH]5)C=C4)C=C3)cc1)[C@H](C)[N@@H+]1CC[C@H]([NH+]2CCCCC2)C1
REMARK SMILES IDX 11 1 10 2 9 3 8 4 7 5 6 6 5 7 3 8 4 9 2 10 1 11 80 12 81 13
REMARK SMILES IDX 82 14 83 15 92 16 84 18 85 19 86 20 87 21 91 22 88 24 90 25
REMARK SMILES IDX 89 26 12 27 13 28 14 29 15 30 16 31 17 32 18 33 19 34 20 35
REMARK SMILES IDX 21 36 79 37 22 38 78 39 23 40 24 41 25 42 72 43 26 44 77 45
REMARK SMILES IDX 71 46 73 47 27 48 76 49 70 50 69 51 28 53 58 54 39 55 57 56
REMARK SMILES IDX 40 57 43 58 56 59 74 60 41 61 42 62 55 64 75 65 44 66 29 67
REMARK SMILES IDX 30 68 38 69 31 70 37 71 32 72 33 73 34 74 35 75 36 76 59 77
REMARK SMILES IDX 60 78 68 79 61 80 67 81 62 82 63 83 64 84 65 85 66 86 45 87
REMARK SMILES IDX 46 88 54 89 47 90 53 91 48 92 49 93 50 94 51 95 52 96
REMARK H PARENT 82 17 86 23 73 52 43 63
REMARK Flexibility Score: inf
ROOT
ATOM      1  O   UNL A   1      39.044  21.570  26.444  1.00  0.00    -0.377 OA
ENDROOT
BRANCH   1   2
ATOM      2  C   UNL A   1      39.119  22.984  26.516  1.00  0.00     0.188 C 
BRANCH   2   3
ATOM      3  C   UNL A   1      37.961  23.890  26.037  1.00  0.00     0.188 C 
BRANCH   3   4
ATOM      4  O   UNL A   1      36.945  23.203  25.320  1.00  0.00    -0.376 OA
BRANCH   4   5
ATOM      5  C   UNL A   1      36.651  23.605  23.990  1.00  0.00     0.202 C 
BRANCH   5   6
ATOM      6  C   UNL A   1      35.248  23.310  23.453  1.00  0.00     0.261 C 
BRANCH   6   7
ATOM      7  O   UNL A   1      34.708  22.049  23.861  1.00  0.00    -0.463 OA
BRANCH   7   8
ATOM      8  C   UNL A   1      33.378  21.851  23.856  1.00  0.00     0.314 C 
ATOM      9  O   UNL A   1      32.706  21.790  22.830  1.00  0.00    -0.252 OA
BRANCH   8  10
ATOM     10  C   UNL A   1      32.793  21.557  25.240  1.00  0.00     0.154 C 
ATOM     11  C   UNL A   1      33.174  20.149  25.721  1.00  0.00     0.026 C 
BRANCH  10  12
ATOM     12  C   UNL A   1      32.939  22.584  26.422  1.00  0.00     0.195 C 
ATOM     13  C   UNL A   1      33.559  21.821  27.600  1.00  0.00     0.076 C 
BRANCH  12  14
ATOM     14  N   UNL A   1      31.755  23.412  26.708  1.00  0.00    -0.327 N 
ATOM     15  C   UNL A   1      30.600  23.166  25.829  1.00  0.00     0.269 C 
ATOM     16  C   UNL A   1      31.883  24.880  26.772  1.00  0.00     0.328 C 
ATOM     17  H   UNL A   1      31.620  23.075  27.661  1.00  0.00     0.348 HD
ATOM     18  C   UNL A   1      30.692  24.234  24.761  1.00  0.00     0.132 C 
ATOM     19  C   UNL A   1      31.115  25.472  25.556  1.00  0.00     0.245 C 
BRANCH  19  20
ATOM     20  N   UNL A   1      31.747  26.566  24.785  1.00  0.00    -0.328 N 
ATOM     21  C   UNL A   1      33.167  26.349  24.499  1.00  0.00     0.262 C 
ATOM     22  C   UNL A   1      30.985  26.861  23.558  1.00  0.00     0.262 C 
ATOM     23  H   UNL A   1      31.718  27.386  25.390  1.00  0.00     0.348 HD
ATOM     24  C   UNL A   1      33.805  27.508  23.736  1.00  0.00     0.062 C 
ATOM     25  C   UNL A   1      31.576  28.032  22.771  1.00  0.00     0.062 C 
ATOM     26  C   UNL A   1      33.046  27.794  22.452  1.00  0.00     0.012 C 
ENDBRANCH  19  20
ENDBRANCH  12  14
ENDBRANCH  10  12
ENDBRANCH   8  10
ENDBRANCH   7   8
ENDBRANCH   6   7
ENDBRANCH   5   6
ENDBRANCH   4   5
ENDBRANCH   3   4
ENDBRANCH   2   3
ENDBRANCH   1   2
BRANCH   1  27
ATOM     27  C   UNL A   1      40.162  20.907  25.883  1.00  0.00     0.188 C 
BRANCH  27  28
ATOM     28  C   UNL A   1      41.474  21.307  26.578  1.00  0.00     0.188 C 
BRANCH  28  29
ATOM     29  O   UNL A   1      42.339  20.259  26.974  1.00  0.00    -0.376 OA
BRANCH  29  30
ATOM     30  C   UNL A   1      42.499  19.067  26.221  1.00  0.00     0.202 C 
BRANCH  30  31
ATOM     31  C   UNL A   1      43.787  18.524  25.564  1.00  0.00     0.261 C 
BRANCH  31  32
ATOM     32  O   UNL A   1      44.891  19.396  25.347  1.00  0.00    -0.460 OA
BRANCH  32  33
ATOM     33  C   UNL A   1      44.794  20.255  24.309  1.00  0.00     0.338 C 
ATOM     34  O   UNL A   1      44.516  19.994  23.160  1.00  0.00    -0.246 OA
BRANCH  33  35
ATOM     35  C   UNL A   1      44.902  21.614  24.882  1.00  0.00     0.060 A 
ATOM     36  C   UNL A   1      44.551  22.712  24.087  1.00  0.00     0.016 A 
ATOM     37  C   UNL A   1      45.309  21.794  26.207  1.00  0.00     0.016 A 
ATOM     38  C   UNL A   1      44.628  24.001  24.606  1.00  0.00     0.010 A 
ATOM     39  C   UNL A   1      45.426  23.089  26.714  1.00  0.00     0.010 A 
ATOM     40  C   UNL A   1      45.117  24.195  25.903  1.00  0.00    -0.014 A 
BRANCH  40  41
ATOM     41  C   UNL A   1      45.524  25.554  26.320  1.00  0.00     0.031 A 
ATOM     42  C   UNL A   1      44.461  26.466  26.867  1.00  0.00     0.074 A 
ATOM     43  C   UNL A   1      46.803  25.957  26.245  1.00  0.00     0.049 A 
ATOM     44  N   UNL A   1      44.556  27.708  27.256  1.00  0.00    -0.248 NA
ATOM     45  C   UNL A   1      43.108  25.895  26.991  1.00  0.00     0.031 C 
ATOM     46  C   UNL A   1      47.926  25.140  25.786  1.00  0.00     0.029 A 
ATOM     47  N   UNL A   1      47.370  27.168  26.553  1.00  0.00    -0.354 N 
ATOM     48  C   UNL A   1      43.277  28.072  27.663  1.00  0.00     0.074 A 
ATOM     49  C   UNL A   1      42.419  26.930  27.444  1.00  0.00     0.031 C 
ATOM     50  C   UNL A   1      49.047  25.881  25.828  1.00  0.00     0.029 A 
ATOM     51  C   UNL A   1      48.715  27.231  26.280  1.00  0.00     0.049 A 
ATOM     52  H   UNL A   1      46.861  27.921  26.933  1.00  0.00     0.167 HD
ATOM     53  C   UNL A   1      42.858  29.250  28.178  1.00  0.00     0.031 A 
ATOM     54  C   UNL A   1      49.570  28.270  26.362  1.00  0.00     0.031 A 
ATOM     55  C   UNL A   1      43.715  30.389  28.370  1.00  0.00     0.049 A 
ATOM     56  C   UNL A   1      49.061  29.602  26.853  1.00  0.00     0.074 A 
ATOM     57  C   UNL A   1      43.391  31.631  28.884  1.00  0.00     0.029 A 
ATOM     58  N   UNL A   1      45.063  30.427  28.046  1.00  0.00    -0.354 N 
ATOM     59  N   UNL A   1      47.853  29.930  27.251  1.00  0.00    -0.248 NA
ATOM     60  C   UNL A   1      50.033  30.703  26.914  1.00  0.00     0.031 C 
ATOM     61  C   UNL A   1      44.528  32.441  28.809  1.00  0.00     0.029 A 
ATOM     62  C   UNL A   1      45.580  31.680  28.322  1.00  0.00     0.049 A 
ATOM     63  H   UNL A   1      45.576  29.673  27.675  1.00  0.00     0.167 HD
ATOM     64  C   UNL A   1      47.930  31.264  27.641  1.00  0.00     0.074 A 
ATOM     65  C   UNL A   1      49.304  31.677  27.444  1.00  0.00     0.031 C 
ATOM     66  C   UNL A   1      46.952  32.074  28.120  1.00  0.00     0.031 A 
BRANCH  53  67
ATOM     67  C   UNL A   1      41.399  29.375  28.529  1.00  0.00    -0.014 A 
ATOM     68  C   UNL A   1      40.987  29.751  29.820  1.00  0.00     0.010 A 
ATOM     69  C   UNL A   1      40.426  29.140  27.541  1.00  0.00     0.010 A 
ATOM     70  C   UNL A   1      39.627  29.854  30.126  1.00  0.00     0.020 A 
ATOM     71  C   UNL A   1      39.066  29.273  27.834  1.00  0.00     0.020 A 
ATOM     72  C   UNL A   1      38.675  29.616  29.130  1.00  0.00     0.054 A 
BRANCH  72  73
ATOM     73  S   UNL A   1      36.919  29.788  29.548  1.00  0.00     0.124 S 
ATOM     74  O   UNL A   1      36.810  31.222  29.806  1.00  0.00    -0.237 OA
ATOM     75  O   UNL A   1      36.255  29.316  28.337  1.00  0.00    -0.237 OA
ATOM     76  O   UNL A   1      36.755  28.932  30.721  1.00  0.00    -0.744 OA
ENDBRANCH  72  73
ENDBRANCH  53  67
BRANCH  54  77
ATOM     77  C   UNL A   1      50.989  28.102  25.942  1.00  0.00    -0.014 A 
ATOM     78  C   UNL A   1      51.970  27.687  26.859  1.00  0.00     0.010 A 
ATOM     79  C   UNL A   1      51.368  28.365  24.612  1.00  0.00     0.010 A 
ATOM     80  C   UNL A   1      53.304  27.559  26.461  1.00  0.00     0.020 A 
ATOM     81  C   UNL A   1      52.694  28.206  24.201  1.00  0.00     0.020 A 
ATOM     82  C   UNL A   1      53.656  27.815  25.132  1.00  0.00     0.054 A 
BRANCH  82  83
ATOM     83  S   UNL A   1      55.386  27.595  24.629  1.00  0.00     0.124 S 
ATOM     84  O   UNL A   1      56.013  27.166  25.875  1.00  0.00    -0.237 OA
ATOM     85  O   UNL A   1      55.282  26.575  23.588  1.00  0.00    -0.237 OA
ATOM     86  O   UNL A   1      55.777  28.921  24.156  1.00  0.00    -0.744 OA
ENDBRANCH  82  83
ENDBRANCH  54  77
BRANCH  66  87
ATOM     87  C   UNL A   1      47.338  33.478  28.512  1.00  0.00    -0.014 A 
ATOM     88  C   UNL A   1      47.721  33.796  29.826  1.00  0.00     0.010 A 
ATOM     89  C   UNL A   1      47.379  34.482  27.526  1.00  0.00     0.010 A 
ATOM     90  C   UNL A   1      48.105  35.100  30.155  1.00  0.00     0.020 A 
ATOM     91  C   UNL A   1      47.793  35.778  27.842  1.00  0.00     0.020 A 
ATOM     92  C   UNL A   1      48.140  36.082  29.160  1.00  0.00     0.054 A 
BRANCH  92  93
ATOM     93  S   UNL A   1      48.685  37.754  29.603  1.00  0.00     0.124 S 
ATOM     94  O   UNL A   1      48.100  37.923  30.930  1.00  0.00    -0.237 OA
ATOM     95  O   UNL A   1      50.140  37.636  29.567  1.00  0.00    -0.237 OA
ATOM     96  O   UNL A   1      48.108  38.597  28.558  1.00  0.00    -0.744 OA
ENDBRANCH  92  93
ENDBRANCH  66  87
ENDBRANCH  40  41
ENDBRANCH  33  35
ENDBRANCH  32  33
ENDBRANCH  31  32
ENDBRANCH  30  31
ENDBRANCH  29  30
ENDBRANCH  28  29
ENDBRANCH  27  28
ENDBRANCH   1  27
TORSDOF 26
ENDMDL
