MODEL 1
REMARK VINA RESULT:      -8.9      0.000      0.000
REMARK SMILES O=C(OCCOCCOCCOCCOC(=O)c1csc(CNc2ccc(-n3cccn3)nc2)c1)c1ccc(-c2c3nc(c(-c4ccc(S(=O)(=O)[O-])cc4)c4ccc([nH]4)c(-c4ccc(S(=O)(=O)[O-])cc4)c4nc(c(-c5ccc(S(=O)(=O)[O-])cc5)c5ccc2[nH]5)C=C4)C=C3)cc1
REMARK SMILES IDX 10 1 9 2 8 3 7 4 6 5 5 6 4 7 3 8 2 9 1 10 36 11 37 12 95 13
REMARK SMILES IDX 38 14 94 15 39 16 40 17 41 18 88 19 42 20 93 21 87 22 89 23
REMARK SMILES IDX 43 24 92 25 86 26 85 27 44 29 74 30 55 31 73 32 56 33 59 34
REMARK SMILES IDX 72 35 90 36 57 37 58 38 71 40 91 41 60 42 45 43 46 44 54 45
REMARK SMILES IDX 47 46 53 47 48 48 49 49 50 50 51 51 52 52 75 53 76 54 84 55
REMARK SMILES IDX 77 56 83 57 78 58 79 59 80 60 81 61 82 62 61 63 62 64 70 65
REMARK SMILES IDX 63 66 69 67 64 68 65 69 66 70 67 71 68 72 11 73 12 74 13 75
REMARK SMILES IDX 14 76 15 77 16 78 17 79 18 80 19 81 35 82 20 83 21 84 22 85
REMARK SMILES IDX 23 86 24 88 25 89 34 90 26 91 33 92 27 93 28 94 29 95 32 96
REMARK SMILES IDX 30 97 31 98
REMARK H PARENT 89 28 59 39 23 87
REMARK Flexibility Score: inf
ROOT
ATOM      1  C   UNL A   1      39.962  26.969  27.537  1.00  0.00     0.188 C 
ENDROOT
BRANCH   1   2
ATOM      2  O   UNL A   1      39.216  27.845  28.352  1.00  0.00    -0.377 OA
BRANCH   2   3
ATOM      3  C   UNL A   1      39.990  28.696  29.178  1.00  0.00     0.188 C 
BRANCH   3   4
ATOM      4  C   UNL A   1      39.888  28.417  30.682  1.00  0.00     0.188 C 
BRANCH   4   5
ATOM      5  O   UNL A   1      39.456  29.367  31.640  1.00  0.00    -0.376 OA
BRANCH   5   6
ATOM      6  C   UNL A   1      40.135  30.520  32.081  1.00  0.00     0.202 C 
BRANCH   6   7
ATOM      7  C   UNL A   1      39.472  31.820  32.536  1.00  0.00     0.261 C 
BRANCH   7   8
ATOM      8  O   UNL A   1      38.737  32.572  31.576  1.00  0.00    -0.460 OA
BRANCH   8   9
ATOM      9  C   UNL A   1      38.893  33.841  31.149  1.00  0.00     0.338 C 
ATOM     10  O   UNL A   1      37.906  34.577  31.152  1.00  0.00    -0.246 OA
BRANCH   9  11
ATOM     11  C   UNL A   1      40.148  34.359  30.545  1.00  0.00     0.060 A 
ATOM     12  C   UNL A   1      41.382  34.446  31.185  1.00  0.00     0.016 A 
ATOM     13  C   UNL A   1      40.034  34.840  29.223  1.00  0.00     0.016 A 
ATOM     14  C   UNL A   1      42.450  35.078  30.569  1.00  0.00     0.010 A 
ATOM     15  C   UNL A   1      41.102  35.469  28.598  1.00  0.00     0.010 A 
ATOM     16  C   UNL A   1      42.284  35.648  29.309  1.00  0.00    -0.014 A 
BRANCH  16  17
ATOM     17  C   UNL A   1      43.332  36.561  28.879  1.00  0.00     0.031 A 
ATOM     18  C   UNL A   1      44.721  36.043  28.798  1.00  0.00     0.074 A 
ATOM     19  C   UNL A   1      43.054  37.849  28.607  1.00  0.00     0.049 A 
ATOM     20  N   UNL A   1      45.753  36.412  29.488  1.00  0.00    -0.248 NA
ATOM     21  C   UNL A   1      44.979  34.944  27.861  1.00  0.00     0.031 C 
ATOM     22  C   UNL A   1      41.736  38.458  28.400  1.00  0.00     0.029 A 
ATOM     23  N   UNL A   1      43.918  38.870  28.352  1.00  0.00    -0.354 N 
ATOM     24  C   UNL A   1      46.837  35.720  28.954  1.00  0.00     0.074 A 
ATOM     25  C   UNL A   1      46.289  34.758  28.028  1.00  0.00     0.031 C 
ATOM     26  C   UNL A   1      41.898  39.665  27.818  1.00  0.00     0.029 A 
ATOM     27  C   UNL A   1      43.317  39.964  27.756  1.00  0.00     0.049 A 
ATOM     28  H   UNL A   1      44.877  38.833  28.572  1.00  0.00     0.167 HD
ATOM     29  C   UNL A   1      48.129  36.093  29.167  1.00  0.00     0.031 A 
ATOM     30  C   UNL A   1      43.942  41.008  27.165  1.00  0.00     0.031 A 
ATOM     31  C   UNL A   1      48.274  36.999  30.273  1.00  0.00     0.049 A 
ATOM     32  C   UNL A   1      45.316  41.086  27.710  1.00  0.00     0.074 A 
ATOM     33  C   UNL A   1      48.050  36.929  31.632  1.00  0.00     0.029 A 
ATOM     34  N   UNL A   1      48.461  38.329  29.985  1.00  0.00    -0.354 N 
ATOM     35  N   UNL A   1      45.589  41.394  28.949  1.00  0.00    -0.248 NA
ATOM     36  C   UNL A   1      46.406  40.466  26.973  1.00  0.00     0.031 C 
ATOM     37  C   UNL A   1      47.683  38.249  32.021  1.00  0.00     0.029 A 
ATOM     38  C   UNL A   1      47.711  39.051  30.876  1.00  0.00     0.049 A 
ATOM     39  H   UNL A   1      49.028  38.696  29.269  1.00  0.00     0.167 HD
ATOM     40  C   UNL A   1      46.725  40.663  29.262  1.00  0.00     0.074 A 
ATOM     41  C   UNL A   1      47.251  40.219  27.977  1.00  0.00     0.031 C 
ATOM     42  C   UNL A   1      46.978  40.256  30.541  1.00  0.00     0.031 A 
BRANCH  29  43
ATOM     43  C   UNL A   1      49.231  35.895  28.155  1.00  0.00    -0.014 A 
ATOM     44  C   UNL A   1      48.901  35.704  26.797  1.00  0.00     0.010 A 
ATOM     45  C   UNL A   1      50.557  35.610  28.540  1.00  0.00     0.010 A 
ATOM     46  C   UNL A   1      49.838  35.191  25.887  1.00  0.00     0.020 A 
ATOM     47  C   UNL A   1      51.509  35.142  27.633  1.00  0.00     0.020 A 
ATOM     48  C   UNL A   1      51.131  34.896  26.320  1.00  0.00     0.054 A 
BRANCH  48  49
ATOM     49  S   UNL A   1      52.293  34.102  25.179  1.00  0.00     0.124 S 
ATOM     50  O   UNL A   1      53.147  33.354  26.096  1.00  0.00    -0.237 OA
ATOM     51  O   UNL A   1      51.408  33.300  24.338  1.00  0.00    -0.237 OA
ATOM     52  O   UNL A   1      52.931  35.230  24.504  1.00  0.00    -0.744 OA
ENDBRANCH  48  49
ENDBRANCH  29  43
BRANCH  30  53
ATOM     53  C   UNL A   1      43.500  41.683  25.924  1.00  0.00    -0.014 A 
ATOM     54  C   UNL A   1      44.385  42.459  25.160  1.00  0.00     0.010 A 
ATOM     55  C   UNL A   1      42.248  41.357  25.355  1.00  0.00     0.010 A 
ATOM     56  C   UNL A   1      44.046  42.859  23.857  1.00  0.00     0.020 A 
ATOM     57  C   UNL A   1      41.897  41.763  24.066  1.00  0.00     0.020 A 
ATOM     58  C   UNL A   1      42.808  42.495  23.314  1.00  0.00     0.054 A 
BRANCH  58  59
ATOM     59  S   UNL A   1      42.444  42.878  21.578  1.00  0.00     0.124 S 
ATOM     60  O   UNL A   1      41.006  43.120  21.610  1.00  0.00    -0.237 OA
ATOM     61  O   UNL A   1      43.280  44.050  21.330  1.00  0.00    -0.237 OA
ATOM     62  O   UNL A   1      42.855  41.669  20.866  1.00  0.00    -0.744 OA
ENDBRANCH  58  59
ENDBRANCH  30  53
BRANCH  42  63
ATOM     63  C   UNL A   1      46.200  40.895  31.669  1.00  0.00    -0.014 A 
ATOM     64  C   UNL A   1      46.629  42.066  32.322  1.00  0.00     0.010 A 
ATOM     65  C   UNL A   1      44.909  40.406  31.945  1.00  0.00     0.010 A 
ATOM     66  C   UNL A   1      45.793  42.727  33.232  1.00  0.00     0.020 A 
ATOM     67  C   UNL A   1      44.063  41.071  32.839  1.00  0.00     0.020 A 
ATOM     68  C   UNL A   1      44.510  42.229  33.478  1.00  0.00     0.054 A 
BRANCH  68  69
ATOM     69  S   UNL A   1      43.394  43.156  34.571  1.00  0.00     0.124 S 
ATOM     70  O   UNL A   1      42.093  42.565  34.273  1.00  0.00    -0.237 OA
ATOM     71  O   UNL A   1      43.928  42.867  35.901  1.00  0.00    -0.237 OA
ATOM     72  O   UNL A   1      43.558  44.544  34.138  1.00  0.00    -0.744 OA
ENDBRANCH  68  69
ENDBRANCH  42  63
ENDBRANCH  16  17
ENDBRANCH   9  11
ENDBRANCH   8   9
ENDBRANCH   7   8
ENDBRANCH   6   7
ENDBRANCH   5   6
ENDBRANCH   4   5
ENDBRANCH   3   4
ENDBRANCH   2   3
ENDBRANCH   1   2
BRANCH   1  73
ATOM     73  C   UNL A   1      40.301  25.617  28.190  1.00  0.00     0.188 C 
BRANCH  73  74
ATOM     74  O   UNL A   1      39.685  24.386  27.818  1.00  0.00    -0.376 OA
BRANCH  74  75
ATOM     75  C   UNL A   1      39.279  24.141  26.485  1.00  0.00     0.202 C 
BRANCH  75  76
ATOM     76  C   UNL A   1      37.762  24.020  26.295  1.00  0.00     0.261 C 
BRANCH  76  77
ATOM     77  O   UNL A   1      37.364  23.410  25.059  1.00  0.00    -0.460 OA
BRANCH  77  78
ATOM     78  C   UNL A   1      37.245  22.050  25.072  1.00  0.00     0.339 C 
ATOM     79  O   UNL A   1      38.147  21.260  25.329  1.00  0.00    -0.246 OA
BRANCH  78  80
ATOM     80  C   UNL A   1      35.862  21.626  24.884  1.00  0.00     0.071 A 
ATOM     81  C   UNL A   1      35.417  20.324  25.006  1.00  0.00     0.080 A 
ATOM     82  C   UNL A   1      34.792  22.490  24.465  1.00  0.00     0.033 A 
ATOM     83  S   UNL A   1      33.764  20.156  24.607  1.00  0.00    -0.146 S 
ATOM     84  C   UNL A   1      33.624  21.811  24.176  1.00  0.00     0.025 A 
BRANCH  84  85
ATOM     85  C   UNL A   1      32.358  22.375  23.576  1.00  0.00     0.159 C 
BRANCH  85  86
ATOM     86  N   UNL A   1      32.507  23.663  22.910  1.00  0.00    -0.379 N 
ATOM     87  H   UNL A   1      32.625  23.706  21.934  1.00  0.00     0.160 HD
BRANCH  86  88
ATOM     88  C   UNL A   1      32.483  24.828  23.661  1.00  0.00     0.053 A 
ATOM     89  C   UNL A   1      31.599  25.011  24.721  1.00  0.00     0.031 A 
ATOM     90  C   UNL A   1      33.285  25.920  23.333  1.00  0.00     0.139 A 
ATOM     91  C   UNL A   1      31.574  26.217  25.425  1.00  0.00     0.051 A 
ATOM     92  N   UNL A   1      33.255  27.122  23.957  1.00  0.00    -0.235 NA
ATOM     93  C   UNL A   1      32.412  27.254  25.012  1.00  0.00     0.153 A 
BRANCH  93  94
ATOM     94  N   UNL A   1      32.378  28.505  25.706  1.00  0.00    -0.223 N 
ATOM     95  C   UNL A   1      32.928  28.798  26.942  1.00  0.00     0.117 A 
ATOM     96  N   UNL A   1      31.750  29.596  25.185  1.00  0.00    -0.175 NA
ATOM     97  C   UNL A   1      32.606  30.102  27.231  1.00  0.00     0.042 A 
ATOM     98  C   UNL A   1      31.859  30.532  26.126  1.00  0.00     0.135 A 
ENDBRANCH  93  94
ENDBRANCH  86  88
ENDBRANCH  85  86
ENDBRANCH  84  85
ENDBRANCH  78  80
ENDBRANCH  77  78
ENDBRANCH  76  77
ENDBRANCH  75  76
ENDBRANCH  74  75
ENDBRANCH  73  74
ENDBRANCH   1  73
TORSDOF 27
ENDMDL
MODEL 2
REMARK VINA RESULT:      -8.6      9.063     15.626
REMARK SMILES O=C(OCCOCCOCCOCCOC(=O)c1csc(CNc2ccc(-n3cccn3)nc2)c1)c1ccc(-c2c3nc(c(-c4ccc(S(=O)(=O)[O-])cc4)c4ccc([nH]4)c(-c4ccc(S(=O)(=O)[O-])cc4)c4nc(c(-c5ccc(S(=O)(=O)[O-])cc5)c5ccc2[nH]5)C=C4)C=C3)cc1
REMARK SMILES IDX 10 1 9 2 8 3 7 4 6 5 5 6 4 7 3 8 2 9 1 10 36 11 37 12 95 13
REMARK SMILES IDX 38 14 94 15 39 16 40 17 41 18 88 19 42 20 93 21 87 22 89 23
REMARK SMILES IDX 43 24 92 25 86 26 85 27 44 29 74 30 55 31 73 32 56 33 59 34
REMARK SMILES IDX 72 35 90 36 57 37 58 38 71 40 91 41 60 42 45 43 46 44 54 45
REMARK SMILES IDX 47 46 53 47 48 48 49 49 50 50 51 51 52 52 75 53 76 54 84 55
REMARK SMILES IDX 77 56 83 57 78 58 79 59 80 60 81 61 82 62 61 63 62 64 70 65
REMARK SMILES IDX 63 66 69 67 64 68 65 69 66 70 67 71 68 72 11 73 12 74 13 75
REMARK SMILES IDX 14 76 15 77 16 78 17 79 18 80 19 81 35 82 20 83 21 84 22 85
REMARK SMILES IDX 23 86 24 88 25 89 34 90 26 91 33 92 27 93 28 94 29 95 32 96
REMARK SMILES IDX 30 97 31 98
REMARK H PARENT 89 28 59 39 23 87
REMARK Flexibility Score: inf
ROOT
ATOM      1  C   UNL A   1      38.265  32.162  36.556  1.00  0.00     0.188 C 
ENDROOT
BRANCH   1   2
ATOM      2  O   UNL A   1      38.372  33.241  35.654  1.00  0.00    -0.377 OA
BRANCH   2   3
ATOM      3  C   UNL A   1      37.562  33.134  34.497  1.00  0.00     0.188 C 
BRANCH   3   4
ATOM      4  C   UNL A   1      36.491  34.220  34.347  1.00  0.00     0.188 C 
BRANCH   4   5
ATOM      5  O   UNL A   1      36.187  34.875  33.127  1.00  0.00    -0.376 OA
BRANCH   5   6
ATOM      6  C   UNL A   1      35.261  34.479  32.142  1.00  0.00     0.202 C 
BRANCH   6   7
ATOM      7  C   UNL A   1      34.479  33.166  32.134  1.00  0.00     0.261 C 
BRANCH   7   8
ATOM      8  O   UNL A   1      34.277  32.511  30.887  1.00  0.00    -0.460 OA
BRANCH   8   9
ATOM      9  C   UNL A   1      35.164  32.016  30.001  1.00  0.00     0.338 C 
ATOM     10  O   UNL A   1      34.883  32.077  28.805  1.00  0.00    -0.246 OA
BRANCH   9  11
ATOM     11  C   UNL A   1      36.392  31.274  30.392  1.00  0.00     0.060 A 
ATOM     12  C   UNL A   1      37.617  31.850  30.721  1.00  0.00     0.016 A 
ATOM     13  C   UNL A   1      36.286  29.867  30.372  1.00  0.00     0.016 A 
ATOM     14  C   UNL A   1      38.731  31.054  30.932  1.00  0.00     0.010 A 
ATOM     15  C   UNL A   1      37.398  29.065  30.588  1.00  0.00     0.010 A 
ATOM     16  C   UNL A   1      38.632  29.672  30.794  1.00  0.00    -0.014 A 
BRANCH  16  17
ATOM     17  C   UNL A   1      39.891  28.948  30.708  1.00  0.00     0.031 A 
ATOM     18  C   UNL A   1      40.765  28.919  31.907  1.00  0.00     0.074 A 
ATOM     19  C   UNL A   1      40.269  28.359  29.558  1.00  0.00     0.049 A 
ATOM     20  N   UNL A   1      41.953  29.418  32.042  1.00  0.00    -0.248 NA
ATOM     21  C   UNL A   1      40.228  28.295  33.121  1.00  0.00     0.031 C 
ATOM     22  C   UNL A   1      39.443  28.083  28.378  1.00  0.00     0.029 A 
ATOM     23  N   UNL A   1      41.465  27.787  29.249  1.00  0.00    -0.354 N 
ATOM     24  C   UNL A   1      42.393  29.020  33.301  1.00  0.00     0.074 A 
ATOM     25  C   UNL A   1      41.257  28.420  33.960  1.00  0.00     0.031 C 
ATOM     26  C   UNL A   1      40.085  27.191  27.594  1.00  0.00     0.029 A 
ATOM     27  C   UNL A   1      41.410  26.960  28.141  1.00  0.00     0.049 A 
ATOM     28  H   UNL A   1      42.290  27.946  29.764  1.00  0.00     0.167 HD
ATOM     29  C   UNL A   1      43.705  29.041  33.666  1.00  0.00     0.031 A 
ATOM     30  C   UNL A   1      42.352  26.073  27.747  1.00  0.00     0.031 A 
ATOM     31  C   UNL A   1      44.513  29.854  32.800  1.00  0.00     0.049 A 
ATOM     32  C   UNL A   1      43.646  26.489  28.334  1.00  0.00     0.074 A 
ATOM     33  C   UNL A   1      44.560  31.194  32.476  1.00  0.00     0.029 A 
ATOM     34  N   UNL A   1      45.297  29.210  31.874  1.00  0.00    -0.354 N 
ATOM     35  N   UNL A   1      44.278  27.580  27.999  1.00  0.00    -0.248 NA
ATOM     36  C   UNL A   1      44.088  25.875  29.577  1.00  0.00     0.031 C 
ATOM     37  C   UNL A   1      45.012  31.239  31.126  1.00  0.00     0.029 A 
ATOM     38  C   UNL A   1      45.221  29.923  30.706  1.00  0.00     0.049 A 
ATOM     39  H   UNL A   1      45.817  28.387  32.022  1.00  0.00     0.167 HD
ATOM     40  C   UNL A   1      44.909  28.003  29.158  1.00  0.00     0.074 A 
ATOM     41  C   UNL A   1      44.864  26.852  30.052  1.00  0.00     0.031 C 
ATOM     42  C   UNL A   1      45.166  29.325  29.386  1.00  0.00     0.031 A 
BRANCH  29  43
ATOM     43  C   UNL A   1      44.320  28.051  34.624  1.00  0.00    -0.014 A 
ATOM     44  C   UNL A   1      45.183  28.512  35.641  1.00  0.00     0.010 A 
ATOM     45  C   UNL A   1      44.299  26.662  34.381  1.00  0.00     0.010 A 
ATOM     46  C   UNL A   1      46.028  27.630  36.331  1.00  0.00     0.020 A 
ATOM     47  C   UNL A   1      45.103  25.771  35.093  1.00  0.00     0.020 A 
ATOM     48  C   UNL A   1      45.994  26.267  36.036  1.00  0.00     0.054 A 
BRANCH  48  49
ATOM     49  S   UNL A   1      47.185  25.154  36.826  1.00  0.00     0.124 S 
ATOM     50  O   UNL A   1      46.522  23.861  36.689  1.00  0.00    -0.237 OA
ATOM     51  O   UNL A   1      48.381  25.344  36.010  1.00  0.00    -0.237 OA
ATOM     52  O   UNL A   1      47.280  25.670  38.190  1.00  0.00    -0.744 OA
ENDBRANCH  48  49
ENDBRANCH  29  43
BRANCH  30  53
ATOM     53  C   UNL A   1      42.084  24.728  27.190  1.00  0.00    -0.014 A 
ATOM     54  C   UNL A   1      43.010  24.087  26.351  1.00  0.00     0.010 A 
ATOM     55  C   UNL A   1      41.006  23.963  27.688  1.00  0.00     0.010 A 
ATOM     56  C   UNL A   1      42.884  22.720  26.057  1.00  0.00     0.020 A 
ATOM     57  C   UNL A   1      40.866  22.606  27.390  1.00  0.00     0.020 A 
ATOM     58  C   UNL A   1      41.820  21.985  26.591  1.00  0.00     0.054 A 
BRANCH  58  59
ATOM     59  S   UNL A   1      41.754  20.190  26.338  1.00  0.00     0.124 S 
ATOM     60  O   UNL A   1      40.339  19.967  26.061  1.00  0.00    -0.237 OA
ATOM     61  O   UNL A   1      42.660  19.996  25.209  1.00  0.00    -0.237 OA
ATOM     62  O   UNL A   1      42.231  19.646  27.609  1.00  0.00    -0.744 OA
ENDBRANCH  58  59
ENDBRANCH  30  53
BRANCH  42  63
ATOM     63  C   UNL A   1      45.070  30.289  28.225  1.00  0.00    -0.014 A 
ATOM     64  C   UNL A   1      43.841  30.750  27.717  1.00  0.00     0.010 A 
ATOM     65  C   UNL A   1      46.256  30.889  27.761  1.00  0.00     0.010 A 
ATOM     66  C   UNL A   1      43.798  31.780  26.767  1.00  0.00     0.020 A 
ATOM     67  C   UNL A   1      46.219  31.929  26.826  1.00  0.00     0.020 A 
ATOM     68  C   UNL A   1      44.989  32.369  26.333  1.00  0.00     0.054 A 
BRANCH  68  69
ATOM     69  S   UNL A   1      44.916  33.777  25.189  1.00  0.00     0.124 S 
ATOM     70  O   UNL A   1      43.908  34.635  25.805  1.00  0.00    -0.237 OA
ATOM     71  O   UNL A   1      46.283  34.291  25.216  1.00  0.00    -0.237 OA
ATOM     72  O   UNL A   1      44.519  33.171  23.917  1.00  0.00    -0.744 OA
ENDBRANCH  68  69
ENDBRANCH  42  63
ENDBRANCH  16  17
ENDBRANCH   9  11
ENDBRANCH   8   9
ENDBRANCH   7   8
ENDBRANCH   6   7
ENDBRANCH   5   6
ENDBRANCH   4   5
ENDBRANCH   3   4
ENDBRANCH   2   3
ENDBRANCH   1   2
BRANCH   1  73
ATOM     73  C   UNL A   1      37.707  32.538  37.941  1.00  0.00     0.188 C 
BRANCH  73  74
ATOM     74  O   UNL A   1      37.646  31.632  39.038  1.00  0.00    -0.376 OA
BRANCH  74  75
ATOM     75  C   UNL A   1      37.557  32.097  40.372  1.00  0.00     0.202 C 
BRANCH  75  76
ATOM     76  C   UNL A   1      37.859  31.036  41.437  1.00  0.00     0.261 C 
BRANCH  76  77
ATOM     77  O   UNL A   1      39.240  30.943  41.811  1.00  0.00    -0.460 OA
BRANCH  77  78
ATOM     78  C   UNL A   1      39.494  30.830  43.148  1.00  0.00     0.339 C 
ATOM     79  O   UNL A   1      40.405  30.177  43.646  1.00  0.00    -0.246 OA
BRANCH  78  80
ATOM     80  C   UNL A   1      38.635  31.705  43.938  1.00  0.00     0.071 A 
ATOM     81  C   UNL A   1      38.723  33.084  43.955  1.00  0.00     0.080 A 
ATOM     82  C   UNL A   1      37.640  31.249  44.870  1.00  0.00     0.033 A 
ATOM     83  S   UNL A   1      37.647  33.796  45.076  1.00  0.00    -0.146 S 
ATOM     84  C   UNL A   1      37.099  32.268  45.630  1.00  0.00     0.025 A 
BRANCH  84  85
ATOM     85  C   UNL A   1      36.144  32.137  46.794  1.00  0.00     0.159 C 
BRANCH  85  86
ATOM     86  N   UNL A   1      36.242  30.889  47.540  1.00  0.00    -0.379 N 
ATOM     87  H   UNL A   1      37.007  30.728  48.138  1.00  0.00     0.160 HD
BRANCH  86  88
ATOM     88  C   UNL A   1      35.252  29.929  47.401  1.00  0.00     0.053 A 
ATOM     89  C   UNL A   1      33.959  30.122  47.881  1.00  0.00     0.031 A 
ATOM     90  C   UNL A   1      35.525  28.677  46.853  1.00  0.00     0.139 A 
ATOM     91  C   UNL A   1      33.000  29.112  47.763  1.00  0.00     0.051 A 
ATOM     92  N   UNL A   1      34.639  27.657  46.767  1.00  0.00    -0.235 NA
ATOM     93  C   UNL A   1      33.377  27.890  47.206  1.00  0.00     0.153 A 
BRANCH  93  94
ATOM     94  N   UNL A   1      32.413  26.837  47.103  1.00  0.00    -0.223 N 
ATOM     95  C   UNL A   1      31.250  26.829  46.352  1.00  0.00     0.117 A 
ATOM     96  N   UNL A   1      32.554  25.668  47.789  1.00  0.00    -0.175 NA
ATOM     97  C   UNL A   1      30.615  25.636  46.600  1.00  0.00     0.042 A 
ATOM     98  C   UNL A   1      31.451  24.976  47.510  1.00  0.00     0.135 A 
ENDBRANCH  93  94
ENDBRANCH  86  88
ENDBRANCH  85  86
ENDBRANCH  84  85
ENDBRANCH  78  80
ENDBRANCH  77  78
ENDBRANCH  76  77
ENDBRANCH  75  76
ENDBRANCH  74  75
ENDBRANCH  73  74
ENDBRANCH   1  73
TORSDOF 27
ENDMDL
MODEL 3
REMARK VINA RESULT:      -8.5      5.968     13.023
REMARK SMILES O=C(OCCOCCOCCOCCOC(=O)c1csc(CNc2ccc(-n3cccn3)nc2)c1)c1ccc(-c2c3nc(c(-c4ccc(S(=O)(=O)[O-])cc4)c4ccc([nH]4)c(-c4ccc(S(=O)(=O)[O-])cc4)c4nc(c(-c5ccc(S(=O)(=O)[O-])cc5)c5ccc2[nH]5)C=C4)C=C3)cc1
REMARK SMILES IDX 10 1 9 2 8 3 7 4 6 5 5 6 4 7 3 8 2 9 1 10 36 11 37 12 95 13
REMARK SMILES IDX 38 14 94 15 39 16 40 17 41 18 88 19 42 20 93 21 87 22 89 23
REMARK SMILES IDX 43 24 92 25 86 26 85 27 44 29 74 30 55 31 73 32 56 33 59 34
REMARK SMILES IDX 72 35 90 36 57 37 58 38 71 40 91 41 60 42 45 43 46 44 54 45
REMARK SMILES IDX 47 46 53 47 48 48 49 49 50 50 51 51 52 52 75 53 76 54 84 55
REMARK SMILES IDX 77 56 83 57 78 58 79 59 80 60 81 61 82 62 61 63 62 64 70 65
REMARK SMILES IDX 63 66 69 67 64 68 65 69 66 70 67 71 68 72 11 73 12 74 13 75
REMARK SMILES IDX 14 76 15 77 16 78 17 79 18 80 19 81 35 82 20 83 21 84 22 85
REMARK SMILES IDX 23 86 24 88 25 89 34 90 26 91 33 92 27 93 28 94 29 95 32 96
REMARK SMILES IDX 30 97 31 98
REMARK H PARENT 89 28 59 39 23 87
REMARK Flexibility Score: inf
ROOT
ATOM      1  C   UNL A   1      45.639  34.023  27.498  1.00  0.00     0.188 C 
ENDROOT
BRANCH   1   2
ATOM      2  O   UNL A   1      46.394  35.209  27.387  1.00  0.00    -0.377 OA
BRANCH   2   3
ATOM      3  C   UNL A   1      45.871  36.166  26.484  1.00  0.00     0.188 C 
BRANCH   3   4
ATOM      4  C   UNL A   1      44.369  36.439  26.617  1.00  0.00     0.188 C 
BRANCH   4   5
ATOM      5  O   UNL A   1      43.793  37.234  27.639  1.00  0.00    -0.376 OA
BRANCH   5   6
ATOM      6  C   UNL A   1      43.687  38.638  27.686  1.00  0.00     0.202 C 
BRANCH   6   7
ATOM      7  C   UNL A   1      44.472  39.557  28.621  1.00  0.00     0.261 C 
BRANCH   7   8
ATOM      8  O   UNL A   1      44.342  39.359  30.025  1.00  0.00    -0.460 OA
BRANCH   8   9
ATOM      9  C   UNL A   1      44.925  38.459  30.842  1.00  0.00     0.338 C 
ATOM     10  O   UNL A   1      46.083  38.670  31.200  1.00  0.00    -0.246 OA
BRANCH   9  11
ATOM     11  C   UNL A   1      44.303  37.162  31.218  1.00  0.00     0.060 A 
ATOM     12  C   UNL A   1      44.467  35.957  30.539  1.00  0.00     0.016 A 
ATOM     13  C   UNL A   1      43.441  37.201  32.334  1.00  0.00     0.016 A 
ATOM     14  C   UNL A   1      43.725  34.844  30.898  1.00  0.00     0.010 A 
ATOM     15  C   UNL A   1      42.699  36.088  32.701  1.00  0.00     0.010 A 
ATOM     16  C   UNL A   1      42.794  34.934  31.929  1.00  0.00    -0.014 A 
BRANCH  16  17
ATOM     17  C   UNL A   1      41.839  33.840  32.026  1.00  0.00     0.031 A 
ATOM     18  C   UNL A   1      40.581  33.940  31.246  1.00  0.00     0.074 A 
ATOM     19  C   UNL A   1      42.075  32.791  32.835  1.00  0.00     0.049 A 
ATOM     20  N   UNL A   1      39.367  34.012  31.692  1.00  0.00    -0.248 NA
ATOM     21  C   UNL A   1      40.694  34.013  29.785  1.00  0.00     0.031 C 
ATOM     22  C   UNL A   1      43.341  32.416  33.474  1.00  0.00     0.029 A 
ATOM     23  N   UNL A   1      41.237  31.772  33.171  1.00  0.00    -0.354 N 
ATOM     24  C   UNL A   1      38.544  33.961  30.571  1.00  0.00     0.074 A 
ATOM     25  C   UNL A   1      39.412  34.065  29.423  1.00  0.00     0.031 C 
ATOM     26  C   UNL A   1      43.251  31.142  33.909  1.00  0.00     0.029 A 
ATOM     27  C   UNL A   1      41.889  30.679  33.714  1.00  0.00     0.049 A 
ATOM     28  H   UNL A   1      40.261  31.809  33.040  1.00  0.00     0.167 HD
ATOM     29  C   UNL A   1      37.218  33.658  30.641  1.00  0.00     0.031 A 
ATOM     30  C   UNL A   1      41.373  29.444  33.908  1.00  0.00     0.031 A 
ATOM     31  C   UNL A   1      36.687  33.779  31.971  1.00  0.00     0.049 A 
ATOM     32  C   UNL A   1      39.898  29.568  33.964  1.00  0.00     0.074 A 
ATOM     33  C   UNL A   1      36.518  34.813  32.868  1.00  0.00     0.029 A 
ATOM     34  N   UNL A   1      36.479  32.621  32.680  1.00  0.00    -0.354 N 
ATOM     35  N   UNL A   1      39.258  30.180  34.923  1.00  0.00    -0.248 NA
ATOM     36  C   UNL A   1      39.121  29.323  32.759  1.00  0.00     0.031 C 
ATOM     37  C   UNL A   1      36.647  34.218  34.156  1.00  0.00     0.029 A 
ATOM     38  C   UNL A   1      36.879  32.852  33.970  1.00  0.00     0.049 A 
ATOM     39  H   UNL A   1      36.111  31.779  32.325  1.00  0.00     0.167 HD
ATOM     40  C   UNL A   1      38.146  30.742  34.314  1.00  0.00     0.074 A 
ATOM     41  C   UNL A   1      38.048  30.074  33.022  1.00  0.00     0.031 C 
ATOM     42  C   UNL A   1      37.573  31.883  34.796  1.00  0.00     0.031 A 
BRANCH  29  43
ATOM     43  C   UNL A   1      36.472  32.925  29.554  1.00  0.00    -0.014 A 
ATOM     44  C   UNL A   1      35.195  33.377  29.162  1.00  0.00     0.010 A 
ATOM     45  C   UNL A   1      36.866  31.647  29.106  1.00  0.00     0.010 A 
ATOM     46  C   UNL A   1      34.333  32.560  28.415  1.00  0.00     0.020 A 
ATOM     47  C   UNL A   1      36.033  30.845  28.325  1.00  0.00     0.020 A 
ATOM     48  C   UNL A   1      34.755  31.290  28.019  1.00  0.00     0.054 A 
BRANCH  48  49
ATOM     49  S   UNL A   1      33.589  30.187  27.179  1.00  0.00     0.124 S 
ATOM     50  O   UNL A   1      34.186  30.077  25.852  1.00  0.00    -0.237 OA
ATOM     51  O   UNL A   1      33.649  28.982  28.003  1.00  0.00    -0.237 OA
ATOM     52  O   UNL A   1      32.325  30.916  27.242  1.00  0.00    -0.744 OA
ENDBRANCH  48  49
ENDBRANCH  29  43
BRANCH  30  53
ATOM     53  C   UNL A   1      42.093  28.169  33.689  1.00  0.00    -0.014 A 
ATOM     54  C   UNL A   1      42.843  27.944  32.524  1.00  0.00     0.010 A 
ATOM     55  C   UNL A   1      42.240  27.254  34.756  1.00  0.00     0.010 A 
ATOM     56  C   UNL A   1      43.739  26.867  32.446  1.00  0.00     0.020 A 
ATOM     57  C   UNL A   1      43.120  26.172  34.681  1.00  0.00     0.020 A 
ATOM     58  C   UNL A   1      43.882  25.996  33.532  1.00  0.00     0.054 A 
BRANCH  58  59
ATOM     59  S   UNL A   1      45.156  24.705  33.484  1.00  0.00     0.124 S 
ATOM     60  O   UNL A   1      46.071  25.133  34.537  1.00  0.00    -0.237 OA
ATOM     61  O   UNL A   1      44.389  23.493  33.764  1.00  0.00    -0.237 OA
ATOM     62  O   UNL A   1      45.687  24.795  32.125  1.00  0.00    -0.744 OA
ENDBRANCH  58  59
ENDBRANCH  30  53
BRANCH  42  63
ATOM     63  C   UNL A   1      37.939  32.342  36.189  1.00  0.00    -0.014 A 
ATOM     64  C   UNL A   1      37.299  31.856  37.345  1.00  0.00     0.010 A 
ATOM     65  C   UNL A   1      39.088  33.142  36.344  1.00  0.00     0.010 A 
ATOM     66  C   UNL A   1      37.789  32.164  38.621  1.00  0.00     0.020 A 
ATOM     67  C   UNL A   1      39.592  33.439  37.615  1.00  0.00     0.020 A 
ATOM     68  C   UNL A   1      38.940  32.949  38.747  1.00  0.00     0.054 A 
BRANCH  68  69
ATOM     69  S   UNL A   1      39.631  33.248  40.400  1.00  0.00     0.124 S 
ATOM     70  O   UNL A   1      39.490  31.946  41.044  1.00  0.00    -0.237 OA
ATOM     71  O   UNL A   1      41.001  33.663  40.109  1.00  0.00    -0.237 OA
ATOM     72  O   UNL A   1      38.778  34.304  40.946  1.00  0.00    -0.744 OA
ENDBRANCH  68  69
ENDBRANCH  42  63
ENDBRANCH  16  17
ENDBRANCH   9  11
ENDBRANCH   8   9
ENDBRANCH   7   8
ENDBRANCH   6   7
ENDBRANCH   5   6
ENDBRANCH   4   5
ENDBRANCH   3   4
ENDBRANCH   2   3
ENDBRANCH   1   2
BRANCH   1  73
ATOM     73  C   UNL A   1      45.780  33.059  26.306  1.00  0.00     0.188 C 
BRANCH  73  74
ATOM     74  O   UNL A   1      46.713  31.983  26.268  1.00  0.00    -0.376 OA
BRANCH  74  75
ATOM     75  C   UNL A   1      47.763  31.887  27.211  1.00  0.00     0.202 C 
BRANCH  75  76
ATOM     76  C   UNL A   1      47.409  31.105  28.481  1.00  0.00     0.261 C 
BRANCH  76  77
ATOM     77  O   UNL A   1      46.121  30.473  28.452  1.00  0.00    -0.460 OA
BRANCH  77  78
ATOM     78  C   UNL A   1      45.387  30.554  29.600  1.00  0.00     0.339 C 
ATOM     79  O   UNL A   1      45.764  31.060  30.651  1.00  0.00    -0.246 OA
BRANCH  78  80
ATOM     80  C   UNL A   1      44.017  30.093  29.399  1.00  0.00     0.071 A 
ATOM     81  C   UNL A   1      42.888  30.817  29.732  1.00  0.00     0.080 A 
ATOM     82  C   UNL A   1      43.657  28.790  28.909  1.00  0.00     0.033 A 
ATOM     83  S   UNL A   1      41.446  29.938  29.475  1.00  0.00    -0.146 S 
ATOM     84  C   UNL A   1      42.302  28.532  28.993  1.00  0.00     0.025 A 
BRANCH  84  85
ATOM     85  C   UNL A   1      41.597  27.227  28.707  1.00  0.00     0.159 C 
BRANCH  85  86
ATOM     86  N   UNL A   1      41.547  26.843  27.301  1.00  0.00    -0.379 N 
ATOM     87  H   UNL A   1      41.096  27.422  26.645  1.00  0.00     0.160 HD
BRANCH  86  88
ATOM     88  C   UNL A   1      42.138  25.658  26.895  1.00  0.00     0.053 A 
ATOM     89  C   UNL A   1      41.911  24.451  27.551  1.00  0.00     0.031 A 
ATOM     90  C   UNL A   1      43.069  25.628  25.858  1.00  0.00     0.139 A 
ATOM     91  C   UNL A   1      42.561  23.285  27.139  1.00  0.00     0.051 A 
ATOM     92  N   UNL A   1      43.758  24.531  25.462  1.00  0.00    -0.235 NA
ATOM     93  C   UNL A   1      43.483  23.363  26.094  1.00  0.00     0.153 A 
BRANCH  93  94
ATOM     94  N   UNL A   1      44.177  22.183  25.679  1.00  0.00    -0.223 N 
ATOM     95  C   UNL A   1      45.546  22.000  25.582  1.00  0.00     0.117 A 
ATOM     96  N   UNL A   1      43.511  21.055  25.303  1.00  0.00    -0.175 NA
ATOM     97  C   UNL A   1      45.753  20.732  25.094  1.00  0.00     0.042 A 
ATOM     98  C   UNL A   1      44.465  20.209  24.917  1.00  0.00     0.135 A 
ENDBRANCH  93  94
ENDBRANCH  86  88
ENDBRANCH  85  86
ENDBRANCH  84  85
ENDBRANCH  78  80
ENDBRANCH  77  78
ENDBRANCH  76  77
ENDBRANCH  75  76
ENDBRANCH  74  75
ENDBRANCH  73  74
ENDBRANCH   1  73
TORSDOF 27
ENDMDL
