MODEL 1
REMARK VINA RESULT:      -9.3      0.000      0.000
REMARK SMILES O=C(Cc1cccn1-c1ccc2c(c1)OCCO2)OCCOCCOCCOCCOC(=O)c1ccc(-c2c3nc(c(-c4ccc(S(=O)(=O)[O-])cc4)c4ccc([nH]4)c(-c4ccc(S(=O)(=O)[O-])cc4)c4nc(c(-c5ccc(S(=O)(=O)[O-])cc5)c5ccc2[nH]5)C=C4)C=C3)cc1
REMARK SMILES IDX 26 1 25 2 24 3 23 4 22 5 21 6 20 7 19 8 2 9 1 10 3 11 4 12
REMARK SMILES IDX 5 13 8 14 6 15 7 16 9 17 10 18 14 19 11 20 13 21 12 22 15 23
REMARK SMILES IDX 18 24 16 25 17 26 27 27 28 28 29 29 30 30 31 31 32 32 33 33
REMARK SMILES IDX 34 34 35 35 93 36 36 37 92 38 37 39 38 40 39 41 86 42 40 43
REMARK SMILES IDX 91 44 85 45 87 46 41 47 90 48 84 49 83 50 42 52 72 53 53 54
REMARK SMILES IDX 71 55 54 56 57 57 70 58 88 59 55 60 56 61 69 63 89 64 58 65
REMARK SMILES IDX 43 66 44 67 52 68 45 69 51 70 46 71 47 72 48 73 49 74 50 75
REMARK SMILES IDX 73 76 74 77 82 78 75 79 81 80 76 81 77 82 78 83 79 84 80 85
REMARK SMILES IDX 59 86 60 87 68 88 61 89 67 90 62 91 63 92 64 93 65 94 66 95
REMARK H PARENT 87 51 57 62
REMARK Flexibility Score: inf
ROOT
ATOM      1  C   UNL A   1      34.162  32.012  28.209  1.00  0.00     0.188 C 
ENDROOT
BRANCH   1   2
ATOM      2  O   UNL A   1      34.152  31.041  27.169  1.00  0.00    -0.377 OA
BRANCH   2   3
ATOM      3  C   UNL A   1      34.731  29.790  27.529  1.00  0.00     0.188 C 
BRANCH   3   4
ATOM      4  C   UNL A   1      34.157  28.615  26.739  1.00  0.00     0.188 C 
BRANCH   4   5
ATOM      5  O   UNL A   1      33.074  29.069  25.947  1.00  0.00    -0.376 OA
BRANCH   5   6
ATOM      6  C   UNL A   1      31.751  28.817  26.349  1.00  0.00     0.202 C 
BRANCH   6   7
ATOM      7  C   UNL A   1      31.582  27.560  27.193  1.00  0.00     0.261 C 
BRANCH   7   8
ATOM      8  O   UNL A   1      31.428  26.297  26.499  1.00  0.00    -0.463 OA
BRANCH   8   9
ATOM      9  C   UNL A   1      30.325  25.726  25.967  1.00  0.00     0.311 C 
ATOM     10  O   UNL A   1      29.454  25.298  26.724  1.00  0.00    -0.252 OA
BRANCH   9  11
ATOM     11  C   UNL A   1      30.216  25.486  24.476  1.00  0.00     0.177 C 
BRANCH  11  12
ATOM     12  C   UNL A   1      30.913  26.507  23.633  1.00  0.00     0.034 A 
ATOM     13  C   UNL A   1      30.387  27.692  23.142  1.00  0.00     0.024 A 
ATOM     14  N   UNL A   1      32.269  26.458  23.285  1.00  0.00    -0.320 N 
ATOM     15  C   UNL A   1      31.443  28.449  22.612  1.00  0.00     0.020 A 
ATOM     16  C   UNL A   1      32.582  27.690  22.736  1.00  0.00     0.091 A 
BRANCH  14  17
ATOM     17  C   UNL A   1      33.216  25.395  23.454  1.00  0.00     0.049 A 
ATOM     18  C   UNL A   1      33.172  24.282  22.596  1.00  0.00     0.031 A 
ATOM     19  C   UNL A   1      34.161  25.411  24.491  1.00  0.00     0.077 A 
ATOM     20  C   UNL A   1      34.035  23.197  22.784  1.00  0.00     0.052 A 
ATOM     21  C   UNL A   1      35.024  24.325  24.673  1.00  0.00     0.163 A 
ATOM     22  C   UNL A   1      34.938  23.205  23.840  1.00  0.00     0.161 A 
ATOM     23  O   UNL A   1      35.909  24.409  25.720  1.00  0.00    -0.486 OA
ATOM     24  O   UNL A   1      35.701  22.078  24.008  1.00  0.00    -0.486 OA
ATOM     25  C   UNL A   1      36.906  23.380  25.659  1.00  0.00     0.271 C 
ATOM     26  C   UNL A   1      36.276  22.040  25.318  1.00  0.00     0.271 C 
ENDBRANCH  14  17
ENDBRANCH  11  12
ENDBRANCH   9  11
ENDBRANCH   8   9
ENDBRANCH   7   8
ENDBRANCH   6   7
ENDBRANCH   5   6
ENDBRANCH   4   5
ENDBRANCH   3   4
ENDBRANCH   2   3
ENDBRANCH   1   2
BRANCH   1  27
ATOM     27  C   UNL A   1      35.549  32.566  28.601  1.00  0.00     0.188 C 
BRANCH  27  28
ATOM     28  O   UNL A   1      35.771  33.555  29.596  1.00  0.00    -0.376 OA
BRANCH  28  29
ATOM     29  C   UNL A   1      36.354  33.305  30.862  1.00  0.00     0.202 C 
BRANCH  29  30
ATOM     30  C   UNL A   1      36.500  31.919  31.490  1.00  0.00     0.261 C 
BRANCH  30  31
ATOM     31  O   UNL A   1      37.513  31.104  30.951  1.00  0.00    -0.460 OA
BRANCH  31  32
ATOM     32  C   UNL A   1      37.086  29.879  30.651  1.00  0.00     0.338 C 
ATOM     33  O   UNL A   1      35.984  29.370  30.894  1.00  0.00    -0.246 OA
BRANCH  32  34
ATOM     34  C   UNL A   1      38.171  29.158  30.029  1.00  0.00     0.060 A 
ATOM     35  C   UNL A   1      39.043  28.459  30.865  1.00  0.00     0.016 A 
ATOM     36  C   UNL A   1      38.458  29.449  28.689  1.00  0.00     0.016 A 
ATOM     37  C   UNL A   1      40.304  28.188  30.397  1.00  0.00     0.010 A 
ATOM     38  C   UNL A   1      39.735  29.229  28.241  1.00  0.00     0.010 A 
ATOM     39  C   UNL A   1      40.653  28.648  29.122  1.00  0.00    -0.014 A 
BRANCH  39  40
ATOM     40  C   UNL A   1      42.036  28.484  28.688  1.00  0.00     0.031 A 
ATOM     41  C   UNL A   1      42.812  29.776  28.832  1.00  0.00     0.074 A 
ATOM     42  C   UNL A   1      42.347  27.247  28.203  1.00  0.00     0.049 A 
ATOM     43  N   UNL A   1      43.826  30.192  28.147  1.00  0.00    -0.248 NA
ATOM     44  C   UNL A   1      42.341  30.807  29.800  1.00  0.00     0.031 C 
ATOM     45  C   UNL A   1      41.400  26.109  28.128  1.00  0.00     0.029 A 
ATOM     46  N   UNL A   1      43.488  26.689  27.675  1.00  0.00    -0.354 N 
ATOM     47  C   UNL A   1      44.231  31.409  28.718  1.00  0.00     0.074 A 
ATOM     48  C   UNL A   1      43.208  31.804  29.636  1.00  0.00     0.031 C 
ATOM     49  C   UNL A   1      41.973  25.044  27.531  1.00  0.00     0.029 A 
ATOM     50  C   UNL A   1      43.345  25.366  27.193  1.00  0.00     0.049 A 
ATOM     51  H   UNL A   1      44.342  27.176  27.635  1.00  0.00     0.167 HD
ATOM     52  C   UNL A   1      45.471  31.936  28.532  1.00  0.00     0.031 A 
ATOM     53  C   UNL A   1      44.257  24.596  26.531  1.00  0.00     0.031 A 
ATOM     54  C   UNL A   1      46.227  31.135  27.628  1.00  0.00     0.049 A 
ATOM     55  C   UNL A   1      45.520  25.358  26.531  1.00  0.00     0.074 A 
ATOM     56  C   UNL A   1      46.132  30.896  26.281  1.00  0.00     0.029 A 
ATOM     57  N   UNL A   1      47.011  30.160  28.200  1.00  0.00    -0.354 N 
ATOM     58  N   UNL A   1      46.266  25.577  27.571  1.00  0.00    -0.248 NA
ATOM     59  C   UNL A   1      45.951  26.009  25.287  1.00  0.00     0.031 C 
ATOM     60  C   UNL A   1      46.500  29.537  26.149  1.00  0.00     0.029 A 
ATOM     61  C   UNL A   1      46.930  29.053  27.390  1.00  0.00     0.049 A 
ATOM     62  H   UNL A   1      47.532  30.240  29.032  1.00  0.00     0.167 HD
ATOM     63  C   UNL A   1      47.003  26.672  27.189  1.00  0.00     0.074 A 
ATOM     64  C   UNL A   1      47.007  26.680  25.742  1.00  0.00     0.031 C 
ATOM     65  C   UNL A   1      47.080  27.753  28.008  1.00  0.00     0.031 A 
BRANCH  52  66
ATOM     66  C   UNL A   1      46.195  32.962  29.348  1.00  0.00    -0.014 A 
ATOM     67  C   UNL A   1      46.889  33.966  28.632  1.00  0.00     0.010 A 
ATOM     68  C   UNL A   1      46.519  32.776  30.701  1.00  0.00     0.010 A 
ATOM     69  C   UNL A   1      47.969  34.642  29.196  1.00  0.00     0.020 A 
ATOM     70  C   UNL A   1      47.575  33.485  31.288  1.00  0.00     0.020 A 
ATOM     71  C   UNL A   1      48.331  34.362  30.510  1.00  0.00     0.054 A 
BRANCH  71  72
ATOM     72  S   UNL A   1      49.859  35.087  31.156  1.00  0.00     0.124 S 
ATOM     73  O   UNL A   1      50.557  35.461  29.932  1.00  0.00    -0.237 OA
ATOM     74  O   UNL A   1      49.367  36.203  31.963  1.00  0.00    -0.237 OA
ATOM     75  O   UNL A   1      50.456  33.994  31.921  1.00  0.00    -0.744 OA
ENDBRANCH  71  72
ENDBRANCH  52  66
BRANCH  53  76
ATOM     76  C   UNL A   1      44.237  23.312  25.740  1.00  0.00    -0.014 A 
ATOM     77  C   UNL A   1      45.070  22.993  24.660  1.00  0.00     0.010 A 
ATOM     78  C   UNL A   1      43.390  22.264  26.196  1.00  0.00     0.010 A 
ATOM     79  C   UNL A   1      45.159  21.669  24.170  1.00  0.00     0.020 A 
ATOM     80  C   UNL A   1      43.503  20.944  25.758  1.00  0.00     0.020 A 
ATOM     81  C   UNL A   1      44.413  20.645  24.759  1.00  0.00     0.054 A 
BRANCH  81  82
ATOM     82  S   UNL A   1      44.708  18.904  24.342  1.00  0.00     0.124 S 
ATOM     83  O   UNL A   1      46.042  18.673  24.888  1.00  0.00    -0.237 OA
ATOM     84  O   UNL A   1      43.617  18.211  25.024  1.00  0.00    -0.237 OA
ATOM     85  O   UNL A   1      44.618  18.894  22.883  1.00  0.00    -0.744 OA
ENDBRANCH  81  82
ENDBRANCH  53  76
BRANCH  65  86
ATOM     86  C   UNL A   1      46.859  27.464  29.487  1.00  0.00    -0.014 A 
ATOM     87  C   UNL A   1      45.731  27.986  30.145  1.00  0.00     0.010 A 
ATOM     88  C   UNL A   1      47.794  26.759  30.269  1.00  0.00     0.010 A 
ATOM     89  C   UNL A   1      45.551  27.820  31.529  1.00  0.00     0.020 A 
ATOM     90  C   UNL A   1      47.627  26.588  31.654  1.00  0.00     0.020 A 
ATOM     91  C   UNL A   1      46.502  27.124  32.278  1.00  0.00     0.054 A 
BRANCH  91  92
ATOM     92  S   UNL A   1      46.263  26.965  34.074  1.00  0.00     0.124 S 
ATOM     93  O   UNL A   1      46.081  28.349  34.501  1.00  0.00    -0.237 OA
ATOM     94  O   UNL A   1      45.072  26.125  34.161  1.00  0.00    -0.237 OA
ATOM     95  O   UNL A   1      47.500  26.337  34.540  1.00  0.00    -0.744 OA
ENDBRANCH  91  92
ENDBRANCH  65  86
ENDBRANCH  39  40
ENDBRANCH  32  34
ENDBRANCH  31  32
ENDBRANCH  30  31
ENDBRANCH  29  30
ENDBRANCH  28  29
ENDBRANCH  27  28
ENDBRANCH   1  27
TORSDOF 25
ENDMDL
MODEL 2
REMARK VINA RESULT:      -8.4      3.825      7.975
REMARK SMILES O=C(Cc1cccn1-c1ccc2c(c1)OCCO2)OCCOCCOCCOCCOC(=O)c1ccc(-c2c3nc(c(-c4ccc(S(=O)(=O)[O-])cc4)c4ccc([nH]4)c(-c4ccc(S(=O)(=O)[O-])cc4)c4nc(c(-c5ccc(S(=O)(=O)[O-])cc5)c5ccc2[nH]5)C=C4)C=C3)cc1
REMARK SMILES IDX 26 1 25 2 24 3 23 4 22 5 21 6 20 7 19 8 2 9 1 10 3 11 4 12
REMARK SMILES IDX 5 13 8 14 6 15 7 16 9 17 10 18 14 19 11 20 13 21 12 22 15 23
REMARK SMILES IDX 18 24 16 25 17 26 27 27 28 28 29 29 30 30 31 31 32 32 33 33
REMARK SMILES IDX 34 34 35 35 93 36 36 37 92 38 37 39 38 40 39 41 86 42 40 43
REMARK SMILES IDX 91 44 85 45 87 46 41 47 90 48 84 49 83 50 42 52 72 53 53 54
REMARK SMILES IDX 71 55 54 56 57 57 70 58 88 59 55 60 56 61 69 63 89 64 58 65
REMARK SMILES IDX 43 66 44 67 52 68 45 69 51 70 46 71 47 72 48 73 49 74 50 75
REMARK SMILES IDX 73 76 74 77 82 78 75 79 81 80 76 81 77 82 78 83 79 84 80 85
REMARK SMILES IDX 59 86 60 87 68 88 61 89 67 90 62 91 63 92 64 93 65 94 66 95
REMARK H PARENT 87 51 57 62
REMARK Flexibility Score: inf
ROOT
ATOM      1  C   UNL A   1      39.951  28.618  27.353  1.00  0.00     0.188 C 
ENDROOT
BRANCH   1   2
ATOM      2  O   UNL A   1      39.916  29.046  28.709  1.00  0.00    -0.377 OA
BRANCH   2   3
ATOM      3  C   UNL A   1      38.799  29.867  29.037  1.00  0.00     0.188 C 
BRANCH   3   4
ATOM      4  C   UNL A   1      37.459  29.157  28.859  1.00  0.00     0.188 C 
BRANCH   4   5
ATOM      5  O   UNL A   1      36.582  29.993  28.125  1.00  0.00    -0.376 OA
BRANCH   5   6
ATOM      6  C   UNL A   1      35.281  29.558  27.821  1.00  0.00     0.202 C 
BRANCH   6   7
ATOM      7  C   UNL A   1      34.359  30.655  27.302  1.00  0.00     0.261 C 
BRANCH   7   8
ATOM      8  O   UNL A   1      33.158  30.251  26.598  1.00  0.00    -0.463 OA
BRANCH   8   9
ATOM      9  C   UNL A   1      32.989  29.324  25.629  1.00  0.00     0.311 C 
ATOM     10  O   UNL A   1      33.294  29.614  24.471  1.00  0.00    -0.252 OA
BRANCH   9  11
ATOM     11  C   UNL A   1      32.309  28.004  25.924  1.00  0.00     0.177 C 
BRANCH  11  12
ATOM     12  C   UNL A   1      31.428  27.503  24.823  1.00  0.00     0.034 A 
ATOM     13  C   UNL A   1      30.325  28.139  24.275  1.00  0.00     0.024 A 
ATOM     14  N   UNL A   1      31.654  26.326  24.099  1.00  0.00    -0.320 N 
ATOM     15  C   UNL A   1      29.946  27.435  23.122  1.00  0.00     0.020 A 
ATOM     16  C   UNL A   1      30.786  26.353  23.019  1.00  0.00     0.091 A 
BRANCH  14  17
ATOM     17  C   UNL A   1      32.592  25.269  24.343  1.00  0.00     0.049 A 
ATOM     18  C   UNL A   1      33.742  25.163  23.542  1.00  0.00     0.031 A 
ATOM     19  C   UNL A   1      32.367  24.302  25.334  1.00  0.00     0.077 A 
ATOM     20  C   UNL A   1      34.637  24.100  23.710  1.00  0.00     0.052 A 
ATOM     21  C   UNL A   1      33.266  23.242  25.499  1.00  0.00     0.163 A 
ATOM     22  C   UNL A   1      34.382  23.125  24.665  1.00  0.00     0.161 A 
ATOM     23  O   UNL A   1      32.967  22.327  26.479  1.00  0.00    -0.486 OA
ATOM     24  O   UNL A   1      35.261  22.074  24.724  1.00  0.00    -0.486 OA
ATOM     25  C   UNL A   1      34.068  21.445  26.736  1.00  0.00     0.271 C 
ATOM     26  C   UNL A   1      34.693  20.969  25.436  1.00  0.00     0.271 C 
ENDBRANCH  14  17
ENDBRANCH  11  12
ENDBRANCH   9  11
ENDBRANCH   8   9
ENDBRANCH   7   8
ENDBRANCH   6   7
ENDBRANCH   5   6
ENDBRANCH   4   5
ENDBRANCH   3   4
ENDBRANCH   2   3
ENDBRANCH   1   2
BRANCH   1  27
ATOM     27  C   UNL A   1      40.388  27.156  27.118  1.00  0.00     0.188 C 
BRANCH  27  28
ATOM     28  O   UNL A   1      40.061  26.069  27.972  1.00  0.00    -0.376 OA
BRANCH  28  29
ATOM     29  C   UNL A   1      39.061  25.104  27.700  1.00  0.00     0.202 C 
BRANCH  29  30
ATOM     30  C   UNL A   1      39.294  23.814  26.913  1.00  0.00     0.261 C 
BRANCH  30  31
ATOM     31  O   UNL A   1      40.299  22.964  27.412  1.00  0.00    -0.460 OA
BRANCH  31  32
ATOM     32  C   UNL A   1      40.975  22.343  26.447  1.00  0.00     0.338 C 
ATOM     33  O   UNL A   1      40.612  21.388  25.748  1.00  0.00    -0.246 OA
BRANCH  32  34
ATOM     34  C   UNL A   1      42.295  22.925  26.368  1.00  0.00     0.060 A 
ATOM     35  C   UNL A   1      43.338  22.243  26.996  1.00  0.00     0.016 A 
ATOM     36  C   UNL A   1      42.390  24.258  25.945  1.00  0.00     0.016 A 
ATOM     37  C   UNL A   1      44.449  22.962  27.359  1.00  0.00     0.010 A 
ATOM     38  C   UNL A   1      43.474  24.988  26.357  1.00  0.00     0.010 A 
ATOM     39  C   UNL A   1      44.463  24.339  27.103  1.00  0.00    -0.014 A 
BRANCH  39  40
ATOM     40  C   UNL A   1      45.582  25.121  27.620  1.00  0.00     0.031 A 
ATOM     41  C   UNL A   1      46.674  25.265  26.581  1.00  0.00     0.074 A 
ATOM     42  C   UNL A   1      45.458  25.520  28.918  1.00  0.00     0.049 A 
ATOM     43  N   UNL A   1      47.946  25.416  26.759  1.00  0.00    -0.248 NA
ATOM     44  C   UNL A   1      46.333  25.118  25.137  1.00  0.00     0.031 C 
ATOM     45  C   UNL A   1      44.283  25.237  29.778  1.00  0.00     0.029 A 
ATOM     46  N   UNL A   1      46.265  26.223  29.781  1.00  0.00    -0.354 N 
ATOM     47  C   UNL A   1      48.517  25.581  25.487  1.00  0.00     0.074 A 
ATOM     48  C   UNL A   1      47.509  25.255  24.527  1.00  0.00     0.031 C 
ATOM     49  C   UNL A   1      44.485  25.690  31.032  1.00  0.00     0.029 A 
ATOM     50  C   UNL A   1      45.780  26.336  31.105  1.00  0.00     0.049 A 
ATOM     51  H   UNL A   1      47.120  26.618  29.497  1.00  0.00     0.167 HD
ATOM     52  C   UNL A   1      49.739  26.147  25.295  1.00  0.00     0.031 A 
ATOM     53  C   UNL A   1      46.395  26.877  32.197  1.00  0.00     0.031 A 
ATOM     54  C   UNL A   1      50.357  26.446  26.544  1.00  0.00     0.049 A 
ATOM     55  C   UNL A   1      47.648  27.481  31.708  1.00  0.00     0.074 A 
ATOM     56  C   UNL A   1      50.881  25.666  27.542  1.00  0.00     0.029 A 
ATOM     57  N   UNL A   1      50.137  27.712  27.036  1.00  0.00    -0.354 N 
ATOM     58  N   UNL A   1      47.732  28.548  30.969  1.00  0.00    -0.248 NA
ATOM     59  C   UNL A   1      48.918  26.797  31.988  1.00  0.00     0.031 C 
ATOM     60  C   UNL A   1      50.553  26.362  28.727  1.00  0.00     0.029 A 
ATOM     61  C   UNL A   1      49.971  27.591  28.395  1.00  0.00     0.049 A 
ATOM     62  H   UNL A   1      50.105  28.546  26.514  1.00  0.00     0.167 HD
ATOM     63  C   UNL A   1      48.978  28.425  30.403  1.00  0.00     0.074 A 
ATOM     64  C   UNL A   1      49.743  27.561  31.275  1.00  0.00     0.031 C 
ATOM     65  C   UNL A   1      49.123  28.558  29.059  1.00  0.00     0.031 A 
BRANCH  52  66
ATOM     66  C   UNL A   1      50.314  26.757  24.054  1.00  0.00    -0.014 A 
ATOM     67  C   UNL A   1      49.404  27.054  23.013  1.00  0.00     0.010 A 
ATOM     68  C   UNL A   1      51.682  26.705  23.738  1.00  0.00     0.010 A 
ATOM     69  C   UNL A   1      49.822  27.135  21.687  1.00  0.00     0.020 A 
ATOM     70  C   UNL A   1      52.113  26.831  22.412  1.00  0.00     0.020 A 
ATOM     71  C   UNL A   1      51.173  26.978  21.392  1.00  0.00     0.054 A 
BRANCH  71  72
ATOM     72  S   UNL A   1      51.670  26.873  19.654  1.00  0.00     0.124 S 
ATOM     73  O   UNL A   1      50.460  27.308  18.967  1.00  0.00    -0.237 OA
ATOM     74  O   UNL A   1      52.797  27.802  19.588  1.00  0.00    -0.237 OA
ATOM     75  O   UNL A   1      52.025  25.466  19.488  1.00  0.00    -0.744 OA
ENDBRANCH  71  72
ENDBRANCH  52  66
BRANCH  53  76
ATOM     76  C   UNL A   1      46.176  26.878  33.689  1.00  0.00    -0.014 A 
ATOM     77  C   UNL A   1      46.001  28.008  34.499  1.00  0.00     0.010 A 
ATOM     78  C   UNL A   1      45.997  25.624  34.335  1.00  0.00     0.010 A 
ATOM     79  C   UNL A   1      45.530  27.891  35.827  1.00  0.00     0.020 A 
ATOM     80  C   UNL A   1      45.485  25.494  35.627  1.00  0.00     0.020 A 
ATOM     81  C   UNL A   1      45.225  26.637  36.362  1.00  0.00     0.054 A 
BRANCH  81  82
ATOM     82  S   UNL A   1      44.365  26.473  37.951  1.00  0.00     0.124 S 
ATOM     83  O   UNL A   1      44.535  27.798  38.537  1.00  0.00    -0.237 OA
ATOM     84  O   UNL A   1      43.002  26.127  37.555  1.00  0.00    -0.237 OA
ATOM     85  O   UNL A   1      45.099  25.396  38.614  1.00  0.00    -0.744 OA
ENDBRANCH  81  82
ENDBRANCH  53  76
BRANCH  65  86
ATOM     86  C   UNL A   1      48.054  29.394  28.369  1.00  0.00    -0.014 A 
ATOM     87  C   UNL A   1      48.096  30.797  28.447  1.00  0.00     0.010 A 
ATOM     88  C   UNL A   1      46.947  28.817  27.715  1.00  0.00     0.010 A 
ATOM     89  C   UNL A   1      47.072  31.591  27.905  1.00  0.00     0.020 A 
ATOM     90  C   UNL A   1      45.915  29.600  27.171  1.00  0.00     0.020 A 
ATOM     91  C   UNL A   1      45.982  30.987  27.272  1.00  0.00     0.054 A 
BRANCH  91  92
ATOM     92  S   UNL A   1      44.650  32.040  26.620  1.00  0.00     0.124 S 
ATOM     93  O   UNL A   1      43.550  31.096  26.438  1.00  0.00    -0.237 OA
ATOM     94  O   UNL A   1      44.463  33.014  27.692  1.00  0.00    -0.237 OA
ATOM     95  O   UNL A   1      45.204  32.581  25.379  1.00  0.00    -0.744 OA
ENDBRANCH  91  92
ENDBRANCH  65  86
ENDBRANCH  39  40
ENDBRANCH  32  34
ENDBRANCH  31  32
ENDBRANCH  30  31
ENDBRANCH  29  30
ENDBRANCH  28  29
ENDBRANCH  27  28
ENDBRANCH   1  27
TORSDOF 25
ENDMDL
MODEL 3
REMARK VINA RESULT:      -8.3      3.149      4.998
REMARK SMILES O=C(Cc1cccn1-c1ccc2c(c1)OCCO2)OCCOCCOCCOCCOC(=O)c1ccc(-c2c3nc(c(-c4ccc(S(=O)(=O)[O-])cc4)c4ccc([nH]4)c(-c4ccc(S(=O)(=O)[O-])cc4)c4nc(c(-c5ccc(S(=O)(=O)[O-])cc5)c5ccc2[nH]5)C=C4)C=C3)cc1
REMARK SMILES IDX 26 1 25 2 24 3 23 4 22 5 21 6 20 7 19 8 2 9 1 10 3 11 4 12
REMARK SMILES IDX 5 13 8 14 6 15 7 16 9 17 10 18 14 19 11 20 13 21 12 22 15 23
REMARK SMILES IDX 18 24 16 25 17 26 27 27 28 28 29 29 30 30 31 31 32 32 33 33
REMARK SMILES IDX 34 34 35 35 93 36 36 37 92 38 37 39 38 40 39 41 86 42 40 43
REMARK SMILES IDX 91 44 85 45 87 46 41 47 90 48 84 49 83 50 42 52 72 53 53 54
REMARK SMILES IDX 71 55 54 56 57 57 70 58 88 59 55 60 56 61 69 63 89 64 58 65
REMARK SMILES IDX 43 66 44 67 52 68 45 69 51 70 46 71 47 72 48 73 49 74 50 75
REMARK SMILES IDX 73 76 74 77 82 78 75 79 81 80 76 81 77 82 78 83 79 84 80 85
REMARK SMILES IDX 59 86 60 87 68 88 61 89 67 90 62 91 63 92 64 93 65 94 66 95
REMARK H PARENT 87 51 57 62
REMARK Flexibility Score: inf
ROOT
ATOM      1  C   UNL A   1      32.366  27.695  26.703  1.00  0.00     0.188 C 
ENDROOT
BRANCH   1   2
ATOM      2  O   UNL A   1      31.100  27.199  27.123  1.00  0.00    -0.377 OA
BRANCH   2   3
ATOM      3  C   UNL A   1      30.458  26.352  26.175  1.00  0.00     0.188 C 
BRANCH   3   4
ATOM      4  C   UNL A   1      31.278  25.113  25.824  1.00  0.00     0.188 C 
BRANCH   4   5
ATOM      5  O   UNL A   1      32.148  25.418  24.748  1.00  0.00    -0.376 OA
BRANCH   5   6
ATOM      6  C   UNL A   1      31.656  25.460  23.433  1.00  0.00     0.202 C 
BRANCH   6   7
ATOM      7  C   UNL A   1      30.563  24.440  23.140  1.00  0.00     0.261 C 
BRANCH   7   8
ATOM      8  O   UNL A   1      30.908  23.036  23.229  1.00  0.00    -0.463 OA
BRANCH   8   9
ATOM      9  C   UNL A   1      32.118  22.435  23.197  1.00  0.00     0.311 C 
ATOM     10  O   UNL A   1      32.520  21.965  22.131  1.00  0.00    -0.252 OA
BRANCH   9  11
ATOM     11  C   UNL A   1      32.911  22.213  24.468  1.00  0.00     0.177 C 
BRANCH  11  12
ATOM     12  C   UNL A   1      34.396  22.286  24.290  1.00  0.00     0.034 A 
ATOM     13  C   UNL A   1      35.150  23.407  23.978  1.00  0.00     0.024 A 
ATOM     14  N   UNL A   1      35.275  21.219  24.512  1.00  0.00    -0.320 N 
ATOM     15  C   UNL A   1      36.503  23.078  24.143  1.00  0.00     0.020 A 
ATOM     16  C   UNL A   1      36.554  21.751  24.496  1.00  0.00     0.091 A 
BRANCH  14  17
ATOM     17  C   UNL A   1      34.989  19.833  24.744  1.00  0.00     0.049 A 
ATOM     18  C   UNL A   1      36.026  18.887  24.660  1.00  0.00     0.031 A 
ATOM     19  C   UNL A   1      33.686  19.386  25.004  1.00  0.00     0.077 A 
ATOM     20  C   UNL A   1      35.763  17.521  24.809  1.00  0.00     0.052 A 
ATOM     21  C   UNL A   1      33.429  18.018  25.155  1.00  0.00     0.163 A 
ATOM     22  C   UNL A   1      34.462  17.085  25.025  1.00  0.00     0.161 A 
ATOM     23  O   UNL A   1      32.124  17.659  25.391  1.00  0.00    -0.486 OA
ATOM     24  O   UNL A   1      34.267  15.730  25.087  1.00  0.00    -0.486 OA
ATOM     25  C   UNL A   1      32.014  16.284  25.784  1.00  0.00     0.271 C 
ATOM     26  C   UNL A   1      32.886  15.402  24.906  1.00  0.00     0.271 C 
ENDBRANCH  14  17
ENDBRANCH  11  12
ENDBRANCH   9  11
ENDBRANCH   8   9
ENDBRANCH   7   8
ENDBRANCH   6   7
ENDBRANCH   5   6
ENDBRANCH   4   5
ENDBRANCH   3   4
ENDBRANCH   2   3
ENDBRANCH   1   2
BRANCH   1  27
ATOM     27  C   UNL A   1      32.334  28.815  25.641  1.00  0.00     0.188 C 
BRANCH  27  28
ATOM     28  O   UNL A   1      32.995  30.066  25.768  1.00  0.00    -0.376 OA
BRANCH  28  29
ATOM     29  C   UNL A   1      32.975  30.872  26.932  1.00  0.00     0.202 C 
BRANCH  29  30
ATOM     30  C   UNL A   1      34.213  31.243  27.748  1.00  0.00     0.261 C 
BRANCH  30  31
ATOM     31  O   UNL A   1      33.968  31.748  29.039  1.00  0.00    -0.460 OA
BRANCH  31  32
ATOM     32  C   UNL A   1      34.420  32.991  29.201  1.00  0.00     0.338 C 
ATOM     33  O   UNL A   1      33.833  34.057  28.974  1.00  0.00    -0.246 OA
BRANCH  32  34
ATOM     34  C   UNL A   1      35.796  32.921  29.636  1.00  0.00     0.060 A 
ATOM     35  C   UNL A   1      36.764  33.480  28.801  1.00  0.00     0.016 A 
ATOM     36  C   UNL A   1      36.098  32.049  30.691  1.00  0.00     0.016 A 
ATOM     37  C   UNL A   1      38.054  33.025  28.919  1.00  0.00     0.010 A 
ATOM     38  C   UNL A   1      37.373  31.553  30.770  1.00  0.00     0.010 A 
ATOM     39  C   UNL A   1      38.319  32.012  29.848  1.00  0.00    -0.014 A 
BRANCH  39  40
ATOM     40  C   UNL A   1      39.659  31.433  29.868  1.00  0.00     0.031 A 
ATOM     41  C   UNL A   1      40.695  32.464  30.260  1.00  0.00     0.074 A 
ATOM     42  C   UNL A   1      39.728  30.123  29.491  1.00  0.00     0.049 A 
ATOM     43  N   UNL A   1      41.944  32.523  29.932  1.00  0.00    -0.248 NA
ATOM     44  C   UNL A   1      40.275  33.661  31.043  1.00  0.00     0.031 C 
ATOM     45  C   UNL A   1      38.559  29.292  29.112  1.00  0.00     0.029 A 
ATOM     46  N   UNL A   1      40.761  29.228  29.341  1.00  0.00    -0.354 N 
ATOM     47  C   UNL A   1      42.492  33.621  30.613  1.00  0.00     0.074 A 
ATOM     48  C   UNL A   1      41.401  34.359  31.169  1.00  0.00     0.031 C 
ATOM     49  C   UNL A   1      38.951  28.065  28.713  1.00  0.00     0.029 A 
ATOM     50  C   UNL A   1      40.392  27.963  28.825  1.00  0.00     0.049 A 
ATOM     51  H   UNL A   1      41.689  29.451  29.575  1.00  0.00     0.167 HD
ATOM     52  C   UNL A   1      43.827  33.763  30.830  1.00  0.00     0.031 A 
ATOM     53  C   UNL A   1      41.196  26.917  28.473  1.00  0.00     0.031 A 
ATOM     54  C   UNL A   1      44.554  32.712  30.199  1.00  0.00     0.049 A 
ATOM     55  C   UNL A   1      42.564  27.293  28.876  1.00  0.00     0.074 A 
ATOM     56  C   UNL A   1      44.806  32.400  28.888  1.00  0.00     0.029 A 
ATOM     57  N   UNL A   1      44.810  31.607  30.978  1.00  0.00    -0.354 N 
ATOM     58  N   UNL A   1      42.991  27.379  30.100  1.00  0.00    -0.248 NA
ATOM     59  C   UNL A   1      43.521  27.694  27.836  1.00  0.00     0.031 C 
ATOM     60  C   UNL A   1      44.784  30.987  28.864  1.00  0.00     0.029 A 
ATOM     61  C   UNL A   1      44.659  30.504  30.172  1.00  0.00     0.049 A 
ATOM     62  H   UNL A   1      45.055  31.606  31.932  1.00  0.00     0.167 HD
ATOM     63  C   UNL A   1      44.094  28.190  29.979  1.00  0.00     0.074 A 
ATOM     64  C   UNL A   1      44.537  28.078  28.606  1.00  0.00     0.031 C 
ATOM     65  C   UNL A   1      44.230  29.269  30.792  1.00  0.00     0.031 A 
BRANCH  52  66
ATOM     66  C   UNL A   1      44.537  34.609  31.842  1.00  0.00    -0.014 A 
ATOM     67  C   UNL A   1      45.372  35.633  31.338  1.00  0.00     0.010 A 
ATOM     68  C   UNL A   1      44.704  34.222  33.182  1.00  0.00     0.010 A 
ATOM     69  C   UNL A   1      46.435  36.135  32.087  1.00  0.00     0.020 A 
ATOM     70  C   UNL A   1      45.743  34.756  33.955  1.00  0.00     0.020 A 
ATOM     71  C   UNL A   1      46.638  35.658  33.378  1.00  0.00     0.054 A 
BRANCH  71  72
ATOM     72  S   UNL A   1      48.140  36.158  34.256  1.00  0.00     0.124 S 
ATOM     73  O   UNL A   1      48.500  37.389  33.561  1.00  0.00    -0.237 OA
ATOM     74  O   UNL A   1      47.665  36.330  35.628  1.00  0.00    -0.237 OA
ATOM     75  O   UNL A   1      49.042  35.027  34.057  1.00  0.00    -0.744 OA
ENDBRANCH  71  72
ENDBRANCH  52  66
BRANCH  53  76
ATOM     76  C   UNL A   1      41.043  25.630  27.702  1.00  0.00    -0.014 A 
ATOM     77  C   UNL A   1      41.907  25.154  26.707  1.00  0.00     0.010 A 
ATOM     78  C   UNL A   1      40.006  24.739  28.095  1.00  0.00     0.010 A 
ATOM     79  C   UNL A   1      41.830  23.819  26.247  1.00  0.00     0.020 A 
ATOM     80  C   UNL A   1      39.948  23.406  27.688  1.00  0.00     0.020 A 
ATOM     81  C   UNL A   1      40.883  22.941  26.780  1.00  0.00     0.054 A 
BRANCH  81  82
ATOM     82  S   UNL A   1      40.936  21.164  26.417  1.00  0.00     0.124 S 
ATOM     83  O   UNL A   1      39.764  20.984  25.565  1.00  0.00    -0.237 OA
ATOM     84  O   UNL A   1      42.229  20.998  25.757  1.00  0.00    -0.237 OA
ATOM     85  O   UNL A   1      40.846  20.554  27.743  1.00  0.00    -0.744 OA
ENDBRANCH  81  82
ENDBRANCH  53  76
BRANCH  65  86
ATOM     86  C   UNL A   1      43.498  29.175  32.125  1.00  0.00    -0.014 A 
ATOM     87  C   UNL A   1      42.206  29.714  32.258  1.00  0.00     0.010 A 
ATOM     88  C   UNL A   1      44.099  28.644  33.282  1.00  0.00     0.010 A 
ATOM     89  C   UNL A   1      41.546  29.730  33.498  1.00  0.00     0.020 A 
ATOM     90  C   UNL A   1      43.450  28.657  34.529  1.00  0.00     0.020 A 
ATOM     91  C   UNL A   1      42.173  29.204  34.630  1.00  0.00     0.054 A 
BRANCH  91  92
ATOM     92  S   UNL A   1      41.311  29.281  36.229  1.00  0.00     0.124 S 
ATOM     93  O   UNL A   1      40.041  29.914  35.883  1.00  0.00    -0.237 OA
ATOM     94  O   UNL A   1      41.222  27.873  36.608  1.00  0.00    -0.237 OA
ATOM     95  O   UNL A   1      42.193  30.094  37.066  1.00  0.00    -0.744 OA
ENDBRANCH  91  92
ENDBRANCH  65  86
ENDBRANCH  39  40
ENDBRANCH  32  34
ENDBRANCH  31  32
ENDBRANCH  30  31
ENDBRANCH  29  30
ENDBRANCH  28  29
ENDBRANCH  27  28
ENDBRANCH   1  27
TORSDOF 25
ENDMDL
