MODEL 1
REMARK VINA RESULT:      -7.0      0.000      0.000
REMARK SMILES COc1ccc(OC)c(/C=N/[NH+]=C2/NC(=O)[C@@H](CC(=O)OCCOCCOCCOCCOC(=O)c3ccc(-c4c5nc(c(-c6ccc(S(=O)(=O)[O-])cc6)c6ccc([nH]6)c(-c6ccc(S(=O)(=O)[O-])cc6)c6nc(c(-c7ccc(S(=O)(=O)[O-])cc7)c7ccc4[nH]7)C=C6)C=C5)cc3)S2)c1
REMARK SMILES IDX 26 1 25 2 24 3 23 4 22 5 21 6 19 7 20 8 18 9 17 10 12 11
REMARK SMILES IDX 13 12 14 14 96 15 15 16 16 18 11 19 10 20 9 21 3 22 4 23
REMARK SMILES IDX 97 24 5 25 6 26 2 27 1 28 7 29 8 30 27 31 28 32 29 33 30 34
REMARK SMILES IDX 31 35 32 36 33 37 34 38 35 39 36 40 37 41 95 42 38 43 94 44
REMARK SMILES IDX 39 45 40 46 41 47 88 48 42 49 93 50 87 51 89 52 43 53 92 54
REMARK SMILES IDX 86 55 85 56 44 58 74 59 55 60 73 61 56 62 59 63 72 64 90 65
REMARK SMILES IDX 57 66 58 67 71 69 91 70 60 71 45 72 46 73 54 74 47 75 53 76
REMARK SMILES IDX 48 77 49 78 50 79 51 80 52 81 75 82 76 83 84 84 77 85 83 86
REMARK SMILES IDX 78 87 79 88 80 89 81 90 82 91 61 92 62 93 70 94 63 95 69 96
REMARK SMILES IDX 64 97 65 98 66 99 67 100 68 101
REMARK H PARENT 12 13 14 17 89 57 59 68
REMARK Flexibility Score: inf
ROOT
ATOM      1  C   UNL A   1      41.639  27.926  31.128  1.00  0.00     0.188 C 
ENDROOT
BRANCH   1   2
ATOM      2  C   UNL A   1      42.859  27.897  30.232  1.00  0.00     0.188 C 
BRANCH   2   3
ATOM      3  O   UNL A   1      43.952  27.012  30.430  1.00  0.00    -0.376 OA
BRANCH   3   4
ATOM      4  C   UNL A   1      44.097  25.759  29.778  1.00  0.00     0.202 C 
BRANCH   4   5
ATOM      5  C   UNL A   1      43.991  25.763  28.243  1.00  0.00     0.261 C 
BRANCH   5   6
ATOM      6  O   UNL A   1      43.026  24.850  27.671  1.00  0.00    -0.463 OA
BRANCH   6   7
ATOM      7  C   UNL A   1      43.319  24.356  26.452  1.00  0.00     0.307 C 
ATOM      8  O   UNL A   1      44.397  24.523  25.882  1.00  0.00    -0.252 OA
BRANCH   7   9
ATOM      9  C   UNL A   1      42.246  23.469  25.825  1.00  0.00     0.150 C 
BRANCH   9  10
ATOM     10  C   UNL A   1      41.161  22.689  26.608  1.00  0.00     0.184 C 
ATOM     11  N   UNL A   1      37.763  21.194  25.104  1.00  0.00    -0.142 N 
ATOM     12  C   UNL A   1      38.850  21.584  25.765  1.00  0.00     0.337 C 
ATOM     13  H   UNL A   1      37.726  20.277  24.748  1.00  0.00     0.343 HD
ATOM     14  N   UNL A   1      39.918  20.732  25.981  1.00  0.00    -0.202 N 
ATOM     15  S   UNL A   1      39.366  23.107  26.507  1.00  0.00    -0.020 SA
ATOM     16  C   UNL A   1      41.147  21.205  26.399  1.00  0.00     0.322 C 
ATOM     17  H   UNL A   1      39.799  19.766  25.835  1.00  0.00     0.316 HD
ATOM     18  O   UNL A   1      42.142  20.496  26.604  1.00  0.00    -0.246 OA
BRANCH  11  19
ATOM     19  N   UNL A   1      36.601  22.099  24.887  1.00  0.00    -0.093 NA
ATOM     20  C   UNL A   1      35.440  22.189  25.556  1.00  0.00     0.170 C 
BRANCH  20  21
ATOM     21  C   UNL A   1      34.200  23.302  25.403  1.00  0.00     0.042 A 
ATOM     22  C   UNL A   1      32.053  23.979  26.493  1.00  0.00     0.119 A 
ATOM     23  C   UNL A   1      31.854  25.004  25.598  1.00  0.00     0.050 A 
ATOM     24  C   UNL A   1      33.262  23.268  26.466  1.00  0.00     0.060 A 
ATOM     25  C   UNL A   1      32.782  25.188  24.592  1.00  0.00     0.051 A 
ATOM     26  C   UNL A   1      33.898  24.326  24.443  1.00  0.00     0.128 A 
BRANCH  22  27
ATOM     27  O   UNL A   1      31.035  23.747  27.378  1.00  0.00    -0.497 OA
ATOM     28  C   UNL A   1      29.994  22.890  26.903  1.00  0.00     0.278 C 
ENDBRANCH  22  27
BRANCH  26  29
ATOM     29  O   UNL A   1      34.468  24.508  23.203  1.00  0.00    -0.496 OA
ATOM     30  C   UNL A   1      33.652  25.236  22.268  1.00  0.00     0.278 C 
ENDBRANCH  26  29
ENDBRANCH  20  21
ENDBRANCH  11  19
ENDBRANCH   9  10
ENDBRANCH   7   9
ENDBRANCH   6   7
ENDBRANCH   5   6
ENDBRANCH   4   5
ENDBRANCH   3   4
ENDBRANCH   2   3
ENDBRANCH   1   2
BRANCH   1  31
ATOM     31  O   UNL A   1      41.697  28.855  32.179  1.00  0.00    -0.377 OA
BRANCH  31  32
ATOM     32  C   UNL A   1      41.523  30.185  31.782  1.00  0.00     0.188 C 
BRANCH  32  33
ATOM     33  C   UNL A   1      40.101  30.569  31.360  1.00  0.00     0.188 C 
BRANCH  33  34
ATOM     34  O   UNL A   1      39.352  30.570  30.113  1.00  0.00    -0.376 OA
BRANCH  34  35
ATOM     35  C   UNL A   1      38.518  31.545  29.401  1.00  0.00     0.202 C 
BRANCH  35  36
ATOM     36  C   UNL A   1      36.859  32.056  29.667  1.00  0.00     0.261 C 
BRANCH  36  37
ATOM     37  O   UNL A   1      36.334  33.172  30.641  1.00  0.00    -0.460 OA
BRANCH  37  38
ATOM     38  C   UNL A   1      35.956  33.034  31.968  1.00  0.00     0.338 C 
ATOM     39  O   UNL A   1      35.063  32.346  32.445  1.00  0.00    -0.246 OA
BRANCH  38  40
ATOM     40  C   UNL A   1      36.773  33.488  33.122  1.00  0.00     0.060 A 
ATOM     41  C   UNL A   1      38.155  33.720  32.862  1.00  0.00     0.016 A 
ATOM     42  C   UNL A   1      36.416  33.133  34.412  1.00  0.00     0.016 A 
ATOM     43  C   UNL A   1      39.148  33.617  33.810  1.00  0.00     0.010 A 
ATOM     44  C   UNL A   1      37.416  33.044  35.396  1.00  0.00     0.010 A 
ATOM     45  C   UNL A   1      38.776  33.261  35.087  1.00  0.00    -0.014 A 
BRANCH  45  46
ATOM     46  C   UNL A   1      39.847  33.017  36.059  1.00  0.00     0.031 A 
ATOM     47  C   UNL A   1      40.202  34.092  37.034  1.00  0.00     0.074 A 
ATOM     48  C   UNL A   1      40.438  31.812  36.070  1.00  0.00     0.049 A 
ATOM     49  N   UNL A   1      41.247  34.182  37.807  1.00  0.00    -0.248 NA
ATOM     50  C   UNL A   1      39.255  35.215  37.156  1.00  0.00     0.031 C 
ATOM     51  C   UNL A   1      40.028  30.657  35.264  1.00  0.00     0.029 A 
ATOM     52  N   UNL A   1      41.525  31.366  36.766  1.00  0.00    -0.354 N 
ATOM     53  C   UNL A   1      41.120  35.400  38.465  1.00  0.00     0.074 A 
ATOM     54  C   UNL A   1      39.889  36.008  38.009  1.00  0.00     0.031 C 
ATOM     55  C   UNL A   1      40.886  29.649  35.475  1.00  0.00     0.029 A 
ATOM     56  C   UNL A   1      41.937  30.118  36.369  1.00  0.00     0.049 A 
ATOM     57  H   UNL A   1      41.967  31.884  37.477  1.00  0.00     0.167 HD
ATOM     58  C   UNL A   1      41.982  35.952  39.349  1.00  0.00     0.031 A 
ATOM     59  C   UNL A   1      43.077  29.463  36.644  1.00  0.00     0.031 A 
ATOM     60  C   UNL A   1      43.202  35.302  39.753  1.00  0.00     0.049 A 
ATOM     61  C   UNL A   1      44.074  30.144  37.536  1.00  0.00     0.074 A 
ATOM     62  C   UNL A   1      44.177  35.755  40.623  1.00  0.00     0.029 A 
ATOM     63  N   UNL A   1      43.612  34.051  39.305  1.00  0.00    -0.354 N 
ATOM     64  N   UNL A   1      43.991  31.322  38.111  1.00  0.00    -0.248 NA
ATOM     65  C   UNL A   1      45.310  29.412  37.819  1.00  0.00     0.031 C 
ATOM     66  C   UNL A   1      45.203  34.804  40.651  1.00  0.00     0.029 A 
ATOM     67  C   UNL A   1      44.836  33.725  39.859  1.00  0.00     0.049 A 
ATOM     68  H   UNL A   1      43.103  33.480  38.685  1.00  0.00     0.167 HD
ATOM     69  C   UNL A   1      45.154  31.461  38.856  1.00  0.00     0.074 A 
ATOM     70  C   UNL A   1      45.914  30.238  38.663  1.00  0.00     0.031 C 
ATOM     71  C   UNL A   1      45.558  32.496  39.633  1.00  0.00     0.031 A 
BRANCH  58  72
ATOM     72  C   UNL A   1      41.673  37.333  39.867  1.00  0.00    -0.014 A 
ATOM     73  C   UNL A   1      42.332  38.474  39.376  1.00  0.00     0.010 A 
ATOM     74  C   UNL A   1      40.683  37.493  40.857  1.00  0.00     0.010 A 
ATOM     75  C   UNL A   1      42.033  39.741  39.889  1.00  0.00     0.020 A 
ATOM     76  C   UNL A   1      40.361  38.761  41.351  1.00  0.00     0.020 A 
ATOM     77  C   UNL A   1      41.050  39.877  40.874  1.00  0.00     0.054 A 
BRANCH  77  78
ATOM     78  S   UNL A   1      40.670  41.534  41.504  1.00  0.00     0.124 S 
ATOM     79  O   UNL A   1      39.604  41.964  40.601  1.00  0.00    -0.237 OA
ATOM     80  O   UNL A   1      40.258  41.267  42.879  1.00  0.00    -0.237 OA
ATOM     81  O   UNL A   1      41.932  42.259  41.363  1.00  0.00    -0.744 OA
ENDBRANCH  77  78
ENDBRANCH  58  72
BRANCH  59  82
ATOM     82  C   UNL A   1      43.326  28.129  36.041  1.00  0.00    -0.014 A 
ATOM     83  C   UNL A   1      42.989  26.963  36.746  1.00  0.00     0.010 A 
ATOM     84  C   UNL A   1      43.849  28.016  34.738  1.00  0.00     0.010 A 
ATOM     85  C   UNL A   1      43.183  25.707  36.166  1.00  0.00     0.020 A 
ATOM     86  C   UNL A   1      44.014  26.763  34.143  1.00  0.00     0.020 A 
ATOM     87  C   UNL A   1      43.690  25.615  34.867  1.00  0.00     0.054 A 
BRANCH  87  88
ATOM     88  S   UNL A   1      43.881  23.973  34.123  1.00  0.00     0.124 S 
ATOM     89  O   UNL A   1      42.582  23.365  34.394  1.00  0.00    -0.237 OA
ATOM     90  O   UNL A   1      44.152  24.293  32.723  1.00  0.00    -0.237 OA
ATOM     91  O   UNL A   1      45.008  23.395  34.852  1.00  0.00    -0.744 OA
ENDBRANCH  87  88
ENDBRANCH  59  82
BRANCH  71  92
ATOM     92  C   UNL A   1      46.861  32.319  40.364  1.00  0.00    -0.014 A 
ATOM     93  C   UNL A   1      46.914  31.695  41.621  1.00  0.00     0.010 A 
ATOM     94  C   UNL A   1      48.052  32.753  39.755  1.00  0.00     0.010 A 
ATOM     95  C   UNL A   1      48.137  31.542  42.276  1.00  0.00     0.020 A 
ATOM     96  C   UNL A   1      49.280  32.569  40.391  1.00  0.00     0.020 A 
ATOM     97  C   UNL A   1      49.312  31.979  41.656  1.00  0.00     0.054 A 
BRANCH  97  98
ATOM     98  S   UNL A   1      50.891  31.728  42.509  1.00  0.00     0.124 S 
ATOM     99  O   UNL A   1      51.573  30.797  41.614  1.00  0.00    -0.237 OA
ATOM    100  O   UNL A   1      51.446  33.078  42.556  1.00  0.00    -0.237 OA
ATOM    101  O   UNL A   1      50.501  31.174  43.804  1.00  0.00    -0.744 OA
ENDBRANCH  97  98
ENDBRANCH  71  92
ENDBRANCH  45  46
ENDBRANCH  38  40
ENDBRANCH  37  38
ENDBRANCH  36  37
ENDBRANCH  35  36
ENDBRANCH  34  35
ENDBRANCH  33  34
ENDBRANCH  32  33
ENDBRANCH  31  32
ENDBRANCH   1  31
TORSDOF 28
ENDMDL
MODEL 2
REMARK VINA RESULT:      -6.7      7.160     14.768
REMARK SMILES COc1ccc(OC)c(/C=N/[NH+]=C2/NC(=O)[C@@H](CC(=O)OCCOCCOCCOCCOC(=O)c3ccc(-c4c5nc(c(-c6ccc(S(=O)(=O)[O-])cc6)c6ccc([nH]6)c(-c6ccc(S(=O)(=O)[O-])cc6)c6nc(c(-c7ccc(S(=O)(=O)[O-])cc7)c7ccc4[nH]7)C=C6)C=C5)cc3)S2)c1
REMARK SMILES IDX 26 1 25 2 24 3 23 4 22 5 21 6 19 7 20 8 18 9 17 10 12 11
REMARK SMILES IDX 13 12 14 14 96 15 15 16 16 18 11 19 10 20 9 21 3 22 4 23
REMARK SMILES IDX 97 24 5 25 6 26 2 27 1 28 7 29 8 30 27 31 28 32 29 33 30 34
REMARK SMILES IDX 31 35 32 36 33 37 34 38 35 39 36 40 37 41 95 42 38 43 94 44
REMARK SMILES IDX 39 45 40 46 41 47 88 48 42 49 93 50 87 51 89 52 43 53 92 54
REMARK SMILES IDX 86 55 85 56 44 58 74 59 55 60 73 61 56 62 59 63 72 64 90 65
REMARK SMILES IDX 57 66 58 67 71 69 91 70 60 71 45 72 46 73 54 74 47 75 53 76
REMARK SMILES IDX 48 77 49 78 50 79 51 80 52 81 75 82 76 83 84 84 77 85 83 86
REMARK SMILES IDX 78 87 79 88 80 89 81 90 82 91 61 92 62 93 70 94 63 95 69 96
REMARK SMILES IDX 64 97 65 98 66 99 67 100 68 101
REMARK H PARENT 12 13 14 17 89 57 59 68
REMARK Flexibility Score: inf
ROOT
ATOM      1  C   UNL A   1      47.957  29.067  36.940  1.00  0.00     0.188 C 
ENDROOT
BRANCH   1   2
ATOM      2  C   UNL A   1      48.435  27.685  37.333  1.00  0.00     0.188 C 
BRANCH   2   3
ATOM      3  O   UNL A   1      47.899  26.490  36.785  1.00  0.00    -0.376 OA
BRANCH   3   4
ATOM      4  C   UNL A   1      46.522  26.144  36.809  1.00  0.00     0.202 C 
BRANCH   4   5
ATOM      5  C   UNL A   1      46.089  25.105  37.857  1.00  0.00     0.261 C 
BRANCH   5   6
ATOM      6  O   UNL A   1      45.616  23.840  37.338  1.00  0.00    -0.463 OA
BRANCH   6   7
ATOM      7  C   UNL A   1      46.170  22.731  37.868  1.00  0.00     0.307 C 
ATOM      8  O   UNL A   1      46.793  22.712  38.929  1.00  0.00    -0.252 OA
BRANCH   7   9
ATOM      9  C   UNL A   1      45.902  21.434  37.109  1.00  0.00     0.150 C 
BRANCH   9  10
ATOM     10  C   UNL A   1      46.185  21.204  35.605  1.00  0.00     0.184 C 
ATOM     11  N   UNL A   1      49.652  19.997  34.001  1.00  0.00    -0.142 N 
ATOM     12  C   UNL A   1      48.423  20.364  34.354  1.00  0.00     0.337 C 
ATOM     13  H   UNL A   1      49.843  19.041  33.866  1.00  0.00     0.343 HD
ATOM     14  N   UNL A   1      47.405  19.442  34.519  1.00  0.00    -0.202 N 
ATOM     15  S   UNL A   1      47.660  21.912  34.749  1.00  0.00    -0.020 SA
ATOM     16  C   UNL A   1      46.227  19.773  35.160  1.00  0.00     0.322 C 
ATOM     17  H   UNL A   1      47.523  18.528  34.171  1.00  0.00     0.316 HD
ATOM     18  O   UNL A   1      45.282  18.993  35.344  1.00  0.00    -0.246 OA
BRANCH  11  19
ATOM     19  N   UNL A   1      50.747  20.986  33.801  1.00  0.00    -0.093 NA
ATOM     20  C   UNL A   1      51.425  21.717  34.700  1.00  0.00     0.170 C 
BRANCH  20  21
ATOM     21  C   UNL A   1      52.750  22.717  34.487  1.00  0.00     0.042 A 
ATOM     22  C   UNL A   1      54.576  23.197  32.846  1.00  0.00     0.119 A 
ATOM     23  C   UNL A   1      55.094  24.203  33.628  1.00  0.00     0.050 A 
ATOM     24  C   UNL A   1      53.362  22.596  33.213  1.00  0.00     0.060 A 
ATOM     25  C   UNL A   1      54.487  24.471  34.839  1.00  0.00     0.051 A 
ATOM     26  C   UNL A   1      53.383  23.713  35.304  1.00  0.00     0.128 A 
BRANCH  22  27
ATOM     27  O   UNL A   1      55.296  22.871  31.728  1.00  0.00    -0.497 OA
ATOM     28  C   UNL A   1      56.332  23.791  31.378  1.00  0.00     0.278 C 
ENDBRANCH  22  27
BRANCH  26  29
ATOM     29  O   UNL A   1      53.184  23.949  36.645  1.00  0.00    -0.496 OA
ATOM     30  C   UNL A   1      54.229  23.457  37.503  1.00  0.00     0.278 C 
ENDBRANCH  26  29
ENDBRANCH  20  21
ENDBRANCH  11  19
ENDBRANCH   9  10
ENDBRANCH   7   9
ENDBRANCH   6   7
ENDBRANCH   5   6
ENDBRANCH   4   5
ENDBRANCH   3   4
ENDBRANCH   2   3
ENDBRANCH   1   2
BRANCH   1  31
ATOM     31  O   UNL A   1      47.682  29.233  35.573  1.00  0.00    -0.377 OA
BRANCH  31  32
ATOM     32  C   UNL A   1      48.752  29.741  34.828  1.00  0.00     0.188 C 
BRANCH  32  33
ATOM     33  C   UNL A   1      49.019  31.241  34.989  1.00  0.00     0.188 C 
BRANCH  33  34
ATOM     34  O   UNL A   1      49.686  32.267  34.202  1.00  0.00    -0.376 OA
BRANCH  34  35
ATOM     35  C   UNL A   1      50.119  33.647  34.448  1.00  0.00     0.202 C 
BRANCH  35  36
ATOM     36  C   UNL A   1      50.150  35.052  33.394  1.00  0.00     0.261 C 
BRANCH  36  37
ATOM     37  O   UNL A   1      50.289  35.084  31.828  1.00  0.00    -0.460 OA
BRANCH  37  38
ATOM     38  C   UNL A   1      49.353  35.515  30.900  1.00  0.00     0.338 C 
ATOM     39  O   UNL A   1      49.432  36.441  30.102  1.00  0.00    -0.246 OA
BRANCH  38  40
ATOM     40  C   UNL A   1      48.161  34.732  30.488  1.00  0.00     0.060 A 
ATOM     41  C   UNL A   1      47.888  33.557  31.248  1.00  0.00     0.016 A 
ATOM     42  C   UNL A   1      47.728  34.758  29.174  1.00  0.00     0.016 A 
ATOM     43  C   UNL A   1      47.221  32.457  30.758  1.00  0.00     0.010 A 
ATOM     44  C   UNL A   1      47.028  33.650  28.665  1.00  0.00     0.010 A 
ATOM     45  C   UNL A   1      46.799  32.499  29.447  1.00  0.00    -0.014 A 
BRANCH  45  46
ATOM     46  C   UNL A   1      46.214  31.276  28.887  1.00  0.00     0.031 A 
ATOM     47  C   UNL A   1      44.749  31.032  29.048  1.00  0.00     0.074 A 
ATOM     48  C   UNL A   1      47.012  30.441  28.202  1.00  0.00     0.049 A 
ATOM     49  N   UNL A   1      44.076  29.934  28.847  1.00  0.00    -0.248 NA
ATOM     50  C   UNL A   1      43.933  32.174  29.497  1.00  0.00     0.031 C 
ATOM     51  C   UNL A   1      48.414  30.698  27.857  1.00  0.00     0.029 A 
ATOM     52  N   UNL A   1      46.764  29.197  27.696  1.00  0.00    -0.354 N 
ATOM     53  C   UNL A   1      42.765  30.230  29.202  1.00  0.00     0.074 A 
ATOM     54  C   UNL A   1      42.735  31.615  29.619  1.00  0.00     0.031 C 
ATOM     55  C   UNL A   1      48.917  29.621  27.238  1.00  0.00     0.029 A 
ATOM     56  C   UNL A   1      47.894  28.584  27.215  1.00  0.00     0.049 A 
ATOM     57  H   UNL A   1      45.871  28.784  27.678  1.00  0.00     0.167 HD
ATOM     58  C   UNL A   1      41.702  29.395  29.195  1.00  0.00     0.031 A 
ATOM     59  C   UNL A   1      48.090  27.301  26.866  1.00  0.00     0.031 A 
ATOM     60  C   UNL A   1      41.798  28.018  28.781  1.00  0.00     0.049 A 
ATOM     61  C   UNL A   1      46.925  26.363  26.976  1.00  0.00     0.074 A 
ATOM     62  C   UNL A   1      40.808  27.055  28.744  1.00  0.00     0.029 A 
ATOM     63  N   UNL A   1      42.966  27.413  28.332  1.00  0.00    -0.354 N 
ATOM     64  N   UNL A   1      45.698  26.619  27.370  1.00  0.00    -0.248 NA
ATOM     65  C   UNL A   1      47.164  24.969  26.593  1.00  0.00     0.031 C 
ATOM     66  C   UNL A   1      41.393  25.852  28.331  1.00  0.00     0.029 A 
ATOM     67  C   UNL A   1      42.730  26.082  28.040  1.00  0.00     0.049 A 
ATOM     68  H   UNL A   1      43.835  27.866  28.236  1.00  0.00     0.167 HD
ATOM     69  C   UNL A   1      45.006  25.422  27.251  1.00  0.00     0.074 A 
ATOM     70  C   UNL A   1      45.953  24.449  26.736  1.00  0.00     0.031 C 
ATOM     71  C   UNL A   1      43.708  25.148  27.533  1.00  0.00     0.031 A 
BRANCH  58  72
ATOM     72  C   UNL A   1      40.388  29.922  29.710  1.00  0.00    -0.014 A 
ATOM     73  C   UNL A   1      39.394  30.410  28.844  1.00  0.00     0.010 A 
ATOM     74  C   UNL A   1      40.135  29.909  31.096  1.00  0.00     0.010 A 
ATOM     75  C   UNL A   1      38.189  30.907  29.355  1.00  0.00     0.020 A 
ATOM     76  C   UNL A   1      38.921  30.377  31.609  1.00  0.00     0.020 A 
ATOM     77  C   UNL A   1      37.961  30.888  30.735  1.00  0.00     0.054 A 
BRANCH  77  78
ATOM     78  S   UNL A   1      36.382  31.519  31.365  1.00  0.00     0.124 S 
ATOM     79  O   UNL A   1      35.924  30.410  32.199  1.00  0.00    -0.237 OA
ATOM     80  O   UNL A   1      36.785  32.723  32.088  1.00  0.00    -0.237 OA
ATOM     81  O   UNL A   1      35.593  31.756  30.158  1.00  0.00    -0.744 OA
ENDBRANCH  77  78
ENDBRANCH  58  72
BRANCH  59  82
ATOM     82  C   UNL A   1      49.436  26.854  26.425  1.00  0.00    -0.014 A 
ATOM     83  C   UNL A   1      50.316  26.258  27.344  1.00  0.00     0.010 A 
ATOM     84  C   UNL A   1      49.827  26.970  25.077  1.00  0.00     0.010 A 
ATOM     85  C   UNL A   1      51.567  25.799  26.925  1.00  0.00     0.020 A 
ATOM     86  C   UNL A   1      51.064  26.482  24.650  1.00  0.00     0.020 A 
ATOM     87  C   UNL A   1      51.932  25.909  25.580  1.00  0.00     0.054 A 
BRANCH  87  88
ATOM     88  S   UNL A   1      53.541  25.256  25.060  1.00  0.00     0.124 S 
ATOM     89  O   UNL A   1      53.383  23.827  25.313  1.00  0.00    -0.237 OA
ATOM     90  O   UNL A   1      53.598  25.649  23.654  1.00  0.00    -0.237 OA
ATOM     91  O   UNL A   1      54.489  25.945  25.932  1.00  0.00    -0.744 OA
ENDBRANCH  87  88
ENDBRANCH  59  82
BRANCH  71  92
ATOM     92  C   UNL A   1      43.237  23.750  27.242  1.00  0.00    -0.014 A 
ATOM     93  C   UNL A   1      43.008  22.827  28.276  1.00  0.00     0.010 A 
ATOM     94  C   UNL A   1      42.983  23.375  25.910  1.00  0.00     0.010 A 
ATOM     95  C   UNL A   1      42.569  21.536  27.978  1.00  0.00     0.020 A 
ATOM     96  C   UNL A   1      42.510  22.098  25.612  1.00  0.00     0.020 A 
ATOM     97  C   UNL A   1      42.321  21.181  26.648  1.00  0.00     0.054 A 
BRANCH  97  98
ATOM     98  S   UNL A   1      41.709  19.512  26.294  1.00  0.00     0.124 S 
ATOM     99  O   UNL A   1      40.279  19.746  26.118  1.00  0.00    -0.237 OA
ATOM    100  O   UNL A   1      42.443  19.154  25.082  1.00  0.00    -0.237 OA
ATOM    101  O   UNL A   1      42.075  18.749  27.485  1.00  0.00    -0.744 OA
ENDBRANCH  97  98
ENDBRANCH  71  92
ENDBRANCH  45  46
ENDBRANCH  38  40
ENDBRANCH  37  38
ENDBRANCH  36  37
ENDBRANCH  35  36
ENDBRANCH  34  35
ENDBRANCH  33  34
ENDBRANCH  32  33
ENDBRANCH  31  32
ENDBRANCH   1  31
TORSDOF 28
ENDMDL
MODEL 3
REMARK VINA RESULT:      -6.7      9.989     17.050
REMARK SMILES COc1ccc(OC)c(/C=N/[NH+]=C2/NC(=O)[C@@H](CC(=O)OCCOCCOCCOCCOC(=O)c3ccc(-c4c5nc(c(-c6ccc(S(=O)(=O)[O-])cc6)c6ccc([nH]6)c(-c6ccc(S(=O)(=O)[O-])cc6)c6nc(c(-c7ccc(S(=O)(=O)[O-])cc7)c7ccc4[nH]7)C=C6)C=C5)cc3)S2)c1
REMARK SMILES IDX 26 1 25 2 24 3 23 4 22 5 21 6 19 7 20 8 18 9 17 10 12 11
REMARK SMILES IDX 13 12 14 14 96 15 15 16 16 18 11 19 10 20 9 21 3 22 4 23
REMARK SMILES IDX 97 24 5 25 6 26 2 27 1 28 7 29 8 30 27 31 28 32 29 33 30 34
REMARK SMILES IDX 31 35 32 36 33 37 34 38 35 39 36 40 37 41 95 42 38 43 94 44
REMARK SMILES IDX 39 45 40 46 41 47 88 48 42 49 93 50 87 51 89 52 43 53 92 54
REMARK SMILES IDX 86 55 85 56 44 58 74 59 55 60 73 61 56 62 59 63 72 64 90 65
REMARK SMILES IDX 57 66 58 67 71 69 91 70 60 71 45 72 46 73 54 74 47 75 53 76
REMARK SMILES IDX 48 77 49 78 50 79 51 80 52 81 75 82 76 83 84 84 77 85 83 86
REMARK SMILES IDX 78 87 79 88 80 89 81 90 82 91 61 92 62 93 70 94 63 95 69 96
REMARK SMILES IDX 64 97 65 98 66 99 67 100 68 101
REMARK H PARENT 12 13 14 17 89 57 59 68
REMARK Flexibility Score: inf
ROOT
ATOM      1  C   UNL A   1      42.538  36.201  35.262  1.00  0.00     0.188 C 
ENDROOT
BRANCH   1   2
ATOM      2  C   UNL A   1      43.111  37.123  34.206  1.00  0.00     0.188 C 
BRANCH   2   3
ATOM      3  O   UNL A   1      42.693  38.470  34.037  1.00  0.00    -0.376 OA
BRANCH   3   4
ATOM      4  C   UNL A   1      43.578  39.572  33.895  1.00  0.00     0.202 C 
BRANCH   4   5
ATOM      5  C   UNL A   1      43.961  39.969  32.460  1.00  0.00     0.261 C 
BRANCH   5   6
ATOM      6  O   UNL A   1      43.742  41.354  32.105  1.00  0.00    -0.463 OA
BRANCH   6   7
ATOM      7  C   UNL A   1      42.489  41.824  32.272  1.00  0.00     0.307 C 
ATOM      8  O   UNL A   1      41.528  41.482  31.583  1.00  0.00    -0.252 OA
BRANCH   7   9
ATOM      9  C   UNL A   1      42.291  42.767  33.456  1.00  0.00     0.150 C 
BRANCH   9  10
ATOM     10  C   UNL A   1      43.338  43.783  33.974  1.00  0.00     0.184 C 
ATOM     11  N   UNL A   1      47.257  43.786  33.145  1.00  0.00    -0.142 N 
ATOM     12  C   UNL A   1      45.986  43.965  33.497  1.00  0.00     0.337 C 
ATOM     13  H   UNL A   1      47.612  44.283  32.374  1.00  0.00     0.343 HD
ATOM     14  N   UNL A   1      45.159  44.844  32.820  1.00  0.00    -0.202 N 
ATOM     15  S   UNL A   1      44.936  43.265  34.739  1.00  0.00    -0.020 SA
ATOM     16  C   UNL A   1      43.787  44.818  32.987  1.00  0.00     0.322 C 
ATOM     17  H   UNL A   1      45.557  45.502  32.206  1.00  0.00     0.316 HD
ATOM     18  O   UNL A   1      42.993  45.571  32.407  1.00  0.00    -0.246 OA
BRANCH  11  19
ATOM     19  N   UNL A   1      48.159  42.859  33.883  1.00  0.00    -0.093 NA
ATOM     20  C   UNL A   1      49.216  43.125  34.667  1.00  0.00     0.170 C 
BRANCH  20  21
ATOM     21  C   UNL A   1      50.137  42.093  35.610  1.00  0.00     0.042 A 
ATOM     22  C   UNL A   1      51.430  42.054  37.750  1.00  0.00     0.119 A 
ATOM     23  C   UNL A   1      51.762  40.728  37.593  1.00  0.00     0.050 A 
ATOM     24  C   UNL A   1      50.526  42.647  36.856  1.00  0.00     0.060 A 
ATOM     25  C   UNL A   1      51.324  40.071  36.460  1.00  0.00     0.051 A 
ATOM     26  C   UNL A   1      50.585  40.739  35.451  1.00  0.00     0.128 A 
BRANCH  22  27
ATOM     27  O   UNL A   1      52.009  42.697  38.811  1.00  0.00    -0.497 OA
ATOM     28  C   UNL A   1      51.689  42.166  40.098  1.00  0.00     0.278 C 
ENDBRANCH  22  27
BRANCH  26  29
ATOM     29  O   UNL A   1      50.562  39.977  34.305  1.00  0.00    -0.496 OA
ATOM     30  C   UNL A   1      51.685  39.091  34.150  1.00  0.00     0.278 C 
ENDBRANCH  26  29
ENDBRANCH  20  21
ENDBRANCH  11  19
ENDBRANCH   9  10
ENDBRANCH   7   9
ENDBRANCH   6   7
ENDBRANCH   5   6
ENDBRANCH   4   5
ENDBRANCH   3   4
ENDBRANCH   2   3
ENDBRANCH   1   2
BRANCH   1  31
ATOM     31  O   UNL A   1      42.878  34.847  35.113  1.00  0.00    -0.377 OA
BRANCH  31  32
ATOM     32  C   UNL A   1      42.411  34.020  36.141  1.00  0.00     0.188 C 
BRANCH  32  33
ATOM     33  C   UNL A   1      40.891  34.008  36.343  1.00  0.00     0.188 C 
BRANCH  33  34
ATOM     34  O   UNL A   1      39.904  33.015  36.733  1.00  0.00    -0.376 OA
BRANCH  34  35
ATOM     35  C   UNL A   1      38.485  33.050  37.106  1.00  0.00     0.202 C 
BRANCH  35  36
ATOM     36  C   UNL A   1      37.691  32.778  38.650  1.00  0.00     0.261 C 
BRANCH  36  37
ATOM     37  O   UNL A   1      37.917  33.546  40.003  1.00  0.00    -0.460 OA
BRANCH  37  38
ATOM     38  C   UNL A   1      39.099  34.085  40.488  1.00  0.00     0.338 C 
ATOM     39  O   UNL A   1      40.196  33.554  40.600  1.00  0.00    -0.246 OA
BRANCH  38  40
ATOM     40  C   UNL A   1      39.331  35.536  40.700  1.00  0.00     0.060 A 
ATOM     41  C   UNL A   1      39.188  36.369  39.553  1.00  0.00     0.016 A 
ATOM     42  C   UNL A   1      40.185  35.967  41.701  1.00  0.00     0.016 A 
ATOM     43  C   UNL A   1      39.839  37.571  39.384  1.00  0.00     0.010 A 
ATOM     44  C   UNL A   1      40.841  37.201  41.552  1.00  0.00     0.010 A 
ATOM     45  C   UNL A   1      40.686  37.983  40.388  1.00  0.00    -0.014 A 
BRANCH  45  46
ATOM     46  C   UNL A   1      41.483  39.191  40.145  1.00  0.00     0.031 A 
ATOM     47  C   UNL A   1      42.837  39.055  39.528  1.00  0.00     0.074 A 
ATOM     48  C   UNL A   1      40.944  40.384  40.442  1.00  0.00     0.049 A 
ATOM     49  N   UNL A   1      43.789  39.941  39.443  1.00  0.00    -0.248 NA
ATOM     50  C   UNL A   1      43.163  37.749  38.927  1.00  0.00     0.031 C 
ATOM     51  C   UNL A   1      39.563  40.605  40.886  1.00  0.00     0.029 A 
ATOM     52  N   UNL A   1      41.499  41.631  40.438  1.00  0.00    -0.354 N 
ATOM     53  C   UNL A   1      44.854  39.286  38.835  1.00  0.00     0.074 A 
ATOM     54  C   UNL A   1      44.425  37.932  38.560  1.00  0.00     0.031 C 
ATOM     55  C   UNL A   1      39.396  41.906  41.161  1.00  0.00     0.029 A 
ATOM     56  C   UNL A   1      40.673  42.583  40.981  1.00  0.00     0.049 A 
ATOM     57  H   UNL A   1      42.396  41.827  40.084  1.00  0.00     0.167 HD
ATOM     58  C   UNL A   1      46.080  39.786  38.561  1.00  0.00     0.031 A 
ATOM     59  C   UNL A   1      40.948  43.844  41.357  1.00  0.00     0.031 A 
ATOM     60  C   UNL A   1      46.453  41.143  38.873  1.00  0.00     0.049 A 
ATOM     61  C   UNL A   1      42.348  44.342  41.152  1.00  0.00     0.074 A 
ATOM     62  C   UNL A   1      47.665  41.775  38.672  1.00  0.00     0.029 A 
ATOM     63  N   UNL A   1      45.604  42.076  39.457  1.00  0.00    -0.354 N 
ATOM     64  N   UNL A   1      43.378  43.710  40.636  1.00  0.00    -0.248 NA
ATOM     65  C   UNL A   1      42.624  45.717  41.573  1.00  0.00     0.031 C 
ATOM     66  C   UNL A   1      47.566  43.070  39.192  1.00  0.00     0.029 A 
ATOM     67  C   UNL A   1      46.272  43.272  39.648  1.00  0.00     0.049 A 
ATOM     68  H   UNL A   1      44.664  41.910  39.699  1.00  0.00     0.167 HD
ATOM     69  C   UNL A   1      44.421  44.625  40.639  1.00  0.00     0.074 A 
ATOM     70  C   UNL A   1      43.889  45.855  41.198  1.00  0.00     0.031 C 
ATOM     71  C   UNL A   1      45.700  44.470  40.214  1.00  0.00     0.031 A 
BRANCH  58  72
ATOM     72  C   UNL A   1      47.107  38.853  37.974  1.00  0.00    -0.014 A 
ATOM     73  C   UNL A   1      47.340  38.784  36.589  1.00  0.00     0.010 A 
ATOM     74  C   UNL A   1      47.873  38.040  38.833  1.00  0.00     0.010 A 
ATOM     75  C   UNL A   1      48.291  37.896  36.073  1.00  0.00     0.020 A 
ATOM     76  C   UNL A   1      48.845  37.174  38.324  1.00  0.00     0.020 A 
ATOM     77  C   UNL A   1      49.037  37.096  36.944  1.00  0.00     0.054 A 
BRANCH  77  78
ATOM     78  S   UNL A   1      50.276  35.970  36.247  1.00  0.00     0.124 S 
ATOM     79  O   UNL A   1      50.023  36.092  34.813  1.00  0.00    -0.237 OA
ATOM     80  O   UNL A   1      51.533  36.550  36.714  1.00  0.00    -0.237 OA
ATOM     81  O   UNL A   1      49.937  34.673  36.829  1.00  0.00    -0.744 OA
ENDBRANCH  77  78
ENDBRANCH  58  72
BRANCH  59  82
ATOM     82  C   UNL A   1      39.888  44.674  41.985  1.00  0.00    -0.014 A 
ATOM     83  C   UNL A   1      39.744  44.694  43.381  1.00  0.00     0.010 A 
ATOM     84  C   UNL A   1      39.055  45.491  41.197  1.00  0.00     0.010 A 
ATOM     85  C   UNL A   1      38.776  45.506  43.978  1.00  0.00     0.020 A 
ATOM     86  C   UNL A   1      38.108  46.327  41.793  1.00  0.00     0.020 A 
ATOM     87  C   UNL A   1      37.967  46.320  43.182  1.00  0.00     0.054 A 
BRANCH  87  88
ATOM     88  S   UNL A   1      36.756  47.401  43.991  1.00  0.00     0.124 S 
ATOM     89  O   UNL A   1      37.590  48.519  44.421  1.00  0.00    -0.237 OA
ATOM     90  O   UNL A   1      35.819  47.687  42.907  1.00  0.00    -0.237 OA
ATOM     91  O   UNL A   1      36.220  46.569  45.066  1.00  0.00    -0.744 OA
ENDBRANCH  87  88
ENDBRANCH  59  82
BRANCH  71  92
ATOM     92  C   UNL A   1      46.588  45.681  40.301  1.00  0.00    -0.014 A 
ATOM     93  C   UNL A   1      47.341  45.954  41.455  1.00  0.00     0.010 A 
ATOM     94  C   UNL A   1      46.695  46.534  39.187  1.00  0.00     0.010 A 
ATOM     95  C   UNL A   1      48.159  47.083  41.508  1.00  0.00     0.020 A 
ATOM     96  C   UNL A   1      47.539  47.643  39.223  1.00  0.00     0.020 A 
ATOM     97  C   UNL A   1      48.254  47.920  40.391  1.00  0.00     0.054 A 
BRANCH  97  98
ATOM     98  S   UNL A   1      49.357  49.355  40.470  1.00  0.00     0.124 S 
ATOM     99  O   UNL A   1      50.459  48.844  41.281  1.00  0.00    -0.237 OA
ATOM    100  O   UNL A   1      49.668  49.597  39.064  1.00  0.00    -0.237 OA
ATOM    101  O   UNL A   1      48.540  50.385  41.108  1.00  0.00    -0.744 OA
ENDBRANCH  97  98
ENDBRANCH  71  92
ENDBRANCH  45  46
ENDBRANCH  38  40
ENDBRANCH  37  38
ENDBRANCH  36  37
ENDBRANCH  35  36
ENDBRANCH  34  35
ENDBRANCH  33  34
ENDBRANCH  32  33
ENDBRANCH  31  32
ENDBRANCH   1  31
TORSDOF 28
ENDMDL
