MODEL 1
REMARK VINA RESULT:      -9.2      0.000      0.000
REMARK SMILES O=C(Nc1ccc2c(c1)OCO2)N[C@H]1C=C[C@@H](C(=O)OCCOCCOCCOCCOC(=O)c2ccc(-c3c4nc(c(-c5ccc(S(=O)(=O)[O-])cc5)c5ccc([nH]5)c(-c5ccc(S(=O)(=O)[O-])cc5)c5nc(c(-c6ccc(S(=O)(=O)[O-])cc6)c6ccc3[nH]6)C=C5)C=C4)cc2)C1
REMARK SMILES IDX 27 1 26 2 25 3 24 4 23 5 22 6 21 7 20 8 18 9 19 10 17 11
REMARK SMILES IDX 14 12 15 13 95 14 16 15 13 16 1 17 2 18 3 19 4 22 5 23 9 24
REMARK SMILES IDX 6 25 8 26 7 27 10 28 12 29 11 30 28 31 29 32 30 33 31 34
REMARK SMILES IDX 32 35 33 36 34 37 35 38 36 39 94 40 37 41 93 42 38 43 39 44
REMARK SMILES IDX 40 45 87 46 41 47 92 48 86 49 88 50 42 51 91 52 85 53 84 54
REMARK SMILES IDX 43 56 73 57 54 58 72 59 55 60 58 61 71 62 89 63 56 64 57 65
REMARK SMILES IDX 70 67 90 68 59 69 44 70 45 71 53 72 46 73 52 74 47 75 48 76
REMARK SMILES IDX 49 77 50 78 51 79 74 80 75 81 83 82 76 83 82 84 77 85 78 86
REMARK SMILES IDX 79 87 80 88 81 89 60 90 61 91 69 92 62 93 68 94 63 95 64 96
REMARK SMILES IDX 65 97 66 98 67 99
REMARK H PARENT 3 20 13 21 88 55 58 66
REMARK Flexibility Score: inf
ROOT
ATOM      1  C   UNL A   1      35.732  22.189  24.241  1.00  0.00     0.188 C 
ENDROOT
BRANCH   1   2
ATOM      2  O   UNL A   1      34.367  22.584  24.293  1.00  0.00    -0.377 OA
BRANCH   2   3
ATOM      3  C   UNL A   1      33.652  22.628  23.078  1.00  0.00     0.188 C 
BRANCH   3   4
ATOM      4  C   UNL A   1      32.704  21.445  22.825  1.00  0.00     0.188 C 
BRANCH   4   5
ATOM      5  O   UNL A   1      31.873  20.942  23.857  1.00  0.00    -0.376 OA
BRANCH   5   6
ATOM      6  C   UNL A   1      32.050  21.341  25.211  1.00  0.00     0.202 C 
BRANCH   6   7
ATOM      7  C   UNL A   1      31.229  22.462  25.872  1.00  0.00     0.261 C 
BRANCH   7   8
ATOM      8  O   UNL A   1      31.988  23.466  26.557  1.00  0.00    -0.463 OA
BRANCH   8   9
ATOM      9  C   UNL A   1      31.631  24.753  26.341  1.00  0.00     0.312 C 
ATOM     10  O   UNL A   1      31.494  25.591  27.228  1.00  0.00    -0.252 OA
BRANCH   9  11
ATOM     11  C   UNL A   1      31.552  25.115  24.856  1.00  0.00     0.124 C 
ATOM     12  C   UNL A   1      31.296  27.155  23.481  1.00  0.00     0.107 C 
ATOM     13  C   UNL A   1      32.719  26.815  23.721  1.00  0.00    -0.006 C 
ATOM     14  C   UNL A   1      30.545  26.178  24.388  1.00  0.00     0.048 C 
ATOM     15  C   UNL A   1      32.864  25.694  24.433  1.00  0.00    -0.014 C 
BRANCH  12  16
ATOM     16  N   UNL A   1      30.877  28.516  23.742  1.00  0.00    -0.332 N 
ATOM     17  O   UNL A   1      31.605  28.868  25.886  1.00  0.00    -0.248 OA
ATOM     18  C   UNL A   1      31.046  29.258  24.865  1.00  0.00     0.319 C 
ATOM     19  N   UNL A   1      30.689  30.573  24.791  1.00  0.00    -0.308 N 
ATOM     20  H   UNL A   1      31.027  31.116  25.540  1.00  0.00     0.171 HD
ATOM     21  H   UNL A   1      30.408  28.965  23.003  1.00  0.00     0.165 HD
BRANCH  19  22
ATOM     22  C   UNL A   1      29.937  31.306  23.860  1.00  0.00     0.046 A 
ATOM     23  C   UNL A   1      29.540  32.645  24.052  1.00  0.00     0.030 A 
ATOM     24  C   UNL A   1      29.609  30.648  22.667  1.00  0.00     0.076 A 
ATOM     25  C   UNL A   1      28.774  33.310  23.084  1.00  0.00     0.053 A 
ATOM     26  C   UNL A   1      28.830  31.316  21.748  1.00  0.00     0.167 A 
ATOM     27  C   UNL A   1      28.420  32.610  21.951  1.00  0.00     0.165 A 
ATOM     28  O   UNL A   1      28.371  30.799  20.577  1.00  0.00    -0.454 OA
ATOM     29  O   UNL A   1      27.655  33.076  20.928  1.00  0.00    -0.454 OA
ATOM     30  C   UNL A   1      27.613  31.916  20.068  1.00  0.00     0.468 C 
ENDBRANCH  19  22
ENDBRANCH  12  16
ENDBRANCH   9  11
ENDBRANCH   8   9
ENDBRANCH   7   8
ENDBRANCH   6   7
ENDBRANCH   5   6
ENDBRANCH   4   5
ENDBRANCH   3   4
ENDBRANCH   2   3
ENDBRANCH   1   2
BRANCH   1  31
ATOM     31  C   UNL A   1      36.170  20.903  24.974  1.00  0.00     0.188 C 
BRANCH  31  32
ATOM     32  O   UNL A   1      37.519  20.516  24.739  1.00  0.00    -0.376 OA
BRANCH  32  33
ATOM     33  C   UNL A   1      38.541  21.076  25.551  1.00  0.00     0.202 C 
BRANCH  33  34
ATOM     34  C   UNL A   1      39.766  20.197  25.863  1.00  0.00     0.261 C 
BRANCH  34  35
ATOM     35  O   UNL A   1      41.014  20.885  26.035  1.00  0.00    -0.460 OA
BRANCH  35  36
ATOM     36  C   UNL A   1      41.574  20.844  27.261  1.00  0.00     0.338 C 
ATOM     37  O   UNL A   1      41.995  19.851  27.838  1.00  0.00    -0.246 OA
BRANCH  36  38
ATOM     38  C   UNL A   1      41.796  22.228  27.724  1.00  0.00     0.060 A 
ATOM     39  C   UNL A   1      41.188  23.270  27.015  1.00  0.00     0.016 A 
ATOM     40  C   UNL A   1      42.613  22.502  28.825  1.00  0.00     0.016 A 
ATOM     41  C   UNL A   1      41.449  24.593  27.361  1.00  0.00     0.010 A 
ATOM     42  C   UNL A   1      42.887  23.833  29.160  1.00  0.00     0.010 A 
ATOM     43  C   UNL A   1      42.345  24.883  28.397  1.00  0.00    -0.014 A 
BRANCH  43  44
ATOM     44  C   UNL A   1      42.854  26.271  28.528  1.00  0.00     0.031 A 
ATOM     45  C   UNL A   1      44.272  26.561  28.110  1.00  0.00     0.074 A 
ATOM     46  C   UNL A   1      42.046  27.274  28.921  1.00  0.00     0.049 A 
ATOM     47  N   UNL A   1      44.907  27.704  28.064  1.00  0.00    -0.248 NA
ATOM     48  C   UNL A   1      45.082  25.408  27.682  1.00  0.00     0.031 C 
ATOM     49  C   UNL A   1      40.643  27.129  29.307  1.00  0.00     0.029 A 
ATOM     50  N   UNL A   1      42.294  28.617  29.047  1.00  0.00    -0.354 N 
ATOM     51  C   UNL A   1      46.186  27.409  27.606  1.00  0.00     0.074 A 
ATOM     52  C   UNL A   1      46.251  25.976  27.424  1.00  0.00     0.031 C 
ATOM     53  C   UNL A   1      40.151  28.341  29.618  1.00  0.00     0.029 A 
ATOM     54  C   UNL A   1      41.209  29.340  29.482  1.00  0.00     0.049 A 
ATOM     55  H   UNL A   1      43.167  29.025  28.843  1.00  0.00     0.167 HD
ATOM     56  C   UNL A   1      47.213  28.255  27.350  1.00  0.00     0.031 A 
ATOM     57  C   UNL A   1      41.085  30.656  29.748  1.00  0.00     0.031 A 
ATOM     58  C   UNL A   1      47.152  29.679  27.546  1.00  0.00     0.049 A 
ATOM     59  C   UNL A   1      42.265  31.567  29.520  1.00  0.00     0.074 A 
ATOM     60  C   UNL A   1      48.134  30.624  27.305  1.00  0.00     0.029 A 
ATOM     61  N   UNL A   1      46.053  30.365  28.041  1.00  0.00    -0.354 N 
ATOM     62  N   UNL A   1      43.459  31.276  29.059  1.00  0.00    -0.248 NA
ATOM     63  C   UNL A   1      42.071  32.990  29.833  1.00  0.00     0.031 C 
ATOM     64  C   UNL A   1      47.654  31.870  27.718  1.00  0.00     0.029 A 
ATOM     65  C   UNL A   1      46.344  31.715  28.143  1.00  0.00     0.049 A 
ATOM     66  H   UNL A   1      45.193  29.952  28.285  1.00  0.00     0.167 HD
ATOM     67  C   UNL A   1      44.148  32.484  28.999  1.00  0.00     0.074 A 
ATOM     68  C   UNL A   1      43.229  33.510  29.449  1.00  0.00     0.031 C 
ATOM     69  C   UNL A   1      45.425  32.726  28.605  1.00  0.00     0.031 A 
BRANCH  56  70
ATOM     70  C   UNL A   1      48.507  27.652  26.865  1.00  0.00    -0.014 A 
ATOM     71  C   UNL A   1      48.880  27.704  25.508  1.00  0.00     0.010 A 
ATOM     72  C   UNL A   1      49.383  27.057  27.790  1.00  0.00     0.010 A 
ATOM     73  C   UNL A   1      50.086  27.139  25.084  1.00  0.00     0.020 A 
ATOM     74  C   UNL A   1      50.605  26.519  27.375  1.00  0.00     0.020 A 
ATOM     75  C   UNL A   1      50.941  26.551  26.020  1.00  0.00     0.054 A 
BRANCH  75  76
ATOM     76  S   UNL A   1      52.512  25.849  25.445  1.00  0.00     0.124 S 
ATOM     77  O   UNL A   1      52.385  24.452  25.849  1.00  0.00    -0.237 OA
ATOM     78  O   UNL A   1      52.462  26.095  24.006  1.00  0.00    -0.237 OA
ATOM     79  O   UNL A   1      53.523  26.617  26.169  1.00  0.00    -0.744 OA
ENDBRANCH  75  76
ENDBRANCH  56  70
BRANCH  57  80
ATOM     80  C   UNL A   1      39.798  31.193  30.272  1.00  0.00    -0.014 A 
ATOM     81  C   UNL A   1      39.610  31.407  31.649  1.00  0.00     0.010 A 
ATOM     82  C   UNL A   1      38.744  31.485  29.386  1.00  0.00     0.010 A 
ATOM     83  C   UNL A   1      38.386  31.884  32.131  1.00  0.00     0.020 A 
ATOM     84  C   UNL A   1      37.532  31.992  29.861  1.00  0.00     0.020 A 
ATOM     85  C   UNL A   1      37.356  32.178  31.232  1.00  0.00     0.054 A 
BRANCH  85  86
ATOM     86  S   UNL A   1      35.796  32.842  31.876  1.00  0.00     0.124 S 
ATOM     87  O   UNL A   1      35.761  34.173  31.277  1.00  0.00    -0.237 OA
ATOM     88  O   UNL A   1      34.814  31.890  31.363  1.00  0.00    -0.237 OA
ATOM     89  O   UNL A   1      35.984  32.813  33.325  1.00  0.00    -0.744 OA
ENDBRANCH  85  86
ENDBRANCH  57  80
BRANCH  69  90
ATOM     90  C   UNL A   1      45.890  34.161  28.609  1.00  0.00    -0.014 A 
ATOM     91  C   UNL A   1      46.524  34.727  29.729  1.00  0.00     0.010 A 
ATOM     92  C   UNL A   1      45.707  34.951  27.458  1.00  0.00     0.010 A 
ATOM     93  C   UNL A   1      46.907  36.072  29.722  1.00  0.00     0.020 A 
ATOM     94  C   UNL A   1      46.122  36.285  27.433  1.00  0.00     0.020 A 
ATOM     95  C   UNL A   1      46.698  36.843  28.574  1.00  0.00     0.054 A 
BRANCH  95  96
ATOM     96  S   UNL A   1      47.205  38.585  28.589  1.00  0.00     0.124 S 
ATOM     97  O   UNL A   1      46.228  39.193  27.690  1.00  0.00    -0.237 OA
ATOM     98  O   UNL A   1      47.071  38.946  29.998  1.00  0.00    -0.237 OA
ATOM     99  O   UNL A   1      48.577  38.551  28.088  1.00  0.00    -0.744 OA
ENDBRANCH  95  96
ENDBRANCH  69  90
ENDBRANCH  43  44
ENDBRANCH  36  38
ENDBRANCH  35  36
ENDBRANCH  34  35
ENDBRANCH  33  34
ENDBRANCH  32  33
ENDBRANCH  31  32
ENDBRANCH   1  31
TORSDOF 25
ENDMDL
MODEL 2
REMARK VINA RESULT:      -8.7      6.523     11.779
REMARK SMILES O=C(Nc1ccc2c(c1)OCO2)N[C@H]1C=C[C@@H](C(=O)OCCOCCOCCOCCOC(=O)c2ccc(-c3c4nc(c(-c5ccc(S(=O)(=O)[O-])cc5)c5ccc([nH]5)c(-c5ccc(S(=O)(=O)[O-])cc5)c5nc(c(-c6ccc(S(=O)(=O)[O-])cc6)c6ccc3[nH]6)C=C5)C=C4)cc2)C1
REMARK SMILES IDX 27 1 26 2 25 3 24 4 23 5 22 6 21 7 20 8 18 9 19 10 17 11
REMARK SMILES IDX 14 12 15 13 95 14 16 15 13 16 1 17 2 18 3 19 4 22 5 23 9 24
REMARK SMILES IDX 6 25 8 26 7 27 10 28 12 29 11 30 28 31 29 32 30 33 31 34
REMARK SMILES IDX 32 35 33 36 34 37 35 38 36 39 94 40 37 41 93 42 38 43 39 44
REMARK SMILES IDX 40 45 87 46 41 47 92 48 86 49 88 50 42 51 91 52 85 53 84 54
REMARK SMILES IDX 43 56 73 57 54 58 72 59 55 60 58 61 71 62 89 63 56 64 57 65
REMARK SMILES IDX 70 67 90 68 59 69 44 70 45 71 53 72 46 73 52 74 47 75 48 76
REMARK SMILES IDX 49 77 50 78 51 79 74 80 75 81 83 82 76 83 82 84 77 85 78 86
REMARK SMILES IDX 79 87 80 88 81 89 60 90 61 91 69 92 62 93 68 94 63 95 64 96
REMARK SMILES IDX 65 97 66 98 67 99
REMARK H PARENT 3 20 13 21 88 55 58 66
REMARK Flexibility Score: inf
ROOT
ATOM      1  C   UNL A   1      47.076  25.931  24.953  1.00  0.00     0.188 C 
ENDROOT
BRANCH   1   2
ATOM      2  O   UNL A   1      46.181  27.030  24.835  1.00  0.00    -0.377 OA
BRANCH   2   3
ATOM      3  C   UNL A   1      46.072  27.906  25.936  1.00  0.00     0.188 C 
BRANCH   3   4
ATOM      4  C   UNL A   1      45.351  27.335  27.167  1.00  0.00     0.188 C 
BRANCH   4   5
ATOM      5  O   UNL A   1      44.621  28.178  28.041  1.00  0.00    -0.376 OA
BRANCH   5   6
ATOM      6  C   UNL A   1      43.263  28.514  27.782  1.00  0.00     0.202 C 
BRANCH   6   7
ATOM      7  C   UNL A   1      42.187  28.578  28.882  1.00  0.00     0.261 C 
BRANCH   7   8
ATOM      8  O   UNL A   1      41.542  27.336  29.192  1.00  0.00    -0.463 OA
BRANCH   8   9
ATOM      9  C   UNL A   1      40.189  27.336  29.191  1.00  0.00     0.312 C 
ATOM     10  O   UNL A   1      39.498  27.926  30.018  1.00  0.00    -0.252 OA
BRANCH   9  11
ATOM     11  C   UNL A   1      39.586  26.646  27.965  1.00  0.00     0.124 C 
ATOM     12  C   UNL A   1      40.325  25.082  26.198  1.00  0.00     0.107 C 
ATOM     13  C   UNL A   1      39.742  24.376  27.364  1.00  0.00    -0.006 C 
ATOM     14  C   UNL A   1      40.415  26.532  26.676  1.00  0.00     0.048 C 
ATOM     15  C   UNL A   1      39.309  25.217  28.307  1.00  0.00    -0.014 C 
BRANCH  12  16
ATOM     16  N   UNL A   1      41.609  24.626  25.710  1.00  0.00    -0.332 N 
ATOM     17  O   UNL A   1      42.562  26.551  24.915  1.00  0.00    -0.248 OA
ATOM     18  C   UNL A   1      42.603  25.344  25.129  1.00  0.00     0.319 C 
ATOM     19  N   UNL A   1      43.779  24.690  24.901  1.00  0.00    -0.308 N 
ATOM     20  H   UNL A   1      44.529  25.291  24.688  1.00  0.00     0.171 HD
ATOM     21  H   UNL A   1      41.785  23.663  25.815  1.00  0.00     0.165 HD
BRANCH  19  22
ATOM     22  C   UNL A   1      44.131  23.331  24.908  1.00  0.00     0.046 A 
ATOM     23  C   UNL A   1      45.349  22.834  24.400  1.00  0.00     0.030 A 
ATOM     24  C   UNL A   1      43.213  22.452  25.496  1.00  0.00     0.076 A 
ATOM     25  C   UNL A   1      45.628  21.460  24.426  1.00  0.00     0.053 A 
ATOM     26  C   UNL A   1      43.499  21.105  25.480  1.00  0.00     0.167 A 
ATOM     27  C   UNL A   1      44.672  20.620  24.957  1.00  0.00     0.165 A 
ATOM     28  O   UNL A   1      42.687  20.118  25.945  1.00  0.00    -0.454 OA
ATOM     29  O   UNL A   1      44.751  19.265  25.034  1.00  0.00    -0.454 OA
ATOM     30  C   UNL A   1      43.481  18.952  25.646  1.00  0.00     0.468 C 
ENDBRANCH  19  22
ENDBRANCH  12  16
ENDBRANCH   9  11
ENDBRANCH   8   9
ENDBRANCH   7   8
ENDBRANCH   6   7
ENDBRANCH   5   6
ENDBRANCH   4   5
ENDBRANCH   3   4
ENDBRANCH   2   3
ENDBRANCH   1   2
BRANCH   1  31
ATOM     31  C   UNL A   1      48.315  25.869  24.035  1.00  0.00     0.188 C 
BRANCH  31  32
ATOM     32  O   UNL A   1      49.027  27.094  23.914  1.00  0.00    -0.376 OA
BRANCH  32  33
ATOM     33  C   UNL A   1      49.858  27.509  24.989  1.00  0.00     0.202 C 
BRANCH  33  34
ATOM     34  C   UNL A   1      51.248  26.857  25.107  1.00  0.00     0.261 C 
BRANCH  34  35
ATOM     35  O   UNL A   1      51.283  25.533  25.661  1.00  0.00    -0.460 OA
BRANCH  35  36
ATOM     36  C   UNL A   1      51.985  25.362  26.800  1.00  0.00     0.338 C 
ATOM     37  O   UNL A   1      53.183  25.138  26.892  1.00  0.00    -0.246 OA
BRANCH  36  38
ATOM     38  C   UNL A   1      51.115  25.697  27.944  1.00  0.00     0.060 A 
ATOM     39  C   UNL A   1      49.826  25.154  27.978  1.00  0.00     0.016 A 
ATOM     40  C   UNL A   1      51.549  26.557  28.958  1.00  0.00     0.016 A 
ATOM     41  C   UNL A   1      48.942  25.521  28.989  1.00  0.00     0.010 A 
ATOM     42  C   UNL A   1      50.653  26.938  29.964  1.00  0.00     0.010 A 
ATOM     43  C   UNL A   1      49.330  26.459  29.954  1.00  0.00    -0.014 A 
BRANCH  43  44
ATOM     44  C   UNL A   1      48.284  27.074  30.808  1.00  0.00     0.031 A 
ATOM     45  C   UNL A   1      47.585  28.314  30.314  1.00  0.00     0.074 A 
ATOM     46  C   UNL A   1      47.894  26.492  31.958  1.00  0.00     0.049 A 
ATOM     47  N   UNL A   1      46.594  28.978  30.849  1.00  0.00    -0.248 NA
ATOM     48  C   UNL A   1      48.066  28.877  29.041  1.00  0.00     0.031 C 
ATOM     49  C   UNL A   1      48.459  25.266  32.520  1.00  0.00     0.029 A 
ATOM     50  N   UNL A   1      46.917  26.854  32.851  1.00  0.00    -0.354 N 
ATOM     51  C   UNL A   1      46.335  30.036  29.984  1.00  0.00     0.074 A 
ATOM     52  C   UNL A   1      47.297  29.947  28.907  1.00  0.00     0.031 C 
ATOM     53  C   UNL A   1      47.812  24.973  33.661  1.00  0.00     0.029 A 
ATOM     54  C   UNL A   1      46.808  26.002  33.925  1.00  0.00     0.049 A 
ATOM     55  H   UNL A   1      46.347  27.648  32.733  1.00  0.00     0.167 HD
ATOM     56  C   UNL A   1      45.376  30.989  30.070  1.00  0.00     0.031 A 
ATOM     57  C   UNL A   1      45.998  26.052  35.000  1.00  0.00     0.031 A 
ATOM     58  C   UNL A   1      44.430  31.084  31.150  1.00  0.00     0.049 A 
ATOM     59  C   UNL A   1      44.985  27.164  35.108  1.00  0.00     0.074 A 
ATOM     60  C   UNL A   1      43.413  32.007  31.323  1.00  0.00     0.029 A 
ATOM     61  N   UNL A   1      44.389  30.235  32.246  1.00  0.00    -0.354 N 
ATOM     62  N   UNL A   1      44.734  28.140  34.267  1.00  0.00    -0.248 NA
ATOM     63  C   UNL A   1      44.133  27.169  36.306  1.00  0.00     0.031 C 
ATOM     64  C   UNL A   1      42.801  31.757  32.556  1.00  0.00     0.029 A 
ATOM     65  C   UNL A   1      43.385  30.632  33.114  1.00  0.00     0.049 A 
ATOM     66  H   UNL A   1      44.986  29.465  32.386  1.00  0.00     0.167 HD
ATOM     67  C   UNL A   1      43.676  28.856  34.820  1.00  0.00     0.074 A 
ATOM     68  C   UNL A   1      43.321  28.186  36.055  1.00  0.00     0.031 C 
ATOM     69  C   UNL A   1      43.050  29.965  34.349  1.00  0.00     0.031 A 
BRANCH  56  70
ATOM     70  C   UNL A   1      45.331  32.032  28.982  1.00  0.00    -0.014 A 
ATOM     71  C   UNL A   1      44.456  31.914  27.886  1.00  0.00     0.010 A 
ATOM     72  C   UNL A   1      46.153  33.170  29.079  1.00  0.00     0.010 A 
ATOM     73  C   UNL A   1      44.433  32.896  26.891  1.00  0.00     0.020 A 
ATOM     74  C   UNL A   1      46.109  34.169  28.103  1.00  0.00     0.020 A 
ATOM     75  C   UNL A   1      45.258  34.017  27.006  1.00  0.00     0.054 A 
BRANCH  75  76
ATOM     76  S   UNL A   1      45.187  35.288  25.713  1.00  0.00     0.124 S 
ATOM     77  O   UNL A   1      45.719  34.572  24.557  1.00  0.00    -0.237 OA
ATOM     78  O   UNL A   1      43.762  35.604  25.656  1.00  0.00    -0.237 OA
ATOM     79  O   UNL A   1      46.038  36.357  26.228  1.00  0.00    -0.744 OA
ENDBRANCH  75  76
ENDBRANCH  56  70
BRANCH  57  80
ATOM     80  C   UNL A   1      46.116  25.024  36.072  1.00  0.00    -0.014 A 
ATOM     81  C   UNL A   1      47.081  25.144  37.088  1.00  0.00     0.010 A 
ATOM     82  C   UNL A   1      45.262  23.905  36.071  1.00  0.00     0.010 A 
ATOM     83  C   UNL A   1      47.201  24.156  38.071  1.00  0.00     0.020 A 
ATOM     84  C   UNL A   1      45.358  22.933  37.070  1.00  0.00     0.020 A 
ATOM     85  C   UNL A   1      46.335  23.058  38.058  1.00  0.00     0.054 A 
BRANCH  85  86
ATOM     86  S   UNL A   1      46.478  21.816  39.372  1.00  0.00     0.124 S 
ATOM     87  O   UNL A   1      47.725  22.205  40.024  1.00  0.00    -0.237 OA
ATOM     88  O   UNL A   1      45.260  22.039  40.147  1.00  0.00    -0.237 OA
ATOM     89  O   UNL A   1      46.522  20.551  38.643  1.00  0.00    -0.744 OA
ENDBRANCH  85  86
ENDBRANCH  57  80
BRANCH  69  90
ATOM     90  C   UNL A   1      41.894  30.503  35.155  1.00  0.00    -0.014 A 
ATOM     91  C   UNL A   1      40.579  30.049  34.950  1.00  0.00     0.010 A 
ATOM     92  C   UNL A   1      42.134  31.469  36.150  1.00  0.00     0.010 A 
ATOM     93  C   UNL A   1      39.519  30.595  35.681  1.00  0.00     0.020 A 
ATOM     94  C   UNL A   1      41.083  31.990  36.909  1.00  0.00     0.020 A 
ATOM     95  C   UNL A   1      39.779  31.567  36.652  1.00  0.00     0.054 A 
BRANCH  95  96
ATOM     96  S   UNL A   1      38.388  32.259  37.588  1.00  0.00     0.124 S 
ATOM     97  O   UNL A   1      39.032  32.664  38.834  1.00  0.00    -0.237 OA
ATOM     98  O   UNL A   1      37.937  33.353  36.730  1.00  0.00    -0.237 OA
ATOM     99  O   UNL A   1      37.456  31.140  37.703  1.00  0.00    -0.744 OA
ENDBRANCH  95  96
ENDBRANCH  69  90
ENDBRANCH  43  44
ENDBRANCH  36  38
ENDBRANCH  35  36
ENDBRANCH  34  35
ENDBRANCH  33  34
ENDBRANCH  32  33
ENDBRANCH  31  32
ENDBRANCH   1  31
TORSDOF 25
ENDMDL
MODEL 3
REMARK VINA RESULT:      -8.6      1.451      2.157
REMARK SMILES O=C(Nc1ccc2c(c1)OCO2)N[C@H]1C=C[C@@H](C(=O)OCCOCCOCCOCCOC(=O)c2ccc(-c3c4nc(c(-c5ccc(S(=O)(=O)[O-])cc5)c5ccc([nH]5)c(-c5ccc(S(=O)(=O)[O-])cc5)c5nc(c(-c6ccc(S(=O)(=O)[O-])cc6)c6ccc3[nH]6)C=C5)C=C4)cc2)C1
REMARK SMILES IDX 27 1 26 2 25 3 24 4 23 5 22 6 21 7 20 8 18 9 19 10 17 11
REMARK SMILES IDX 14 12 15 13 95 14 16 15 13 16 1 17 2 18 3 19 4 22 5 23 9 24
REMARK SMILES IDX 6 25 8 26 7 27 10 28 12 29 11 30 28 31 29 32 30 33 31 34
REMARK SMILES IDX 32 35 33 36 34 37 35 38 36 39 94 40 37 41 93 42 38 43 39 44
REMARK SMILES IDX 40 45 87 46 41 47 92 48 86 49 88 50 42 51 91 52 85 53 84 54
REMARK SMILES IDX 43 56 73 57 54 58 72 59 55 60 58 61 71 62 89 63 56 64 57 65
REMARK SMILES IDX 70 67 90 68 59 69 44 70 45 71 53 72 46 73 52 74 47 75 48 76
REMARK SMILES IDX 49 77 50 78 51 79 74 80 75 81 83 82 76 83 82 84 77 85 78 86
REMARK SMILES IDX 79 87 80 88 81 89 60 90 61 91 69 92 62 93 68 94 63 95 64 96
REMARK SMILES IDX 65 97 66 98 67 99
REMARK H PARENT 3 20 13 21 88 55 58 66
REMARK Flexibility Score: inf
ROOT
ATOM      1  C   UNL A   1      35.879  21.858  24.302  1.00  0.00     0.188 C 
ENDROOT
BRANCH   1   2
ATOM      2  O   UNL A   1      34.511  22.213  24.459  1.00  0.00    -0.377 OA
BRANCH   2   3
ATOM      3  C   UNL A   1      33.646  21.983  23.368  1.00  0.00     0.188 C 
BRANCH   3   4
ATOM      4  C   UNL A   1      32.873  20.655  23.405  1.00  0.00     0.188 C 
BRANCH   4   5
ATOM      5  O   UNL A   1      32.118  20.282  24.544  1.00  0.00    -0.376 OA
BRANCH   5   6
ATOM      6  C   UNL A   1      32.289  20.940  25.794  1.00  0.00     0.202 C 
BRANCH   6   7
ATOM      7  C   UNL A   1      31.271  21.945  26.363  1.00  0.00     0.261 C 
BRANCH   7   8
ATOM      8  O   UNL A   1      31.803  22.924  27.265  1.00  0.00    -0.463 OA
BRANCH   8   9
ATOM      9  C   UNL A   1      31.822  24.205  26.831  1.00  0.00     0.312 C 
ATOM     10  O   UNL A   1      31.176  25.117  27.340  1.00  0.00    -0.252 OA
BRANCH   9  11
ATOM     11  C   UNL A   1      32.849  24.451  25.722  1.00  0.00     0.124 C 
ATOM     12  C   UNL A   1      33.309  26.168  24.002  1.00  0.00     0.107 C 
ATOM     13  C   UNL A   1      34.036  26.431  25.268  1.00  0.00    -0.006 C 
ATOM     14  C   UNL A   1      32.383  25.006  24.367  1.00  0.00     0.048 C 
ATOM     15  C   UNL A   1      33.819  25.489  26.188  1.00  0.00    -0.014 C 
BRANCH  12  16
ATOM     16  N   UNL A   1      32.556  27.258  23.421  1.00  0.00    -0.332 N 
ATOM     17  O   UNL A   1      34.100  28.277  22.070  1.00  0.00    -0.248 OA
ATOM     18  C   UNL A   1      32.967  28.200  22.536  1.00  0.00     0.319 C 
ATOM     19  N   UNL A   1      32.006  29.026  22.028  1.00  0.00    -0.308 N 
ATOM     20  H   UNL A   1      32.302  29.537  21.240  1.00  0.00     0.171 HD
ATOM     21  H   UNL A   1      31.616  27.324  23.706  1.00  0.00     0.165 HD
BRANCH  19  22
ATOM     22  C   UNL A   1      30.681  29.293  22.407  1.00  0.00     0.046 A 
ATOM     23  C   UNL A   1      29.643  28.340  22.352  1.00  0.00     0.030 A 
ATOM     24  C   UNL A   1      30.420  30.579  22.897  1.00  0.00     0.076 A 
ATOM     25  C   UNL A   1      28.338  28.682  22.732  1.00  0.00     0.053 A 
ATOM     26  C   UNL A   1      29.122  30.895  23.234  1.00  0.00     0.167 A 
ATOM     27  C   UNL A   1      28.107  29.975  23.151  1.00  0.00     0.165 A 
ATOM     28  O   UNL A   1      28.691  32.113  23.660  1.00  0.00    -0.454 OA
ATOM     29  O   UNL A   1      26.907  30.495  23.522  1.00  0.00    -0.454 OA
ATOM     30  C   UNL A   1      27.281  31.856  23.826  1.00  0.00     0.468 C 
ENDBRANCH  19  22
ENDBRANCH  12  16
ENDBRANCH   9  11
ENDBRANCH   8   9
ENDBRANCH   7   8
ENDBRANCH   6   7
ENDBRANCH   5   6
ENDBRANCH   4   5
ENDBRANCH   3   4
ENDBRANCH   2   3
ENDBRANCH   1   2
BRANCH   1  31
ATOM     31  C   UNL A   1      36.406  20.577  24.982  1.00  0.00     0.188 C 
BRANCH  31  32
ATOM     32  O   UNL A   1      37.761  20.260  24.685  1.00  0.00    -0.376 OA
BRANCH  32  33
ATOM     33  C   UNL A   1      38.784  20.806  25.506  1.00  0.00     0.202 C 
BRANCH  33  34
ATOM     34  C   UNL A   1      39.883  19.849  26.005  1.00  0.00     0.261 C 
BRANCH  34  35
ATOM     35  O   UNL A   1      41.223  20.366  26.004  1.00  0.00    -0.460 OA
BRANCH  35  36
ATOM     36  C   UNL A   1      41.871  20.394  27.185  1.00  0.00     0.338 C 
ATOM     37  O   UNL A   1      41.975  19.473  27.983  1.00  0.00    -0.246 OA
BRANCH  36  38
ATOM     38  C   UNL A   1      42.624  21.660  27.279  1.00  0.00     0.060 A 
ATOM     39  C   UNL A   1      43.161  22.022  28.520  1.00  0.00     0.016 A 
ATOM     40  C   UNL A   1      42.778  22.496  26.169  1.00  0.00     0.016 A 
ATOM     41  C   UNL A   1      43.794  23.252  28.672  1.00  0.00     0.010 A 
ATOM     42  C   UNL A   1      43.401  23.740  26.329  1.00  0.00     0.010 A 
ATOM     43  C   UNL A   1      43.866  24.142  27.593  1.00  0.00    -0.014 A 
BRANCH  43  44
ATOM     44  C   UNL A   1      44.243  25.553  27.861  1.00  0.00     0.031 A 
ATOM     45  C   UNL A   1      45.649  25.996  27.549  1.00  0.00     0.074 A 
ATOM     46  C   UNL A   1      43.331  26.449  28.283  1.00  0.00     0.049 A 
ATOM     47  N   UNL A   1      46.182  27.187  27.628  1.00  0.00    -0.248 NA
ATOM     48  C   UNL A   1      46.578  24.954  27.080  1.00  0.00     0.031 C 
ATOM     49  C   UNL A   1      41.928  26.155  28.575  1.00  0.00     0.029 A 
ATOM     50  N   UNL A   1      43.452  27.793  28.527  1.00  0.00    -0.354 N 
ATOM     51  C   UNL A   1      47.504  27.040  27.223  1.00  0.00     0.074 A 
ATOM     52  C   UNL A   1      47.704  25.637  26.934  1.00  0.00     0.031 C 
ATOM     53  C   UNL A   1      41.316  27.291  28.950  1.00  0.00     0.029 A 
ATOM     54  C   UNL A   1      42.286  28.384  28.953  1.00  0.00     0.049 A 
ATOM     55  H   UNL A   1      44.294  28.289  28.406  1.00  0.00     0.167 HD
ATOM     56  C   UNL A   1      48.463  27.987  27.093  1.00  0.00     0.031 A 
ATOM     57  C   UNL A   1      42.033  29.658  29.313  1.00  0.00     0.031 A 
ATOM     58  C   UNL A   1      48.266  29.381  27.395  1.00  0.00     0.049 A 
ATOM     59  C   UNL A   1      43.137  30.681  29.225  1.00  0.00     0.074 A 
ATOM     60  C   UNL A   1      49.172  30.421  27.285  1.00  0.00     0.029 A 
ATOM     61  N   UNL A   1      47.087  29.929  27.878  1.00  0.00    -0.354 N 
ATOM     62  N   UNL A   1      44.374  30.531  28.812  1.00  0.00    -0.248 NA
ATOM     63  C   UNL A   1      42.803  32.052  29.636  1.00  0.00     0.031 C 
ATOM     64  C   UNL A   1      48.562  31.585  27.765  1.00  0.00     0.029 A 
ATOM     65  C   UNL A   1      47.252  31.285  28.101  1.00  0.00     0.049 A 
ATOM     66  H   UNL A   1      46.255  29.426  28.039  1.00  0.00     0.167 HD
ATOM     67  C   UNL A   1      44.956  31.794  28.886  1.00  0.00     0.074 A 
ATOM     68  C   UNL A   1      43.927  32.698  29.361  1.00  0.00     0.031 C 
ATOM     69  C   UNL A   1      46.224  32.174  28.586  1.00  0.00     0.031 A 
BRANCH  56  70
ATOM     70  C   UNL A   1      49.828  27.538  26.638  1.00  0.00    -0.014 A 
ATOM     71  C   UNL A   1      50.818  27.145  27.558  1.00  0.00     0.010 A 
ATOM     72  C   UNL A   1      50.113  27.473  25.262  1.00  0.00     0.010 A 
ATOM     73  C   UNL A   1      52.077  26.732  27.111  1.00  0.00     0.020 A 
ATOM     74  C   UNL A   1      51.359  27.030  24.809  1.00  0.00     0.020 A 
ATOM     75  C   UNL A   1      52.339  26.676  25.739  1.00  0.00     0.054 A 
BRANCH  75  76
ATOM     76  S   UNL A   1      53.971  26.111  25.187  1.00  0.00     0.124 S 
ATOM     77  O   UNL A   1      54.726  27.360  25.147  1.00  0.00    -0.237 OA
ATOM     78  O   UNL A   1      54.357  25.176  26.241  1.00  0.00    -0.237 OA
ATOM     79  O   UNL A   1      53.707  25.502  23.885  1.00  0.00    -0.744 OA
ENDBRANCH  75  76
ENDBRANCH  56  70
BRANCH  57  80
ATOM     80  C   UNL A   1      40.678  30.040  29.802  1.00  0.00    -0.014 A 
ATOM     81  C   UNL A   1      39.751  30.668  28.951  1.00  0.00     0.010 A 
ATOM     82  C   UNL A   1      40.313  29.782  31.137  1.00  0.00     0.010 A 
ATOM     83  C   UNL A   1      38.494  31.047  29.431  1.00  0.00     0.020 A 
ATOM     84  C   UNL A   1      39.046  30.131  31.611  1.00  0.00     0.020 A 
ATOM     85  C   UNL A   1      38.147  30.772  30.758  1.00  0.00     0.054 A 
BRANCH  85  86
ATOM     86  S   UNL A   1      36.492  31.230  31.343  1.00  0.00     0.124 S 
ATOM     87  O   UNL A   1      35.709  31.178  30.112  1.00  0.00    -0.237 OA
ATOM     88  O   UNL A   1      36.206  30.184  32.321  1.00  0.00    -0.237 OA
ATOM     89  O   UNL A   1      36.686  32.565  31.905  1.00  0.00    -0.744 OA
ENDBRANCH  85  86
ENDBRANCH  57  80
BRANCH  69  90
ATOM     90  C   UNL A   1      46.560  33.638  28.728  1.00  0.00    -0.014 A 
ATOM     91  C   UNL A   1      46.365  34.544  27.670  1.00  0.00     0.010 A 
ATOM     92  C   UNL A   1      47.063  34.117  29.952  1.00  0.00     0.010 A 
ATOM     93  C   UNL A   1      46.724  35.887  27.813  1.00  0.00     0.020 A 
ATOM     94  C   UNL A   1      47.389  35.467  30.111  1.00  0.00     0.020 A 
ATOM     95  C   UNL A   1      47.240  36.338  29.033  1.00  0.00     0.054 A 
BRANCH  95  96
ATOM     96  S   UNL A   1      47.698  38.086  29.194  1.00  0.00     0.124 S 
ATOM     97  O   UNL A   1      49.002  37.999  29.846  1.00  0.00    -0.237 OA
ATOM     98  O   UNL A   1      47.720  38.541  27.806  1.00  0.00    -0.237 OA
ATOM     99  O   UNL A   1      46.628  38.651  30.012  1.00  0.00    -0.744 OA
ENDBRANCH  95  96
ENDBRANCH  69  90
ENDBRANCH  43  44
ENDBRANCH  36  38
ENDBRANCH  35  36
ENDBRANCH  34  35
ENDBRANCH  33  34
ENDBRANCH  32  33
ENDBRANCH  31  32
ENDBRANCH   1  31
TORSDOF 25
ENDMDL
