MODEL 1
REMARK VINA RESULT:     -11.8      0.000      0.000
REMARK SMILES CC[C@H]([NH2+]C1c2ccccc2-c2ccccc21)C(=O)OCCOCCOCCOCCOC(=O)c1ccc(-c2c3nc(c(-c4ccc(S(=O)(=O)[O-])cc4)c4ccc([nH]4)c(-c4ccc(S(=O)(=O)[O-])cc4)c4nc(c(-c5ccc(S(=O)(=O)[O-])cc5)c5ccc2[nH]5)C=C4)C=C3)cc1
REMARK SMILES IDX 27 1 26 2 25 3 24 4 23 5 22 6 21 7 20 8 18 9 19 10 3 11 2 12
REMARK SMILES IDX 1 13 4 14 5 17 6 18 17 19 7 20 11 21 12 22 16 23 8 24 10 25
REMARK SMILES IDX 13 26 15 27 9 28 14 29 28 30 29 31 30 32 31 33 32 34 33 35
REMARK SMILES IDX 34 36 35 37 36 38 94 39 37 40 93 41 38 42 39 43 40 44 87 45
REMARK SMILES IDX 41 46 92 47 86 48 88 49 42 50 91 51 85 52 84 53 43 55 73 56
REMARK SMILES IDX 54 57 72 58 55 59 58 60 71 61 89 62 56 63 57 64 70 66 90 67
REMARK SMILES IDX 59 68 44 69 45 70 53 71 46 72 52 73 47 74 48 75 49 76 50 77
REMARK SMILES IDX 51 78 74 79 75 80 83 81 76 82 82 83 77 84 78 85 79 86 80 87
REMARK SMILES IDX 81 88 60 89 61 90 69 91 62 92 68 93 63 94 64 95 65 96 66 97
REMARK SMILES IDX 67 98
REMARK H PARENT 4 15 4 16 88 54 58 65
REMARK Flexibility Score: inf
ROOT
ATOM      1  C   UNL A   1      36.983  20.500  25.033  1.00  0.00     0.188 C 
ENDROOT
BRANCH   1   2
ATOM      2  O   UNL A   1      36.470  18.853  24.725  1.00  0.00    -0.377 OA
BRANCH   2   3
ATOM      3  C   UNL A   1      34.945  17.870  24.362  1.00  0.00     0.188 C 
BRANCH   3   4
ATOM      4  C   UNL A   1      33.325  18.521  24.377  1.00  0.00     0.188 C 
BRANCH   4   5
ATOM      5  O   UNL A   1      32.718  19.791  23.904  1.00  0.00    -0.376 OA
BRANCH   5   6
ATOM      6  C   UNL A   1      32.756  21.180  24.379  1.00  0.00     0.202 C 
BRANCH   6   7
ATOM      7  C   UNL A   1      32.043  22.484  23.716  1.00  0.00     0.261 C 
BRANCH   7   8
ATOM      8  O   UNL A   1      32.177  23.826  24.299  1.00  0.00    -0.459 OA
BRANCH   8   9
ATOM      9  C   UNL A   1      33.154  24.571  23.732  1.00  0.00     0.364 C 
ATOM     10  O   UNL A   1      34.251  24.077  23.459  1.00  0.00    -0.245 OA
BRANCH   9  11
ATOM     11  C   UNL A   1      32.877  26.057  23.420  1.00  0.00     0.293 C 
BRANCH  11  12
ATOM     12  C   UNL A   1      33.057  26.219  21.903  1.00  0.00     0.074 C 
ATOM     13  C   UNL A   1      31.802  25.953  21.103  1.00  0.00     0.011 C 
ENDBRANCH  11  12
BRANCH  11  14
ATOM     14  N   UNL A   1      33.181  27.280  24.232  1.00  0.00    -0.325 N 
ATOM     15  H   UNL A   1      33.282  28.026  23.545  1.00  0.00     0.347 HD
ATOM     16  H   UNL A   1      33.942  26.902  24.798  1.00  0.00     0.347 HD
BRANCH  14  17
ATOM     17  C   UNL A   1      32.385  27.874  25.311  1.00  0.00     0.246 C 
ATOM     18  C   UNL A   1      33.192  28.883  26.205  1.00  0.00     0.022 A 
ATOM     19  C   UNL A   1      31.281  28.752  24.827  1.00  0.00     0.022 A 
ATOM     20  C   UNL A   1      34.379  28.460  26.841  1.00  0.00     0.011 A 
ATOM     21  C   UNL A   1      32.671  30.232  26.417  1.00  0.00    -0.008 A 
ATOM     22  C   UNL A   1      31.385  30.498  25.618  1.00  0.00    -0.008 A 
ATOM     23  C   UNL A   1      29.976  28.161  23.544  1.00  0.00     0.011 A 
ATOM     24  C   UNL A   1      35.093  29.329  27.663  1.00  0.00     0.001 A 
ATOM     25  C   UNL A   1      33.447  31.052  27.251  1.00  0.00     0.009 A 
ATOM     26  C   UNL A   1      30.090  31.943  25.012  1.00  0.00     0.009 A 
ATOM     27  C   UNL A   1      28.747  29.548  22.871  1.00  0.00     0.001 A 
ATOM     28  C   UNL A   1      34.633  30.620  27.859  1.00  0.00     0.001 A 
ATOM     29  C   UNL A   1      28.954  31.349  23.536  1.00  0.00     0.001 A 
ENDBRANCH  14  17
ENDBRANCH  11  14
ENDBRANCH   9  11
ENDBRANCH   8   9
ENDBRANCH   7   8
ENDBRANCH   6   7
ENDBRANCH   5   6
ENDBRANCH   4   5
ENDBRANCH   3   4
ENDBRANCH   2   3
ENDBRANCH   1   2
BRANCH   1  30
ATOM     30  C   UNL A   1      37.802  19.351  25.004  1.00  0.00     0.188 C 
BRANCH  30  31
ATOM     31  O   UNL A   1      39.815  19.284  25.727  1.00  0.00    -0.376 OA
BRANCH  31  32
ATOM     32  C   UNL A   1      40.546  20.435  26.742  1.00  0.00     0.202 C 
BRANCH  32  33
ATOM     33  C   UNL A   1      41.904  21.402  26.272  1.00  0.00     0.261 C 
BRANCH  33  34
ATOM     34  O   UNL A   1      41.679  22.781  25.551  1.00  0.00    -0.460 OA
BRANCH  34  35
ATOM     35  C   UNL A   1      42.380  23.965  25.633  1.00  0.00     0.338 C 
ATOM     36  O   UNL A   1      43.342  24.236  24.923  1.00  0.00    -0.246 OA
BRANCH  35  37
ATOM     37  C   UNL A   1      41.751  25.055  26.530  1.00  0.00     0.060 A 
ATOM     38  C   UNL A   1      42.057  26.426  26.312  1.00  0.00     0.016 A 
ATOM     39  C   UNL A   1      40.939  24.776  27.628  1.00  0.00     0.016 A 
ATOM     40  C   UNL A   1      41.621  27.464  27.181  1.00  0.00     0.010 A 
ATOM     41  C   UNL A   1      40.549  25.810  28.532  1.00  0.00     0.010 A 
ATOM     42  C   UNL A   1      40.925  27.161  28.355  1.00  0.00    -0.014 A 
BRANCH  42  43
ATOM     43  C   UNL A   1      40.817  28.160  29.492  1.00  0.00     0.031 A 
ATOM     44  C   UNL A   1      41.782  28.021  30.660  1.00  0.00     0.074 A 
ATOM     45  C   UNL A   1      39.931  29.182  29.539  1.00  0.00     0.049 A 
ATOM     46  N   UNL A   1      41.841  28.681  31.793  1.00  0.00    -0.248 NA
ATOM     47  C   UNL A   1      42.821  26.989  30.521  1.00  0.00     0.031 C 
ATOM     48  C   UNL A   1      38.980  29.531  28.486  1.00  0.00     0.029 A 
ATOM     49  N   UNL A   1      39.675  30.116  30.530  1.00  0.00    -0.354 N 
ATOM     50  C   UNL A   1      42.898  28.123  32.510  1.00  0.00     0.074 A 
ATOM     51  C   UNL A   1      43.435  27.057  31.693  1.00  0.00     0.031 C 
ATOM     52  C   UNL A   1      38.240  30.582  28.889  1.00  0.00     0.029 A 
ATOM     53  C   UNL A   1      38.624  30.965  30.250  1.00  0.00     0.049 A 
ATOM     54  H   UNL A   1      40.199  30.169  31.362  1.00  0.00     0.167 HD
ATOM     55  C   UNL A   1      43.385  28.454  33.734  1.00  0.00     0.031 A 
ATOM     56  C   UNL A   1      38.016  31.918  30.997  1.00  0.00     0.031 A 
ATOM     57  C   UNL A   1      42.852  29.504  34.568  1.00  0.00     0.049 A 
ATOM     58  C   UNL A   1      38.502  32.205  32.401  1.00  0.00     0.074 A 
ATOM     59  C   UNL A   1      43.296  29.918  35.814  1.00  0.00     0.029 A 
ATOM     60  N   UNL A   1      41.758  30.293  34.256  1.00  0.00    -0.354 N 
ATOM     61  N   UNL A   1      39.511  31.675  33.050  1.00  0.00    -0.248 NA
ATOM     62  C   UNL A   1      37.772  33.226  33.173  1.00  0.00     0.031 C 
ATOM     63  C   UNL A   1      42.414  30.890  36.294  1.00  0.00     0.029 A 
ATOM     64  C   UNL A   1      41.484  31.160  35.304  1.00  0.00     0.049 A 
ATOM     65  H   UNL A   1      41.248  30.247  33.414  1.00  0.00     0.167 HD
ATOM     66  C   UNL A   1      39.560  32.326  34.282  1.00  0.00     0.074 A 
ATOM     67  C   UNL A   1      38.490  33.299  34.285  1.00  0.00     0.031 C 
ATOM     68  C   UNL A   1      40.420  32.134  35.313  1.00  0.00     0.031 A 
BRANCH  55  69
ATOM     69  C   UNL A   1      44.531  27.634  34.286  1.00  0.00    -0.014 A 
ATOM     70  C   UNL A   1      44.345  26.323  34.760  1.00  0.00     0.010 A 
ATOM     71  C   UNL A   1      45.833  28.172  34.277  1.00  0.00     0.010 A 
ATOM     72  C   UNL A   1      45.426  25.586  35.255  1.00  0.00     0.020 A 
ATOM     73  C   UNL A   1      46.924  27.425  34.733  1.00  0.00     0.020 A 
ATOM     74  C   UNL A   1      46.709  26.141  35.235  1.00  0.00     0.054 A 
BRANCH  74  75
ATOM     75  S   UNL A   1      48.095  25.149  35.856  1.00  0.00     0.124 S 
ATOM     76  O   UNL A   1      47.440  24.301  36.850  1.00  0.00    -0.237 OA
ATOM     77  O   UNL A   1      48.557  24.462  34.653  1.00  0.00    -0.237 OA
ATOM     78  O   UNL A   1      49.020  26.140  36.399  1.00  0.00    -0.744 OA
ENDBRANCH  74  75
ENDBRANCH  55  69
BRANCH  56  79
ATOM     79  C   UNL A   1      36.837  32.671  30.458  1.00  0.00    -0.014 A 
ATOM     80  C   UNL A   1      35.559  32.535  31.034  1.00  0.00     0.010 A 
ATOM     81  C   UNL A   1      36.982  33.508  29.335  1.00  0.00     0.010 A 
ATOM     82  C   UNL A   1      34.456  33.210  30.497  1.00  0.00     0.020 A 
ATOM     83  C   UNL A   1      35.890  34.216  28.819  1.00  0.00     0.020 A 
ATOM     84  C   UNL A   1      34.632  34.058  29.400  1.00  0.00     0.054 A 
BRANCH  84  85
ATOM     85  S   UNL A   1      33.202  34.983  28.770  1.00  0.00     0.124 S 
ATOM     86  O   UNL A   1      32.337  35.051  29.944  1.00  0.00    -0.237 OA
ATOM     87  O   UNL A   1      33.808  36.246  28.356  1.00  0.00    -0.237 OA
ATOM     88  O   UNL A   1      32.708  34.149  27.677  1.00  0.00    -0.744 OA
ENDBRANCH  84  85
ENDBRANCH  56  79
BRANCH  68  89
ATOM     89  C   UNL A   1      40.291  33.029  36.525  1.00  0.00    -0.014 A 
ATOM     90  C   UNL A   1      40.914  34.289  36.590  1.00  0.00     0.010 A 
ATOM     91  C   UNL A   1      39.479  32.620  37.601  1.00  0.00     0.010 A 
ATOM     92  C   UNL A   1      40.756  35.101  37.718  1.00  0.00     0.020 A 
ATOM     93  C   UNL A   1      39.285  33.445  38.711  1.00  0.00     0.020 A 
ATOM     94  C   UNL A   1      39.937  34.677  38.770  1.00  0.00     0.054 A 
BRANCH  94  95
ATOM     95  S   UNL A   1      39.712  35.773  40.197  1.00  0.00     0.124 S 
ATOM     96  O   UNL A   1      38.517  35.216  40.826  1.00  0.00    -0.237 OA
ATOM     97  O   UNL A   1      40.957  35.587  40.938  1.00  0.00    -0.237 OA
ATOM     98  O   UNL A   1      39.539  37.095  39.598  1.00  0.00    -0.744 OA
ENDBRANCH  94  95
ENDBRANCH  68  89
ENDBRANCH  42  43
ENDBRANCH  35  37
ENDBRANCH  34  35
ENDBRANCH  33  34
ENDBRANCH  32  33
ENDBRANCH  31  32
ENDBRANCH  30  31
ENDBRANCH   1  30
TORSDOF 26
ENDMDL
MODEL 2
REMARK VINA RESULT:     -10.2      5.833      7.934
REMARK SMILES CC[C@H]([NH2+]C1c2ccccc2-c2ccccc21)C(=O)OCCOCCOCCOCCOC(=O)c1ccc(-c2c3nc(c(-c4ccc(S(=O)(=O)[O-])cc4)c4ccc([nH]4)c(-c4ccc(S(=O)(=O)[O-])cc4)c4nc(c(-c5ccc(S(=O)(=O)[O-])cc5)c5ccc2[nH]5)C=C4)C=C3)cc1
REMARK SMILES IDX 27 1 26 2 25 3 24 4 23 5 22 6 21 7 20 8 18 9 19 10 3 11 2 12
REMARK SMILES IDX 1 13 4 14 5 17 6 18 17 19 7 20 11 21 12 22 16 23 8 24 10 25
REMARK SMILES IDX 13 26 15 27 9 28 14 29 28 30 29 31 30 32 31 33 32 34 33 35
REMARK SMILES IDX 34 36 35 37 36 38 94 39 37 40 93 41 38 42 39 43 40 44 87 45
REMARK SMILES IDX 41 46 92 47 86 48 88 49 42 50 91 51 85 52 84 53 43 55 73 56
REMARK SMILES IDX 54 57 72 58 55 59 58 60 71 61 89 62 56 63 57 64 70 66 90 67
REMARK SMILES IDX 59 68 44 69 45 70 53 71 46 72 52 73 47 74 48 75 49 76 50 77
REMARK SMILES IDX 51 78 74 79 75 80 83 81 76 82 82 83 77 84 78 85 79 86 80 87
REMARK SMILES IDX 81 88 60 89 61 90 69 91 62 92 68 93 63 94 64 95 65 96 66 97
REMARK SMILES IDX 67 98
REMARK H PARENT 4 15 4 16 88 54 58 65
REMARK Flexibility Score: inf
ROOT
ATOM      1  C   UNL A   1      36.101  23.874  25.512  1.00  0.00     0.188 C 
ENDROOT
BRANCH   1   2
ATOM      2  O   UNL A   1      36.723  22.258  25.247  1.00  0.00    -0.377 OA
BRANCH   2   3
ATOM      3  C   UNL A   1      36.152  20.500  25.143  1.00  0.00     0.188 C 
BRANCH   3   4
ATOM      4  C   UNL A   1      34.523  20.014  24.747  1.00  0.00     0.188 C 
BRANCH   4   5
ATOM      5  O   UNL A   1      33.297  20.748  24.340  1.00  0.00    -0.376 OA
BRANCH   5   6
ATOM      6  C   UNL A   1      33.023  22.133  23.937  1.00  0.00     0.202 C 
BRANCH   6   7
ATOM      7  C   UNL A   1      33.218  22.803  22.467  1.00  0.00     0.261 C 
BRANCH   7   8
ATOM      8  O   UNL A   1      33.986  24.041  22.270  1.00  0.00    -0.459 OA
BRANCH   8   9
ATOM      9  C   UNL A   1      33.222  25.110  21.951  1.00  0.00     0.364 C 
ATOM     10  O   UNL A   1      33.173  25.532  20.792  1.00  0.00    -0.245 OA
BRANCH   9  11
ATOM     11  C   UNL A   1      32.398  25.799  23.059  1.00  0.00     0.293 C 
BRANCH  11  12
ATOM     12  C   UNL A   1      30.963  25.268  22.922  1.00  0.00     0.074 C 
ATOM     13  C   UNL A   1      30.424  24.624  24.179  1.00  0.00     0.011 C 
ENDBRANCH  11  12
BRANCH  11  14
ATOM     14  N   UNL A   1      32.513  27.186  23.618  1.00  0.00    -0.325 N 
ATOM     15  H   UNL A   1      32.353  27.799  22.819  1.00  0.00     0.347 HD
ATOM     16  H   UNL A   1      33.406  27.081  24.102  1.00  0.00     0.347 HD
BRANCH  14  17
ATOM     17  C   UNL A   1      31.745  27.791  24.710  1.00  0.00     0.246 C 
ATOM     18  C   UNL A   1      32.612  28.687  25.667  1.00  0.00     0.022 A 
ATOM     19  C   UNL A   1      30.727  28.780  24.251  1.00  0.00     0.022 A 
ATOM     20  C   UNL A   1      33.746  28.138  26.303  1.00  0.00     0.011 A 
ATOM     21  C   UNL A   1      32.198  30.062  25.937  1.00  0.00    -0.008 A 
ATOM     22  C   UNL A   1      30.955  30.471  25.128  1.00  0.00    -0.008 A 
ATOM     23  C   UNL A   1      29.407  28.360  22.917  1.00  0.00     0.011 A 
ATOM     24  C   UNL A   1      34.511  28.905  27.179  1.00  0.00     0.001 A 
ATOM     25  C   UNL A   1      33.019  30.775  26.824  1.00  0.00     0.009 A 
ATOM     26  C   UNL A   1      29.796  32.045  24.571  1.00  0.00     0.009 A 
ATOM     27  C   UNL A   1      28.310  29.874  22.291  1.00  0.00     0.001 A 
ATOM     28  C   UNL A   1      34.153  30.218  27.430  1.00  0.00     0.001 A 
ATOM     29  C   UNL A   1      28.648  31.617  23.048  1.00  0.00     0.001 A 
ENDBRANCH  14  17
ENDBRANCH  11  14
ENDBRANCH   9  11
ENDBRANCH   8   9
ENDBRANCH   7   8
ENDBRANCH   6   7
ENDBRANCH   5   6
ENDBRANCH   4   5
ENDBRANCH   3   4
ENDBRANCH   2   3
ENDBRANCH   1   2
BRANCH   1  30
ATOM     30  C   UNL A   1      37.423  23.430  25.731  1.00  0.00     0.188 C 
BRANCH  30  31
ATOM     31  O   UNL A   1      38.948  24.595  26.680  1.00  0.00    -0.376 OA
BRANCH  31  32
ATOM     32  C   UNL A   1      40.041  24.033  27.854  1.00  0.00     0.202 C 
BRANCH  32  33
ATOM     33  C   UNL A   1      41.753  23.940  27.603  1.00  0.00     0.261 C 
BRANCH  33  34
ATOM     34  O   UNL A   1      42.739  24.598  28.637  1.00  0.00    -0.460 OA
BRANCH  34  35
ATOM     35  C   UNL A   1      43.744  25.525  28.458  1.00  0.00     0.338 C 
ATOM     36  O   UNL A   1      44.618  25.424  27.606  1.00  0.00    -0.246 OA
BRANCH  35  37
ATOM     37  C   UNL A   1      43.591  26.839  29.256  1.00  0.00     0.060 A 
ATOM     38  C   UNL A   1      42.732  27.868  28.784  1.00  0.00     0.016 A 
ATOM     39  C   UNL A   1      44.324  27.134  30.405  1.00  0.00     0.016 A 
ATOM     40  C   UNL A   1      42.648  29.150  29.396  1.00  0.00     0.010 A 
ATOM     41  C   UNL A   1      44.285  28.438  30.985  1.00  0.00     0.010 A 
ATOM     42  C   UNL A   1      43.489  29.482  30.462  1.00  0.00    -0.014 A 
BRANCH  42  43
ATOM     43  C   UNL A   1      43.733  30.927  30.857  1.00  0.00     0.031 A 
ATOM     44  C   UNL A   1      42.935  31.495  32.021  1.00  0.00     0.074 A 
ATOM     45  C   UNL A   1      44.626  31.749  30.259  1.00  0.00     0.049 A 
ATOM     46  N   UNL A   1      42.885  32.716  32.498  1.00  0.00    -0.248 NA
ATOM     47  C   UNL A   1      42.072  30.543  32.739  1.00  0.00     0.031 C 
ATOM     48  C   UNL A   1      45.540  31.373  29.184  1.00  0.00     0.029 A 
ATOM     49  N   UNL A   1      44.903  33.091  30.466  1.00  0.00    -0.354 N 
ATOM     50  C   UNL A   1      41.966  32.684  33.546  1.00  0.00     0.074 A 
ATOM     51  C   UNL A   1      41.468  31.329  33.619  1.00  0.00     0.031 C 
ATOM     52  C   UNL A   1      46.259  32.451  28.816  1.00  0.00     0.029 A 
ATOM     53  C   UNL A   1      45.834  33.617  29.594  1.00  0.00     0.049 A 
ATOM     54  H   UNL A   1      44.473  33.623  31.174  1.00  0.00     0.167 HD
ATOM     55  C   UNL A   1      41.564  33.681  34.376  1.00  0.00     0.031 A 
ATOM     56  C   UNL A   1      46.279  34.884  29.413  1.00  0.00     0.031 A 
ATOM     57  C   UNL A   1      42.040  35.042  34.309  1.00  0.00     0.049 A 
ATOM     58  C   UNL A   1      45.744  36.006  30.277  1.00  0.00     0.074 A 
ATOM     59  C   UNL A   1      41.699  36.111  35.122  1.00  0.00     0.029 A 
ATOM     60  N   UNL A   1      42.941  35.527  33.375  1.00  0.00    -0.354 N 
ATOM     61  N   UNL A   1      44.888  35.948  31.269  1.00  0.00    -0.248 NA
ATOM     62  C   UNL A   1      46.241  37.366  30.001  1.00  0.00     0.031 C 
ATOM     63  C   UNL A   1      42.319  37.259  34.622  1.00  0.00     0.029 A 
ATOM     64  C   UNL A   1      43.131  36.888  33.563  1.00  0.00     0.049 A 
ATOM     65  H   UNL A   1      43.381  34.986  32.680  1.00  0.00     0.167 HD
ATOM     66  C   UNL A   1      44.779  37.249  31.759  1.00  0.00     0.074 A 
ATOM     67  C   UNL A   1      45.666  38.071  30.965  1.00  0.00     0.031 C 
ATOM     68  C   UNL A   1      44.015  37.714  32.778  1.00  0.00     0.031 A 
BRANCH  55  69
ATOM     69  C   UNL A   1      40.508  33.358  35.411  1.00  0.00    -0.014 A 
ATOM     70  C   UNL A   1      39.136  33.362  35.096  1.00  0.00     0.010 A 
ATOM     71  C   UNL A   1      40.903  32.992  36.712  1.00  0.00     0.010 A 
ATOM     72  C   UNL A   1      38.183  33.050  36.071  1.00  0.00     0.020 A 
ATOM     73  C   UNL A   1      39.956  32.639  37.679  1.00  0.00     0.020 A 
ATOM     74  C   UNL A   1      38.599  32.686  37.356  1.00  0.00     0.054 A 
BRANCH  74  75
ATOM     75  S   UNL A   1      37.340  32.258  38.589  1.00  0.00     0.124 S 
ATOM     76  O   UNL A   1      36.191  33.036  38.132  1.00  0.00    -0.237 OA
ATOM     77  O   UNL A   1      37.221  30.811  38.431  1.00  0.00    -0.237 OA
ATOM     78  O   UNL A   1      37.924  32.699  39.853  1.00  0.00    -0.744 OA
ENDBRANCH  74  75
ENDBRANCH  55  69
BRANCH  56  79
ATOM     79  C   UNL A   1      47.275  35.196  28.336  1.00  0.00    -0.014 A 
ATOM     80  C   UNL A   1      48.655  35.006  28.542  1.00  0.00     0.010 A 
ATOM     81  C   UNL A   1      46.846  35.723  27.103  1.00  0.00     0.010 A 
ATOM     82  C   UNL A   1      49.580  35.340  27.545  1.00  0.00     0.020 A 
ATOM     83  C   UNL A   1      47.764  36.020  26.089  1.00  0.00     0.020 A 
ATOM     84  C   UNL A   1      49.127  35.833  26.319  1.00  0.00     0.054 A 
BRANCH  84  85
ATOM     85  S   UNL A   1      50.340  36.185  25.015  1.00  0.00     0.124 S 
ATOM     86  O   UNL A   1      49.562  36.991  24.079  1.00  0.00    -0.237 OA
ATOM     87  O   UNL A   1      51.385  36.896  25.747  1.00  0.00    -0.237 OA
ATOM     88  O   UNL A   1      50.720  34.859  24.532  1.00  0.00    -0.744 OA
ENDBRANCH  84  85
ENDBRANCH  56  79
BRANCH  68  89
ATOM     89  C   UNL A   1      44.134  39.175  33.149  1.00  0.00    -0.014 A 
ATOM     90  C   UNL A   1      45.023  39.620  34.144  1.00  0.00     0.010 A 
ATOM     91  C   UNL A   1      43.376  40.129  32.443  1.00  0.00     0.010 A 
ATOM     92  C   UNL A   1      45.124  40.983  34.448  1.00  0.00     0.020 A 
ATOM     93  C   UNL A   1      43.504  41.494  32.713  1.00  0.00     0.020 A 
ATOM     94  C   UNL A   1      44.368  41.912  33.725  1.00  0.00     0.054 A 
BRANCH  94  95
ATOM     95  S   UNL A   1      44.556  43.675  34.108  1.00  0.00     0.124 S 
ATOM     96  O   UNL A   1      43.172  44.141  34.093  1.00  0.00    -0.237 OA
ATOM     97  O   UNL A   1      45.196  43.648  35.420  1.00  0.00    -0.237 OA
ATOM     98  O   UNL A   1      45.393  44.180  33.021  1.00  0.00    -0.744 OA
ENDBRANCH  94  95
ENDBRANCH  68  89
ENDBRANCH  42  43
ENDBRANCH  35  37
ENDBRANCH  34  35
ENDBRANCH  33  34
ENDBRANCH  32  33
ENDBRANCH  31  32
ENDBRANCH  30  31
ENDBRANCH   1  30
TORSDOF 26
ENDMDL
MODEL 3
REMARK VINA RESULT:      -9.2      3.701      5.455
REMARK SMILES CC[C@H]([NH2+]C1c2ccccc2-c2ccccc21)C(=O)OCCOCCOCCOCCOC(=O)c1ccc(-c2c3nc(c(-c4ccc(S(=O)(=O)[O-])cc4)c4ccc([nH]4)c(-c4ccc(S(=O)(=O)[O-])cc4)c4nc(c(-c5ccc(S(=O)(=O)[O-])cc5)c5ccc2[nH]5)C=C4)C=C3)cc1
REMARK SMILES IDX 27 1 26 2 25 3 24 4 23 5 22 6 21 7 20 8 18 9 19 10 3 11 2 12
REMARK SMILES IDX 1 13 4 14 5 17 6 18 17 19 7 20 11 21 12 22 16 23 8 24 10 25
REMARK SMILES IDX 13 26 15 27 9 28 14 29 28 30 29 31 30 32 31 33 32 34 33 35
REMARK SMILES IDX 34 36 35 37 36 38 94 39 37 40 93 41 38 42 39 43 40 44 87 45
REMARK SMILES IDX 41 46 92 47 86 48 88 49 42 50 91 51 85 52 84 53 43 55 73 56
REMARK SMILES IDX 54 57 72 58 55 59 58 60 71 61 89 62 56 63 57 64 70 66 90 67
REMARK SMILES IDX 59 68 44 69 45 70 53 71 46 72 52 73 47 74 48 75 49 76 50 77
REMARK SMILES IDX 51 78 74 79 75 80 83 81 76 82 82 83 77 84 78 85 79 86 80 87
REMARK SMILES IDX 81 88 60 89 61 90 69 91 62 92 68 93 63 94 64 95 65 96 66 97
REMARK SMILES IDX 67 98
REMARK H PARENT 4 15 4 16 88 54 58 65
REMARK Flexibility Score: inf
ROOT
ATOM      1  C   UNL A   1      34.766  23.825  26.174  1.00  0.00     0.188 C 
ENDROOT
BRANCH   1   2
ATOM      2  O   UNL A   1      34.877  22.863  24.715  1.00  0.00    -0.377 OA
BRANCH   2   3
ATOM      3  C   UNL A   1      34.337  22.875  22.944  1.00  0.00     0.188 C 
BRANCH   3   4
ATOM      4  C   UNL A   1      32.694  23.141  22.416  1.00  0.00     0.188 C 
BRANCH   4   5
ATOM      5  O   UNL A   1      31.590  24.022  22.878  1.00  0.00    -0.376 OA
BRANCH   5   6
ATOM      6  C   UNL A   1      31.500  25.444  23.231  1.00  0.00     0.202 C 
BRANCH   6   7
ATOM      7  C   UNL A   1      32.688  26.557  23.207  1.00  0.00     0.261 C 
BRANCH   7   8
ATOM      8  O   UNL A   1      33.576  26.773  24.358  1.00  0.00    -0.459 OA
BRANCH   8   9
ATOM      9  C   UNL A   1      33.842  28.077  24.603  1.00  0.00     0.364 C 
ATOM     10  O   UNL A   1      33.815  28.911  23.695  1.00  0.00    -0.245 OA
BRANCH   9  11
ATOM     11  C   UNL A   1      34.174  28.515  26.045  1.00  0.00     0.293 C 
BRANCH  11  12
ATOM     12  C   UNL A   1      32.826  28.708  26.757  1.00  0.00     0.074 C 
ATOM     13  C   UNL A   1      32.095  27.418  27.048  1.00  0.00     0.011 C 
ENDBRANCH  11  12
BRANCH  11  14
ATOM     14  N   UNL A   1      35.292  29.376  26.552  1.00  0.00    -0.325 N 
ATOM     15  H   UNL A   1      35.185  30.257  26.051  1.00  0.00     0.347 HD
ATOM     16  H   UNL A   1      36.062  28.719  26.418  1.00  0.00     0.347 HD
BRANCH  14  17
ATOM     17  C   UNL A   1      35.580  29.768  27.935  1.00  0.00     0.246 C 
ATOM     18  C   UNL A   1      37.110  29.742  28.290  1.00  0.00     0.022 A 
ATOM     19  C   UNL A   1      35.249  31.191  28.236  1.00  0.00     0.022 A 
ATOM     20  C   UNL A   1      37.851  28.555  28.104  1.00  0.00     0.011 A 
ATOM     21  C   UNL A   1      37.736  30.930  28.868  1.00  0.00    -0.008 A 
ATOM     22  C   UNL A   1      36.764  32.117  28.964  1.00  0.00    -0.008 A 
ATOM     23  C   UNL A   1      33.518  31.948  27.878  1.00  0.00     0.011 A 
ATOM     24  C   UNL A   1      39.202  28.500  28.442  1.00  0.00     0.001 A 
ATOM     25  C   UNL A   1      39.099  30.802  29.176  1.00  0.00     0.009 A 
ATOM     26  C   UNL A   1      36.632  34.115  29.318  1.00  0.00     0.009 A 
ATOM     27  C   UNL A   1      33.365  33.897  28.134  1.00  0.00     0.001 A 
ATOM     28  C   UNL A   1      39.822  29.621  28.967  1.00  0.00     0.001 A 
ATOM     29  C   UNL A   1      34.934  34.865  28.706  1.00  0.00     0.001 A 
ENDBRANCH  14  17
ENDBRANCH  11  14
ENDBRANCH   9  11
ENDBRANCH   8   9
ENDBRANCH   7   8
ENDBRANCH   6   7
ENDBRANCH   5   6
ENDBRANCH   4   5
ENDBRANCH   3   4
ENDBRANCH   2   3
ENDBRANCH   1   2
BRANCH   1  30
ATOM     30  C   UNL A   1      35.642  22.744  25.939  1.00  0.00     0.188 C 
BRANCH  30  31
ATOM     31  O   UNL A   1      37.653  22.638  26.664  1.00  0.00    -0.376 OA
BRANCH  31  32
ATOM     32  C   UNL A   1      39.003  22.113  25.775  1.00  0.00     0.202 C 
BRANCH  32  33
ATOM     33  C   UNL A   1      40.625  22.148  26.384  1.00  0.00     0.261 C 
BRANCH  33  34
ATOM     34  O   UNL A   1      41.837  21.896  25.415  1.00  0.00    -0.460 OA
BRANCH  34  35
ATOM     35  C   UNL A   1      42.905  22.701  25.081  1.00  0.00     0.338 C 
ATOM     36  O   UNL A   1      43.594  22.535  24.081  1.00  0.00    -0.246 OA
BRANCH  35  37
ATOM     37  C   UNL A   1      43.066  23.985  25.925  1.00  0.00     0.060 A 
ATOM     38  C   UNL A   1      44.328  24.633  26.010  1.00  0.00     0.016 A 
ATOM     39  C   UNL A   1      42.045  24.531  26.703  1.00  0.00     0.016 A 
ATOM     40  C   UNL A   1      44.577  25.737  26.873  1.00  0.00     0.010 A 
ATOM     41  C   UNL A   1      42.307  25.601  27.611  1.00  0.00     0.010 A 
ATOM     42  C   UNL A   1      43.586  26.187  27.750  1.00  0.00    -0.014 A 
BRANCH  42  43
ATOM     43  C   UNL A   1      43.925  27.050  28.951  1.00  0.00     0.031 A 
ATOM     44  C   UNL A   1      44.313  26.352  30.247  1.00  0.00     0.074 A 
ATOM     45  C   UNL A   1      43.924  28.403  28.953  1.00  0.00     0.049 A 
ATOM     46  N   UNL A   1      44.556  26.849  31.436  1.00  0.00    -0.248 NA
ATOM     47  C   UNL A   1      44.437  24.888  30.180  1.00  0.00     0.031 C 
ATOM     48  C   UNL A   1      43.661  29.254  27.796  1.00  0.00     0.029 A 
ATOM     49  N   UNL A   1      44.142  29.309  29.980  1.00  0.00    -0.354 N 
ATOM     50  C   UNL A   1      44.830  25.760  32.262  1.00  0.00     0.074 A 
ATOM     51  C   UNL A   1      44.699  24.576  31.441  1.00  0.00     0.031 C 
ATOM     52  C   UNL A   1      43.715  30.546  28.175  1.00  0.00     0.029 A 
ATOM     53  C   UNL A   1      43.973  30.629  29.614  1.00  0.00     0.049 A 
ATOM     54  H   UNL A   1      44.396  29.034  30.890  1.00  0.00     0.167 HD
ATOM     55  C   UNL A   1      45.158  25.732  33.579  1.00  0.00     0.031 A 
ATOM     56  C   UNL A   1      43.993  31.772  30.342  1.00  0.00     0.031 A 
ATOM     57  C   UNL A   1      45.278  26.901  34.416  1.00  0.00     0.049 A 
ATOM     58  C   UNL A   1      44.256  31.716  31.832  1.00  0.00     0.074 A 
ATOM     59  C   UNL A   1      45.623  26.965  35.757  1.00  0.00     0.029 A 
ATOM     60  N   UNL A   1      45.045  28.203  34.006  1.00  0.00    -0.354 N 
ATOM     61  N   UNL A   1      44.526  30.677  32.585  1.00  0.00    -0.248 NA
ATOM     62  C   UNL A   1      44.225  32.991  32.570  1.00  0.00     0.031 C 
ATOM     63  C   UNL A   1      45.507  28.292  36.178  1.00  0.00     0.029 A 
ATOM     64  C   UNL A   1      45.194  29.072  35.077  1.00  0.00     0.049 A 
ATOM     65  H   UNL A   1      44.808  28.474  33.089  1.00  0.00     0.167 HD
ATOM     66  C   UNL A   1      44.737  31.177  33.869  1.00  0.00     0.074 A 
ATOM     67  C   UNL A   1      44.578  32.613  33.791  1.00  0.00     0.031 C 
ATOM     68  C   UNL A   1      45.040  30.504  35.006  1.00  0.00     0.031 A 
BRANCH  55  69
ATOM     69  C   UNL A   1      45.361  24.380  34.230  1.00  0.00    -0.014 A 
ATOM     70  C   UNL A   1      44.278  23.601  34.676  1.00  0.00     0.010 A 
ATOM     71  C   UNL A   1      46.664  23.859  34.346  1.00  0.00     0.010 A 
ATOM     72  C   UNL A   1      44.497  22.351  35.265  1.00  0.00     0.020 A 
ATOM     73  C   UNL A   1      46.886  22.592  34.897  1.00  0.00     0.020 A 
ATOM     74  C   UNL A   1      45.800  21.853  35.368  1.00  0.00     0.054 A 
BRANCH  74  75
ATOM     75  S   UNL A   1      46.048  20.216  36.108  1.00  0.00     0.124 S 
ATOM     76  O   UNL A   1      45.030  19.417  35.428  1.00  0.00    -0.237 OA
ATOM     77  O   UNL A   1      47.430  19.911  35.747  1.00  0.00    -0.237 OA
ATOM     78  O   UNL A   1      45.813  20.437  37.533  1.00  0.00    -0.744 OA
ENDBRANCH  74  75
ENDBRANCH  55  69
BRANCH  56  79
ATOM     79  C   UNL A   1      43.720  33.095  29.692  1.00  0.00    -0.014 A 
ATOM     80  C   UNL A   1      44.754  33.842  29.097  1.00  0.00     0.010 A 
ATOM     81  C   UNL A   1      42.419  33.634  29.697  1.00  0.00     0.010 A 
ATOM     82  C   UNL A   1      44.497  35.096  28.530  1.00  0.00     0.020 A 
ATOM     83  C   UNL A   1      42.149  34.868  29.096  1.00  0.00     0.020 A 
ATOM     84  C   UNL A   1      43.191  35.596  28.521  1.00  0.00     0.054 A 
BRANCH  84  85
ATOM     85  S   UNL A   1      42.868  37.188  27.711  1.00  0.00     0.124 S 
ATOM     86  O   UNL A   1      44.140  37.885  27.881  1.00  0.00    -0.237 OA
ATOM     87  O   UNL A   1      42.546  36.781  26.346  1.00  0.00    -0.237 OA
ATOM     88  O   UNL A   1      41.748  37.738  28.470  1.00  0.00    -0.744 OA
ENDBRANCH  84  85
ENDBRANCH  56  79
BRANCH  68  89
ATOM     89  C   UNL A   1      45.282  31.304  36.266  1.00  0.00    -0.014 A 
ATOM     90  C   UNL A   1      46.542  31.851  36.571  1.00  0.00     0.010 A 
ATOM     91  C   UNL A   1      44.204  31.562  37.136  1.00  0.00     0.010 A 
ATOM     92  C   UNL A   1      46.725  32.605  37.735  1.00  0.00     0.020 A 
ATOM     93  C   UNL A   1      44.373  32.350  38.278  1.00  0.00     0.020 A 
ATOM     94  C   UNL A   1      45.638  32.855  38.579  1.00  0.00     0.054 A 
BRANCH  94  95
ATOM     95  S   UNL A   1      45.896  33.878  40.054  1.00  0.00     0.124 S 
ATOM     96  O   UNL A   1      46.900  34.833  39.594  1.00  0.00    -0.237 OA
ATOM     97  O   UNL A   1      44.565  34.431  40.293  1.00  0.00    -0.237 OA
ATOM     98  O   UNL A   1      46.359  32.925  41.061  1.00  0.00    -0.744 OA
ENDBRANCH  94  95
ENDBRANCH  68  89
ENDBRANCH  42  43
ENDBRANCH  35  37
ENDBRANCH  34  35
ENDBRANCH  33  34
ENDBRANCH  32  33
ENDBRANCH  31  32
ENDBRANCH  30  31
ENDBRANCH   1  30
TORSDOF 26
ENDMDL
