MODEL 1
REMARK VINA RESULT:      -9.4      0.000      0.000
REMARK SMILES C[C@@H]1[C@H](C)CCC[C@H]1NC(=O)C[N@@H+]1CCC[C@@H]1C(=O)OCCOCCOCCOCCOC(=O)c1ccc(-c2c3nc(c(-c4ccc(S(=O)(=O)[O-])cc4)c4ccc([nH]4)c(-c4ccc(S(=O)(=O)[O-])cc4)c4nc(c(-c5ccc(S(=O)(=O)[O-])cc5)c5ccc2[nH]5)C=C4)C=C3)cc1
REMARK SMILES IDX 26 1 25 2 24 3 23 4 22 5 21 6 20 7 18 8 19 9 17 10 13 11
REMARK SMILES IDX 14 12 15 14 16 15 12 16 10 17 9 18 11 20 8 21 1 22 2 23 3 24
REMARK SMILES IDX 4 25 5 26 7 27 6 28 27 29 28 30 29 31 30 32 31 33 32 34
REMARK SMILES IDX 33 35 34 36 35 37 36 38 94 39 37 40 93 41 38 42 39 43 40 44
REMARK SMILES IDX 87 45 41 46 92 47 86 48 88 49 42 50 91 51 85 52 84 53 43 55
REMARK SMILES IDX 73 56 54 57 72 58 55 59 58 60 71 61 89 62 56 63 57 64 70 66
REMARK SMILES IDX 90 67 59 68 44 69 45 70 53 71 46 72 52 73 47 74 48 75 49 76
REMARK SMILES IDX 50 77 51 78 74 79 75 80 83 81 76 82 82 83 77 84 78 85 79 86
REMARK SMILES IDX 80 87 81 88 60 89 61 90 69 91 62 92 68 93 63 94 64 95 65 96
REMARK SMILES IDX 66 97 67 98
REMARK H PARENT 13 13 9 19 88 54 58 65
REMARK Flexibility Score: inf
ROOT
ATOM      1  O   UNL A   1      33.863  33.172  29.363  1.00  0.00    -0.377 OA
ENDROOT
BRANCH   1   2
ATOM      2  C   UNL A   1      33.904  32.697  28.033  1.00  0.00     0.188 C 
BRANCH   2   3
ATOM      3  C   UNL A   1      34.974  31.632  27.756  1.00  0.00     0.188 C 
BRANCH   3   4
ATOM      4  O   UNL A   1      34.682  30.246  27.846  1.00  0.00    -0.376 OA
BRANCH   4   5
ATOM      5  C   UNL A   1      34.078  29.534  26.774  1.00  0.00     0.202 C 
BRANCH   5   6
ATOM      6  C   UNL A   1      33.165  28.325  27.019  1.00  0.00     0.261 C 
BRANCH   6   7
ATOM      7  O   UNL A   1      32.818  27.563  25.853  1.00  0.00    -0.459 OA
BRANCH   7   8
ATOM      8  C   UNL A   1      32.602  26.236  26.029  1.00  0.00     0.365 C 
ATOM      9  O   UNL A   1      31.738  25.767  26.766  1.00  0.00    -0.245 OA
BRANCH   8  10
ATOM     10  C   UNL A   1      33.626  25.356  25.286  1.00  0.00     0.295 C 
ATOM     11  N   UNL A   1      33.467  25.447  23.817  1.00  0.00    -0.315 N 
ATOM     12  C   UNL A   1      34.274  24.332  23.300  1.00  0.00     0.263 C 
ATOM     13  H   UNL A   1      33.772  26.344  23.440  1.00  0.00     0.349 HD
ATOM     14  C   UNL A   1      33.985  23.180  24.233  1.00  0.00     0.068 C 
ATOM     15  C   UNL A   1      33.755  23.856  25.576  1.00  0.00     0.083 C 
BRANCH  11  16
ATOM     16  C   UNL A   1      32.037  25.335  23.423  1.00  0.00     0.364 C 
BRANCH  16  17
ATOM     17  C   UNL A   1      31.760  26.105  22.146  1.00  0.00     0.275 C 
ATOM     18  N   UNL A   1      31.125  27.307  22.231  1.00  0.00    -0.348 N 
ATOM     19  H   UNL A   1      30.882  27.720  21.370  1.00  0.00     0.163 HD
ATOM     20  O   UNL A   1      32.083  25.669  21.041  1.00  0.00    -0.268 OA
BRANCH  18  21
ATOM     21  C   UNL A   1      30.749  28.074  23.426  1.00  0.00     0.085 C 
ATOM     22  C   UNL A   1      30.235  30.422  24.276  1.00  0.00     0.010 C 
ATOM     23  C   UNL A   1      30.345  29.520  23.036  1.00  0.00     0.011 C 
ATOM     24  C   UNL A   1      29.063  29.493  22.169  1.00  0.00    -0.009 C 
ATOM     25  C   UNL A   1      28.616  30.886  21.724  1.00  0.00     0.008 C 
ATOM     26  C   UNL A   1      27.919  28.738  22.865  1.00  0.00     0.004 C 
ATOM     27  C   UNL A   1      29.617  27.347  24.154  1.00  0.00     0.025 C 
ATOM     28  C   UNL A   1      28.327  27.343  23.339  1.00  0.00     0.002 C 
ENDBRANCH  18  21
ENDBRANCH  16  17
ENDBRANCH  11  16
ENDBRANCH   8  10
ENDBRANCH   7   8
ENDBRANCH   6   7
ENDBRANCH   5   6
ENDBRANCH   4   5
ENDBRANCH   3   4
ENDBRANCH   2   3
ENDBRANCH   1   2
BRANCH   1  29
ATOM     29  C   UNL A   1      33.555  34.545  29.568  1.00  0.00     0.188 C 
BRANCH  29  30
ATOM     30  C   UNL A   1      33.871  35.150  30.949  1.00  0.00     0.188 C 
BRANCH  30  31
ATOM     31  O   UNL A   1      34.247  34.188  31.925  1.00  0.00    -0.376 OA
BRANCH  31  32
ATOM     32  C   UNL A   1      35.593  34.155  32.378  1.00  0.00     0.202 C 
BRANCH  32  33
ATOM     33  C   UNL A   1      36.699  33.735  31.394  1.00  0.00     0.261 C 
BRANCH  33  34
ATOM     34  O   UNL A   1      37.466  32.566  31.722  1.00  0.00    -0.460 OA
BRANCH  34  35
ATOM     35  C   UNL A   1      37.075  31.377  31.210  1.00  0.00     0.338 C 
ATOM     36  O   UNL A   1      35.940  30.971  31.093  1.00  0.00    -0.246 OA
BRANCH  35  37
ATOM     37  C   UNL A   1      38.271  30.732  30.619  1.00  0.00     0.060 A 
ATOM     38  C   UNL A   1      39.325  30.357  31.465  1.00  0.00     0.016 A 
ATOM     39  C   UNL A   1      38.356  30.509  29.244  1.00  0.00     0.016 A 
ATOM     40  C   UNL A   1      40.487  29.804  30.929  1.00  0.00     0.010 A 
ATOM     41  C   UNL A   1      39.531  29.974  28.707  1.00  0.00     0.010 A 
ATOM     42  C   UNL A   1      40.616  29.658  29.543  1.00  0.00    -0.014 A 
BRANCH  42  43
ATOM     43  C   UNL A   1      41.949  29.382  28.953  1.00  0.00     0.031 A 
ATOM     44  C   UNL A   1      42.233  27.989  28.457  1.00  0.00     0.074 A 
ATOM     45  C   UNL A   1      42.883  30.344  28.838  1.00  0.00     0.049 A 
ATOM     46  N   UNL A   1      43.332  27.496  27.947  1.00  0.00    -0.248 NA
ATOM     47  C   UNL A   1      41.126  27.023  28.553  1.00  0.00     0.031 C 
ATOM     48  C   UNL A   1      42.711  31.742  29.228  1.00  0.00     0.029 A 
ATOM     49  N   UNL A   1      44.168  30.281  28.362  1.00  0.00    -0.354 N 
ATOM     50  C   UNL A   1      43.055  26.161  27.676  1.00  0.00     0.074 A 
ATOM     51  C   UNL A   1      41.696  25.914  28.107  1.00  0.00     0.031 C 
ATOM     52  C   UNL A   1      43.853  32.405  28.980  1.00  0.00     0.029 A 
ATOM     53  C   UNL A   1      44.849  31.472  28.453  1.00  0.00     0.049 A 
ATOM     54  H   UNL A   1      44.565  29.461  27.989  1.00  0.00     0.167 HD
ATOM     55  C   UNL A   1      43.858  25.223  27.118  1.00  0.00     0.031 A 
ATOM     56  C   UNL A   1      46.133  31.767  28.166  1.00  0.00     0.031 A 
ATOM     57  C   UNL A   1      45.216  25.468  26.713  1.00  0.00     0.049 A 
ATOM     58  C   UNL A   1      47.036  30.687  27.628  1.00  0.00     0.074 A 
ATOM     59  C   UNL A   1      46.110  24.590  26.125  1.00  0.00     0.029 A 
ATOM     60  N   UNL A   1      45.883  26.675  26.865  1.00  0.00    -0.354 N 
ATOM     61  N   UNL A   1      46.756  29.435  27.355  1.00  0.00    -0.248 NA
ATOM     62  C   UNL A   1      48.430  31.064  27.354  1.00  0.00     0.031 C 
ATOM     63  C   UNL A   1      47.337  25.245  25.988  1.00  0.00     0.029 A 
ATOM     64  C   UNL A   1      47.187  26.555  26.416  1.00  0.00     0.049 A 
ATOM     65  H   UNL A   1      45.487  27.496  27.238  1.00  0.00     0.167 HD
ATOM     66  C   UNL A   1      47.929  28.883  26.847  1.00  0.00     0.074 A 
ATOM     67  C   UNL A   1      48.917  29.942  26.838  1.00  0.00     0.031 C 
ATOM     68  C   UNL A   1      48.164  27.617  26.418  1.00  0.00     0.031 A 
BRANCH  55  69
ATOM     69  C   UNL A   1      43.297  23.832  26.966  1.00  0.00    -0.014 A 
ATOM     70  C   UNL A   1      43.119  22.984  28.075  1.00  0.00     0.010 A 
ATOM     71  C   UNL A   1      42.929  23.370  25.689  1.00  0.00     0.010 A 
ATOM     72  C   UNL A   1      42.634  21.685  27.903  1.00  0.00     0.020 A 
ATOM     73  C   UNL A   1      42.413  22.083  25.516  1.00  0.00     0.020 A 
ATOM     74  C   UNL A   1      42.288  21.241  26.623  1.00  0.00     0.054 A 
BRANCH  74  75
ATOM     75  S   UNL A   1      41.659  19.551  26.428  1.00  0.00     0.124 S 
ATOM     76  O   UNL A   1      42.294  19.137  25.179  1.00  0.00    -0.237 OA
ATOM     77  O   UNL A   1      42.152  18.886  27.631  1.00  0.00    -0.237 OA
ATOM     78  O   UNL A   1      40.211  19.723  26.362  1.00  0.00    -0.744 OA
ENDBRANCH  74  75
ENDBRANCH  55  69
BRANCH  56  79
ATOM     79  C   UNL A   1      46.643  33.149  28.390  1.00  0.00    -0.014 A 
ATOM     80  C   UNL A   1      47.185  33.519  29.634  1.00  0.00     0.010 A 
ATOM     81  C   UNL A   1      46.598  34.102  27.356  1.00  0.00     0.010 A 
ATOM     82  C   UNL A   1      47.666  34.816  29.841  1.00  0.00     0.020 A 
ATOM     83  C   UNL A   1      47.105  35.391  27.549  1.00  0.00     0.020 A 
ATOM     84  C   UNL A   1      47.631  35.741  28.794  1.00  0.00     0.054 A 
BRANCH  84  85
ATOM     85  S   UNL A   1      48.321  37.396  29.072  1.00  0.00     0.124 S 
ATOM     86  O   UNL A   1      49.709  37.095  29.410  1.00  0.00    -0.237 OA
ATOM     87  O   UNL A   1      48.111  38.042  27.779  1.00  0.00    -0.237 OA
ATOM     88  O   UNL A   1      47.512  37.927  30.166  1.00  0.00    -0.744 OA
ENDBRANCH  84  85
ENDBRANCH  56  79
BRANCH  68  89
ATOM     89  C   UNL A   1      49.534  27.307  25.867  1.00  0.00    -0.014 A 
ATOM     90  C   UNL A   1      50.595  26.919  26.703  1.00  0.00     0.010 A 
ATOM     91  C   UNL A   1      49.742  27.347  24.475  1.00  0.00     0.010 A 
ATOM     92  C   UNL A   1      51.846  26.608  26.161  1.00  0.00     0.020 A 
ATOM     93  C   UNL A   1      50.981  27.005  23.927  1.00  0.00     0.020 A 
ATOM     94  C   UNL A   1      52.030  26.652  24.776  1.00  0.00     0.054 A 
BRANCH  94  95
ATOM     95  S   UNL A   1      53.651  26.201  24.096  1.00  0.00     0.124 S 
ATOM     96  O   UNL A   1      53.386  26.185  22.660  1.00  0.00    -0.237 OA
ATOM     97  O   UNL A   1      54.507  27.288  24.565  1.00  0.00    -0.237 OA
ATOM     98  O   UNL A   1      53.927  24.897  24.693  1.00  0.00    -0.744 OA
ENDBRANCH  94  95
ENDBRANCH  68  89
ENDBRANCH  42  43
ENDBRANCH  35  37
ENDBRANCH  34  35
ENDBRANCH  33  34
ENDBRANCH  32  33
ENDBRANCH  31  32
ENDBRANCH  30  31
ENDBRANCH  29  30
ENDBRANCH   1  29
TORSDOF 26
ENDMDL
MODEL 2
REMARK VINA RESULT:      -9.2      2.568      8.500
REMARK SMILES C[C@@H]1[C@H](C)CCC[C@H]1NC(=O)C[N@@H+]1CCC[C@@H]1C(=O)OCCOCCOCCOCCOC(=O)c1ccc(-c2c3nc(c(-c4ccc(S(=O)(=O)[O-])cc4)c4ccc([nH]4)c(-c4ccc(S(=O)(=O)[O-])cc4)c4nc(c(-c5ccc(S(=O)(=O)[O-])cc5)c5ccc2[nH]5)C=C4)C=C3)cc1
REMARK SMILES IDX 26 1 25 2 24 3 23 4 22 5 21 6 20 7 18 8 19 9 17 10 13 11
REMARK SMILES IDX 14 12 15 14 16 15 12 16 10 17 9 18 11 20 8 21 1 22 2 23 3 24
REMARK SMILES IDX 4 25 5 26 7 27 6 28 27 29 28 30 29 31 30 32 31 33 32 34
REMARK SMILES IDX 33 35 34 36 35 37 36 38 94 39 37 40 93 41 38 42 39 43 40 44
REMARK SMILES IDX 87 45 41 46 92 47 86 48 88 49 42 50 91 51 85 52 84 53 43 55
REMARK SMILES IDX 73 56 54 57 72 58 55 59 58 60 71 61 89 62 56 63 57 64 70 66
REMARK SMILES IDX 90 67 59 68 44 69 45 70 53 71 46 72 52 73 47 74 48 75 49 76
REMARK SMILES IDX 50 77 51 78 74 79 75 80 83 81 76 82 82 83 77 84 78 85 79 86
REMARK SMILES IDX 80 87 81 88 60 89 61 90 69 91 62 92 68 93 63 94 64 95 65 96
REMARK SMILES IDX 66 97 67 98
REMARK H PARENT 13 13 9 19 88 54 58 65
REMARK Flexibility Score: inf
ROOT
ATOM      1  O   UNL A   1      33.454  34.465  29.238  1.00  0.00    -0.377 OA
ENDROOT
BRANCH   1   2
ATOM      2  C   UNL A   1      33.267  33.625  28.118  1.00  0.00     0.188 C 
BRANCH   2   3
ATOM      3  C   UNL A   1      34.256  32.456  28.010  1.00  0.00     0.188 C 
BRANCH   3   4
ATOM      4  O   UNL A   1      33.811  31.108  27.968  1.00  0.00    -0.376 OA
BRANCH   4   5
ATOM      5  C   UNL A   1      32.877  30.657  26.996  1.00  0.00     0.202 C 
BRANCH   5   6
ATOM      6  C   UNL A   1      32.087  29.353  27.178  1.00  0.00     0.261 C 
BRANCH   6   7
ATOM      7  O   UNL A   1      31.868  28.588  25.984  1.00  0.00    -0.459 OA
BRANCH   7   8
ATOM      8  C   UNL A   1      31.825  27.239  26.119  1.00  0.00     0.365 C 
ATOM      9  O   UNL A   1      30.974  26.635  26.767  1.00  0.00    -0.245 OA
BRANCH   8  10
ATOM     10  C   UNL A   1      33.022  26.530  25.457  1.00  0.00     0.295 C 
ATOM     11  N   UNL A   1      32.926  26.548  23.979  1.00  0.00    -0.315 N 
ATOM     12  C   UNL A   1      33.939  25.577  23.543  1.00  0.00     0.263 C 
ATOM     13  H   UNL A   1      33.091  27.474  23.584  1.00  0.00     0.349 HD
ATOM     14  C   UNL A   1      33.806  24.420  24.504  1.00  0.00     0.068 C 
ATOM     15  C   UNL A   1      33.393  25.084  25.810  1.00  0.00     0.083 C 
BRANCH  11  16
ATOM     16  C   UNL A   1      31.559  26.178  23.526  1.00  0.00     0.364 C 
BRANCH  16  17
ATOM     17  C   UNL A   1      31.243  26.800  22.180  1.00  0.00     0.275 C 
ATOM     18  N   UNL A   1      30.518  27.953  22.145  1.00  0.00    -0.348 N 
ATOM     19  H   UNL A   1      30.257  28.263  21.247  1.00  0.00     0.163 HD
ATOM     20  O   UNL A   1      31.612  26.287  21.123  1.00  0.00    -0.268 OA
BRANCH  18  21
ATOM     21  C   UNL A   1      30.070  28.799  23.259  1.00  0.00     0.085 C 
ATOM     22  C   UNL A   1      29.591  31.209  23.937  1.00  0.00     0.010 C 
ATOM     23  C   UNL A   1      29.772  30.238  22.760  1.00  0.00     0.011 C 
ATOM     24  C   UNL A   1      28.576  30.218  21.778  1.00  0.00    -0.009 C 
ATOM     25  C   UNL A   1      28.239  31.602  21.223  1.00  0.00     0.008 C 
ATOM     26  C   UNL A   1      27.339  29.550  22.399  1.00  0.00     0.004 C 
ATOM     27  C   UNL A   1      28.842  28.162  23.911  1.00  0.00     0.025 C 
ATOM     28  C   UNL A   1      27.634  28.167  22.979  1.00  0.00     0.002 C 
ENDBRANCH  18  21
ENDBRANCH  16  17
ENDBRANCH  11  16
ENDBRANCH   8  10
ENDBRANCH   7   8
ENDBRANCH   6   7
ENDBRANCH   5   6
ENDBRANCH   4   5
ENDBRANCH   3   4
ENDBRANCH   2   3
ENDBRANCH   1   2
BRANCH   1  29
ATOM     29  C   UNL A   1      33.175  35.850  29.083  1.00  0.00     0.188 C 
BRANCH  29  30
ATOM     30  C   UNL A   1      33.125  36.717  30.355  1.00  0.00     0.188 C 
BRANCH  30  31
ATOM     31  O   UNL A   1      32.499  36.079  31.460  1.00  0.00    -0.376 OA
BRANCH  31  32
ATOM     32  C   UNL A   1      33.140  36.111  32.728  1.00  0.00     0.202 C 
BRANCH  32  33
ATOM     33  C   UNL A   1      34.625  35.715  32.821  1.00  0.00     0.261 C 
BRANCH  33  34
ATOM     34  O   UNL A   1      34.946  34.521  33.551  1.00  0.00    -0.460 OA
BRANCH  34  35
ATOM     35  C   UNL A   1      34.574  33.330  33.030  1.00  0.00     0.338 C 
ATOM     36  O   UNL A   1      33.444  32.920  32.882  1.00  0.00    -0.246 OA
BRANCH  35  37
ATOM     37  C   UNL A   1      35.787  32.690  32.472  1.00  0.00     0.060 A 
ATOM     38  C   UNL A   1      36.591  31.911  33.316  1.00  0.00     0.016 A 
ATOM     39  C   UNL A   1      36.136  32.867  31.131  1.00  0.00     0.016 A 
ATOM     40  C   UNL A   1      37.771  31.347  32.834  1.00  0.00     0.010 A 
ATOM     41  C   UNL A   1      37.331  32.319  30.655  1.00  0.00     0.010 A 
ATOM     42  C   UNL A   1      38.173  31.591  31.515  1.00  0.00    -0.014 A 
BRANCH  42  43
ATOM     43  C   UNL A   1      39.561  31.276  31.098  1.00  0.00     0.031 A 
ATOM     44  C   UNL A   1      40.629  32.310  31.340  1.00  0.00     0.074 A 
ATOM     45  C   UNL A   1      39.879  30.095  30.537  1.00  0.00     0.049 A 
ATOM     46  N   UNL A   1      41.898  32.284  31.024  1.00  0.00    -0.248 NA
ATOM     47  C   UNL A   1      40.203  33.540  32.029  1.00  0.00     0.031 C 
ATOM     48  C   UNL A   1      38.949  28.992  30.302  1.00  0.00     0.029 A 
ATOM     49  N   UNL A   1      41.079  29.635  30.057  1.00  0.00    -0.354 N 
ATOM     50  C   UNL A   1      42.418  33.498  31.461  1.00  0.00     0.074 A 
ATOM     51  C   UNL A   1      41.322  34.247  32.035  1.00  0.00     0.031 C 
ATOM     52  C   UNL A   1      39.615  27.982  29.716  1.00  0.00     0.029 A 
ATOM     53  C   UNL A   1      41.005  28.381  29.498  1.00  0.00     0.049 A 
ATOM     54  H   UNL A   1      41.915  30.152  30.110  1.00  0.00     0.167 HD
ATOM     55  C   UNL A   1      43.694  33.948  31.392  1.00  0.00     0.031 A 
ATOM     56  C   UNL A   1      41.945  27.652  28.862  1.00  0.00     0.031 A 
ATOM     57  C   UNL A   1      44.775  33.207  30.799  1.00  0.00     0.049 A 
ATOM     58  C   UNL A   1      43.338  28.209  28.718  1.00  0.00     0.074 A 
ATOM     59  C   UNL A   1      46.107  33.569  30.691  1.00  0.00     0.029 A 
ATOM     60  N   UNL A   1      44.649  31.962  30.202  1.00  0.00    -0.354 N 
ATOM     61  N   UNL A   1      43.823  29.347  29.156  1.00  0.00    -0.248 NA
ATOM     62  C   UNL A   1      44.313  27.377  27.998  1.00  0.00     0.031 C 
ATOM     63  C   UNL A   1      46.771  32.574  29.966  1.00  0.00     0.029 A 
ATOM     64  C   UNL A   1      45.870  31.556  29.692  1.00  0.00     0.049 A 
ATOM     65  H   UNL A   1      43.814  31.444  30.149  1.00  0.00     0.167 HD
ATOM     66  C   UNL A   1      45.167  29.354  28.792  1.00  0.00     0.074 A 
ATOM     67  C   UNL A   1      45.420  28.100  28.111  1.00  0.00     0.031 C 
ATOM     68  C   UNL A   1      46.109  30.307  29.010  1.00  0.00     0.031 A 
BRANCH  55  69
ATOM     69  C   UNL A   1      43.971  35.330  31.927  1.00  0.00    -0.014 A 
ATOM     70  C   UNL A   1      44.361  35.537  33.263  1.00  0.00     0.010 A 
ATOM     71  C   UNL A   1      43.850  36.441  31.072  1.00  0.00     0.010 A 
ATOM     72  C   UNL A   1      44.573  36.832  33.747  1.00  0.00     0.020 A 
ATOM     73  C   UNL A   1      44.093  37.734  31.542  1.00  0.00     0.020 A 
ATOM     74  C   UNL A   1      44.433  37.922  32.883  1.00  0.00     0.054 A 
BRANCH  74  75
ATOM     75  S   UNL A   1      44.717  39.591  33.535  1.00  0.00     0.124 S 
ATOM     76  O   UNL A   1      43.385  39.957  34.012  1.00  0.00    -0.237 OA
ATOM     77  O   UNL A   1      45.714  39.361  34.577  1.00  0.00    -0.237 OA
ATOM     78  O   UNL A   1      45.191  40.343  32.377  1.00  0.00    -0.744 OA
ENDBRANCH  74  75
ENDBRANCH  55  69
BRANCH  56  79
ATOM     79  C   UNL A   1      41.594  26.315  28.306  1.00  0.00    -0.014 A 
ATOM     80  C   UNL A   1      42.027  25.138  28.942  1.00  0.00     0.010 A 
ATOM     81  C   UNL A   1      40.816  26.212  27.138  1.00  0.00     0.010 A 
ATOM     82  C   UNL A   1      41.694  23.885  28.419  1.00  0.00     0.020 A 
ATOM     83  C   UNL A   1      40.455  24.961  26.628  1.00  0.00     0.020 A 
ATOM     84  C   UNL A   1      40.903  23.804  27.269  1.00  0.00     0.054 A 
BRANCH  84  85
ATOM     85  S   UNL A   1      40.432  22.165  26.650  1.00  0.00     0.124 S 
ATOM     86  O   UNL A   1      41.432  21.932  25.613  1.00  0.00    -0.237 OA
ATOM     87  O   UNL A   1      40.554  21.334  27.846  1.00  0.00    -0.237 OA
ATOM     88  O   UNL A   1      39.066  22.358  26.170  1.00  0.00    -0.744 OA
ENDBRANCH  84  85
ENDBRANCH  56  79
BRANCH  68  89
ATOM     89  C   UNL A   1      47.515  30.024  28.542  1.00  0.00    -0.014 A 
ATOM     90  C   UNL A   1      47.979  30.469  27.291  1.00  0.00     0.010 A 
ATOM     91  C   UNL A   1      48.405  29.350  29.400  1.00  0.00     0.010 A 
ATOM     92  C   UNL A   1      49.296  30.217  26.895  1.00  0.00     0.020 A 
ATOM     93  C   UNL A   1      49.731  29.127  29.021  1.00  0.00     0.020 A 
ATOM     94  C   UNL A   1      50.165  29.550  27.765  1.00  0.00     0.054 A 
BRANCH  94  95
ATOM     95  S   UNL A   1      51.881  29.276  27.244  1.00  0.00     0.124 S 
ATOM     96  O   UNL A   1      51.869  29.786  25.876  1.00  0.00    -0.237 OA
ATOM     97  O   UNL A   1      52.637  30.075  28.206  1.00  0.00    -0.237 OA
ATOM     98  O   UNL A   1      52.056  27.831  27.369  1.00  0.00    -0.744 OA
ENDBRANCH  94  95
ENDBRANCH  68  89
ENDBRANCH  42  43
ENDBRANCH  35  37
ENDBRANCH  34  35
ENDBRANCH  33  34
ENDBRANCH  32  33
ENDBRANCH  31  32
ENDBRANCH  30  31
ENDBRANCH  29  30
ENDBRANCH   1  29
TORSDOF 26
ENDMDL
MODEL 3
REMARK VINA RESULT:      -8.6      1.364      3.061
REMARK SMILES C[C@@H]1[C@H](C)CCC[C@H]1NC(=O)C[N@@H+]1CCC[C@@H]1C(=O)OCCOCCOCCOCCOC(=O)c1ccc(-c2c3nc(c(-c4ccc(S(=O)(=O)[O-])cc4)c4ccc([nH]4)c(-c4ccc(S(=O)(=O)[O-])cc4)c4nc(c(-c5ccc(S(=O)(=O)[O-])cc5)c5ccc2[nH]5)C=C4)C=C3)cc1
REMARK SMILES IDX 26 1 25 2 24 3 23 4 22 5 21 6 20 7 18 8 19 9 17 10 13 11
REMARK SMILES IDX 14 12 15 14 16 15 12 16 10 17 9 18 11 20 8 21 1 22 2 23 3 24
REMARK SMILES IDX 4 25 5 26 7 27 6 28 27 29 28 30 29 31 30 32 31 33 32 34
REMARK SMILES IDX 33 35 34 36 35 37 36 38 94 39 37 40 93 41 38 42 39 43 40 44
REMARK SMILES IDX 87 45 41 46 92 47 86 48 88 49 42 50 91 51 85 52 84 53 43 55
REMARK SMILES IDX 73 56 54 57 72 58 55 59 58 60 71 61 89 62 56 63 57 64 70 66
REMARK SMILES IDX 90 67 59 68 44 69 45 70 53 71 46 72 52 73 47 74 48 75 49 76
REMARK SMILES IDX 50 77 51 78 74 79 75 80 83 81 76 82 82 83 77 84 78 85 79 86
REMARK SMILES IDX 80 87 81 88 60 89 61 90 69 91 62 92 68 93 63 94 64 95 65 96
REMARK SMILES IDX 66 97 67 98
REMARK H PARENT 13 13 9 19 88 54 58 65
REMARK Flexibility Score: inf
ROOT
ATOM      1  O   UNL A   1      35.088  32.280  28.968  1.00  0.00    -0.377 OA
ENDROOT
BRANCH   1   2
ATOM      2  C   UNL A   1      34.367  31.631  27.941  1.00  0.00     0.188 C 
BRANCH   2   3
ATOM      3  C   UNL A   1      34.954  30.288  27.483  1.00  0.00     0.188 C 
BRANCH   3   4
ATOM      4  O   UNL A   1      34.129  29.260  26.954  1.00  0.00    -0.376 OA
BRANCH   4   5
ATOM      5  C   UNL A   1      32.962  29.551  26.196  1.00  0.00     0.202 C 
BRANCH   5   6
ATOM      6  C   UNL A   1      31.712  28.663  26.266  1.00  0.00     0.261 C 
BRANCH   6   7
ATOM      7  O   UNL A   1      30.940  28.581  25.058  1.00  0.00    -0.459 OA
BRANCH   7   8
ATOM      8  C   UNL A   1      30.862  27.365  24.462  1.00  0.00     0.365 C 
ATOM      9  O   UNL A   1      30.203  26.424  24.895  1.00  0.00    -0.245 OA
BRANCH   8  10
ATOM     10  C   UNL A   1      31.773  27.241  23.225  1.00  0.00     0.295 C 
ATOM     11  N   UNL A   1      32.694  26.086  23.333  1.00  0.00    -0.315 N 
ATOM     12  C   UNL A   1      33.675  26.310  22.261  1.00  0.00     0.263 C 
ATOM     13  H   UNL A   1      32.218  25.189  23.231  1.00  0.00     0.349 HD
ATOM     14  C   UNL A   1      33.973  27.790  22.312  1.00  0.00     0.068 C 
ATOM     15  C   UNL A   1      32.655  28.405  22.758  1.00  0.00     0.083 C 
BRANCH  11  16
ATOM     16  C   UNL A   1      33.331  26.029  24.675  1.00  0.00     0.364 C 
BRANCH  16  17
ATOM     17  C   UNL A   1      34.299  24.866  24.772  1.00  0.00     0.275 C 
ATOM     18  N   UNL A   1      33.866  23.623  24.422  1.00  0.00    -0.348 N 
ATOM     19  H   UNL A   1      34.500  22.889  24.594  1.00  0.00     0.163 HD
ATOM     20  O   UNL A   1      35.455  25.014  25.168  1.00  0.00    -0.268 OA
BRANCH  18  21
ATOM     21  C   UNL A   1      32.586  23.222  23.823  1.00  0.00     0.085 C 
ATOM     22  C   UNL A   1      31.487  21.501  22.297  1.00  0.00     0.010 C 
ATOM     23  C   UNL A   1      32.706  21.816  23.178  1.00  0.00     0.011 C 
ATOM     24  C   UNL A   1      32.975  20.756  24.273  1.00  0.00    -0.009 C 
ATOM     25  C   UNL A   1      33.131  19.344  23.708  1.00  0.00     0.008 C 
ATOM     26  C   UNL A   1      31.912  20.797  25.382  1.00  0.00     0.004 C 
ATOM     27  C   UNL A   1      31.496  23.260  24.896  1.00  0.00     0.025 C 
ATOM     28  C   UNL A   1      31.713  22.195  25.967  1.00  0.00     0.002 C 
ENDBRANCH  18  21
ENDBRANCH  16  17
ENDBRANCH  11  16
ENDBRANCH   8  10
ENDBRANCH   7   8
ENDBRANCH   6   7
ENDBRANCH   5   6
ENDBRANCH   4   5
ENDBRANCH   3   4
ENDBRANCH   2   3
ENDBRANCH   1   2
BRANCH   1  29
ATOM     29  C   UNL A   1      34.887  33.676  29.140  1.00  0.00     0.188 C 
BRANCH  29  30
ATOM     30  C   UNL A   1      34.873  34.226  30.579  1.00  0.00     0.188 C 
BRANCH  30  31
ATOM     31  O   UNL A   1      34.203  33.385  31.508  1.00  0.00    -0.376 OA
BRANCH  31  32
ATOM     32  C   UNL A   1      34.963  32.713  32.502  1.00  0.00     0.202 C 
BRANCH  32  33
ATOM     33  C   UNL A   1      36.463  32.471  32.255  1.00  0.00     0.261 C 
BRANCH  33  34
ATOM     34  O   UNL A   1      36.987  31.176  32.589  1.00  0.00    -0.460 OA
BRANCH  34  35
ATOM     35  C   UNL A   1      37.006  30.224  31.628  1.00  0.00     0.338 C 
ATOM     36  O   UNL A   1      36.063  29.585  31.217  1.00  0.00    -0.246 OA
BRANCH  35  37
ATOM     37  C   UNL A   1      38.352  30.241  31.011  1.00  0.00     0.060 A 
ATOM     38  C   UNL A   1      38.457  30.232  29.613  1.00  0.00     0.016 A 
ATOM     39  C   UNL A   1      39.501  30.254  31.805  1.00  0.00     0.016 A 
ATOM     40  C   UNL A   1      39.711  30.186  29.006  1.00  0.00     0.010 A 
ATOM     41  C   UNL A   1      40.757  30.186  31.194  1.00  0.00     0.010 A 
ATOM     42  C   UNL A   1      40.866  30.110  29.794  1.00  0.00    -0.014 A 
BRANCH  42  43
ATOM     43  C   UNL A   1      42.159  29.736  29.171  1.00  0.00     0.031 A 
ATOM     44  C   UNL A   1      42.321  28.330  28.659  1.00  0.00     0.074 A 
ATOM     45  C   UNL A   1      43.163  30.622  29.042  1.00  0.00     0.049 A 
ATOM     46  N   UNL A   1      43.366  27.757  28.120  1.00  0.00    -0.248 NA
ATOM     47  C   UNL A   1      41.144  27.453  28.774  1.00  0.00     0.031 C 
ATOM     48  C   UNL A   1      43.110  32.026  29.446  1.00  0.00     0.029 A 
ATOM     49  N   UNL A   1      44.428  30.463  28.536  1.00  0.00    -0.354 N 
ATOM     50  C   UNL A   1      42.978  26.449  27.846  1.00  0.00     0.074 A 
ATOM     51  C   UNL A   1      41.614  26.307  28.306  1.00  0.00     0.031 C 
ATOM     52  C   UNL A   1      44.296  32.600  29.177  1.00  0.00     0.029 A 
ATOM     53  C   UNL A   1      45.202  31.596  28.619  1.00  0.00     0.049 A 
ATOM     54  H   UNL A   1      44.750  29.618  28.148  1.00  0.00     0.167 HD
ATOM     55  C   UNL A   1      43.692  25.457  27.263  1.00  0.00     0.031 A 
ATOM     56  C   UNL A   1      46.499  31.792  28.305  1.00  0.00     0.031 A 
ATOM     57  C   UNL A   1      45.055  25.598  26.828  1.00  0.00     0.049 A 
ATOM     58  C   UNL A   1      47.302  30.649  27.738  1.00  0.00     0.074 A 
ATOM     59  C   UNL A   1      45.864  24.657  26.213  1.00  0.00     0.029 A 
ATOM     60  N   UNL A   1      45.818  26.747  26.973  1.00  0.00    -0.354 N 
ATOM     61  N   UNL A   1      46.917  29.425  27.463  1.00  0.00    -0.248 NA
ATOM     62  C   UNL A   1      48.715  30.917  27.435  1.00  0.00     0.031 C 
ATOM     63  C   UNL A   1      47.136  25.215  26.052  1.00  0.00     0.029 A 
ATOM     64  C   UNL A   1      47.099  26.529  26.493  1.00  0.00     0.049 A 
ATOM     65  H   UNL A   1      45.497  27.593  27.361  1.00  0.00     0.167 HD
ATOM     66  C   UNL A   1      48.031  28.787  26.923  1.00  0.00     0.074 A 
ATOM     67  C   UNL A   1      49.100  29.765  26.900  1.00  0.00     0.031 C 
ATOM     68  C   UNL A   1      48.156  27.510  26.480  1.00  0.00     0.031 A 
BRANCH  55  69
ATOM     69  C   UNL A   1      43.019  24.115  27.113  1.00  0.00    -0.014 A 
ATOM     70  C   UNL A   1      43.111  23.131  28.114  1.00  0.00     0.010 A 
ATOM     71  C   UNL A   1      42.271  23.842  25.953  1.00  0.00     0.010 A 
ATOM     72  C   UNL A   1      42.511  21.881  27.934  1.00  0.00     0.020 A 
ATOM     73  C   UNL A   1      41.643  22.605  25.784  1.00  0.00     0.020 A 
ATOM     74  C   UNL A   1      41.785  21.625  26.768  1.00  0.00     0.054 A 
BRANCH  74  75
ATOM     75  S   UNL A   1      41.016  19.995  26.562  1.00  0.00     0.124 S 
ATOM     76  O   UNL A   1      41.963  19.326  25.672  1.00  0.00    -0.237 OA
ATOM     77  O   UNL A   1      40.975  19.486  27.930  1.00  0.00    -0.237 OA
ATOM     78  O   UNL A   1      39.714  20.295  25.971  1.00  0.00    -0.744 OA
ENDBRANCH  74  75
ENDBRANCH  55  69
BRANCH  56  79
ATOM     79  C   UNL A   1      47.122  33.127  28.528  1.00  0.00    -0.014 A 
ATOM     80  C   UNL A   1      47.695  33.452  29.770  1.00  0.00     0.010 A 
ATOM     81  C   UNL A   1      47.153  34.080  27.493  1.00  0.00     0.010 A 
ATOM     82  C   UNL A   1      48.281  34.704  29.976  1.00  0.00     0.020 A 
ATOM     83  C   UNL A   1      47.765  35.323  27.684  1.00  0.00     0.020 A 
ATOM     84  C   UNL A   1      48.320  35.629  28.928  1.00  0.00     0.054 A 
BRANCH  84  85
ATOM     85  S   UNL A   1      49.145  37.221  29.204  1.00  0.00     0.124 S 
ATOM     86  O   UNL A   1      48.068  38.172  28.944  1.00  0.00    -0.237 OA
ATOM     87  O   UNL A   1      49.572  37.114  30.597  1.00  0.00    -0.237 OA
ATOM     88  O   UNL A   1      50.229  37.221  28.224  1.00  0.00    -0.744 OA
ENDBRANCH  84  85
ENDBRANCH  56  79
BRANCH  68  89
ATOM     89  C   UNL A   1      49.484  27.098  25.895  1.00  0.00    -0.014 A 
ATOM     90  C   UNL A   1      49.754  27.221  24.520  1.00  0.00     0.010 A 
ATOM     91  C   UNL A   1      50.502  26.635  26.751  1.00  0.00     0.010 A 
ATOM     92  C   UNL A   1      51.005  26.860  24.010  1.00  0.00     0.020 A 
ATOM     93  C   UNL A   1      51.763  26.305  26.249  1.00  0.00     0.020 A 
ATOM     94  C   UNL A   1      52.002  26.405  24.878  1.00  0.00     0.054 A 
BRANCH  94  95
ATOM     95  S   UNL A   1      53.629  25.985  24.195  1.00  0.00     0.124 S 
ATOM     96  O   UNL A   1      53.909  24.704  24.838  1.00  0.00    -0.237 OA
ATOM     97  O   UNL A   1      53.366  25.923  22.759  1.00  0.00    -0.237 OA
ATOM     98  O   UNL A   1      54.481  27.094  24.619  1.00  0.00    -0.744 OA
ENDBRANCH  94  95
ENDBRANCH  68  89
ENDBRANCH  42  43
ENDBRANCH  35  37
ENDBRANCH  34  35
ENDBRANCH  33  34
ENDBRANCH  32  33
ENDBRANCH  31  32
ENDBRANCH  30  31
ENDBRANCH  29  30
ENDBRANCH   1  29
TORSDOF 26
ENDMDL
