MODEL 1
REMARK VINA RESULT:      -8.3      0.000      0.000
REMARK SMILES CC[NH2+][C@]1(C(=O)OCCOCCOCCOCCOC(=O)c2ccc(-c3c4nc(c(-c5ccc(S(=O)(=O)[O-])cc5)c5ccc([nH]5)c(-c5ccc(S(=O)(=O)[O-])cc5)c5nc(c(-c6ccc(S(=O)(=O)[O-])cc6)c6ccc3[nH]6)C=C5)C=C4)cc2)CC[C@H](SC2COC2)C1
REMARK SMILES IDX 14 1 13 2 12 3 11 4 10 5 9 6 8 7 7 8 5 9 6 10 4 11 82 12
REMARK SMILES IDX 90 13 83 14 84 15 3 16 2 19 1 20 85 21 86 22 87 23 89 24
REMARK SMILES IDX 88 25 15 26 16 27 17 28 18 29 19 30 20 31 21 32 22 33 23 34
REMARK SMILES IDX 81 35 24 36 80 37 25 38 26 39 27 40 74 41 28 42 79 43 73 44
REMARK SMILES IDX 75 45 29 46 78 47 72 48 71 49 30 51 60 52 41 53 59 54 42 55
REMARK SMILES IDX 45 56 58 57 76 58 43 59 44 60 57 62 77 63 46 64 31 65 32 66
REMARK SMILES IDX 40 67 33 68 39 69 34 70 35 71 36 72 37 73 38 74 61 75 62 76
REMARK SMILES IDX 70 77 63 78 69 79 64 80 65 81 66 82 67 83 68 84 47 85 48 86
REMARK SMILES IDX 56 87 49 88 55 89 50 90 51 91 52 92 53 93 54 94
REMARK H PARENT 3 17 3 18 75 50 45 61
REMARK Flexibility Score: inf
ROOT
ATOM      1  C   UNL A   1      33.919  29.438  27.067  1.00  0.00     0.188 C 
ENDROOT
BRANCH   1   2
ATOM      2  O   UNL A   1      33.841  29.100  25.693  1.00  0.00    -0.377 OA
BRANCH   2   3
ATOM      3  C   UNL A   1      32.678  29.525  24.995  1.00  0.00     0.188 C 
BRANCH   3   4
ATOM      4  C   UNL A   1      31.658  28.502  24.439  1.00  0.00     0.188 C 
BRANCH   4   5
ATOM      5  O   UNL A   1      31.015  27.726  25.441  1.00  0.00    -0.376 OA
BRANCH   5   6
ATOM      6  C   UNL A   1      31.641  26.532  25.885  1.00  0.00     0.202 C 
BRANCH   6   7
ATOM      7  C   UNL A   1      31.207  25.235  25.196  1.00  0.00     0.261 C 
BRANCH   7   8
ATOM      8  O   UNL A   1      32.244  24.532  24.491  1.00  0.00    -0.459 OA
BRANCH   8   9
ATOM      9  C   UNL A   1      33.290  24.020  25.198  1.00  0.00     0.368 C 
ATOM     10  O   UNL A   1      33.982  24.672  25.968  1.00  0.00    -0.245 OA
BRANCH   9  11
ATOM     11  C   UNL A   1      33.438  22.499  24.935  1.00  0.00     0.195 C 
ATOM     12  C   UNL A   1      33.990  21.818  26.189  1.00  0.00     0.082 C 
ATOM     13  C   UNL A   1      32.104  21.726  24.813  1.00  0.00     0.095 C 
ATOM     14  C   UNL A   1      33.740  20.338  25.950  1.00  0.00     0.022 C 
ATOM     15  C   UNL A   1      32.432  20.247  25.158  1.00  0.00     0.054 C 
BRANCH  11  16
ATOM     16  N   UNL A   1      34.179  22.241  23.677  1.00  0.00    -0.332 N 
ATOM     17  H   UNL A   1      34.732  21.394  23.808  1.00  0.00     0.347 HD
ATOM     18  H   UNL A   1      33.468  22.165  22.950  1.00  0.00     0.347 HD
BRANCH  16  19
ATOM     19  C   UNL A   1      35.077  23.298  23.241  1.00  0.00     0.257 C 
ATOM     20  C   UNL A   1      36.511  22.809  23.377  1.00  0.00     0.071 C 
ENDBRANCH  16  19
ENDBRANCH  11  16
BRANCH  15  21
ATOM     21  S   UNL A   1      32.554  19.267  23.622  1.00  0.00    -0.150 SA
BRANCH  21  22
ATOM     22  C   UNL A   1      32.913  17.565  24.100  1.00  0.00     0.098 C 
ATOM     23  C   UNL A   1      34.359  17.124  24.311  1.00  0.00     0.177 C 
ATOM     24  C   UNL A   1      32.728  17.173  25.560  1.00  0.00     0.177 C 
ATOM     25  O   UNL A   1      33.983  16.431  25.537  1.00  0.00    -0.379 OA
ENDBRANCH  21  22
ENDBRANCH  15  21
ENDBRANCH   9  11
ENDBRANCH   8   9
ENDBRANCH   7   8
ENDBRANCH   6   7
ENDBRANCH   5   6
ENDBRANCH   4   5
ENDBRANCH   3   4
ENDBRANCH   2   3
ENDBRANCH   1   2
BRANCH   1  26
ATOM     26  C   UNL A   1      33.267  30.801  27.362  1.00  0.00     0.188 C 
BRANCH  26  27
ATOM     27  O   UNL A   1      34.187  31.791  27.789  1.00  0.00    -0.376 OA
BRANCH  27  28
ATOM     28  C   UNL A   1      35.300  31.456  28.601  1.00  0.00     0.202 C 
BRANCH  28  29
ATOM     29  C   UNL A   1      35.401  31.705  30.121  1.00  0.00     0.261 C 
BRANCH  29  30
ATOM     30  O   UNL A   1      36.643  31.460  30.780  1.00  0.00    -0.460 OA
BRANCH  30  31
ATOM     31  C   UNL A   1      37.041  30.184  30.942  1.00  0.00     0.338 C 
ATOM     32  O   UNL A   1      36.346  29.226  31.232  1.00  0.00    -0.246 OA
BRANCH  31  33
ATOM     33  C   UNL A   1      38.447  30.128  30.489  1.00  0.00     0.060 A 
ATOM     34  C   UNL A   1      38.765  30.585  29.203  1.00  0.00     0.016 A 
ATOM     35  C   UNL A   1      39.453  29.688  31.354  1.00  0.00     0.016 A 
ATOM     36  C   UNL A   1      40.089  30.584  28.770  1.00  0.00     0.010 A 
ATOM     37  C   UNL A   1      40.774  29.650  30.907  1.00  0.00     0.010 A 
ATOM     38  C   UNL A   1      41.089  30.068  29.603  1.00  0.00    -0.014 A 
BRANCH  38  39
ATOM     39  C   UNL A   1      42.411  29.738  29.024  1.00  0.00     0.031 A 
ATOM     40  C   UNL A   1      42.622  28.332  28.533  1.00  0.00     0.074 A 
ATOM     41  C   UNL A   1      43.384  30.659  28.916  1.00  0.00     0.049 A 
ATOM     42  N   UNL A   1      43.694  27.784  28.029  1.00  0.00    -0.248 NA
ATOM     43  C   UNL A   1      41.466  27.422  28.627  1.00  0.00     0.031 C 
ATOM     44  C   UNL A   1      43.274  32.062  29.311  1.00  0.00     0.029 A 
ATOM     45  N   UNL A   1      44.667  30.541  28.444  1.00  0.00    -0.354 N 
ATOM     46  C   UNL A   1      43.347  26.467  27.756  1.00  0.00     0.074 A 
ATOM     47  C   UNL A   1      41.974  26.289  28.170  1.00  0.00     0.031 C 
ATOM     48  C   UNL A   1      44.450  32.672  29.080  1.00  0.00     0.029 A 
ATOM     49  C   UNL A   1      45.403  31.697  28.554  1.00  0.00     0.049 A 
ATOM     50  H   UNL A   1      45.026  29.707  28.063  1.00  0.00     0.167 HD
ATOM     51  C   UNL A   1      44.106  25.491  27.208  1.00  0.00     0.031 A 
ATOM     52  C   UNL A   1      46.704  31.927  28.285  1.00  0.00     0.031 A 
ATOM     53  C   UNL A   1      45.476  25.670  26.813  1.00  0.00     0.049 A 
ATOM     54  C   UNL A   1      47.552  30.799  27.745  1.00  0.00     0.074 A 
ATOM     55  C   UNL A   1      46.330  24.750  26.235  1.00  0.00     0.029 A 
ATOM     56  N   UNL A   1      46.194  26.846  26.966  1.00  0.00    -0.354 N 
ATOM     57  N   UNL A   1      47.203  29.566  27.463  1.00  0.00    -0.248 NA
ATOM     58  C   UNL A   1      48.966  31.099  27.480  1.00  0.00     0.031 C 
ATOM     59  C   UNL A   1      47.585  25.349  26.097  1.00  0.00     0.029 A 
ATOM     60  C   UNL A   1      47.491  26.666  26.521  1.00  0.00     0.049 A 
ATOM     61  H   UNL A   1      45.835  27.685  27.337  1.00  0.00     0.167 HD
ATOM     62  C   UNL A   1      48.345  28.954  26.955  1.00  0.00     0.074 A 
ATOM     63  C   UNL A   1      49.390  29.957  26.956  1.00  0.00     0.031 C 
ATOM     64  C   UNL A   1      48.516  27.680  26.522  1.00  0.00     0.031 A 
BRANCH  51  65
ATOM     65  C   UNL A   1      43.484  24.131  27.041  1.00  0.00    -0.014 A 
ATOM     66  C   UNL A   1      43.426  23.216  28.107  1.00  0.00     0.010 A 
ATOM     67  C   UNL A   1      42.901  23.785  25.808  1.00  0.00     0.010 A 
ATOM     68  C   UNL A   1      42.816  21.970  27.936  1.00  0.00     0.020 A 
ATOM     69  C   UNL A   1      42.264  22.553  25.642  1.00  0.00     0.020 A 
ATOM     70  C   UNL A   1      42.234  21.650  26.705  1.00  0.00     0.054 A 
BRANCH  70  71
ATOM     71  S   UNL A   1      41.400  20.049  26.530  1.00  0.00     0.124 S 
ATOM     72  O   UNL A   1      40.004  20.452  26.368  1.00  0.00    -0.237 OA
ATOM     73  O   UNL A   1      42.034  19.489  25.340  1.00  0.00    -0.237 OA
ATOM     74  O   UNL A   1      41.707  19.358  27.781  1.00  0.00    -0.744 OA
ENDBRANCH  70  71
ENDBRANCH  51  65
BRANCH  52  75
ATOM     75  C   UNL A   1      47.302  33.266  28.550  1.00  0.00    -0.014 A 
ATOM     76  C   UNL A   1      47.838  33.581  29.811  1.00  0.00     0.010 A 
ATOM     77  C   UNL A   1      47.313  34.247  27.541  1.00  0.00     0.010 A 
ATOM     78  C   UNL A   1      48.347  34.859  30.066  1.00  0.00     0.020 A 
ATOM     79  C   UNL A   1      47.850  35.514  27.782  1.00  0.00     0.020 A 
ATOM     80  C   UNL A   1      48.351  35.817  29.048  1.00  0.00     0.054 A 
BRANCH  80  81
ATOM     81  S   UNL A   1      49.048  37.457  29.391  1.00  0.00     0.124 S 
ATOM     82  O   UNL A   1      50.457  37.262  29.064  1.00  0.00    -0.237 OA
ATOM     83  O   UNL A   1      48.297  38.315  28.477  1.00  0.00    -0.237 OA
ATOM     84  O   UNL A   1      48.756  37.663  30.807  1.00  0.00    -0.744 OA
ENDBRANCH  80  81
ENDBRANCH  52  75
BRANCH  64  85
ATOM     85  C   UNL A   1      49.864  27.303  25.964  1.00  0.00    -0.014 A 
ATOM     86  C   UNL A   1      50.805  26.593  26.729  1.00  0.00     0.010 A 
ATOM     87  C   UNL A   1      50.163  27.609  24.623  1.00  0.00     0.010 A 
ATOM     88  C   UNL A   1      52.032  26.223  26.173  1.00  0.00     0.020 A 
ATOM     89  C   UNL A   1      51.374  27.213  24.053  1.00  0.00     0.020 A 
ATOM     90  C   UNL A   1      52.308  26.535  24.837  1.00  0.00     0.054 A 
BRANCH  90  91
ATOM     91  S   UNL A   1      53.890  26.004  24.127  1.00  0.00     0.124 S 
ATOM     92  O   UNL A   1      54.042  24.665  24.689  1.00  0.00    -0.237 OA
ATOM     93  O   UNL A   1      53.631  26.057  22.690  1.00  0.00    -0.237 OA
ATOM     94  O   UNL A   1      54.843  26.997  24.618  1.00  0.00    -0.744 OA
ENDBRANCH  90  91
ENDBRANCH  64  85
ENDBRANCH  38  39
ENDBRANCH  31  33
ENDBRANCH  30  31
ENDBRANCH  29  30
ENDBRANCH  28  29
ENDBRANCH  27  28
ENDBRANCH  26  27
ENDBRANCH   1  26
TORSDOF 27
ENDMDL
MODEL 2
REMARK VINA RESULT:      -7.6      2.885      8.438
REMARK SMILES CC[NH2+][C@]1(C(=O)OCCOCCOCCOCCOC(=O)c2ccc(-c3c4nc(c(-c5ccc(S(=O)(=O)[O-])cc5)c5ccc([nH]5)c(-c5ccc(S(=O)(=O)[O-])cc5)c5nc(c(-c6ccc(S(=O)(=O)[O-])cc6)c6ccc3[nH]6)C=C5)C=C4)cc2)CC[C@H](SC2COC2)C1
REMARK SMILES IDX 14 1 13 2 12 3 11 4 10 5 9 6 8 7 7 8 5 9 6 10 4 11 82 12
REMARK SMILES IDX 90 13 83 14 84 15 3 16 2 19 1 20 85 21 86 22 87 23 89 24
REMARK SMILES IDX 88 25 15 26 16 27 17 28 18 29 19 30 20 31 21 32 22 33 23 34
REMARK SMILES IDX 81 35 24 36 80 37 25 38 26 39 27 40 74 41 28 42 79 43 73 44
REMARK SMILES IDX 75 45 29 46 78 47 72 48 71 49 30 51 60 52 41 53 59 54 42 55
REMARK SMILES IDX 45 56 58 57 76 58 43 59 44 60 57 62 77 63 46 64 31 65 32 66
REMARK SMILES IDX 40 67 33 68 39 69 34 70 35 71 36 72 37 73 38 74 61 75 62 76
REMARK SMILES IDX 70 77 63 78 69 79 64 80 65 81 66 82 67 83 68 84 47 85 48 86
REMARK SMILES IDX 56 87 49 88 55 89 50 90 51 91 52 92 53 93 54 94
REMARK H PARENT 3 17 3 18 75 50 45 61
REMARK Flexibility Score: inf
ROOT
ATOM      1  C   UNL A   1      34.122  29.486  26.993  1.00  0.00     0.188 C 
ENDROOT
BRANCH   1   2
ATOM      2  O   UNL A   1      34.202  29.201  25.607  1.00  0.00    -0.377 OA
BRANCH   2   3
ATOM      3  C   UNL A   1      33.015  29.385  24.847  1.00  0.00     0.188 C 
BRANCH   3   4
ATOM      4  C   UNL A   1      32.264  28.180  24.230  1.00  0.00     0.188 C 
BRANCH   4   5
ATOM      5  O   UNL A   1      31.038  27.870  24.881  1.00  0.00    -0.376 OA
BRANCH   5   6
ATOM      6  C   UNL A   1      31.078  27.368  26.207  1.00  0.00     0.202 C 
BRANCH   6   7
ATOM      7  C   UNL A   1      30.514  25.960  26.423  1.00  0.00     0.261 C 
BRANCH   7   8
ATOM      8  O   UNL A   1      31.457  24.981  26.892  1.00  0.00    -0.459 OA
BRANCH   8   9
ATOM      9  C   UNL A   1      31.299  23.682  26.514  1.00  0.00     0.368 C 
ATOM     10  O   UNL A   1      30.238  23.076  26.568  1.00  0.00    -0.245 OA
BRANCH   9  11
ATOM     11  C   UNL A   1      32.627  23.106  25.960  1.00  0.00     0.195 C 
ATOM     12  C   UNL A   1      33.803  23.905  26.524  1.00  0.00     0.082 C 
ATOM     13  C   UNL A   1      33.008  21.708  26.503  1.00  0.00     0.095 C 
ATOM     14  C   UNL A   1      35.018  23.042  26.226  1.00  0.00     0.022 C 
ATOM     15  C   UNL A   1      34.548  21.588  26.337  1.00  0.00     0.054 C 
BRANCH  11  16
ATOM     16  N   UNL A   1      32.581  22.973  24.484  1.00  0.00    -0.332 N 
ATOM     17  H   UNL A   1      33.327  22.337  24.204  1.00  0.00     0.347 HD
ATOM     18  H   UNL A   1      31.643  22.637  24.267  1.00  0.00     0.347 HD
BRANCH  16  19
ATOM     19  C   UNL A   1      32.741  24.206  23.730  1.00  0.00     0.257 C 
ATOM     20  C   UNL A   1      31.463  24.475  22.952  1.00  0.00     0.071 C 
ENDBRANCH  16  19
ENDBRANCH  11  16
BRANCH  15  21
ATOM     21  S   UNL A   1      34.933  20.564  24.874  1.00  0.00    -0.150 SA
BRANCH  21  22
ATOM     22  C   UNL A   1      33.749  19.204  24.845  1.00  0.00     0.098 C 
ATOM     23  C   UNL A   1      32.613  19.207  23.826  1.00  0.00     0.177 C 
ATOM     24  C   UNL A   1      34.164  17.903  24.170  1.00  0.00     0.177 C 
ATOM     25  O   UNL A   1      32.858  17.801  23.528  1.00  0.00    -0.379 OA
ENDBRANCH  21  22
ENDBRANCH  15  21
ENDBRANCH   9  11
ENDBRANCH   8   9
ENDBRANCH   7   8
ENDBRANCH   6   7
ENDBRANCH   5   6
ENDBRANCH   4   5
ENDBRANCH   3   4
ENDBRANCH   2   3
ENDBRANCH   1   2
BRANCH   1  26
ATOM     26  C   UNL A   1      32.961  30.444  27.317  1.00  0.00     0.188 C 
BRANCH  26  27
ATOM     27  O   UNL A   1      33.374  31.781  27.544  1.00  0.00    -0.376 OA
BRANCH  27  28
ATOM     28  C   UNL A   1      34.517  32.073  28.332  1.00  0.00     0.202 C 
BRANCH  28  29
ATOM     29  C   UNL A   1      34.497  32.417  29.836  1.00  0.00     0.261 C 
BRANCH  29  30
ATOM     30  O   UNL A   1      35.736  32.525  30.536  1.00  0.00    -0.460 OA
BRANCH  30  31
ATOM     31  C   UNL A   1      36.179  31.454  31.221  1.00  0.00     0.338 C 
ATOM     32  O   UNL A   1      35.520  30.691  31.904  1.00  0.00    -0.246 OA
BRANCH  31  33
ATOM     33  C   UNL A   1      37.585  31.253  30.810  1.00  0.00     0.060 A 
ATOM     34  C   UNL A   1      38.553  31.005  31.792  1.00  0.00     0.016 A 
ATOM     35  C   UNL A   1      37.932  31.244  29.455  1.00  0.00     0.016 A 
ATOM     36  C   UNL A   1      39.875  30.767  31.426  1.00  0.00     0.010 A 
ATOM     37  C   UNL A   1      39.264  31.045  29.089  1.00  0.00     0.010 A 
ATOM     38  C   UNL A   1      40.243  30.839  30.076  1.00  0.00    -0.014 A 
BRANCH  38  39
ATOM     39  C   UNL A   1      41.676  30.943  29.724  1.00  0.00     0.031 A 
ATOM     40  C   UNL A   1      42.379  32.233  30.048  1.00  0.00     0.074 A 
ATOM     41  C   UNL A   1      42.340  29.921  29.158  1.00  0.00     0.049 A 
ATOM     42  N   UNL A   1      43.611  32.588  29.804  1.00  0.00    -0.248 NA
ATOM     43  C   UNL A   1      41.579  33.261  30.739  1.00  0.00     0.031 C 
ATOM     44  C   UNL A   1      41.775  28.608  28.846  1.00  0.00     0.029 A 
ATOM     45  N   UNL A   1      43.643  29.836  28.735  1.00  0.00    -0.354 N 
ATOM     46  C   UNL A   1      43.732  33.881  30.299  1.00  0.00     0.074 A 
ATOM     47  C   UNL A   1      42.445  34.257  30.838  1.00  0.00     0.031 C 
ATOM     48  C   UNL A   1      42.725  27.853  28.265  1.00  0.00     0.029 A 
ATOM     49  C   UNL A   1      43.950  28.639  28.133  1.00  0.00     0.049 A 
ATOM     50  H   UNL A   1      44.295  30.564  28.851  1.00  0.00     0.167 HD
ATOM     51  C   UNL A   1      44.820  34.683  30.305  1.00  0.00     0.031 A 
ATOM     52  C   UNL A   1      45.085  28.239  27.523  1.00  0.00     0.031 A 
ATOM     53  C   UNL A   1      46.093  34.308  29.753  1.00  0.00     0.049 A 
ATOM     54  C   UNL A   1      46.262  29.183  27.475  1.00  0.00     0.074 A 
ATOM     55  C   UNL A   1      47.264  35.042  29.721  1.00  0.00     0.029 A 
ATOM     56  N   UNL A   1      46.357  33.099  29.128  1.00  0.00    -0.354 N 
ATOM     57  N   UNL A   1      46.374  30.391  27.974  1.00  0.00    -0.248 NA
ATOM     58  C   UNL A   1      47.471  28.703  26.788  1.00  0.00     0.031 C 
ATOM     59  C   UNL A   1      48.220  34.303  29.018  1.00  0.00     0.029 A 
ATOM     60  C   UNL A   1      47.665  33.078  28.678  1.00  0.00     0.049 A 
ATOM     61  H   UNL A   1      45.710  32.365  29.019  1.00  0.00     0.167 HD
ATOM     62  C   UNL A   1      47.674  30.802  27.693  1.00  0.00     0.074 A 
ATOM     63  C   UNL A   1      48.313  29.707  26.992  1.00  0.00     0.031 C 
ATOM     64  C   UNL A   1      48.286  31.975  27.989  1.00  0.00     0.031 A 
BRANCH  51  65
ATOM     65  C   UNL A   1      44.671  36.060  30.891  1.00  0.00    -0.014 A 
ATOM     66  C   UNL A   1      44.228  37.144  30.112  1.00  0.00     0.010 A 
ATOM     67  C   UNL A   1      44.930  36.261  32.259  1.00  0.00     0.010 A 
ATOM     68  C   UNL A   1      44.068  38.408  30.686  1.00  0.00     0.020 A 
ATOM     69  C   UNL A   1      44.743  37.516  32.844  1.00  0.00     0.020 A 
ATOM     70  C   UNL A   1      44.322  38.583  32.050  1.00  0.00     0.054 A 
BRANCH  70  71
ATOM     71  S   UNL A   1      44.051  40.222  32.779  1.00  0.00     0.124 S 
ATOM     72  O   UNL A   1      42.796  40.027  33.502  1.00  0.00    -0.237 OA
ATOM     73  O   UNL A   1      45.236  40.397  33.615  1.00  0.00    -0.237 OA
ATOM     74  O   UNL A   1      43.971  41.109  31.621  1.00  0.00    -0.744 OA
ENDBRANCH  70  71
ENDBRANCH  51  65
BRANCH  52  75
ATOM     75  C   UNL A   1      45.159  26.899  26.876  1.00  0.00    -0.014 A 
ATOM     76  C   UNL A   1      44.620  26.683  25.596  1.00  0.00     0.010 A 
ATOM     77  C   UNL A   1      45.751  25.818  27.556  1.00  0.00     0.010 A 
ATOM     78  C   UNL A   1      44.646  25.408  25.021  1.00  0.00     0.020 A 
ATOM     79  C   UNL A   1      45.809  24.551  26.972  1.00  0.00     0.020 A 
ATOM     80  C   UNL A   1      45.242  24.349  25.713  1.00  0.00     0.054 A 
BRANCH  80  81
ATOM     81  S   UNL A   1      45.296  22.713  24.933  1.00  0.00     0.124 S 
ATOM     82  O   UNL A   1      45.493  21.834  26.082  1.00  0.00    -0.237 OA
ATOM     83  O   UNL A   1      43.988  22.628  24.288  1.00  0.00    -0.237 OA
ATOM     84  O   UNL A   1      46.429  22.808  24.016  1.00  0.00    -0.744 OA
ENDBRANCH  80  81
ENDBRANCH  52  75
BRANCH  64  85
ATOM     85  C   UNL A   1      49.736  32.125  27.607  1.00  0.00    -0.014 A 
ATOM     86  C   UNL A   1      50.767  31.626  28.422  1.00  0.00     0.010 A 
ATOM     87  C   UNL A   1      50.065  32.719  26.374  1.00  0.00     0.010 A 
ATOM     88  C   UNL A   1      52.101  31.745  28.025  1.00  0.00     0.020 A 
ATOM     89  C   UNL A   1      51.394  32.810  25.957  1.00  0.00     0.020 A 
ATOM     90  C   UNL A   1      52.406  32.336  26.793  1.00  0.00     0.054 A 
BRANCH  90  91
ATOM     91  S   UNL A   1      54.143  32.437  26.281  1.00  0.00     0.124 S 
ATOM     92  O   UNL A   1      54.463  33.834  26.566  1.00  0.00    -0.237 OA
ATOM     93  O   UNL A   1      54.790  31.454  27.147  1.00  0.00    -0.237 OA
ATOM     94  O   UNL A   1      54.108  32.083  24.864  1.00  0.00    -0.744 OA
ENDBRANCH  90  91
ENDBRANCH  64  85
ENDBRANCH  38  39
ENDBRANCH  31  33
ENDBRANCH  30  31
ENDBRANCH  29  30
ENDBRANCH  28  29
ENDBRANCH  27  28
ENDBRANCH  26  27
ENDBRANCH   1  26
TORSDOF 27
ENDMDL
MODEL 3
REMARK VINA RESULT:      -7.5      5.181      9.229
REMARK SMILES CC[NH2+][C@]1(C(=O)OCCOCCOCCOCCOC(=O)c2ccc(-c3c4nc(c(-c5ccc(S(=O)(=O)[O-])cc5)c5ccc([nH]5)c(-c5ccc(S(=O)(=O)[O-])cc5)c5nc(c(-c6ccc(S(=O)(=O)[O-])cc6)c6ccc3[nH]6)C=C5)C=C4)cc2)CC[C@H](SC2COC2)C1
REMARK SMILES IDX 14 1 13 2 12 3 11 4 10 5 9 6 8 7 7 8 5 9 6 10 4 11 82 12
REMARK SMILES IDX 90 13 83 14 84 15 3 16 2 19 1 20 85 21 86 22 87 23 89 24
REMARK SMILES IDX 88 25 15 26 16 27 17 28 18 29 19 30 20 31 21 32 22 33 23 34
REMARK SMILES IDX 81 35 24 36 80 37 25 38 26 39 27 40 74 41 28 42 79 43 73 44
REMARK SMILES IDX 75 45 29 46 78 47 72 48 71 49 30 51 60 52 41 53 59 54 42 55
REMARK SMILES IDX 45 56 58 57 76 58 43 59 44 60 57 62 77 63 46 64 31 65 32 66
REMARK SMILES IDX 40 67 33 68 39 69 34 70 35 71 36 72 37 73 38 74 61 75 62 76
REMARK SMILES IDX 70 77 63 78 69 79 64 80 65 81 66 82 67 83 68 84 47 85 48 86
REMARK SMILES IDX 56 87 49 88 55 89 50 90 51 91 52 92 53 93 54 94
REMARK H PARENT 3 17 3 18 75 50 45 61
REMARK Flexibility Score: inf
ROOT
ATOM      1  C   UNL A   1      32.895  29.318  24.659  1.00  0.00     0.188 C 
ENDROOT
BRANCH   1   2
ATOM      2  O   UNL A   1      31.986  28.844  23.681  1.00  0.00    -0.377 OA
BRANCH   2   3
ATOM      3  C   UNL A   1      30.753  28.319  24.154  1.00  0.00     0.188 C 
BRANCH   3   4
ATOM      4  C   UNL A   1      29.993  27.223  23.368  1.00  0.00     0.188 C 
BRANCH   4   5
ATOM      5  O   UNL A   1      29.532  26.148  24.176  1.00  0.00    -0.376 OA
BRANCH   5   6
ATOM      6  C   UNL A   1      30.340  25.712  25.257  1.00  0.00     0.202 C 
BRANCH   6   7
ATOM      7  C   UNL A   1      31.845  25.613  24.990  1.00  0.00     0.261 C 
BRANCH   7   8
ATOM      8  O   UNL A   1      32.542  24.602  25.738  1.00  0.00    -0.459 OA
BRANCH   8   9
ATOM      9  C   UNL A   1      33.581  23.947  25.149  1.00  0.00     0.368 C 
ATOM     10  O   UNL A   1      34.525  24.505  24.607  1.00  0.00    -0.245 OA
BRANCH   9  11
ATOM     11  C   UNL A   1      33.428  22.413  25.314  1.00  0.00     0.195 C 
ATOM     12  C   UNL A   1      31.967  22.078  25.619  1.00  0.00     0.082 C 
ATOM     13  C   UNL A   1      33.590  21.598  24.009  1.00  0.00     0.095 C 
ATOM     14  C   UNL A   1      31.872  20.578  25.388  1.00  0.00     0.022 C 
ATOM     15  C   UNL A   1      32.836  20.260  24.241  1.00  0.00     0.054 C 
BRANCH  11  16
ATOM     16  N   UNL A   1      34.430  21.871  26.262  1.00  0.00    -0.332 N 
ATOM     17  H   UNL A   1      34.611  22.586  26.968  1.00  0.00     0.347 HD
ATOM     18  H   UNL A   1      34.023  21.014  26.634  1.00  0.00     0.347 HD
BRANCH  16  19
ATOM     19  C   UNL A   1      35.706  21.482  25.685  1.00  0.00     0.257 C 
ATOM     20  C   UNL A   1      36.702  22.614  25.888  1.00  0.00     0.071 C 
ENDBRANCH  16  19
ENDBRANCH  11  16
BRANCH  15  21
ATOM     21  S   UNL A   1      34.034  18.934  24.619  1.00  0.00    -0.150 SA
BRANCH  21  22
ATOM     22  C   UNL A   1      33.144  17.368  24.535  1.00  0.00     0.098 C 
ATOM     23  C   UNL A   1      33.683  16.232  23.669  1.00  0.00     0.177 C 
ATOM     24  C   UNL A   1      33.311  16.383  25.685  1.00  0.00     0.177 C 
ATOM     25  O   UNL A   1      33.432  15.277  24.742  1.00  0.00    -0.379 OA
ENDBRANCH  21  22
ENDBRANCH  15  21
ENDBRANCH   9  11
ENDBRANCH   8   9
ENDBRANCH   7   8
ENDBRANCH   6   7
ENDBRANCH   5   6
ENDBRANCH   4   5
ENDBRANCH   3   4
ENDBRANCH   2   3
ENDBRANCH   1   2
BRANCH   1  26
ATOM     26  C   UNL A   1      32.169  29.917  25.877  1.00  0.00     0.188 C 
BRANCH  26  27
ATOM     27  O   UNL A   1      32.873  29.752  27.096  1.00  0.00    -0.376 OA
BRANCH  27  28
ATOM     28  C   UNL A   1      33.985  30.572  27.417  1.00  0.00     0.202 C 
BRANCH  28  29
ATOM     29  C   UNL A   1      33.902  31.999  27.999  1.00  0.00     0.261 C 
BRANCH  29  30
ATOM     30  O   UNL A   1      35.102  32.759  28.139  1.00  0.00    -0.460 OA
BRANCH  30  31
ATOM     31  C   UNL A   1      35.492  33.115  29.377  1.00  0.00     0.338 C 
ATOM     32  O   UNL A   1      34.900  33.839  30.158  1.00  0.00    -0.246 OA
BRANCH  31  33
ATOM     33  C   UNL A   1      36.674  32.285  29.693  1.00  0.00     0.060 A 
ATOM     34  C   UNL A   1      36.500  31.103  30.425  1.00  0.00     0.016 A 
ATOM     35  C   UNL A   1      37.938  32.640  29.210  1.00  0.00     0.016 A 
ATOM     36  C   UNL A   1      37.592  30.282  30.696  1.00  0.00     0.010 A 
ATOM     37  C   UNL A   1      39.039  31.838  29.515  1.00  0.00     0.010 A 
ATOM     38  C   UNL A   1      38.872  30.674  30.285  1.00  0.00    -0.014 A 
BRANCH  38  39
ATOM     39  C   UNL A   1      40.054  30.003  30.869  1.00  0.00     0.031 A 
ATOM     40  C   UNL A   1      40.626  30.582  32.135  1.00  0.00     0.074 A 
ATOM     41  C   UNL A   1      40.590  28.904  30.312  1.00  0.00     0.049 A 
ATOM     42  N   UNL A   1      41.675  30.209  32.815  1.00  0.00    -0.248 NA
ATOM     43  C   UNL A   1      39.916  31.741  32.707  1.00  0.00     0.031 C 
ATOM     44  C   UNL A   1      40.089  28.227  29.116  1.00  0.00     0.029 A 
ATOM     45  N   UNL A   1      41.688  28.169  30.681  1.00  0.00    -0.354 N 
ATOM     46  C   UNL A   1      41.759  31.090  33.886  1.00  0.00     0.074 A 
ATOM     47  C   UNL A   1      40.670  32.031  33.756  1.00  0.00     0.031 C 
ATOM     48  C   UNL A   1      40.890  27.182  28.841  1.00  0.00     0.029 A 
ATOM     49  C   UNL A   1      41.976  27.138  29.818  1.00  0.00     0.049 A 
ATOM     50  H   UNL A   1      42.218  28.361  31.487  1.00  0.00     0.167 HD
ATOM     51  C   UNL A   1      42.664  31.113  34.890  1.00  0.00     0.031 A 
ATOM     52  C   UNL A   1      43.015  26.278  29.808  1.00  0.00     0.031 A 
ATOM     53  C   UNL A   1      43.754  30.184  35.006  1.00  0.00     0.049 A 
ATOM     54  C   UNL A   1      44.056  26.373  30.898  1.00  0.00     0.074 A 
ATOM     55  C   UNL A   1      44.719  30.112  35.993  1.00  0.00     0.029 A 
ATOM     56  N   UNL A   1      44.030  29.173  34.098  1.00  0.00    -0.354 N 
ATOM     57  N   UNL A   1      44.106  27.193  31.922  1.00  0.00    -0.248 NA
ATOM     58  C   UNL A   1      45.174  25.421  30.834  1.00  0.00     0.031 C 
ATOM     59  C   UNL A   1      45.617  29.098  35.648  1.00  0.00     0.029 A 
ATOM     60  C   UNL A   1      45.168  28.490  34.485  1.00  0.00     0.049 A 
ATOM     61  H   UNL A   1      43.495  28.972  33.296  1.00  0.00     0.167 HD
ATOM     62  C   UNL A   1      45.241  26.831  32.643  1.00  0.00     0.074 A 
ATOM     63  C   UNL A   1      45.839  25.711  31.944  1.00  0.00     0.031 C 
ATOM     64  C   UNL A   1      45.743  27.372  33.781  1.00  0.00     0.031 A 
BRANCH  51  65
ATOM     65  C   UNL A   1      42.538  32.201  35.922  1.00  0.00    -0.014 A 
ATOM     66  C   UNL A   1      41.771  32.021  37.087  1.00  0.00     0.010 A 
ATOM     67  C   UNL A   1      43.242  33.406  35.744  1.00  0.00     0.010 A 
ATOM     68  C   UNL A   1      41.694  33.035  38.045  1.00  0.00     0.020 A 
ATOM     69  C   UNL A   1      43.192  34.411  36.714  1.00  0.00     0.020 A 
ATOM     70  C   UNL A   1      42.410  34.221  37.854  1.00  0.00     0.054 A 
BRANCH  70  71
ATOM     71  S   UNL A   1      42.336  35.497  39.141  1.00  0.00     0.124 S 
ATOM     72  O   UNL A   1      41.545  34.835  40.178  1.00  0.00    -0.237 OA
ATOM     73  O   UNL A   1      43.744  35.706  39.464  1.00  0.00    -0.237 OA
ATOM     74  O   UNL A   1      41.676  36.621  38.480  1.00  0.00    -0.744 OA
ENDBRANCH  70  71
ENDBRANCH  51  65
BRANCH  52  75
ATOM     75  C   UNL A   1      43.149  25.274  28.716  1.00  0.00    -0.014 A 
ATOM     76  C   UNL A   1      43.796  25.598  27.510  1.00  0.00     0.010 A 
ATOM     77  C   UNL A   1      42.604  23.985  28.870  1.00  0.00     0.010 A 
ATOM     78  C   UNL A   1      43.868  24.665  26.470  1.00  0.00     0.020 A 
ATOM     79  C   UNL A   1      42.703  23.040  27.846  1.00  0.00     0.020 A 
ATOM     80  C   UNL A   1      43.322  23.390  26.646  1.00  0.00     0.054 A 
BRANCH  80  81
ATOM     81  S   UNL A   1      43.458  22.185  25.297  1.00  0.00     0.124 S 
ATOM     82  O   UNL A   1      42.279  21.352  25.513  1.00  0.00    -0.237 OA
ATOM     83  O   UNL A   1      43.424  23.036  24.110  1.00  0.00    -0.237 OA
ATOM     84  O   UNL A   1      44.741  21.533  25.550  1.00  0.00    -0.744 OA
ENDBRANCH  80  81
ENDBRANCH  52  75
BRANCH  64  85
ATOM     85  C   UNL A   1      46.971  26.734  34.379  1.00  0.00    -0.014 A 
ATOM     86  C   UNL A   1      46.876  25.657  35.278  1.00  0.00     0.010 A 
ATOM     87  C   UNL A   1      48.243  27.180  33.976  1.00  0.00     0.010 A 
ATOM     88  C   UNL A   1      48.032  25.060  35.787  1.00  0.00     0.020 A 
ATOM     89  C   UNL A   1      49.401  26.565  34.457  1.00  0.00     0.020 A 
ATOM     90  C   UNL A   1      49.287  25.517  35.372  1.00  0.00     0.054 A 
BRANCH  90  91
ATOM     91  S   UNL A   1      50.771  24.694  36.013  1.00  0.00     0.124 S 
ATOM     92  O   UNL A   1      51.804  25.172  35.099  1.00  0.00    -0.237 OA
ATOM     93  O   UNL A   1      50.855  25.205  37.380  1.00  0.00    -0.237 OA
ATOM     94  O   UNL A   1      50.453  23.272  35.905  1.00  0.00    -0.744 OA
ENDBRANCH  90  91
ENDBRANCH  64  85
ENDBRANCH  38  39
ENDBRANCH  31  33
ENDBRANCH  30  31
ENDBRANCH  29  30
ENDBRANCH  28  29
ENDBRANCH  27  28
ENDBRANCH  26  27
ENDBRANCH   1  26
TORSDOF 27
ENDMDL
