MODEL 1
REMARK VINA RESULT:      -9.3      0.000      0.000
REMARK SMILES CO[C@H]1CCC[C@H]1NC(=O)N[C@](C)(C(=O)OCCOCCOCCOCCOC(=O)c1ccc(-c2c3nc(c(-c4ccc(S(=O)(=O)[O-])cc4)c4ccc([nH]4)c(-c4ccc(S(=O)(=O)[O-])cc4)c4nc(c(-c5ccc(S(=O)(=O)[O-])cc5)c5ccc2[nH]5)C=C4)C=C3)cc1)C(F)(F)F
REMARK SMILES IDX 22 1 21 2 20 3 19 4 18 5 17 6 16 7 14 8 15 9 12 10 13 11
REMARK SMILES IDX 11 12 8 13 9 14 10 16 7 18 3 19 4 20 5 21 6 22 2 23 1 24
REMARK SMILES IDX 91 25 92 26 93 27 94 28 23 29 24 30 25 31 26 32 27 33 28 34
REMARK SMILES IDX 29 35 30 36 31 37 32 38 90 39 33 40 89 41 34 42 35 43 36 44
REMARK SMILES IDX 83 45 37 46 88 47 82 48 84 49 38 50 87 51 81 52 80 53 39 55
REMARK SMILES IDX 69 56 50 57 68 58 51 59 54 60 67 61 85 62 52 63 53 64 66 66
REMARK SMILES IDX 86 67 55 68 40 69 41 70 49 71 42 72 48 73 43 74 44 75 45 76
REMARK SMILES IDX 46 77 47 78 70 79 71 80 79 81 72 82 78 83 73 84 74 85 75 86
REMARK SMILES IDX 76 87 77 88 56 89 57 90 65 91 58 92 64 93 59 94 60 95 61 96
REMARK SMILES IDX 62 97 63 98
REMARK H PARENT 8 15 11 17 84 54 54 65
REMARK Flexibility Score: inf
ROOT
ATOM      1  O   UNL A   1      32.762  21.067  25.608  1.00  0.00    -0.377 OA
ENDROOT
BRANCH   1   2
ATOM      2  C   UNL A   1      31.814  22.090  25.834  1.00  0.00     0.188 C 
BRANCH   2   3
ATOM      3  C   UNL A   1      31.451  23.007  24.660  1.00  0.00     0.188 C 
BRANCH   3   4
ATOM      4  O   UNL A   1      31.191  24.327  25.136  1.00  0.00    -0.376 OA
BRANCH   4   5
ATOM      5  C   UNL A   1      32.184  24.976  25.923  1.00  0.00     0.202 C 
BRANCH   5   6
ATOM      6  C   UNL A   1      33.333  25.700  25.192  1.00  0.00     0.261 C 
BRANCH   6   7
ATOM      7  O   UNL A   1      33.246  27.119  25.380  1.00  0.00    -0.461 OA
BRANCH   7   8
ATOM      8  C   UNL A   1      33.303  27.972  24.321  1.00  0.00     0.341 C 
ATOM      9  O   UNL A   1      34.309  28.234  23.680  1.00  0.00    -0.249 OA
BRANCH   8  10
ATOM     10  C   UNL A   1      31.900  28.554  24.061  1.00  0.00     0.232 C 
ATOM     11  C   UNL A   1      31.931  29.135  22.621  1.00  0.00     0.058 C 
BRANCH  10  12
ATOM     12  N   UNL A   1      30.863  27.493  24.066  1.00  0.00    -0.315 N 
ATOM     13  N   UNL A   1      28.881  28.544  23.266  1.00  0.00    -0.333 N 
ATOM     14  C   UNL A   1      29.571  27.478  23.702  1.00  0.00     0.316 C 
ATOM     15  H   UNL A   1      28.006  28.276  22.902  1.00  0.00     0.165 HD
ATOM     16  O   UNL A   1      28.984  26.395  23.739  1.00  0.00    -0.249 OA
ATOM     17  H   UNL A   1      31.187  26.627  24.404  1.00  0.00     0.166 HD
BRANCH  13  18
ATOM     18  C   UNL A   1      29.068  29.987  23.182  1.00  0.00     0.112 C 
ATOM     19  C   UNL A   1      29.236  30.548  21.761  1.00  0.00     0.140 C 
ATOM     20  C   UNL A   1      29.089  32.055  21.998  1.00  0.00     0.034 C 
ATOM     21  C   UNL A   1      28.124  32.199  23.185  1.00  0.00     0.005 C 
ATOM     22  C   UNL A   1      27.877  30.785  23.711  1.00  0.00     0.028 C 
BRANCH  19  23
ATOM     23  O   UNL A   1      28.159  30.117  20.923  1.00  0.00    -0.379 OA
ATOM     24  C   UNL A   1      27.771  31.120  19.994  1.00  0.00     0.195 C 
ENDBRANCH  19  23
ENDBRANCH  13  18
ENDBRANCH  10  12
BRANCH  10  25
ATOM     25  C   UNL A   1      31.749  29.535  25.259  1.00  0.00     0.422 C 
ATOM     26  F   UNL A   1      30.843  30.511  25.015  1.00  0.00    -0.168 F 
ATOM     27  F   UNL A   1      31.337  28.909  26.388  1.00  0.00    -0.168 F 
ATOM     28  F   UNL A   1      32.897  30.163  25.613  1.00  0.00    -0.168 F 
ENDBRANCH  10  25
ENDBRANCH   8  10
ENDBRANCH   7   8
ENDBRANCH   6   7
ENDBRANCH   5   6
ENDBRANCH   4   5
ENDBRANCH   3   4
ENDBRANCH   2   3
ENDBRANCH   1   2
BRANCH   1  29
ATOM     29  C   UNL A   1      33.637  21.278  24.516  1.00  0.00     0.188 C 
BRANCH  29  30
ATOM     30  C   UNL A   1      34.961  21.952  24.923  1.00  0.00     0.188 C 
BRANCH  30  31
ATOM     31  O   UNL A   1      36.150  21.859  24.134  1.00  0.00    -0.376 OA
BRANCH  31  32
ATOM     32  C   UNL A   1      37.406  21.571  24.720  1.00  0.00     0.202 C 
BRANCH  32  33
ATOM     33  C   UNL A   1      38.071  22.693  25.532  1.00  0.00     0.261 C 
BRANCH  33  34
ATOM     34  O   UNL A   1      39.090  22.286  26.452  1.00  0.00    -0.460 OA
BRANCH  34  35
ATOM     35  C   UNL A   1      40.296  22.888  26.300  1.00  0.00     0.338 C 
ATOM     36  O   UNL A   1      41.236  22.504  25.625  1.00  0.00    -0.246 OA
BRANCH  35  37
ATOM     37  C   UNL A   1      40.260  24.197  26.988  1.00  0.00     0.060 A 
ATOM     38  C   UNL A   1      41.038  25.252  26.488  1.00  0.00     0.016 A 
ATOM     39  C   UNL A   1      39.459  24.383  28.117  1.00  0.00     0.016 A 
ATOM     40  C   UNL A   1      41.028  26.494  27.124  1.00  0.00     0.010 A 
ATOM     41  C   UNL A   1      39.484  25.612  28.778  1.00  0.00     0.010 A 
ATOM     42  C   UNL A   1      40.291  26.661  28.301  1.00  0.00    -0.014 A 
BRANCH  42  43
ATOM     43  C   UNL A   1      40.548  27.820  29.184  1.00  0.00     0.031 A 
ATOM     44  C   UNL A   1      41.744  27.744  30.092  1.00  0.00     0.074 A 
ATOM     45  C   UNL A   1      39.728  28.884  29.216  1.00  0.00     0.049 A 
ATOM     46  N   UNL A   1      42.097  28.541  31.064  1.00  0.00    -0.248 NA
ATOM     47  C   UNL A   1      42.659  26.609  29.877  1.00  0.00     0.031 C 
ATOM     48  C   UNL A   1      38.579  29.099  28.339  1.00  0.00     0.029 A 
ATOM     49  N   UNL A   1      39.732  29.979  30.044  1.00  0.00    -0.354 N 
ATOM     50  C   UNL A   1      43.262  27.994  31.589  1.00  0.00     0.074 A 
ATOM     51  C   UNL A   1      43.551  26.795  30.836  1.00  0.00     0.031 C 
ATOM     52  C   UNL A   1      37.970  30.244  28.696  1.00  0.00     0.029 A 
ATOM     53  C   UNL A   1      38.659  30.817  29.852  1.00  0.00     0.049 A 
ATOM     54  H   UNL A   1      40.435  30.148  30.713  1.00  0.00     0.167 HD
ATOM     55  C   UNL A   1      44.019  28.446  32.615  1.00  0.00     0.031 A 
ATOM     56  C   UNL A   1      38.262  31.897  30.556  1.00  0.00     0.031 A 
ATOM     57  C   UNL A   1      43.709  29.621  33.377  1.00  0.00     0.049 A 
ATOM     58  C   UNL A   1      39.069  32.333  31.754  1.00  0.00     0.074 A 
ATOM     59  C   UNL A   1      44.404  30.163  34.443  1.00  0.00     0.029 A 
ATOM     60  N   UNL A   1      42.605  30.432  33.160  1.00  0.00    -0.354 N 
ATOM     61  N   UNL A   1      40.171  31.811  32.239  1.00  0.00    -0.248 NA
ATOM     62  C   UNL A   1      38.581  33.504  32.499  1.00  0.00     0.031 C 
ATOM     63  C   UNL A   1      43.692  31.275  34.903  1.00  0.00     0.029 A 
ATOM     64  C   UNL A   1      42.589  31.460  34.084  1.00  0.00     0.049 A 
ATOM     65  H   UNL A   1      41.934  30.296  32.453  1.00  0.00     0.167 HD
ATOM     66  C   UNL A   1      40.527  32.611  33.321  1.00  0.00     0.074 A 
ATOM     67  C   UNL A   1      39.523  33.650  33.422  1.00  0.00     0.031 C 
ATOM     68  C   UNL A   1      41.594  32.500  34.150  1.00  0.00     0.031 A 
BRANCH  55  69
ATOM     69  C   UNL A   1      45.224  27.632  32.997  1.00  0.00    -0.014 A 
ATOM     70  C   UNL A   1      46.525  28.146  32.860  1.00  0.00     0.010 A 
ATOM     71  C   UNL A   1      45.048  26.336  33.517  1.00  0.00     0.010 A 
ATOM     72  C   UNL A   1      47.632  27.365  33.203  1.00  0.00     0.020 A 
ATOM     73  C   UNL A   1      46.151  25.563  33.886  1.00  0.00     0.020 A 
ATOM     74  C   UNL A   1      47.437  26.077  33.710  1.00  0.00     0.054 A 
BRANCH  74  75
ATOM     75  S   UNL A   1      48.890  25.091  34.165  1.00  0.00     0.124 S 
ATOM     76  O   UNL A   1      49.876  26.128  34.458  1.00  0.00    -0.237 OA
ATOM     77  O   UNL A   1      48.416  24.333  35.319  1.00  0.00    -0.237 OA
ATOM     78  O   UNL A   1      49.159  24.298  32.968  1.00  0.00    -0.744 OA
ENDBRANCH  74  75
ENDBRANCH  55  69
BRANCH  56  79
ATOM     79  C   UNL A   1      37.022  32.624  30.170  1.00  0.00    -0.014 A 
ATOM     80  C   UNL A   1      35.787  32.296  30.757  1.00  0.00     0.010 A 
ATOM     81  C   UNL A   1      37.068  33.651  29.209  1.00  0.00     0.010 A 
ATOM     82  C   UNL A   1      34.621  32.970  30.381  1.00  0.00     0.020 A 
ATOM     83  C   UNL A   1      35.909  34.345  28.849  1.00  0.00     0.020 A 
ATOM     84  C   UNL A   1      34.690  33.993  29.430  1.00  0.00     0.054 A 
BRANCH  84  85
ATOM     85  S   UNL A   1      33.173  34.890  28.999  1.00  0.00     0.124 S 
ATOM     86  O   UNL A   1      32.473  34.935  30.278  1.00  0.00    -0.237 OA
ATOM     87  O   UNL A   1      33.689  36.167  28.513  1.00  0.00    -0.237 OA
ATOM     88  O   UNL A   1      32.558  34.045  27.977  1.00  0.00    -0.744 OA
ENDBRANCH  84  85
ENDBRANCH  56  79
BRANCH  68  89
ATOM     89  C   UNL A   1      41.787  33.558  35.204  1.00  0.00    -0.014 A 
ATOM     90  C   UNL A   1      41.948  34.910  34.862  1.00  0.00     0.010 A 
ATOM     91  C   UNL A   1      41.672  33.198  36.560  1.00  0.00     0.010 A 
ATOM     92  C   UNL A   1      41.989  35.887  35.862  1.00  0.00     0.020 A 
ATOM     93  C   UNL A   1      41.688  34.173  37.559  1.00  0.00     0.020 A 
ATOM     94  C   UNL A   1      41.849  35.512  37.203  1.00  0.00     0.054 A 
BRANCH  94  95
ATOM     95  S   UNL A   1      41.804  36.807  38.473  1.00  0.00     0.124 S 
ATOM     96  O   UNL A   1      42.870  37.702  38.034  1.00  0.00    -0.237 OA
ATOM     97  O   UNL A   1      40.447  37.334  38.344  1.00  0.00    -0.237 OA
ATOM     98  O   UNL A   1      42.069  36.086  39.716  1.00  0.00    -0.744 OA
ENDBRANCH  94  95
ENDBRANCH  68  89
ENDBRANCH  42  43
ENDBRANCH  35  37
ENDBRANCH  34  35
ENDBRANCH  33  34
ENDBRANCH  32  33
ENDBRANCH  31  32
ENDBRANCH  30  31
ENDBRANCH  29  30
ENDBRANCH   1  29
TORSDOF 27
ENDMDL
MODEL 2
REMARK VINA RESULT:      -8.8      3.208      3.717
REMARK SMILES CO[C@H]1CCC[C@H]1NC(=O)N[C@](C)(C(=O)OCCOCCOCCOCCOC(=O)c1ccc(-c2c3nc(c(-c4ccc(S(=O)(=O)[O-])cc4)c4ccc([nH]4)c(-c4ccc(S(=O)(=O)[O-])cc4)c4nc(c(-c5ccc(S(=O)(=O)[O-])cc5)c5ccc2[nH]5)C=C4)C=C3)cc1)C(F)(F)F
REMARK SMILES IDX 22 1 21 2 20 3 19 4 18 5 17 6 16 7 14 8 15 9 12 10 13 11
REMARK SMILES IDX 11 12 8 13 9 14 10 16 7 18 3 19 4 20 5 21 6 22 2 23 1 24
REMARK SMILES IDX 91 25 92 26 93 27 94 28 23 29 24 30 25 31 26 32 27 33 28 34
REMARK SMILES IDX 29 35 30 36 31 37 32 38 90 39 33 40 89 41 34 42 35 43 36 44
REMARK SMILES IDX 83 45 37 46 88 47 82 48 84 49 38 50 87 51 81 52 80 53 39 55
REMARK SMILES IDX 69 56 50 57 68 58 51 59 54 60 67 61 85 62 52 63 53 64 66 66
REMARK SMILES IDX 86 67 55 68 40 69 41 70 49 71 42 72 48 73 43 74 44 75 45 76
REMARK SMILES IDX 46 77 47 78 70 79 71 80 79 81 72 82 78 83 73 84 74 85 75 86
REMARK SMILES IDX 76 87 77 88 56 89 57 90 65 91 58 92 64 93 59 94 60 95 61 96
REMARK SMILES IDX 62 97 63 98
REMARK H PARENT 8 15 11 17 84 54 54 65
REMARK Flexibility Score: inf
ROOT
ATOM      1  O   UNL A   1      33.721  20.466  25.980  1.00  0.00    -0.377 OA
ENDROOT
BRANCH   1   2
ATOM      2  C   UNL A   1      32.735  21.463  26.151  1.00  0.00     0.188 C 
BRANCH   2   3
ATOM      3  C   UNL A   1      32.315  22.278  24.921  1.00  0.00     0.188 C 
BRANCH   3   4
ATOM      4  O   UNL A   1      31.639  23.465  25.332  1.00  0.00    -0.376 OA
BRANCH   4   5
ATOM      5  C   UNL A   1      32.369  24.452  26.052  1.00  0.00     0.202 C 
BRANCH   5   6
ATOM      6  C   UNL A   1      33.294  25.396  25.257  1.00  0.00     0.261 C 
BRANCH   6   7
ATOM      7  O   UNL A   1      32.883  26.762  25.406  1.00  0.00    -0.461 OA
BRANCH   7   8
ATOM      8  C   UNL A   1      33.027  27.654  24.388  1.00  0.00     0.341 C 
ATOM      9  O   UNL A   1      34.065  27.871  23.782  1.00  0.00    -0.249 OA
BRANCH   8  10
ATOM     10  C   UNL A   1      31.676  28.346  24.123  1.00  0.00     0.232 C 
ATOM     11  C   UNL A   1      31.784  28.983  22.711  1.00  0.00     0.058 C 
BRANCH  10  12
ATOM     12  N   UNL A   1      30.567  27.363  24.059  1.00  0.00    -0.315 N 
ATOM     13  N   UNL A   1      28.703  28.570  23.197  1.00  0.00    -0.333 N 
ATOM     14  C   UNL A   1      29.295  27.448  23.638  1.00  0.00     0.316 C 
ATOM     15  H   UNL A   1      27.828  28.374  22.789  1.00  0.00     0.165 HD
ATOM     16  O   UNL A   1      28.630  26.410  23.624  1.00  0.00    -0.249 OA
ATOM     17  H   UNL A   1      30.813  26.469  24.391  1.00  0.00     0.166 HD
BRANCH  13  18
ATOM     18  C   UNL A   1      28.996  29.997  23.155  1.00  0.00     0.112 C 
ATOM     19  C   UNL A   1      29.189  30.588  21.749  1.00  0.00     0.140 C 
ATOM     20  C   UNL A   1      29.157  32.094  22.034  1.00  0.00     0.034 C 
ATOM     21  C   UNL A   1      28.220  32.272  23.238  1.00  0.00     0.005 C 
ATOM     22  C   UNL A   1      27.874  30.864  23.724  1.00  0.00     0.028 C 
BRANCH  19  23
ATOM     23  O   UNL A   1      28.073  30.266  20.913  1.00  0.00    -0.379 OA
ATOM     24  C   UNL A   1      27.816  31.279  19.951  1.00  0.00     0.195 C 
ENDBRANCH  19  23
ENDBRANCH  13  18
ENDBRANCH  10  12
BRANCH  10  25
ATOM     25  C   UNL A   1      31.565  29.284  25.359  1.00  0.00     0.422 C 
ATOM     26  F   UNL A   1      30.822  30.386  25.105  1.00  0.00    -0.168 F 
ATOM     27  F   UNL A   1      30.983  28.671  26.419  1.00  0.00    -0.168 F 
ATOM     28  F   UNL A   1      32.755  29.728  25.831  1.00  0.00    -0.168 F 
ENDBRANCH  10  25
ENDBRANCH   8  10
ENDBRANCH   7   8
ENDBRANCH   6   7
ENDBRANCH   5   6
ENDBRANCH   4   5
ENDBRANCH   3   4
ENDBRANCH   2   3
ENDBRANCH   1   2
BRANCH   1  29
ATOM     29  C   UNL A   1      34.566  20.630  24.857  1.00  0.00     0.188 C 
BRANCH  29  30
ATOM     30  C   UNL A   1      35.912  21.295  25.204  1.00  0.00     0.188 C 
BRANCH  30  31
ATOM     31  O   UNL A   1      37.121  21.003  24.500  1.00  0.00    -0.376 OA
BRANCH  31  32
ATOM     32  C   UNL A   1      38.331  20.738  25.188  1.00  0.00     0.202 C 
BRANCH  32  33
ATOM     33  C   UNL A   1      38.944  21.894  25.992  1.00  0.00     0.261 C 
BRANCH  33  34
ATOM     34  O   UNL A   1      40.121  21.582  26.747  1.00  0.00    -0.460 OA
BRANCH  34  35
ATOM     35  C   UNL A   1      41.278  22.113  26.280  1.00  0.00     0.338 C 
ATOM     36  O   UNL A   1      42.071  21.599  25.509  1.00  0.00    -0.246 OA
BRANCH  35  37
ATOM     37  C   UNL A   1      41.379  23.511  26.751  1.00  0.00     0.060 A 
ATOM     38  C   UNL A   1      41.486  24.543  25.807  1.00  0.00     0.016 A 
ATOM     39  C   UNL A   1      41.362  23.803  28.117  1.00  0.00     0.016 A 
ATOM     40  C   UNL A   1      41.592  25.870  26.225  1.00  0.00     0.010 A 
ATOM     41  C   UNL A   1      41.511  25.126  28.536  1.00  0.00     0.010 A 
ATOM     42  C   UNL A   1      41.656  26.159  27.592  1.00  0.00    -0.014 A 
BRANCH  42  43
ATOM     43  C   UNL A   1      42.133  27.483  28.053  1.00  0.00     0.031 A 
ATOM     44  C   UNL A   1      43.619  27.698  28.115  1.00  0.00     0.074 A 
ATOM     45  C   UNL A   1      41.282  28.445  28.446  1.00  0.00     0.049 A 
ATOM     46  N   UNL A   1      44.290  28.694  28.628  1.00  0.00    -0.248 NA
ATOM     47  C   UNL A   1      44.460  26.641  27.525  1.00  0.00     0.031 C 
ATOM     48  C   UNL A   1      39.824  28.376  28.369  1.00  0.00     0.029 A 
ATOM     49  N   UNL A   1      41.533  29.671  29.013  1.00  0.00    -0.354 N 
ATOM     50  C   UNL A   1      45.631  28.375  28.441  1.00  0.00     0.074 A 
ATOM     51  C   UNL A   1      45.678  27.091  27.778  1.00  0.00     0.031 C 
ATOM     52  C   UNL A   1      39.308  29.500  28.898  1.00  0.00     0.029 A 
ATOM     53  C   UNL A   1      40.396  30.345  29.390  1.00  0.00     0.049 A 
ATOM     54  H   UNL A   1      42.441  30.031  29.139  1.00  0.00     0.167 HD
ATOM     55  C   UNL A   1      46.725  29.084  28.800  1.00  0.00     0.031 A 
ATOM     56  C   UNL A   1      40.257  31.491  30.086  1.00  0.00     0.031 A 
ATOM     57  C   UNL A   1      46.669  30.343  29.485  1.00  0.00     0.049 A 
ATOM     58  C   UNL A   1      41.489  32.223  30.558  1.00  0.00     0.074 A 
ATOM     59  C   UNL A   1      47.719  31.142  29.903  1.00  0.00     0.029 A 
ATOM     60  N   UNL A   1      45.499  30.984  29.862  1.00  0.00    -0.354 N 
ATOM     61  N   UNL A   1      42.751  31.914  30.373  1.00  0.00    -0.248 NA
ATOM     62  C   UNL A   1      41.280  33.456  31.332  1.00  0.00     0.031 C 
ATOM     63  C   UNL A   1      47.182  32.241  30.579  1.00  0.00     0.029 A 
ATOM     64  C   UNL A   1      45.799  32.159  30.525  1.00  0.00     0.049 A 
ATOM     65  H   UNL A   1      44.590  30.651  29.684  1.00  0.00     0.167 HD
ATOM     66  C   UNL A   1      43.484  32.933  30.973  1.00  0.00     0.074 A 
ATOM     67  C   UNL A   1      42.527  33.867  31.530  1.00  0.00     0.031 C 
ATOM     68  C   UNL A   1      44.829  33.087  31.048  1.00  0.00     0.031 A 
BRANCH  55  69
ATOM     69  C   UNL A   1      48.069  28.481  28.500  1.00  0.00    -0.014 A 
ATOM     70  C   UNL A   1      48.751  28.777  27.307  1.00  0.00     0.010 A 
ATOM     71  C   UNL A   1      48.666  27.616  29.436  1.00  0.00     0.010 A 
ATOM     72  C   UNL A   1      49.991  28.190  27.038  1.00  0.00     0.020 A 
ATOM     73  C   UNL A   1      49.916  27.049  29.183  1.00  0.00     0.020 A 
ATOM     74  C   UNL A   1      50.563  27.327  27.978  1.00  0.00     0.054 A 
BRANCH  74  75
ATOM     75  S   UNL A   1      52.181  26.594  27.613  1.00  0.00     0.124 S 
ATOM     76  O   UNL A   1      52.844  26.667  28.912  1.00  0.00    -0.237 OA
ATOM     77  O   UNL A   1      51.830  25.250  27.162  1.00  0.00    -0.237 OA
ATOM     78  O   UNL A   1      52.734  27.469  26.582  1.00  0.00    -0.744 OA
ENDBRANCH  74  75
ENDBRANCH  55  69
BRANCH  56  79
ATOM     79  C   UNL A   1      38.897  32.005  30.412  1.00  0.00    -0.014 A 
ATOM     80  C   UNL A   1      38.137  32.684  29.443  1.00  0.00     0.010 A 
ATOM     81  C   UNL A   1      38.355  31.821  31.697  1.00  0.00     0.010 A 
ATOM     82  C   UNL A   1      36.867  33.179  29.756  1.00  0.00     0.020 A 
ATOM     83  C   UNL A   1      37.076  32.292  32.007  1.00  0.00     0.020 A 
ATOM     84  C   UNL A   1      36.344  32.978  31.037  1.00  0.00     0.054 A 
BRANCH  84  85
ATOM     85  S   UNL A   1      34.672  33.582  31.404  1.00  0.00     0.124 S 
ATOM     86  O   UNL A   1      34.949  34.797  32.163  1.00  0.00    -0.237 OA
ATOM     87  O   UNL A   1      34.110  33.781  30.071  1.00  0.00    -0.237 OA
ATOM     88  O   UNL A   1      34.076  32.488  32.167  1.00  0.00    -0.744 OA
ENDBRANCH  84  85
ENDBRANCH  56  79
BRANCH  68  89
ATOM     89  C   UNL A   1      45.366  34.336  31.694  1.00  0.00    -0.014 A 
ATOM     90  C   UNL A   1      45.545  35.521  30.961  1.00  0.00     0.010 A 
ATOM     91  C   UNL A   1      45.567  34.351  33.088  1.00  0.00     0.010 A 
ATOM     92  C   UNL A   1      45.915  36.701  31.612  1.00  0.00     0.020 A 
ATOM     93  C   UNL A   1      45.912  35.534  33.745  1.00  0.00     0.020 A 
ATOM     94  C   UNL A   1      46.087  36.702  33.001  1.00  0.00     0.054 A 
BRANCH  94  95
ATOM     95  S   UNL A   1      46.467  38.268  33.835  1.00  0.00     0.124 S 
ATOM     96  O   UNL A   1      46.802  37.822  35.184  1.00  0.00    -0.237 OA
ATOM     97  O   UNL A   1      47.585  38.785  33.048  1.00  0.00    -0.237 OA
ATOM     98  O   UNL A   1      45.228  39.033  33.721  1.00  0.00    -0.744 OA
ENDBRANCH  94  95
ENDBRANCH  68  89
ENDBRANCH  42  43
ENDBRANCH  35  37
ENDBRANCH  34  35
ENDBRANCH  33  34
ENDBRANCH  32  33
ENDBRANCH  31  32
ENDBRANCH  30  31
ENDBRANCH  29  30
ENDBRANCH   1  29
TORSDOF 27
ENDMDL
MODEL 3
REMARK VINA RESULT:      -8.5      4.886      8.676
REMARK SMILES CO[C@H]1CCC[C@H]1NC(=O)N[C@](C)(C(=O)OCCOCCOCCOCCOC(=O)c1ccc(-c2c3nc(c(-c4ccc(S(=O)(=O)[O-])cc4)c4ccc([nH]4)c(-c4ccc(S(=O)(=O)[O-])cc4)c4nc(c(-c5ccc(S(=O)(=O)[O-])cc5)c5ccc2[nH]5)C=C4)C=C3)cc1)C(F)(F)F
REMARK SMILES IDX 22 1 21 2 20 3 19 4 18 5 17 6 16 7 14 8 15 9 12 10 13 11
REMARK SMILES IDX 11 12 8 13 9 14 10 16 7 18 3 19 4 20 5 21 6 22 2 23 1 24
REMARK SMILES IDX 91 25 92 26 93 27 94 28 23 29 24 30 25 31 26 32 27 33 28 34
REMARK SMILES IDX 29 35 30 36 31 37 32 38 90 39 33 40 89 41 34 42 35 43 36 44
REMARK SMILES IDX 83 45 37 46 88 47 82 48 84 49 38 50 87 51 81 52 80 53 39 55
REMARK SMILES IDX 69 56 50 57 68 58 51 59 54 60 67 61 85 62 52 63 53 64 66 66
REMARK SMILES IDX 86 67 55 68 40 69 41 70 49 71 42 72 48 73 43 74 44 75 45 76
REMARK SMILES IDX 46 77 47 78 70 79 71 80 79 81 72 82 78 83 73 84 74 85 75 86
REMARK SMILES IDX 76 87 77 88 56 89 57 90 65 91 58 92 64 93 59 94 60 95 61 96
REMARK SMILES IDX 62 97 63 98
REMARK H PARENT 8 15 11 17 84 54 54 65
REMARK Flexibility Score: inf
ROOT
ATOM      1  O   UNL A   1      34.079  20.437  25.861  1.00  0.00    -0.377 OA
ENDROOT
BRANCH   1   2
ATOM      2  C   UNL A   1      33.175  21.494  25.616  1.00  0.00     0.188 C 
BRANCH   2   3
ATOM      3  C   UNL A   1      33.113  22.073  24.197  1.00  0.00     0.188 C 
BRANCH   3   4
ATOM      4  O   UNL A   1      32.353  23.281  24.197  1.00  0.00    -0.376 OA
BRANCH   4   5
ATOM      5  C   UNL A   1      32.810  24.374  24.986  1.00  0.00     0.202 C 
BRANCH   5   6
ATOM      6  C   UNL A   1      33.496  25.553  24.267  1.00  0.00     0.261 C 
BRANCH   6   7
ATOM      7  O   UNL A   1      32.952  26.807  24.705  1.00  0.00    -0.461 OA
BRANCH   7   8
ATOM      8  C   UNL A   1      33.033  27.918  23.923  1.00  0.00     0.341 C 
ATOM      9  O   UNL A   1      34.046  28.322  23.374  1.00  0.00    -0.249 OA
BRANCH   8  10
ATOM     10  C   UNL A   1      31.646  28.584  23.843  1.00  0.00     0.232 C 
ATOM     11  C   UNL A   1      31.577  29.277  22.455  1.00  0.00     0.058 C 
BRANCH  10  12
ATOM     12  N   UNL A   1      30.558  27.576  23.866  1.00  0.00    -0.315 N 
ATOM     13  N   UNL A   1      28.600  28.745  23.177  1.00  0.00    -0.333 N 
ATOM     14  C   UNL A   1      29.253  27.634  23.556  1.00  0.00     0.316 C 
ATOM     15  H   UNL A   1      27.699  28.530  22.843  1.00  0.00     0.165 HD
ATOM     16  O   UNL A   1      28.614  26.581  23.591  1.00  0.00    -0.249 OA
ATOM     17  H   UNL A   1      30.852  26.686  24.168  1.00  0.00     0.166 HD
BRANCH  13  18
ATOM     18  C   UNL A   1      28.856  30.178  23.121  1.00  0.00     0.112 C 
ATOM     19  C   UNL A   1      29.055  30.758  21.711  1.00  0.00     0.140 C 
ATOM     20  C   UNL A   1      28.979  32.266  21.977  1.00  0.00     0.034 C 
ATOM     21  C   UNL A   1      28.019  32.432  23.165  1.00  0.00     0.005 C 
ATOM     22  C   UNL A   1      27.702  31.022  23.662  1.00  0.00     0.028 C 
BRANCH  19  23
ATOM     23  O   UNL A   1      27.961  30.396  20.863  1.00  0.00    -0.379 OA
ATOM     24  C   UNL A   1      27.760  31.339  19.819  1.00  0.00     0.195 C 
ENDBRANCH  19  23
ENDBRANCH  13  18
ENDBRANCH  10  12
BRANCH  10  25
ATOM     25  C   UNL A   1      31.658  29.471  25.121  1.00  0.00     0.422 C 
ATOM     26  F   UNL A   1      30.928  30.601  24.971  1.00  0.00    -0.168 F 
ATOM     27  F   UNL A   1      31.145  28.828  26.197  1.00  0.00    -0.168 F 
ATOM     28  F   UNL A   1      32.894  29.866  25.514  1.00  0.00    -0.168 F 
ENDBRANCH  10  25
ENDBRANCH   8  10
ENDBRANCH   7   8
ENDBRANCH   6   7
ENDBRANCH   5   6
ENDBRANCH   4   5
ENDBRANCH   3   4
ENDBRANCH   2   3
ENDBRANCH   1   2
BRANCH   1  29
ATOM     29  C   UNL A   1      35.018  20.187  24.833  1.00  0.00     0.188 C 
BRANCH  29  30
ATOM     30  C   UNL A   1      36.383  20.856  25.083  1.00  0.00     0.188 C 
BRANCH  30  31
ATOM     31  O   UNL A   1      37.606  20.339  24.552  1.00  0.00    -0.376 OA
BRANCH  31  32
ATOM     32  C   UNL A   1      38.694  20.002  25.394  1.00  0.00     0.202 C 
BRANCH  32  33
ATOM     33  C   UNL A   1      39.477  21.164  26.022  1.00  0.00     0.261 C 
BRANCH  33  34
ATOM     34  O   UNL A   1      40.524  20.801  26.929  1.00  0.00    -0.460 OA
BRANCH  34  35
ATOM     35  C   UNL A   1      41.787  21.046  26.500  1.00  0.00     0.338 C 
ATOM     36  O   UNL A   1      42.368  20.520  25.566  1.00  0.00    -0.246 OA
BRANCH  35  37
ATOM     37  C   UNL A   1      42.334  22.184  27.270  1.00  0.00     0.060 A 
ATOM     38  C   UNL A   1      43.698  22.492  27.156  1.00  0.00     0.016 A 
ATOM     39  C   UNL A   1      41.505  22.946  28.097  1.00  0.00     0.016 A 
ATOM     40  C   UNL A   1      44.241  23.554  27.879  1.00  0.00     0.010 A 
ATOM     41  C   UNL A   1      42.057  23.981  28.853  1.00  0.00     0.010 A 
ATOM     42  C   UNL A   1      43.431  24.269  28.768  1.00  0.00    -0.014 A 
BRANCH  42  43
ATOM     43  C   UNL A   1      44.042  25.135  29.802  1.00  0.00     0.031 A 
ATOM     44  C   UNL A   1      44.305  26.568  29.434  1.00  0.00     0.074 A 
ATOM     45  C   UNL A   1      44.393  24.660  31.008  1.00  0.00     0.049 A 
ATOM     46  N   UNL A   1      44.968  27.483  30.088  1.00  0.00    -0.248 NA
ATOM     47  C   UNL A   1      43.750  27.027  28.148  1.00  0.00     0.031 C 
ATOM     48  C   UNL A   1      44.130  23.310  31.501  1.00  0.00     0.029 A 
ATOM     49  N   UNL A   1      45.074  25.268  32.035  1.00  0.00    -0.354 N 
ATOM     50  C   UNL A   1      44.927  28.618  29.287  1.00  0.00     0.074 A 
ATOM     51  C   UNL A   1      44.185  28.276  28.095  1.00  0.00     0.031 C 
ATOM     52  C   UNL A   1      44.670  23.183  32.727  1.00  0.00     0.029 A 
ATOM     53  C   UNL A   1      45.353  24.426  33.084  1.00  0.00     0.049 A 
ATOM     54  H   UNL A   1      45.338  26.217  32.019  1.00  0.00     0.167 HD
ATOM     55  C   UNL A   1      45.470  29.835  29.519  1.00  0.00     0.031 A 
ATOM     56  C   UNL A   1      46.107  24.628  34.184  1.00  0.00     0.031 A 
ATOM     57  C   UNL A   1      46.232  30.158  30.691  1.00  0.00     0.049 A 
ATOM     58  C   UNL A   1      46.781  25.963  34.381  1.00  0.00     0.074 A 
ATOM     59  C   UNL A   1      46.833  31.359  31.021  1.00  0.00     0.029 A 
ATOM     60  N   UNL A   1      46.504  29.272  31.722  1.00  0.00    -0.354 N 
ATOM     61  N   UNL A   1      46.733  27.030  33.618  1.00  0.00    -0.248 NA
ATOM     62  C   UNL A   1      47.609  26.123  35.586  1.00  0.00     0.031 C 
ATOM     63  C   UNL A   1      47.514  31.183  32.230  1.00  0.00     0.029 A 
ATOM     64  C   UNL A   1      47.282  29.892  32.681  1.00  0.00     0.049 A 
ATOM     65  H   UNL A   1      46.190  28.340  31.764  1.00  0.00     0.167 HD
ATOM     66  C   UNL A   1      47.492  27.998  34.270  1.00  0.00     0.074 A 
ATOM     67  C   UNL A   1      47.990  27.391  35.487  1.00  0.00     0.031 C 
ATOM     68  C   UNL A   1      47.745  29.277  33.898  1.00  0.00     0.031 A 
BRANCH  55  69
ATOM     69  C   UNL A   1      45.297  30.883  28.455  1.00  0.00    -0.014 A 
ATOM     70  C   UNL A   1      46.161  30.948  27.348  1.00  0.00     0.010 A 
ATOM     71  C   UNL A   1      44.242  31.808  28.557  1.00  0.00     0.010 A 
ATOM     72  C   UNL A   1      45.995  31.942  26.380  1.00  0.00     0.020 A 
ATOM     73  C   UNL A   1      44.056  32.786  27.578  1.00  0.00     0.020 A 
ATOM     74  C   UNL A   1      44.945  32.857  26.504  1.00  0.00     0.054 A 
BRANCH  74  75
ATOM     75  S   UNL A   1      44.740  34.125  25.224  1.00  0.00     0.124 S 
ATOM     76  O   UNL A   1      43.715  34.983  25.812  1.00  0.00    -0.237 OA
ATOM     77  O   UNL A   1      46.075  34.711  25.137  1.00  0.00    -0.237 OA
ATOM     78  O   UNL A   1      44.318  33.368  24.049  1.00  0.00    -0.744 OA
ENDBRANCH  74  75
ENDBRANCH  55  69
BRANCH  56  79
ATOM     79  C   UNL A   1      46.297  23.528  35.170  1.00  0.00    -0.014 A 
ATOM     80  C   UNL A   1      45.455  23.419  36.292  1.00  0.00     0.010 A 
ATOM     81  C   UNL A   1      47.324  22.583  34.995  1.00  0.00     0.010 A 
ATOM     82  C   UNL A   1      45.645  22.395  37.224  1.00  0.00     0.020 A 
ATOM     83  C   UNL A   1      47.502  21.543  35.912  1.00  0.00     0.020 A 
ATOM     84  C   UNL A   1      46.667  21.462  37.027  1.00  0.00     0.054 A 
BRANCH  84  85
ATOM     85  S   UNL A   1      46.860  20.110  38.223  1.00  0.00     0.124 S 
ATOM     86  O   UNL A   1      46.310  18.975  37.489  1.00  0.00    -0.237 OA
ATOM     87  O   UNL A   1      48.304  20.085  38.440  1.00  0.00    -0.237 OA
ATOM     88  O   UNL A   1      46.072  20.556  39.370  1.00  0.00    -0.744 OA
ENDBRANCH  84  85
ENDBRANCH  56  79
BRANCH  68  89
ATOM     89  C   UNL A   1      48.541  30.144  34.837  1.00  0.00    -0.014 A 
ATOM     90  C   UNL A   1      49.941  30.053  34.909  1.00  0.00     0.010 A 
ATOM     91  C   UNL A   1      47.878  31.156  35.558  1.00  0.00     0.010 A 
ATOM     92  C   UNL A   1      50.665  30.962  35.686  1.00  0.00     0.020 A 
ATOM     93  C   UNL A   1      48.600  32.080  36.315  1.00  0.00     0.020 A 
ATOM     94  C   UNL A   1      49.990  31.975  36.376  1.00  0.00     0.054 A 
BRANCH  94  95
ATOM     95  S   UNL A   1      50.960  33.203  37.296  1.00  0.00     0.124 S 
ATOM     96  O   UNL A   1      50.842  32.719  38.668  1.00  0.00    -0.237 OA
ATOM     97  O   UNL A   1      52.286  33.077  36.696  1.00  0.00    -0.237 OA
ATOM     98  O   UNL A   1      50.276  34.465  37.019  1.00  0.00    -0.744 OA
ENDBRANCH  94  95
ENDBRANCH  68  89
ENDBRANCH  42  43
ENDBRANCH  35  37
ENDBRANCH  34  35
ENDBRANCH  33  34
ENDBRANCH  32  33
ENDBRANCH  31  32
ENDBRANCH  30  31
ENDBRANCH  29  30
ENDBRANCH   1  29
TORSDOF 27
ENDMDL
