MODEL 1
REMARK VINA RESULT:      -9.1      0.000      0.000
REMARK SMILES COc1ccc(C[C@H](C(=O)Nc2ccccc2)[C@@H](C)C(=O)OCCOCCOCCOCCOC(=O)c2ccc(-c3c4nc(c(-c5ccc(S(=O)(=O)[O-])cc5)c5ccc([nH]5)c(-c5ccc(S(=O)(=O)[O-])cc5)c5nc(c(-c6ccc(S(=O)(=O)[O-])cc6)c6ccc3[nH]6)C=C5)C=C4)cc2)cc1
REMARK SMILES IDX 27 1 26 2 25 3 24 4 23 5 22 6 20 7 21 8 18 9 19 10 8 11 7 12
REMARK SMILES IDX 6 13 3 14 4 15 98 16 5 17 97 18 2 19 1 20 9 21 10 22 11 23
REMARK SMILES IDX 12 25 13 26 17 27 14 28 16 29 15 30 28 31 29 32 30 33 31 34
REMARK SMILES IDX 32 35 33 36 34 37 35 38 36 39 37 40 38 41 96 42 39 43 95 44
REMARK SMILES IDX 40 45 41 46 42 47 89 48 43 49 94 50 88 51 90 52 44 53 93 54
REMARK SMILES IDX 87 55 86 56 45 58 75 59 56 60 74 61 57 62 60 63 73 64 91 65
REMARK SMILES IDX 58 66 59 67 72 69 92 70 61 71 46 72 47 73 55 74 48 75 54 76
REMARK SMILES IDX 49 77 50 78 51 79 52 80 53 81 76 82 77 83 85 84 78 85 84 86
REMARK SMILES IDX 79 87 80 88 81 89 82 90 83 91 62 92 63 93 71 94 64 95 70 96
REMARK SMILES IDX 65 97 66 98 67 99 68 100 69 101
REMARK H PARENT 11 24 90 57 60 68
REMARK Flexibility Score: inf
ROOT
ATOM      1  C   UNL A   1      41.678  23.183  26.688  1.00  0.00     0.188 C 
ENDROOT
BRANCH   1   2
ATOM      2  C   UNL A   1      40.319  23.526  27.294  1.00  0.00     0.188 C 
BRANCH   2   3
ATOM      3  O   UNL A   1      39.518  24.517  26.668  1.00  0.00    -0.376 OA
BRANCH   3   4
ATOM      4  C   UNL A   1      38.109  24.360  26.734  1.00  0.00     0.202 C 
BRANCH   4   5
ATOM      5  C   UNL A   1      37.454  23.322  25.806  1.00  0.00     0.261 C 
BRANCH   5   6
ATOM      6  O   UNL A   1      36.087  23.584  25.396  1.00  0.00    -0.463 OA
BRANCH   6   7
ATOM      7  C   UNL A   1      35.179  22.588  25.590  1.00  0.00     0.309 C 
ATOM      8  O   UNL A   1      35.012  22.008  26.658  1.00  0.00    -0.252 OA
BRANCH   7   9
ATOM      9  C   UNL A   1      34.472  22.128  24.307  1.00  0.00     0.109 C 
ATOM     10  C   UNL A   1      35.305  22.740  23.160  1.00  0.00     0.021 C 
BRANCH   9  11
ATOM     11  C   UNL A   1      32.959  22.411  24.122  1.00  0.00     0.097 C 
BRANCH  11  12
ATOM     12  C   UNL A   1      32.341  23.817  23.912  1.00  0.00     0.050 C 
BRANCH  12  13
ATOM     13  C   UNL A   1      32.941  25.152  24.291  1.00  0.00    -0.047 A 
ATOM     14  C   UNL A   1      33.544  27.754  25.229  1.00  0.00     0.118 A 
ATOM     15  C   UNL A   1      33.749  27.407  23.894  1.00  0.00     0.046 A 
ATOM     16  C   UNL A   1      33.205  26.757  26.130  1.00  0.00     0.046 A 
ATOM     17  C   UNL A   1      33.465  26.110  23.430  1.00  0.00     0.007 A 
ATOM     18  C   UNL A   1      32.945  25.470  25.660  1.00  0.00     0.007 A 
BRANCH  14  19
ATOM     19  O   UNL A   1      33.708  29.071  25.557  1.00  0.00    -0.497 OA
ATOM     20  C   UNL A   1      33.063  29.463  26.771  1.00  0.00     0.278 C 
ENDBRANCH  14  19
ENDBRANCH  12  13
ENDBRANCH  11  12
BRANCH  11  21
ATOM     21  C   UNL A   1      32.126  21.678  25.197  1.00  0.00     0.228 C 
ATOM     22  O   UNL A   1      31.514  22.331  26.050  1.00  0.00    -0.274 OA
ATOM     23  N   UNL A   1      31.968  20.318  25.219  1.00  0.00    -0.326 N 
ATOM     24  H   UNL A   1      31.308  19.980  25.867  1.00  0.00     0.169 HD
BRANCH  23  25
ATOM     25  C   UNL A   1      32.607  19.341  24.453  1.00  0.00     0.041 A 
ATOM     26  C   UNL A   1      33.792  18.782  24.917  1.00  0.00     0.026 A 
ATOM     27  C   UNL A   1      32.109  18.977  23.199  1.00  0.00     0.026 A 
ATOM     28  C   UNL A   1      34.392  17.747  24.196  1.00  0.00     0.002 A 
ATOM     29  C   UNL A   1      32.689  17.923  22.495  1.00  0.00     0.002 A 
ATOM     30  C   UNL A   1      33.821  17.294  23.006  1.00  0.00     0.000 A 
ENDBRANCH  23  25
ENDBRANCH  11  21
ENDBRANCH   9  11
ENDBRANCH   7   9
ENDBRANCH   6   7
ENDBRANCH   5   6
ENDBRANCH   4   5
ENDBRANCH   3   4
ENDBRANCH   2   3
ENDBRANCH   1   2
BRANCH   1  31
ATOM     31  O   UNL A   1      41.694  21.973  25.978  1.00  0.00    -0.377 OA
BRANCH  31  32
ATOM     32  C   UNL A   1      40.587  21.112  26.109  1.00  0.00     0.188 C 
BRANCH  32  33
ATOM     33  C   UNL A   1      40.757  19.634  26.503  1.00  0.00     0.188 C 
BRANCH  33  34
ATOM     34  O   UNL A   1      41.526  18.749  25.685  1.00  0.00    -0.376 OA
BRANCH  34  35
ATOM     35  C   UNL A   1      42.747  18.180  26.153  1.00  0.00     0.202 C 
BRANCH  35  36
ATOM     36  C   UNL A   1      44.041  18.593  25.468  1.00  0.00     0.261 C 
BRANCH  36  37
ATOM     37  O   UNL A   1      43.874  19.896  24.922  1.00  0.00    -0.460 OA
BRANCH  37  38
ATOM     38  C   UNL A   1      44.964  20.423  24.328  1.00  0.00     0.338 C 
ATOM     39  O   UNL A   1      45.544  20.009  23.338  1.00  0.00    -0.246 OA
BRANCH  38  40
ATOM     40  C   UNL A   1      45.139  21.761  24.913  1.00  0.00     0.060 A 
ATOM     41  C   UNL A   1      44.860  22.864  24.095  1.00  0.00     0.016 A 
ATOM     42  C   UNL A   1      45.417  21.920  26.276  1.00  0.00     0.016 A 
ATOM     43  C   UNL A   1      44.862  24.139  24.641  1.00  0.00     0.010 A 
ATOM     44  C   UNL A   1      45.453  23.197  26.814  1.00  0.00     0.010 A 
ATOM     45  C   UNL A   1      45.207  24.303  25.986  1.00  0.00    -0.014 A 
BRANCH  45  46
ATOM     46  C   UNL A   1      45.629  25.629  26.455  1.00  0.00     0.031 A 
ATOM     47  C   UNL A   1      44.543  26.530  26.964  1.00  0.00     0.074 A 
ATOM     48  C   UNL A   1      46.913  26.011  26.392  1.00  0.00     0.049 A 
ATOM     49  N   UNL A   1      44.615  27.769  27.359  1.00  0.00    -0.248 NA
ATOM     50  C   UNL A   1      43.185  25.953  27.023  1.00  0.00     0.031 C 
ATOM     51  C   UNL A   1      48.028  25.178  25.936  1.00  0.00     0.029 A 
ATOM     52  N   UNL A   1      47.488  27.214  26.695  1.00  0.00    -0.354 N 
ATOM     53  C   UNL A   1      43.316  28.119  27.706  1.00  0.00     0.074 A 
ATOM     54  C   UNL A   1      42.471  26.978  27.455  1.00  0.00     0.031 C 
ATOM     55  C   UNL A   1      49.156  25.911  25.970  1.00  0.00     0.029 A 
ATOM     56  C   UNL A   1      48.831  27.265  26.412  1.00  0.00     0.049 A 
ATOM     57  H   UNL A   1      46.988  27.970  27.079  1.00  0.00     0.167 HD
ATOM     58  C   UNL A   1      42.873  29.300  28.189  1.00  0.00     0.031 A 
ATOM     59  C   UNL A   1      49.681  28.308  26.478  1.00  0.00     0.031 A 
ATOM     60  C   UNL A   1      43.729  30.433  28.387  1.00  0.00     0.049 A 
ATOM     61  C   UNL A   1      49.146  29.637  26.947  1.00  0.00     0.074 A 
ATOM     62  C   UNL A   1      43.405  31.680  28.882  1.00  0.00     0.029 A 
ATOM     63  N   UNL A   1      45.082  30.456  28.077  1.00  0.00    -0.354 N 
ATOM     64  N   UNL A   1      47.926  29.949  27.325  1.00  0.00    -0.248 NA
ATOM     65  C   UNL A   1      50.098  30.753  27.002  1.00  0.00     0.031 C 
ATOM     66  C   UNL A   1      44.549  32.481  28.807  1.00  0.00     0.029 A 
ATOM     67  C   UNL A   1      45.602  31.710  28.335  1.00  0.00     0.049 A 
ATOM     68  H   UNL A   1      45.595  29.692  27.727  1.00  0.00     0.167 HD
ATOM     69  C   UNL A   1      47.971  31.292  27.684  1.00  0.00     0.074 A 
ATOM     70  C   UNL A   1      49.342  31.724  27.497  1.00  0.00     0.031 C 
ATOM     71  C   UNL A   1      46.974  32.099  28.128  1.00  0.00     0.031 A 
BRANCH  58  72
ATOM     72  C   UNL A   1      41.403  29.423  28.475  1.00  0.00    -0.014 A 
ATOM     73  C   UNL A   1      40.930  29.666  29.778  1.00  0.00     0.010 A 
ATOM     74  C   UNL A   1      40.480  29.308  27.422  1.00  0.00     0.010 A 
ATOM     75  C   UNL A   1      39.558  29.766  30.025  1.00  0.00     0.020 A 
ATOM     76  C   UNL A   1      39.109  29.436  27.659  1.00  0.00     0.020 A 
ATOM     77  C   UNL A   1      38.656  29.654  28.962  1.00  0.00     0.054 A 
BRANCH  77  78
ATOM     78  S   UNL A   1      36.885  29.834  29.305  1.00  0.00     0.124 S 
ATOM     79  O   UNL A   1      36.767  29.214  30.622  1.00  0.00    -0.237 OA
ATOM     80  O   UNL A   1      36.702  31.284  29.274  1.00  0.00    -0.237 OA
ATOM     81  O   UNL A   1      36.244  29.104  28.215  1.00  0.00    -0.744 OA
ENDBRANCH  77  78
ENDBRANCH  58  72
BRANCH  59  82
ATOM     82  C   UNL A   1      51.102  28.143  26.066  1.00  0.00    -0.014 A 
ATOM     83  C   UNL A   1      51.475  28.246  24.715  1.00  0.00     0.010 A 
ATOM     84  C   UNL A   1      52.095  27.885  27.029  1.00  0.00     0.010 A 
ATOM     85  C   UNL A   1      52.810  28.077  24.333  1.00  0.00     0.020 A 
ATOM     86  C   UNL A   1      53.435  27.745  26.656  1.00  0.00     0.020 A 
ATOM     87  C   UNL A   1      53.782  27.831  25.307  1.00  0.00     0.054 A 
BRANCH  87  88
ATOM     88  S   UNL A   1      55.514  27.662  24.791  1.00  0.00     0.124 S 
ATOM     89  O   UNL A   1      55.682  28.814  23.911  1.00  0.00    -0.237 OA
ATOM     90  O   UNL A   1      56.227  27.727  26.063  1.00  0.00    -0.237 OA
ATOM     91  O   UNL A   1      55.549  26.359  24.131  1.00  0.00    -0.744 OA
ENDBRANCH  87  88
ENDBRANCH  59  82
BRANCH  71  92
ATOM     92  C   UNL A   1      47.337  33.521  28.460  1.00  0.00    -0.014 A 
ATOM     93  C   UNL A   1      47.513  33.936  29.791  1.00  0.00     0.010 A 
ATOM     94  C   UNL A   1      47.578  34.434  27.416  1.00  0.00     0.010 A 
ATOM     95  C   UNL A   1      47.897  35.247  30.074  1.00  0.00     0.020 A 
ATOM     96  C   UNL A   1      47.996  35.736  27.694  1.00  0.00     0.020 A 
ATOM     97  C   UNL A   1      48.139  36.138  29.023  1.00  0.00     0.054 A 
BRANCH  97  98
ATOM     98  S   UNL A   1      48.688  37.820  29.418  1.00  0.00     0.124 S 
ATOM     99  O   UNL A   1      49.203  37.660  30.774  1.00  0.00    -0.237 OA
ATOM    100  O   UNL A   1      49.691  38.078  28.388  1.00  0.00    -0.237 OA
ATOM    101  O   UNL A   1      47.468  38.618  29.305  1.00  0.00    -0.744 OA
ENDBRANCH  97  98
ENDBRANCH  71  92
ENDBRANCH  45  46
ENDBRANCH  38  40
ENDBRANCH  37  38
ENDBRANCH  36  37
ENDBRANCH  35  36
ENDBRANCH  34  35
ENDBRANCH  33  34
ENDBRANCH  32  33
ENDBRANCH  31  32
ENDBRANCH   1  31
TORSDOF 29
ENDMDL
MODEL 2
REMARK VINA RESULT:      -8.9      1.484      8.554
REMARK SMILES COc1ccc(C[C@H](C(=O)Nc2ccccc2)[C@@H](C)C(=O)OCCOCCOCCOCCOC(=O)c2ccc(-c3c4nc(c(-c5ccc(S(=O)(=O)[O-])cc5)c5ccc([nH]5)c(-c5ccc(S(=O)(=O)[O-])cc5)c5nc(c(-c6ccc(S(=O)(=O)[O-])cc6)c6ccc3[nH]6)C=C5)C=C4)cc2)cc1
REMARK SMILES IDX 27 1 26 2 25 3 24 4 23 5 22 6 20 7 21 8 18 9 19 10 8 11 7 12
REMARK SMILES IDX 6 13 3 14 4 15 98 16 5 17 97 18 2 19 1 20 9 21 10 22 11 23
REMARK SMILES IDX 12 25 13 26 17 27 14 28 16 29 15 30 28 31 29 32 30 33 31 34
REMARK SMILES IDX 32 35 33 36 34 37 35 38 36 39 37 40 38 41 96 42 39 43 95 44
REMARK SMILES IDX 40 45 41 46 42 47 89 48 43 49 94 50 88 51 90 52 44 53 93 54
REMARK SMILES IDX 87 55 86 56 45 58 75 59 56 60 74 61 57 62 60 63 73 64 91 65
REMARK SMILES IDX 58 66 59 67 72 69 92 70 61 71 46 72 47 73 55 74 48 75 54 76
REMARK SMILES IDX 49 77 50 78 51 79 52 80 53 81 76 82 77 83 85 84 78 85 84 86
REMARK SMILES IDX 79 87 80 88 81 89 82 90 83 91 62 92 63 93 71 94 64 95 70 96
REMARK SMILES IDX 65 97 66 98 67 99 68 100 69 101
REMARK H PARENT 11 24 90 57 60 68
REMARK Flexibility Score: inf
ROOT
ATOM      1  C   UNL A   1      41.006  23.607  26.668  1.00  0.00     0.188 C 
ENDROOT
BRANCH   1   2
ATOM      2  C   UNL A   1      39.528  23.779  27.011  1.00  0.00     0.188 C 
BRANCH   2   3
ATOM      3  O   UNL A   1      38.631  24.202  25.996  1.00  0.00    -0.376 OA
BRANCH   3   4
ATOM      4  C   UNL A   1      37.277  23.790  26.104  1.00  0.00     0.202 C 
BRANCH   4   5
ATOM      5  C   UNL A   1      36.859  22.489  25.397  1.00  0.00     0.261 C 
BRANCH   5   6
ATOM      6  O   UNL A   1      35.541  22.471  24.789  1.00  0.00    -0.463 OA
BRANCH   6   7
ATOM      7  C   UNL A   1      35.365  23.218  23.665  1.00  0.00     0.309 C 
ATOM      8  O   UNL A   1      36.127  23.203  22.703  1.00  0.00    -0.252 OA
BRANCH   7   9
ATOM      9  C   UNL A   1      34.201  24.216  23.753  1.00  0.00     0.109 C 
ATOM     10  C   UNL A   1      33.897  24.331  25.262  1.00  0.00     0.021 C 
BRANCH   9  11
ATOM     11  C   UNL A   1      32.910  23.962  22.932  1.00  0.00     0.097 C 
BRANCH  11  12
ATOM     12  C   UNL A   1      32.329  22.563  22.608  1.00  0.00     0.050 C 
BRANCH  12  13
ATOM     13  C   UNL A   1      32.505  21.287  23.399  1.00  0.00    -0.047 A 
ATOM     14  C   UNL A   1      32.321  18.758  24.658  1.00  0.00     0.118 A 
ATOM     15  C   UNL A   1      32.550  19.915  25.403  1.00  0.00     0.046 A 
ATOM     16  C   UNL A   1      32.359  18.839  23.276  1.00  0.00     0.046 A 
ATOM     17  C   UNL A   1      32.657  21.170  24.777  1.00  0.00     0.007 A 
ATOM     18  C   UNL A   1      32.485  20.088  22.667  1.00  0.00     0.007 A 
BRANCH  14  19
ATOM     19  O   UNL A   1      32.086  17.608  25.360  1.00  0.00    -0.497 OA
ATOM     20  C   UNL A   1      32.929  16.512  24.999  1.00  0.00     0.278 C 
ENDBRANCH  14  19
ENDBRANCH  12  13
ENDBRANCH  11  12
BRANCH  11  21
ATOM     21  C   UNL A   1      32.913  24.793  21.630  1.00  0.00     0.228 C 
ATOM     22  O   UNL A   1      33.263  24.266  20.567  1.00  0.00    -0.274 OA
ATOM     23  N   UNL A   1      32.477  26.090  21.571  1.00  0.00    -0.326 N 
ATOM     24  H   UNL A   1      32.400  26.468  20.665  1.00  0.00     0.169 HD
BRANCH  23  25
ATOM     25  C   UNL A   1      32.125  26.952  22.611  1.00  0.00     0.041 A 
ATOM     26  C   UNL A   1      30.783  27.113  22.936  1.00  0.00     0.026 A 
ATOM     27  C   UNL A   1      33.098  27.705  23.275  1.00  0.00     0.026 A 
ATOM     28  C   UNL A   1      30.431  27.909  24.028  1.00  0.00     0.002 A 
ATOM     29  C   UNL A   1      32.750  28.474  24.384  1.00  0.00     0.002 A 
ATOM     30  C   UNL A   1      31.416  28.559  24.772  1.00  0.00     0.000 A 
ENDBRANCH  23  25
ENDBRANCH  11  21
ENDBRANCH   9  11
ENDBRANCH   7   9
ENDBRANCH   6   7
ENDBRANCH   5   6
ENDBRANCH   4   5
ENDBRANCH   3   4
ENDBRANCH   2   3
ENDBRANCH   1   2
BRANCH   1  31
ATOM     31  O   UNL A   1      41.338  22.323  26.210  1.00  0.00    -0.377 OA
BRANCH  31  32
ATOM     32  C   UNL A   1      40.409  21.285  26.419  1.00  0.00     0.188 C 
BRANCH  32  33
ATOM     33  C   UNL A   1      40.862  19.859  26.777  1.00  0.00     0.188 C 
BRANCH  33  34
ATOM     34  O   UNL A   1      41.449  19.012  25.786  1.00  0.00    -0.376 OA
BRANCH  34  35
ATOM     35  C   UNL A   1      42.585  18.203  26.080  1.00  0.00     0.202 C 
BRANCH  35  36
ATOM     36  C   UNL A   1      43.922  18.589  25.465  1.00  0.00     0.261 C 
BRANCH  36  37
ATOM     37  O   UNL A   1      43.875  19.961  25.090  1.00  0.00    -0.460 OA
BRANCH  37  38
ATOM     38  C   UNL A   1      45.050  20.502  24.713  1.00  0.00     0.338 C 
ATOM     39  O   UNL A   1      45.860  20.046  23.924  1.00  0.00    -0.246 OA
BRANCH  38  40
ATOM     40  C   UNL A   1      45.030  21.892  25.196  1.00  0.00     0.060 A 
ATOM     41  C   UNL A   1      44.606  22.881  24.299  1.00  0.00     0.016 A 
ATOM     42  C   UNL A   1      45.273  22.189  26.543  1.00  0.00     0.016 A 
ATOM     43  C   UNL A   1      44.425  24.180  24.748  1.00  0.00     0.010 A 
ATOM     44  C   UNL A   1      45.124  23.495  26.985  1.00  0.00     0.010 A 
ATOM     45  C   UNL A   1      44.732  24.491  26.077  1.00  0.00    -0.014 A 
BRANCH  45  46
ATOM     46  C   UNL A   1      44.960  25.894  26.444  1.00  0.00     0.031 A 
ATOM     47  C   UNL A   1      46.366  26.397  26.302  1.00  0.00     0.074 A 
ATOM     48  C   UNL A   1      43.963  26.659  26.912  1.00  0.00     0.049 A 
ATOM     49  N   UNL A   1      46.865  27.556  26.626  1.00  0.00    -0.248 NA
ATOM     50  C   UNL A   1      47.345  25.456  25.723  1.00  0.00     0.031 C 
ATOM     51  C   UNL A   1      42.565  26.246  27.050  1.00  0.00     0.029 A 
ATOM     52  N   UNL A   1      43.987  27.944  27.380  1.00  0.00    -0.354 N 
ATOM     53  C   UNL A   1      48.213  27.480  26.297  1.00  0.00     0.074 A 
ATOM     54  C   UNL A   1      48.463  26.160  25.773  1.00  0.00     0.031 C 
ATOM     55  C   UNL A   1      41.867  27.260  27.593  1.00  0.00     0.029 A 
ATOM     56  C   UNL A   1      42.777  28.370  27.870  1.00  0.00     0.049 A 
ATOM     57  H   UNL A   1      44.793  28.509  27.366  1.00  0.00     0.167 HD
ATOM     58  C   UNL A   1      49.158  28.435  26.430  1.00  0.00     0.031 A 
ATOM     59  C   UNL A   1      42.465  29.519  28.500  1.00  0.00     0.031 A 
ATOM     60  C   UNL A   1      48.890  29.725  26.997  1.00  0.00     0.049 A 
ATOM     61  C   UNL A   1      43.554  30.539  28.706  1.00  0.00     0.074 A 
ATOM     62  C   UNL A   1      49.757  30.784  27.175  1.00  0.00     0.029 A 
ATOM     63  N   UNL A   1      47.657  30.119  27.497  1.00  0.00    -0.354 N 
ATOM     64  N   UNL A   1      44.817  30.483  28.345  1.00  0.00    -0.248 NA
ATOM     65  C   UNL A   1      43.181  31.777  29.400  1.00  0.00     0.031 C 
ATOM     66  C   UNL A   1      49.065  31.795  27.847  1.00  0.00     0.029 A 
ATOM     67  C   UNL A   1      47.748  31.394  28.020  1.00  0.00     0.049 A 
ATOM     68  H   UNL A   1      46.839  29.571  27.482  1.00  0.00     0.167 HD
ATOM     69  C   UNL A   1      45.383  31.688  28.749  1.00  0.00     0.074 A 
ATOM     70  C   UNL A   1      44.318  32.459  29.362  1.00  0.00     0.031 C 
ATOM     71  C   UNL A   1      46.662  32.123  28.628  1.00  0.00     0.031 A 
BRANCH  58  72
ATOM     72  C   UNL A   1      50.557  28.089  26.006  1.00  0.00    -0.014 A 
ATOM     73  C   UNL A   1      51.012  28.352  24.701  1.00  0.00     0.010 A 
ATOM     74  C   UNL A   1      51.437  27.503  26.932  1.00  0.00     0.010 A 
ATOM     75  C   UNL A   1      52.314  28.012  24.323  1.00  0.00     0.020 A 
ATOM     76  C   UNL A   1      52.748  27.188  26.567  1.00  0.00     0.020 A 
ATOM     77  C   UNL A   1      53.175  27.435  25.261  1.00  0.00     0.054 A 
BRANCH  77  78
ATOM     78  S   UNL A   1      54.873  27.047  24.756  1.00  0.00     0.124 S 
ATOM     79  O   UNL A   1      55.508  28.362  24.794  1.00  0.00    -0.237 OA
ATOM     80  O   UNL A   1      55.304  26.111  25.793  1.00  0.00    -0.237 OA
ATOM     81  O   UNL A   1      54.716  26.469  23.425  1.00  0.00    -0.744 OA
ENDBRANCH  77  78
ENDBRANCH  58  72
BRANCH  59  82
ATOM     82  C   UNL A   1      41.081  29.746  29.000  1.00  0.00    -0.014 A 
ATOM     83  C   UNL A   1      39.984  29.713  28.122  1.00  0.00     0.010 A 
ATOM     84  C   UNL A   1      40.851  29.995  30.366  1.00  0.00     0.010 A 
ATOM     85  C   UNL A   1      38.688  29.941  28.596  1.00  0.00     0.020 A 
ATOM     86  C   UNL A   1      39.555  30.194  30.849  1.00  0.00     0.020 A 
ATOM     87  C   UNL A   1      38.482  30.176  29.958  1.00  0.00     0.054 A 
BRANCH  87  88
ATOM     88  S   UNL A   1      36.786  30.422  30.555  1.00  0.00     0.124 S 
ATOM     89  O   UNL A   1      36.050  30.616  29.311  1.00  0.00    -0.237 OA
ATOM     90  O   UNL A   1      36.519  29.172  31.262  1.00  0.00    -0.237 OA
ATOM     91  O   UNL A   1      36.892  31.602  31.412  1.00  0.00    -0.744 OA
ENDBRANCH  87  88
ENDBRANCH  59  82
BRANCH  71  92
ATOM     92  C   UNL A   1      46.973  33.500  29.149  1.00  0.00    -0.014 A 
ATOM     93  C   UNL A   1      47.458  33.692  30.454  1.00  0.00     0.010 A 
ATOM     94  C   UNL A   1      46.851  34.608  28.289  1.00  0.00     0.010 A 
ATOM     95  C   UNL A   1      47.786  34.972  30.901  1.00  0.00     0.020 A 
ATOM     96  C   UNL A   1      47.211  35.885  28.722  1.00  0.00     0.020 A 
ATOM     97  C   UNL A   1      47.664  36.060  30.030  1.00  0.00     0.054 A 
BRANCH  97  98
ATOM     98  S   UNL A   1      48.148  37.704  30.620  1.00  0.00     0.124 S 
ATOM     99  O   UNL A   1      49.150  37.381  31.631  1.00  0.00    -0.237 OA
ATOM    100  O   UNL A   1      48.658  38.340  29.408  1.00  0.00    -0.237 OA
ATOM    101  O   UNL A   1      46.902  38.269  31.135  1.00  0.00    -0.744 OA
ENDBRANCH  97  98
ENDBRANCH  71  92
ENDBRANCH  45  46
ENDBRANCH  38  40
ENDBRANCH  37  38
ENDBRANCH  36  37
ENDBRANCH  35  36
ENDBRANCH  34  35
ENDBRANCH  33  34
ENDBRANCH  32  33
ENDBRANCH  31  32
ENDBRANCH   1  31
TORSDOF 29
ENDMDL
MODEL 3
REMARK VINA RESULT:      -7.9      7.824     11.608
REMARK SMILES COc1ccc(C[C@H](C(=O)Nc2ccccc2)[C@@H](C)C(=O)OCCOCCOCCOCCOC(=O)c2ccc(-c3c4nc(c(-c5ccc(S(=O)(=O)[O-])cc5)c5ccc([nH]5)c(-c5ccc(S(=O)(=O)[O-])cc5)c5nc(c(-c6ccc(S(=O)(=O)[O-])cc6)c6ccc3[nH]6)C=C5)C=C4)cc2)cc1
REMARK SMILES IDX 27 1 26 2 25 3 24 4 23 5 22 6 20 7 21 8 18 9 19 10 8 11 7 12
REMARK SMILES IDX 6 13 3 14 4 15 98 16 5 17 97 18 2 19 1 20 9 21 10 22 11 23
REMARK SMILES IDX 12 25 13 26 17 27 14 28 16 29 15 30 28 31 29 32 30 33 31 34
REMARK SMILES IDX 32 35 33 36 34 37 35 38 36 39 37 40 38 41 96 42 39 43 95 44
REMARK SMILES IDX 40 45 41 46 42 47 89 48 43 49 94 50 88 51 90 52 44 53 93 54
REMARK SMILES IDX 87 55 86 56 45 58 75 59 56 60 74 61 57 62 60 63 73 64 91 65
REMARK SMILES IDX 58 66 59 67 72 69 92 70 61 71 46 72 47 73 55 74 48 75 54 76
REMARK SMILES IDX 49 77 50 78 51 79 52 80 53 81 76 82 77 83 85 84 78 85 84 86
REMARK SMILES IDX 79 87 80 88 81 89 82 90 83 91 62 92 63 93 71 94 64 95 70 96
REMARK SMILES IDX 65 97 66 98 67 99 68 100 69 101
REMARK H PARENT 11 24 90 57 60 68
REMARK Flexibility Score: inf
ROOT
ATOM      1  C   UNL A   1      40.522  23.713  27.086  1.00  0.00     0.188 C 
ENDROOT
BRANCH   1   2
ATOM      2  C   UNL A   1      39.296  24.611  27.240  1.00  0.00     0.188 C 
BRANCH   2   3
ATOM      3  O   UNL A   1      38.017  24.090  26.912  1.00  0.00    -0.376 OA
BRANCH   3   4
ATOM      4  C   UNL A   1      37.854  23.508  25.628  1.00  0.00     0.202 C 
BRANCH   4   5
ATOM      5  C   UNL A   1      38.030  21.985  25.498  1.00  0.00     0.261 C 
BRANCH   5   6
ATOM      6  O   UNL A   1      37.255  21.325  24.465  1.00  0.00    -0.463 OA
BRANCH   6   7
ATOM      7  C   UNL A   1      36.095  20.723  24.846  1.00  0.00     0.309 C 
ATOM      8  O   UNL A   1      35.939  19.507  24.905  1.00  0.00    -0.252 OA
BRANCH   7   9
ATOM      9  C   UNL A   1      34.925  21.694  25.052  1.00  0.00     0.109 C 
ATOM     10  C   UNL A   1      34.622  21.628  26.564  1.00  0.00     0.021 C 
BRANCH   9  11
ATOM     11  C   UNL A   1      33.634  21.529  24.208  1.00  0.00     0.097 C 
BRANCH  11  12
ATOM     12  C   UNL A   1      33.131  22.549  23.155  1.00  0.00     0.050 C 
BRANCH  12  13
ATOM     13  C   UNL A   1      32.902  24.031  23.344  1.00  0.00    -0.047 A 
ATOM     14  C   UNL A   1      32.200  26.769  23.192  1.00  0.00     0.118 A 
ATOM     15  C   UNL A   1      33.525  26.378  23.386  1.00  0.00     0.046 A 
ATOM     16  C   UNL A   1      31.208  25.805  23.250  1.00  0.00     0.046 A 
ATOM     17  C   UNL A   1      33.873  25.018  23.477  1.00  0.00     0.007 A 
ATOM     18  C   UNL A   1      31.565  24.461  23.360  1.00  0.00     0.007 A 
BRANCH  14  19
ATOM     19  O   UNL A   1      31.976  28.100  22.970  1.00  0.00    -0.497 OA
ATOM     20  C   UNL A   1      33.156  28.862  22.705  1.00  0.00     0.278 C 
ENDBRANCH  14  19
ENDBRANCH  12  13
ENDBRANCH  11  12
BRANCH  11  21
ATOM     21  C   UNL A   1      32.438  21.133  25.101  1.00  0.00     0.228 C 
ATOM     22  O   UNL A   1      31.781  22.012  25.672  1.00  0.00    -0.274 OA
ATOM     23  N   UNL A   1      32.013  19.840  25.248  1.00  0.00    -0.326 N 
ATOM     24  H   UNL A   1      31.162  19.728  25.732  1.00  0.00     0.169 HD
BRANCH  23  25
ATOM     25  C   UNL A   1      32.611  18.658  24.809  1.00  0.00     0.041 A 
ATOM     26  C   UNL A   1      32.795  18.454  23.446  1.00  0.00     0.026 A 
ATOM     27  C   UNL A   1      32.957  17.652  25.717  1.00  0.00     0.026 A 
ATOM     28  C   UNL A   1      33.466  17.312  23.006  1.00  0.00     0.002 A 
ATOM     29  C   UNL A   1      33.655  16.527  25.281  1.00  0.00     0.002 A 
ATOM     30  C   UNL A   1      33.927  16.368  23.925  1.00  0.00     0.000 A 
ENDBRANCH  23  25
ENDBRANCH  11  21
ENDBRANCH   9  11
ENDBRANCH   7   9
ENDBRANCH   6   7
ENDBRANCH   5   6
ENDBRANCH   4   5
ENDBRANCH   3   4
ENDBRANCH   2   3
ENDBRANCH   1   2
BRANCH   1  31
ATOM     31  O   UNL A   1      41.414  23.779  28.167  1.00  0.00    -0.377 OA
BRANCH  31  32
ATOM     32  C   UNL A   1      42.143  24.970  28.353  1.00  0.00     0.188 C 
BRANCH  32  33
ATOM     33  C   UNL A   1      43.658  24.954  28.621  1.00  0.00     0.188 C 
BRANCH  33  34
ATOM     34  O   UNL A   1      44.159  24.748  29.944  1.00  0.00    -0.376 OA
BRANCH  34  35
ATOM     35  C   UNL A   1      43.910  23.535  30.651  1.00  0.00     0.202 C 
BRANCH  35  36
ATOM     36  C   UNL A   1      44.501  23.381  32.044  1.00  0.00     0.261 C 
BRANCH  36  37
ATOM     37  O   UNL A   1      43.470  22.972  32.936  1.00  0.00    -0.460 OA
BRANCH  37  38
ATOM     38  C   UNL A   1      43.734  23.137  34.247  1.00  0.00     0.338 C 
ATOM     39  O   UNL A   1      44.372  22.397  34.976  1.00  0.00    -0.246 OA
BRANCH  38  40
ATOM     40  C   UNL A   1      43.371  24.528  34.563  1.00  0.00     0.060 A 
ATOM     41  C   UNL A   1      44.132  25.544  33.969  1.00  0.00     0.016 A 
ATOM     42  C   UNL A   1      42.215  24.820  35.298  1.00  0.00     0.016 A 
ATOM     43  C   UNL A   1      43.738  26.866  34.112  1.00  0.00     0.010 A 
ATOM     44  C   UNL A   1      41.841  26.144  35.468  1.00  0.00     0.010 A 
ATOM     45  C   UNL A   1      42.623  27.163  34.902  1.00  0.00    -0.014 A 
BRANCH  45  46
ATOM     46  C   UNL A   1      42.455  28.531  35.408  1.00  0.00     0.031 A 
ATOM     47  C   UNL A   1      43.351  28.934  36.542  1.00  0.00     0.074 A 
ATOM     48  C   UNL A   1      41.523  29.350  34.897  1.00  0.00     0.049 A 
ATOM     49  N   UNL A   1      43.365  30.040  37.230  1.00  0.00    -0.248 NA
ATOM     50  C   UNL A   1      44.363  27.945  36.962  1.00  0.00     0.031 C 
ATOM     51  C   UNL A   1      40.637  29.036  33.775  1.00  0.00     0.029 A 
ATOM     52  N   UNL A   1      41.159  30.611  35.279  1.00  0.00    -0.354 N 
ATOM     53  C   UNL A   1      44.380  29.876  38.165  1.00  0.00     0.074 A 
ATOM     54  C   UNL A   1      44.942  28.562  37.978  1.00  0.00     0.031 C 
ATOM     55  C   UNL A   1      39.810  30.078  33.575  1.00  0.00     0.029 A 
ATOM     56  C   UNL A   1      40.088  31.107  34.575  1.00  0.00     0.049 A 
ATOM     57  H   UNL A   1      41.618  31.116  35.988  1.00  0.00     0.167 HD
ATOM     58  C   UNL A   1      44.797  30.753  39.103  1.00  0.00     0.031 A 
ATOM     59  C   UNL A   1      39.402  32.252  34.754  1.00  0.00     0.031 A 
ATOM     60  C   UNL A   1      44.188  32.038  39.297  1.00  0.00     0.049 A 
ATOM     61  C   UNL A   1      39.838  33.181  35.858  1.00  0.00     0.074 A 
ATOM     62  C   UNL A   1      44.527  33.022  40.203  1.00  0.00     0.029 A 
ATOM     63  N   UNL A   1      43.097  32.503  38.576  1.00  0.00    -0.354 N 
ATOM     64  N   UNL A   1      40.833  33.045  36.707  1.00  0.00    -0.248 NA
ATOM     65  C   UNL A   1      39.066  34.417  36.029  1.00  0.00     0.031 C 
ATOM     66  C   UNL A   1      43.595  34.057  40.077  1.00  0.00     0.029 A 
ATOM     67  C   UNL A   1      42.723  33.748  39.043  1.00  0.00     0.049 A 
ATOM     68  H   UNL A   1      42.656  32.019  37.842  1.00  0.00     0.167 HD
ATOM     69  C   UNL A   1      40.818  34.189  37.498  1.00  0.00     0.074 A 
ATOM     70  C   UNL A   1      39.729  35.013  37.011  1.00  0.00     0.031 C 
ATOM     71  C   UNL A   1      41.626  34.533  38.532  1.00  0.00     0.031 A 
BRANCH  58  72
ATOM     72  C   UNL A   1      45.916  30.321  40.007  1.00  0.00    -0.014 A 
ATOM     73  C   UNL A   1      47.203  30.881  39.897  1.00  0.00     0.010 A 
ATOM     74  C   UNL A   1      45.675  29.347  40.992  1.00  0.00     0.010 A 
ATOM     75  C   UNL A   1      48.233  30.456  40.740  1.00  0.00     0.020 A 
ATOM     76  C   UNL A   1      46.695  28.941  41.856  1.00  0.00     0.020 A 
ATOM     77  C   UNL A   1      47.971  29.491  41.717  1.00  0.00     0.054 A 
BRANCH  77  78
ATOM     78  S   UNL A   1      49.315  28.993  42.827  1.00  0.00     0.124 S 
ATOM     79  O   UNL A   1      49.905  27.870  42.103  1.00  0.00    -0.237 OA
ATOM     80  O   UNL A   1      50.136  30.200  42.892  1.00  0.00    -0.237 OA
ATOM     81  O   UNL A   1      48.630  28.641  44.068  1.00  0.00    -0.744 OA
ENDBRANCH  77  78
ENDBRANCH  58  72
BRANCH  59  82
ATOM     82  C   UNL A   1      38.227  32.563  33.895  1.00  0.00    -0.014 A 
ATOM     83  C   UNL A   1      36.930  32.597  34.435  1.00  0.00     0.010 A 
ATOM     84  C   UNL A   1      38.400  32.832  32.524  1.00  0.00     0.010 A 
ATOM     85  C   UNL A   1      35.829  32.877  33.620  1.00  0.00     0.020 A 
ATOM     86  C   UNL A   1      37.306  33.141  31.712  1.00  0.00     0.020 A 
ATOM     87  C   UNL A   1      36.024  33.151  32.263  1.00  0.00     0.054 A 
BRANCH  87  88
ATOM     88  S   UNL A   1      34.584  33.557  31.237  1.00  0.00     0.124 S 
ATOM     89  O   UNL A   1      34.431  32.348  30.435  1.00  0.00    -0.237 OA
ATOM     90  O   UNL A   1      33.545  33.792  32.236  1.00  0.00    -0.237 OA
ATOM     91  O   UNL A   1      35.012  34.746  30.503  1.00  0.00    -0.744 OA
ENDBRANCH  87  88
ENDBRANCH  59  82
BRANCH  71  92
ATOM     92  C   UNL A   1      41.375  35.863  39.190  1.00  0.00    -0.014 A 
ATOM     93  C   UNL A   1      40.462  35.989  40.250  1.00  0.00     0.010 A 
ATOM     94  C   UNL A   1      42.125  36.984  38.788  1.00  0.00     0.010 A 
ATOM     95  C   UNL A   1      40.280  37.222  40.878  1.00  0.00     0.020 A 
ATOM     96  C   UNL A   1      41.970  38.210  39.437  1.00  0.00     0.020 A 
ATOM     97  C   UNL A   1      41.039  38.324  40.469  1.00  0.00     0.054 A 
BRANCH  97  98
ATOM     98  S   UNL A   1      40.820  39.899  41.338  1.00  0.00     0.124 S 
ATOM     99  O   UNL A   1      40.682  40.840  40.230  1.00  0.00    -0.237 OA
ATOM    100  O   UNL A   1      39.610  39.666  42.121  1.00  0.00    -0.237 OA
ATOM    101  O   UNL A   1      42.046  40.036  42.122  1.00  0.00    -0.744 OA
ENDBRANCH  97  98
ENDBRANCH  71  92
ENDBRANCH  45  46
ENDBRANCH  38  40
ENDBRANCH  37  38
ENDBRANCH  36  37
ENDBRANCH  35  36
ENDBRANCH  34  35
ENDBRANCH  33  34
ENDBRANCH  32  33
ENDBRANCH  31  32
ENDBRANCH   1  31
TORSDOF 29
ENDMDL
