MODEL 1
REMARK VINA RESULT:      -9.0      0.000      0.000
REMARK SMILES [NH3+][C@@H](Cc1ccc(F)cc1C(F)(F)F)C(=O)OCCOCCOCCOCCOC(=O)c1ccc(-c2c3nc(c(-c4ccc(S(=O)(=O)[O-])cc4)c4ccc([nH]4)c(-c4ccc(S(=O)(=O)[O-])cc4)c4nc(c(-c5ccc(S(=O)(=O)[O-])cc5)c5ccc2[nH]5)C=C4)C=C3)cc1
REMARK SMILES IDX 23 1 22 2 21 3 20 4 19 5 18 6 17 7 15 8 16 9 2 10 1 11 3 15
REMARK SMILES IDX 4 16 5 17 10 18 6 19 9 20 7 21 8 22 11 23 12 24 13 25 14 26
REMARK SMILES IDX 24 27 25 28 26 29 27 30 28 31 29 32 30 33 31 34 32 35 33 36
REMARK SMILES IDX 91 37 34 38 90 39 35 40 36 41 37 42 84 43 38 44 89 45 83 46
REMARK SMILES IDX 85 47 39 48 88 49 82 50 81 51 40 53 70 54 51 55 69 56 52 57
REMARK SMILES IDX 55 58 68 59 86 60 53 61 54 62 67 64 87 65 56 66 41 67 42 68
REMARK SMILES IDX 50 69 43 70 49 71 44 72 45 73 46 74 47 75 48 76 71 77 72 78
REMARK SMILES IDX 80 79 73 80 79 81 74 82 75 83 76 84 77 85 78 86 57 87 58 88
REMARK SMILES IDX 66 89 59 90 65 91 60 92 61 93 62 94 63 95 64 96
REMARK H PARENT 1 12 1 13 1 14 85 52 55 63
REMARK Flexibility Score: inf
ROOT
ATOM      1  O   UNL A   1      39.092  21.981  26.537  1.00  0.00    -0.377 OA
ENDROOT
BRANCH   1   2
ATOM      2  C   UNL A   1      38.253  22.171  25.416  1.00  0.00     0.188 C 
BRANCH   2   3
ATOM      3  C   UNL A   1      36.756  22.031  25.724  1.00  0.00     0.188 C 
BRANCH   3   4
ATOM      4  O   UNL A   1      36.060  23.036  26.454  1.00  0.00    -0.376 OA
BRANCH   4   5
ATOM      5  C   UNL A   1      34.644  23.143  26.395  1.00  0.00     0.202 C 
BRANCH   5   6
ATOM      6  C   UNL A   1      33.925  24.228  25.576  1.00  0.00     0.261 C 
BRANCH   6   7
ATOM      7  O   UNL A   1      32.795  23.805  24.805  1.00  0.00    -0.459 OA
BRANCH   7   8
ATOM      8  C   UNL A   1      32.646  24.391  23.583  1.00  0.00     0.365 C 
ATOM      9  O   UNL A   1      33.513  24.431  22.718  1.00  0.00    -0.245 OA
BRANCH   8  10
ATOM     10  C   UNL A   1      31.249  25.020  23.414  1.00  0.00     0.296 C 
BRANCH  10  11
ATOM     11  N   UNL A   1      30.205  24.004  23.158  1.00  0.00    -0.346 N 
ATOM     12  H   UNL A   1      29.556  24.354  22.452  1.00  0.00     0.345 HD
ATOM     13  H   UNL A   1      29.698  23.812  24.021  1.00  0.00     0.345 HD
ATOM     14  H   UNL A   1      30.641  23.145  22.822  1.00  0.00     0.345 HD
ENDBRANCH  10  11
BRANCH  10  15
ATOM     15  C   UNL A   1      30.857  25.930  24.589  1.00  0.00     0.113 C 
BRANCH  15  16
ATOM     16  C   UNL A   1      30.506  27.358  24.210  1.00  0.00    -0.029 A 
ATOM     17  C   UNL A   1      29.499  27.561  23.238  1.00  0.00     0.007 A 
ATOM     18  C   UNL A   1      31.116  28.487  24.812  1.00  0.00     0.062 A 
ATOM     19  C   UNL A   1      29.084  28.840  22.882  1.00  0.00     0.039 A 
ATOM     20  C   UNL A   1      30.702  29.773  24.408  1.00  0.00     0.052 A 
ATOM     21  C   UNL A   1      29.692  29.936  23.468  1.00  0.00     0.123 A 
ATOM     22  F   UNL A   1      29.298  31.167  23.125  1.00  0.00    -0.207 F 
BRANCH  18  23
ATOM     23  C   UNL A   1      32.228  28.416  25.839  1.00  0.00     0.416 C 
ATOM     24  F   UNL A   1      32.959  27.274  25.728  1.00  0.00    -0.166 F 
ATOM     25  F   UNL A   1      33.115  29.446  25.734  1.00  0.00    -0.166 F 
ATOM     26  F   UNL A   1      31.804  28.451  27.131  1.00  0.00    -0.166 F 
ENDBRANCH  18  23
ENDBRANCH  15  16
ENDBRANCH  10  15
ENDBRANCH   8  10
ENDBRANCH   7   8
ENDBRANCH   6   7
ENDBRANCH   5   6
ENDBRANCH   4   5
ENDBRANCH   3   4
ENDBRANCH   2   3
ENDBRANCH   1   2
BRANCH   1  27
ATOM     27  C   UNL A   1      40.189  21.091  26.341  1.00  0.00     0.188 C 
BRANCH  27  28
ATOM     28  C   UNL A   1      39.892  19.648  25.858  1.00  0.00     0.188 C 
BRANCH  28  29
ATOM     29  O   UNL A   1      41.011  18.771  25.837  1.00  0.00    -0.376 OA
BRANCH  29  30
ATOM     30  C   UNL A   1      42.306  19.280  26.124  1.00  0.00     0.202 C 
BRANCH  30  31
ATOM     31  C   UNL A   1      43.524  18.655  25.418  1.00  0.00     0.261 C 
BRANCH  31  32
ATOM     32  O   UNL A   1      44.030  19.348  24.270  1.00  0.00    -0.460 OA
BRANCH  32  33
ATOM     33  C   UNL A   1      45.269  19.878  24.343  1.00  0.00     0.338 C 
ATOM     34  O   UNL A   1      46.305  19.379  23.938  1.00  0.00    -0.246 OA
BRANCH  33  35
ATOM     35  C   UNL A   1      45.126  21.271  24.813  1.00  0.00     0.060 A 
ATOM     36  C   UNL A   1      44.691  22.253  23.911  1.00  0.00     0.016 A 
ATOM     37  C   UNL A   1      45.403  21.603  26.141  1.00  0.00     0.016 A 
ATOM     38  C   UNL A   1      44.564  23.579  24.327  1.00  0.00     0.010 A 
ATOM     39  C   UNL A   1      45.304  22.933  26.548  1.00  0.00     0.010 A 
ATOM     40  C   UNL A   1      44.917  23.931  25.634  1.00  0.00    -0.014 A 
BRANCH  40  41
ATOM     41  C   UNL A   1      45.103  25.357  25.996  1.00  0.00     0.031 A 
ATOM     42  C   UNL A   1      46.494  25.923  25.925  1.00  0.00     0.074 A 
ATOM     43  C   UNL A   1      44.076  26.122  26.401  1.00  0.00     0.049 A 
ATOM     44  N   UNL A   1      46.934  27.093  26.307  1.00  0.00    -0.248 NA
ATOM     45  C   UNL A   1      47.529  25.042  25.359  1.00  0.00     0.031 C 
ATOM     46  C   UNL A   1      42.678  25.701  26.464  1.00  0.00     0.029 A 
ATOM     47  N   UNL A   1      44.063  27.416  26.863  1.00  0.00    -0.354 N 
ATOM     48  C   UNL A   1      48.301  27.079  26.053  1.00  0.00     0.074 A 
ATOM     49  C   UNL A   1      48.620  25.779  25.503  1.00  0.00     0.031 C 
ATOM     50  C   UNL A   1      41.945  26.710  26.969  1.00  0.00     0.029 A 
ATOM     51  C   UNL A   1      42.828  27.827  27.304  1.00  0.00     0.049 A 
ATOM     52  H   UNL A   1      44.861  27.992  26.879  1.00  0.00     0.167 HD
ATOM     53  C   UNL A   1      49.211  28.058  26.264  1.00  0.00     0.031 A 
ATOM     54  C   UNL A   1      42.461  28.957  27.944  1.00  0.00     0.031 A 
ATOM     55  C   UNL A   1      48.887  29.340  26.830  1.00  0.00     0.049 A 
ATOM     56  C   UNL A   1      43.499  30.011  28.236  1.00  0.00     0.074 A 
ATOM     57  C   UNL A   1      49.729  30.412  27.062  1.00  0.00     0.029 A 
ATOM     58  N   UNL A   1      47.627  29.715  27.270  1.00  0.00    -0.354 N 
ATOM     59  N   UNL A   1      44.782  30.002  27.961  1.00  0.00    -0.248 NA
ATOM     60  C   UNL A   1      43.041  31.228  28.921  1.00  0.00     0.031 C 
ATOM     61  C   UNL A   1      48.993  31.409  27.711  1.00  0.00     0.029 A 
ATOM     62  C   UNL A   1      47.675  30.990  27.808  1.00  0.00     0.049 A 
ATOM     63  H   UNL A   1      46.818  29.157  27.210  1.00  0.00     0.167 HD
ATOM     64  C   UNL A   1      45.279  31.222  28.411  1.00  0.00     0.074 A 
ATOM     65  C   UNL A   1      44.156  31.946  28.972  1.00  0.00     0.031 C 
ATOM     66  C   UNL A   1      46.547  31.701  28.359  1.00  0.00     0.031 A 
BRANCH  53  67
ATOM     67  C   UNL A   1      50.650  27.752  25.941  1.00  0.00    -0.014 A 
ATOM     68  C   UNL A   1      51.522  27.202  26.898  1.00  0.00     0.010 A 
ATOM     69  C   UNL A   1      51.135  28.014  24.647  1.00  0.00     0.010 A 
ATOM     70  C   UNL A   1      52.865  26.974  26.584  1.00  0.00     0.020 A 
ATOM     71  C   UNL A   1      52.469  27.756  24.317  1.00  0.00     0.020 A 
ATOM     72  C   UNL A   1      53.331  27.258  25.296  1.00  0.00     0.054 A 
BRANCH  72  73
ATOM     73  S   UNL A   1      55.077  26.957  24.916  1.00  0.00     0.124 S 
ATOM     74  O   UNL A   1      55.695  28.214  25.330  1.00  0.00    -0.237 OA
ATOM     75  O   UNL A   1      55.390  25.798  25.751  1.00  0.00    -0.237 OA
ATOM     76  O   UNL A   1      55.083  26.704  23.478  1.00  0.00    -0.744 OA
ENDBRANCH  72  73
ENDBRANCH  53  67
BRANCH  54  77
ATOM     77  C   UNL A   1      41.048  29.125  28.383  1.00  0.00    -0.014 A 
ATOM     78  C   UNL A   1      40.708  29.123  29.747  1.00  0.00     0.010 A 
ATOM     79  C   UNL A   1      40.031  29.321  27.429  1.00  0.00     0.010 A 
ATOM     80  C   UNL A   1      39.382  29.314  30.147  1.00  0.00     0.020 A 
ATOM     81  C   UNL A   1      38.710  29.544  27.825  1.00  0.00     0.020 A 
ATOM     82  C   UNL A   1      38.392  29.533  29.184  1.00  0.00     0.054 A 
BRANCH  82  83
ATOM     83  S   UNL A   1      36.693  29.855  29.733  1.00  0.00     0.124 S 
ATOM     84  O   UNL A   1      36.706  31.302  29.933  1.00  0.00    -0.237 OA
ATOM     85  O   UNL A   1      35.902  29.380  28.600  1.00  0.00    -0.237 OA
ATOM     86  O   UNL A   1      36.567  29.057  30.950  1.00  0.00    -0.744 OA
ENDBRANCH  82  83
ENDBRANCH  54  77
BRANCH  66  87
ATOM     87  C   UNL A   1      46.802  33.094  28.877  1.00  0.00    -0.014 A 
ATOM     88  C   UNL A   1      46.620  34.227  28.065  1.00  0.00     0.010 A 
ATOM     89  C   UNL A   1      47.126  33.272  30.236  1.00  0.00     0.010 A 
ATOM     90  C   UNL A   1      46.766  35.510  28.599  1.00  0.00     0.020 A 
ATOM     91  C   UNL A   1      47.242  34.554  30.782  1.00  0.00     0.020 A 
ATOM     92  C   UNL A   1      47.067  35.665  29.957  1.00  0.00     0.054 A 
BRANCH  92  93
ATOM     93  S   UNL A   1      47.167  37.342  30.643  1.00  0.00     0.124 S 
ATOM     94  O   UNL A   1      48.609  37.550  30.732  1.00  0.00    -0.237 OA
ATOM     95  O   UNL A   1      46.476  38.141  29.634  1.00  0.00    -0.237 OA
ATOM     96  O   UNL A   1      46.473  37.234  31.926  1.00  0.00    -0.744 OA
ENDBRANCH  92  93
ENDBRANCH  66  87
ENDBRANCH  40  41
ENDBRANCH  33  35
ENDBRANCH  32  33
ENDBRANCH  31  32
ENDBRANCH  30  31
ENDBRANCH  29  30
ENDBRANCH  28  29
ENDBRANCH  27  28
ENDBRANCH   1  27
TORSDOF 27
ENDMDL
MODEL 2
REMARK VINA RESULT:      -8.6      1.338      2.104
REMARK SMILES [NH3+][C@@H](Cc1ccc(F)cc1C(F)(F)F)C(=O)OCCOCCOCCOCCOC(=O)c1ccc(-c2c3nc(c(-c4ccc(S(=O)(=O)[O-])cc4)c4ccc([nH]4)c(-c4ccc(S(=O)(=O)[O-])cc4)c4nc(c(-c5ccc(S(=O)(=O)[O-])cc5)c5ccc2[nH]5)C=C4)C=C3)cc1
REMARK SMILES IDX 23 1 22 2 21 3 20 4 19 5 18 6 17 7 15 8 16 9 2 10 1 11 3 15
REMARK SMILES IDX 4 16 5 17 10 18 6 19 9 20 7 21 8 22 11 23 12 24 13 25 14 26
REMARK SMILES IDX 24 27 25 28 26 29 27 30 28 31 29 32 30 33 31 34 32 35 33 36
REMARK SMILES IDX 91 37 34 38 90 39 35 40 36 41 37 42 84 43 38 44 89 45 83 46
REMARK SMILES IDX 85 47 39 48 88 49 82 50 81 51 40 53 70 54 51 55 69 56 52 57
REMARK SMILES IDX 55 58 68 59 86 60 53 61 54 62 67 64 87 65 56 66 41 67 42 68
REMARK SMILES IDX 50 69 43 70 49 71 44 72 45 73 46 74 47 75 48 76 71 77 72 78
REMARK SMILES IDX 80 79 73 80 79 81 74 82 75 83 76 84 77 85 78 86 57 87 58 88
REMARK SMILES IDX 66 89 59 90 65 91 60 92 61 93 62 94 63 95 64 96
REMARK H PARENT 1 12 1 13 1 14 85 52 55 63
REMARK Flexibility Score: inf
ROOT
ATOM      1  O   UNL A   1      38.714  21.856  26.394  1.00  0.00    -0.377 OA
ENDROOT
BRANCH   1   2
ATOM      2  C   UNL A   1      37.809  22.000  25.319  1.00  0.00     0.188 C 
BRANCH   2   3
ATOM      3  C   UNL A   1      36.503  21.212  25.490  1.00  0.00     0.188 C 
BRANCH   3   4
ATOM      4  O   UNL A   1      35.348  21.823  26.055  1.00  0.00    -0.376 OA
BRANCH   4   5
ATOM      5  C   UNL A   1      34.178  21.066  26.337  1.00  0.00     0.202 C 
BRANCH   5   6
ATOM      6  C   UNL A   1      32.918  21.123  25.458  1.00  0.00     0.261 C 
BRANCH   6   7
ATOM      7  O   UNL A   1      32.196  22.359  25.451  1.00  0.00    -0.459 OA
BRANCH   7   8
ATOM      8  C   UNL A   1      31.864  22.856  24.226  1.00  0.00     0.365 C 
ATOM      9  O   UNL A   1      30.857  23.512  23.987  1.00  0.00    -0.245 OA
BRANCH   8  10
ATOM     10  C   UNL A   1      32.906  22.482  23.153  1.00  0.00     0.296 C 
BRANCH  10  11
ATOM     11  N   UNL A   1      32.277  21.991  21.908  1.00  0.00    -0.346 N 
ATOM     12  H   UNL A   1      32.866  21.269  21.491  1.00  0.00     0.345 HD
ATOM     13  H   UNL A   1      32.172  22.765  21.252  1.00  0.00     0.345 HD
ATOM     14  H   UNL A   1      31.359  21.601  22.121  1.00  0.00     0.345 HD
ENDBRANCH  10  11
BRANCH  10  15
ATOM     15  C   UNL A   1      33.895  23.622  22.859  1.00  0.00     0.113 C 
BRANCH  15  16
ATOM     16  C   UNL A   1      33.777  24.831  23.770  1.00  0.00    -0.029 A 
ATOM     17  C   UNL A   1      34.323  24.739  25.071  1.00  0.00     0.007 A 
ATOM     18  C   UNL A   1      33.180  26.049  23.361  1.00  0.00     0.062 A 
ATOM     19  C   UNL A   1      34.304  25.825  25.942  1.00  0.00     0.039 A 
ATOM     20  C   UNL A   1      33.142  27.122  24.275  1.00  0.00     0.052 A 
ATOM     21  C   UNL A   1      33.710  27.006  25.537  1.00  0.00     0.123 A 
ATOM     22  F   UNL A   1      33.686  28.050  26.373  1.00  0.00    -0.207 F 
BRANCH  18  23
ATOM     23  C   UNL A   1      32.527  26.275  22.012  1.00  0.00     0.416 C 
ATOM     24  F   UNL A   1      33.345  26.939  21.150  1.00  0.00    -0.166 F 
ATOM     25  F   UNL A   1      32.182  25.113  21.388  1.00  0.00    -0.166 F 
ATOM     26  F   UNL A   1      31.380  27.003  22.056  1.00  0.00    -0.166 F 
ENDBRANCH  18  23
ENDBRANCH  15  16
ENDBRANCH  10  15
ENDBRANCH   8  10
ENDBRANCH   7   8
ENDBRANCH   6   7
ENDBRANCH   5   6
ENDBRANCH   4   5
ENDBRANCH   3   4
ENDBRANCH   2   3
ENDBRANCH   1   2
BRANCH   1  27
ATOM     27  C   UNL A   1      39.907  21.131  26.103  1.00  0.00     0.188 C 
BRANCH  27  28
ATOM     28  C   UNL A   1      39.786  19.630  25.734  1.00  0.00     0.188 C 
BRANCH  28  29
ATOM     29  O   UNL A   1      40.991  18.882  25.826  1.00  0.00    -0.376 OA
BRANCH  29  30
ATOM     30  C   UNL A   1      42.235  19.563  25.915  1.00  0.00     0.202 C 
BRANCH  30  31
ATOM     31  C   UNL A   1      43.498  18.884  25.352  1.00  0.00     0.261 C 
BRANCH  31  32
ATOM     32  O   UNL A   1      44.133  19.526  24.239  1.00  0.00    -0.460 OA
BRANCH  32  33
ATOM     33  C   UNL A   1      45.373  20.029  24.419  1.00  0.00     0.338 C 
ATOM     34  O   UNL A   1      46.428  19.507  24.104  1.00  0.00    -0.246 OA
BRANCH  33  35
ATOM     35  C   UNL A   1      45.220  21.425  24.875  1.00  0.00     0.060 A 
ATOM     36  C   UNL A   1      44.843  22.408  23.948  1.00  0.00     0.016 A 
ATOM     37  C   UNL A   1      45.430  21.760  26.215  1.00  0.00     0.016 A 
ATOM     38  C   UNL A   1      44.709  23.737  24.352  1.00  0.00     0.010 A 
ATOM     39  C   UNL A   1      45.324  23.093  26.611  1.00  0.00     0.010 A 
ATOM     40  C   UNL A   1      44.997  24.091  25.675  1.00  0.00    -0.014 A 
BRANCH  40  41
ATOM     41  C   UNL A   1      45.178  25.516  26.040  1.00  0.00     0.031 A 
ATOM     42  C   UNL A   1      46.568  26.086  25.973  1.00  0.00     0.074 A 
ATOM     43  C   UNL A   1      44.148  26.278  26.446  1.00  0.00     0.049 A 
ATOM     44  N   UNL A   1      47.005  27.256  26.358  1.00  0.00    -0.248 NA
ATOM     45  C   UNL A   1      47.606  25.209  25.406  1.00  0.00     0.031 C 
ATOM     46  C   UNL A   1      42.752  25.854  26.506  1.00  0.00     0.029 A 
ATOM     47  N   UNL A   1      44.132  27.570  26.912  1.00  0.00    -0.354 N 
ATOM     48  C   UNL A   1      48.372  27.246  26.106  1.00  0.00     0.074 A 
ATOM     49  C   UNL A   1      48.694  25.949  25.554  1.00  0.00     0.031 C 
ATOM     50  C   UNL A   1      42.016  26.859  27.012  1.00  0.00     0.029 A 
ATOM     51  C   UNL A   1      42.895  27.977  27.352  1.00  0.00     0.049 A 
ATOM     52  H   UNL A   1      44.928  28.148  26.929  1.00  0.00     0.167 HD
ATOM     53  C   UNL A   1      49.279  28.227  26.322  1.00  0.00     0.031 A 
ATOM     54  C   UNL A   1      42.524  29.105  27.994  1.00  0.00     0.031 A 
ATOM     55  C   UNL A   1      48.951  29.506  26.890  1.00  0.00     0.049 A 
ATOM     56  C   UNL A   1      43.559  30.161  28.290  1.00  0.00     0.074 A 
ATOM     57  C   UNL A   1      49.790  30.581  27.126  1.00  0.00     0.029 A 
ATOM     58  N   UNL A   1      47.689  29.878  27.330  1.00  0.00    -0.354 N 
ATOM     59  N   UNL A   1      44.843  30.155  28.017  1.00  0.00    -0.248 NA
ATOM     60  C   UNL A   1      43.098  31.375  28.978  1.00  0.00     0.031 C 
ATOM     61  C   UNL A   1      49.050  31.573  27.776  1.00  0.00     0.029 A 
ATOM     62  C   UNL A   1      47.733  31.151  27.871  1.00  0.00     0.049 A 
ATOM     63  H   UNL A   1      46.882  29.318  27.266  1.00  0.00     0.167 HD
ATOM     64  C   UNL A   1      45.336  31.376  28.471  1.00  0.00     0.074 A 
ATOM     65  C   UNL A   1      44.211  32.096  29.032  1.00  0.00     0.031 C 
ATOM     66  C   UNL A   1      46.602  31.858  28.422  1.00  0.00     0.031 A 
BRANCH  53  67
ATOM     67  C   UNL A   1      50.719  27.925  25.999  1.00  0.00    -0.014 A 
ATOM     68  C   UNL A   1      51.588  27.367  26.954  1.00  0.00     0.010 A 
ATOM     69  C   UNL A   1      51.208  28.201  24.710  1.00  0.00     0.010 A 
ATOM     70  C   UNL A   1      52.933  27.143  26.641  1.00  0.00     0.020 A 
ATOM     71  C   UNL A   1      52.543  27.947  24.381  1.00  0.00     0.020 A 
ATOM     72  C   UNL A   1      53.402  27.440  25.358  1.00  0.00     0.054 A 
BRANCH  72  73
ATOM     73  S   UNL A   1      55.150  27.144  24.981  1.00  0.00     0.124 S 
ATOM     74  O   UNL A   1      55.667  26.707  26.275  1.00  0.00    -0.237 OA
ATOM     75  O   UNL A   1      55.084  26.111  23.949  1.00  0.00    -0.237 OA
ATOM     76  O   UNL A   1      55.633  28.444  24.525  1.00  0.00    -0.744 OA
ENDBRANCH  72  73
ENDBRANCH  53  67
BRANCH  54  77
ATOM     77  C   UNL A   1      41.110  29.268  28.432  1.00  0.00    -0.014 A 
ATOM     78  C   UNL A   1      40.794  29.546  29.773  1.00  0.00     0.010 A 
ATOM     79  C   UNL A   1      40.066  29.177  27.491  1.00  0.00     0.010 A 
ATOM     80  C   UNL A   1      39.464  29.728  30.164  1.00  0.00     0.020 A 
ATOM     81  C   UNL A   1      38.738  29.390  27.872  1.00  0.00     0.020 A 
ATOM     82  C   UNL A   1      38.445  29.659  29.209  1.00  0.00     0.054 A 
BRANCH  82  83
ATOM     83  S   UNL A   1      36.736  29.977  29.730  1.00  0.00     0.124 S 
ATOM     84  O   UNL A   1      36.577  29.045  30.842  1.00  0.00    -0.237 OA
ATOM     85  O   UNL A   1      36.777  31.393  30.091  1.00  0.00    -0.237 OA
ATOM     86  O   UNL A   1      35.949  29.669  28.538  1.00  0.00    -0.744 OA
ENDBRANCH  82  83
ENDBRANCH  54  77
BRANCH  66  87
ATOM     87  C   UNL A   1      46.854  33.250  28.944  1.00  0.00    -0.014 A 
ATOM     88  C   UNL A   1      46.693  34.383  28.127  1.00  0.00     0.010 A 
ATOM     89  C   UNL A   1      47.151  33.428  30.309  1.00  0.00     0.010 A 
ATOM     90  C   UNL A   1      46.834  35.667  28.663  1.00  0.00     0.020 A 
ATOM     91  C   UNL A   1      47.262  34.709  30.856  1.00  0.00     0.020 A 
ATOM     92  C   UNL A   1      47.108  35.821  30.027  1.00  0.00     0.054 A 
BRANCH  92  93
ATOM     93  S   UNL A   1      47.202  37.498  30.713  1.00  0.00     0.124 S 
ATOM     94  O   UNL A   1      48.640  37.676  30.890  1.00  0.00    -0.237 OA
ATOM     95  O   UNL A   1      46.591  38.308  29.663  1.00  0.00    -0.237 OA
ATOM     96  O   UNL A   1      46.430  37.410  31.952  1.00  0.00    -0.744 OA
ENDBRANCH  92  93
ENDBRANCH  66  87
ENDBRANCH  40  41
ENDBRANCH  33  35
ENDBRANCH  32  33
ENDBRANCH  31  32
ENDBRANCH  30  31
ENDBRANCH  29  30
ENDBRANCH  28  29
ENDBRANCH  27  28
ENDBRANCH   1  27
TORSDOF 27
ENDMDL
MODEL 3
REMARK VINA RESULT:      -8.2      1.600      2.048
REMARK SMILES [NH3+][C@@H](Cc1ccc(F)cc1C(F)(F)F)C(=O)OCCOCCOCCOCCOC(=O)c1ccc(-c2c3nc(c(-c4ccc(S(=O)(=O)[O-])cc4)c4ccc([nH]4)c(-c4ccc(S(=O)(=O)[O-])cc4)c4nc(c(-c5ccc(S(=O)(=O)[O-])cc5)c5ccc2[nH]5)C=C4)C=C3)cc1
REMARK SMILES IDX 23 1 22 2 21 3 20 4 19 5 18 6 17 7 15 8 16 9 2 10 1 11 3 15
REMARK SMILES IDX 4 16 5 17 10 18 6 19 9 20 7 21 8 22 11 23 12 24 13 25 14 26
REMARK SMILES IDX 24 27 25 28 26 29 27 30 28 31 29 32 30 33 31 34 32 35 33 36
REMARK SMILES IDX 91 37 34 38 90 39 35 40 36 41 37 42 84 43 38 44 89 45 83 46
REMARK SMILES IDX 85 47 39 48 88 49 82 50 81 51 40 53 70 54 51 55 69 56 52 57
REMARK SMILES IDX 55 58 68 59 86 60 53 61 54 62 67 64 87 65 56 66 41 67 42 68
REMARK SMILES IDX 50 69 43 70 49 71 44 72 45 73 46 74 47 75 48 76 71 77 72 78
REMARK SMILES IDX 80 79 73 80 79 81 74 82 75 83 76 84 77 85 78 86 57 87 58 88
REMARK SMILES IDX 66 89 59 90 65 91 60 92 61 93 62 94 63 95 64 96
REMARK H PARENT 1 12 1 13 1 14 85 52 55 63
REMARK Flexibility Score: inf
ROOT
ATOM      1  O   UNL A   1      39.015  21.664  26.394  1.00  0.00    -0.377 OA
ENDROOT
BRANCH   1   2
ATOM      2  C   UNL A   1      38.106  22.033  25.377  1.00  0.00     0.188 C 
BRANCH   2   3
ATOM      3  C   UNL A   1      36.957  21.036  25.171  1.00  0.00     0.188 C 
BRANCH   3   4
ATOM      4  O   UNL A   1      35.698  21.227  25.806  1.00  0.00    -0.376 OA
BRANCH   4   5
ATOM      5  C   UNL A   1      34.519  20.613  25.304  1.00  0.00     0.202 C 
BRANCH   5   6
ATOM      6  C   UNL A   1      33.392  21.408  24.623  1.00  0.00     0.261 C 
BRANCH   6   7
ATOM      7  O   UNL A   1      32.672  22.332  25.446  1.00  0.00    -0.459 OA
BRANCH   7   8
ATOM      8  C   UNL A   1      31.844  23.199  24.796  1.00  0.00     0.365 C 
ATOM      9  O   UNL A   1      31.421  23.039  23.657  1.00  0.00    -0.245 OA
BRANCH   8  10
ATOM     10  C   UNL A   1      31.506  24.429  25.661  1.00  0.00     0.296 C 
BRANCH  10  11
ATOM     11  N   UNL A   1      30.743  24.067  26.875  1.00  0.00    -0.346 N 
ATOM     12  H   UNL A   1      31.298  24.289  27.703  1.00  0.00     0.345 HD
ATOM     13  H   UNL A   1      30.536  23.069  26.862  1.00  0.00     0.345 HD
ATOM     14  H   UNL A   1      29.871  24.595  26.899  1.00  0.00     0.345 HD
ENDBRANCH  10  11
BRANCH  10  15
ATOM     15  C   UNL A   1      32.744  25.268  26.016  1.00  0.00     0.113 C 
BRANCH  15  16
ATOM     16  C   UNL A   1      32.999  26.459  25.109  1.00  0.00    -0.029 A 
ATOM     17  C   UNL A   1      33.398  26.205  23.776  1.00  0.00     0.007 A 
ATOM     18  C   UNL A   1      32.821  27.800  25.528  1.00  0.00     0.062 A 
ATOM     19  C   UNL A   1      33.594  27.243  22.870  1.00  0.00     0.039 A 
ATOM     20  C   UNL A   1      33.061  28.835  24.600  1.00  0.00     0.052 A 
ATOM     21  C   UNL A   1      33.428  28.549  23.291  1.00  0.00     0.123 A 
ATOM     22  F   UNL A   1      33.620  29.549  22.424  1.00  0.00    -0.207 F 
BRANCH  18  23
ATOM     23  C   UNL A   1      32.430  28.216  26.932  1.00  0.00     0.416 C 
ATOM     24  F   UNL A   1      31.743  29.391  26.948  1.00  0.00    -0.166 F 
ATOM     25  F   UNL A   1      31.634  27.302  27.555  1.00  0.00    -0.166 F 
ATOM     26  F   UNL A   1      33.479  28.399  27.778  1.00  0.00    -0.166 F 
ENDBRANCH  18  23
ENDBRANCH  15  16
ENDBRANCH  10  15
ENDBRANCH   8  10
ENDBRANCH   7   8
ENDBRANCH   6   7
ENDBRANCH   5   6
ENDBRANCH   4   5
ENDBRANCH   3   4
ENDBRANCH   2   3
ENDBRANCH   1   2
BRANCH   1  27
ATOM     27  C   UNL A   1      40.166  20.943  25.960  1.00  0.00     0.188 C 
BRANCH  27  28
ATOM     28  C   UNL A   1      40.201  19.409  26.177  1.00  0.00     0.188 C 
BRANCH  28  29
ATOM     29  O   UNL A   1      41.499  18.837  26.271  1.00  0.00    -0.376 OA
BRANCH  29  30
ATOM     30  C   UNL A   1      42.638  19.629  25.967  1.00  0.00     0.202 C 
BRANCH  30  31
ATOM     31  C   UNL A   1      43.675  19.088  24.965  1.00  0.00     0.261 C 
BRANCH  31  32
ATOM     32  O   UNL A   1      44.339  20.054  24.139  1.00  0.00    -0.460 OA
BRANCH  32  33
ATOM     33  C   UNL A   1      45.575  20.458  24.502  1.00  0.00     0.338 C 
ATOM     34  O   UNL A   1      46.630  19.896  24.262  1.00  0.00    -0.246 OA
BRANCH  33  35
ATOM     35  C   UNL A   1      45.448  21.818  25.062  1.00  0.00     0.060 A 
ATOM     36  C   UNL A   1      45.045  22.867  24.222  1.00  0.00     0.016 A 
ATOM     37  C   UNL A   1      45.707  22.055  26.414  1.00  0.00     0.016 A 
ATOM     38  C   UNL A   1      44.933  24.163  24.724  1.00  0.00     0.010 A 
ATOM     39  C   UNL A   1      45.624  23.357  26.908  1.00  0.00     0.010 A 
ATOM     40  C   UNL A   1      45.270  24.421  26.058  1.00  0.00    -0.014 A 
BRANCH  40  41
ATOM     41  C   UNL A   1      45.474  25.815  26.518  1.00  0.00     0.031 A 
ATOM     42  C   UNL A   1      46.831  26.431  26.313  1.00  0.00     0.074 A 
ATOM     43  C   UNL A   1      44.496  26.509  27.124  1.00  0.00     0.049 A 
ATOM     44  N   UNL A   1      47.295  27.577  26.735  1.00  0.00    -0.248 NA
ATOM     45  C   UNL A   1      47.797  25.636  25.536  1.00  0.00     0.031 C 
ATOM     46  C   UNL A   1      43.129  26.040  27.335  1.00  0.00     0.029 A 
ATOM     47  N   UNL A   1      44.520  27.757  27.698  1.00  0.00    -0.354 N 
ATOM     48  C   UNL A   1      48.614  27.629  26.300  1.00  0.00     0.074 A 
ATOM     49  C   UNL A   1      48.882  26.393  25.599  1.00  0.00     0.031 C 
ATOM     50  C   UNL A   1      42.451  26.977  28.022  1.00  0.00     0.029 A 
ATOM     51  C   UNL A   1      43.348  28.089  28.335  1.00  0.00     0.049 A 
ATOM     52  H   UNL A   1      45.300  28.355  27.657  1.00  0.00     0.167 HD
ATOM     53  C   UNL A   1      49.524  28.616  26.475  1.00  0.00     0.031 A 
ATOM     54  C   UNL A   1      43.048  29.147  29.116  1.00  0.00     0.031 A 
ATOM     55  C   UNL A   1      49.254  29.833  27.192  1.00  0.00     0.049 A 
ATOM     56  C   UNL A   1      44.095  30.205  29.360  1.00  0.00     0.074 A 
ATOM     57  C   UNL A   1      50.098  30.908  27.404  1.00  0.00     0.029 A 
ATOM     58  N   UNL A   1      48.058  30.128  27.829  1.00  0.00    -0.354 N 
ATOM     59  N   UNL A   1      45.329  30.262  28.916  1.00  0.00    -0.248 NA
ATOM     60  C   UNL A   1      43.710  31.343  30.207  1.00  0.00     0.031 C 
ATOM     61  C   UNL A   1      49.436  31.821  28.232  1.00  0.00     0.029 A 
ATOM     62  C   UNL A   1      48.153  31.352  28.467  1.00  0.00     0.049 A 
ATOM     63  H   UNL A   1      47.260  29.551  27.827  1.00  0.00     0.167 HD
ATOM     64  C   UNL A   1      45.857  31.454  29.404  1.00  0.00     0.074 A 
ATOM     65  C   UNL A   1      44.807  32.090  30.172  1.00  0.00     0.031 C 
ATOM     66  C   UNL A   1      47.096  31.977  29.225  1.00  0.00     0.031 A 
BRANCH  53  67
ATOM     67  C   UNL A   1      50.912  28.385  25.936  1.00  0.00    -0.014 A 
ATOM     68  C   UNL A   1      51.306  28.875  24.677  1.00  0.00     0.010 A 
ATOM     69  C   UNL A   1      51.841  27.668  26.711  1.00  0.00     0.010 A 
ATOM     70  C   UNL A   1      52.585  28.603  24.182  1.00  0.00     0.020 A 
ATOM     71  C   UNL A   1      53.132  27.423  26.235  1.00  0.00     0.020 A 
ATOM     72  C   UNL A   1      53.488  27.874  24.962  1.00  0.00     0.054 A 
BRANCH  72  73
ATOM     73  S   UNL A   1      55.138  27.532  24.294  1.00  0.00     0.124 S 
ATOM     74  O   UNL A   1      55.923  27.348  25.511  1.00  0.00    -0.237 OA
ATOM     75  O   UNL A   1      54.916  26.324  23.500  1.00  0.00    -0.237 OA
ATOM     76  O   UNL A   1      55.456  28.730  23.523  1.00  0.00    -0.744 OA
ENDBRANCH  72  73
ENDBRANCH  53  67
BRANCH  54  77
ATOM     77  C   UNL A   1      41.705  29.230  29.754  1.00  0.00    -0.014 A 
ATOM     78  C   UNL A   1      40.625  29.839  29.093  1.00  0.00     0.010 A 
ATOM     79  C   UNL A   1      41.493  28.664  31.026  1.00  0.00     0.010 A 
ATOM     80  C   UNL A   1      39.362  29.882  29.690  1.00  0.00     0.020 A 
ATOM     81  C   UNL A   1      40.225  28.677  31.614  1.00  0.00     0.020 A 
ATOM     82  C   UNL A   1      39.167  29.291  30.943  1.00  0.00     0.054 A 
BRANCH  82  83
ATOM     83  S   UNL A   1      37.500  29.293  31.660  1.00  0.00     0.124 S 
ATOM     84  O   UNL A   1      37.608  28.257  32.683  1.00  0.00    -0.237 OA
ATOM     85  O   UNL A   1      37.374  30.662  32.156  1.00  0.00    -0.237 OA
ATOM     86  O   UNL A   1      36.636  28.966  30.528  1.00  0.00    -0.744 OA
ENDBRANCH  82  83
ENDBRANCH  54  77
BRANCH  66  87
ATOM     87  C   UNL A   1      47.391  33.328  29.827  1.00  0.00    -0.014 A 
ATOM     88  C   UNL A   1      47.982  33.455  31.096  1.00  0.00     0.010 A 
ATOM     89  C   UNL A   1      47.170  34.485  29.056  1.00  0.00     0.010 A 
ATOM     90  C   UNL A   1      48.337  34.715  31.587  1.00  0.00     0.020 A 
ATOM     91  C   UNL A   1      47.552  35.743  29.530  1.00  0.00     0.020 A 
ATOM     92  C   UNL A   1      48.128  35.850  30.795  1.00  0.00     0.054 A 
BRANCH  92  93
ATOM     93  S   UNL A   1      48.677  37.463  31.422  1.00  0.00     0.124 S 
ATOM     94  O   UNL A   1      48.946  38.195  30.188  1.00  0.00    -0.237 OA
ATOM     95  O   UNL A   1      47.518  37.920  32.185  1.00  0.00    -0.237 OA
ATOM     96  O   UNL A   1      49.856  37.141  32.224  1.00  0.00    -0.744 OA
ENDBRANCH  92  93
ENDBRANCH  66  87
ENDBRANCH  40  41
ENDBRANCH  33  35
ENDBRANCH  32  33
ENDBRANCH  31  32
ENDBRANCH  30  31
ENDBRANCH  29  30
ENDBRANCH  28  29
ENDBRANCH  27  28
ENDBRANCH   1  27
TORSDOF 27
ENDMDL
