MODEL 1
REMARK VINA RESULT:      -9.1      0.000      0.000
REMARK SMILES Cc1onc(-c2cnn(C)c2C)c1C(=O)OCCOCCOCCOCCOC(=O)c1ccc(-c2c3nc(c(-c4ccc(S(=O)(=O)[O-])cc4)c4ccc([nH]4)c(-c4ccc(S(=O)(=O)[O-])cc4)c4nc(c(-c5ccc(S(=O)(=O)[O-])cc5)c5ccc2[nH]5)C=C4)C=C3)cc1
REMARK SMILES IDX 23 1 22 2 21 3 20 4 19 5 18 6 17 7 16 8 14 9 15 10 13 11
REMARK SMILES IDX 1 12 2 13 3 14 4 15 5 16 6 17 7 18 11 19 8 20 9 21 12 22
REMARK SMILES IDX 10 23 24 24 25 25 26 26 27 27 28 28 29 29 30 30 31 31 32 32
REMARK SMILES IDX 90 33 33 34 89 35 34 36 35 37 36 38 83 39 37 40 88 41 82 42
REMARK SMILES IDX 84 43 38 44 87 45 81 46 80 47 39 49 69 50 50 51 68 52 51 53
REMARK SMILES IDX 54 54 67 55 85 56 52 57 53 58 66 60 86 61 55 62 40 63 41 64
REMARK SMILES IDX 49 65 42 66 48 67 43 68 44 69 45 70 46 71 47 72 70 73 71 74
REMARK SMILES IDX 79 75 72 76 78 77 73 78 74 79 75 80 76 81 77 82 56 83 57 84
REMARK SMILES IDX 65 85 58 86 64 87 59 88 60 89 61 90 62 91 63 92
REMARK H PARENT 84 48 54 59
REMARK Flexibility Score: inf
ROOT
ATOM      1  C   UNL A   1      35.511  20.451  25.029  1.00  0.00     0.188 C 
ENDROOT
BRANCH   1   2
ATOM      2  O   UNL A   1      34.128  20.298  25.315  1.00  0.00    -0.377 OA
BRANCH   2   3
ATOM      3  C   UNL A   1      33.220  20.051  24.259  1.00  0.00     0.188 C 
BRANCH   3   4
ATOM      4  C   UNL A   1      32.175  21.122  23.918  1.00  0.00     0.188 C 
BRANCH   4   5
ATOM      5  O   UNL A   1      32.285  22.301  24.711  1.00  0.00    -0.376 OA
BRANCH   5   6
ATOM      6  C   UNL A   1      31.064  22.759  25.283  1.00  0.00     0.202 C 
BRANCH   6   7
ATOM      7  C   UNL A   1      30.740  24.198  24.876  1.00  0.00     0.261 C 
BRANCH   7   8
ATOM      8  O   UNL A   1      30.393  25.057  25.973  1.00  0.00    -0.459 OA
BRANCH   8   9
ATOM      9  C   UNL A   1      31.046  26.242  26.091  1.00  0.00     0.344 C 
ATOM     10  O   UNL A   1      30.863  27.045  26.998  1.00  0.00    -0.246 OA
BRANCH   9  11
ATOM     11  C   UNL A   1      32.051  26.405  25.068  1.00  0.00     0.130 A 
ATOM     12  C   UNL A   1      34.143  25.064  25.979  1.00  0.00     0.092 C 
ATOM     13  C   UNL A   1      33.337  25.896  25.060  1.00  0.00     0.148 A 
ATOM     14  O   UNL A   1      33.975  26.299  23.927  1.00  0.00    -0.360 OA
ATOM     15  N   UNL A   1      33.154  27.145  23.206  1.00  0.00    -0.079 NA
ATOM     16  C   UNL A   1      32.020  27.222  23.909  1.00  0.00     0.132 A 
BRANCH  16  17
ATOM     17  C   UNL A   1      30.997  28.204  23.592  1.00  0.00     0.046 A 
ATOM     18  C   UNL A   1      30.019  28.025  22.598  1.00  0.00     0.145 A 
ATOM     19  C   UNL A   1      30.718  29.426  24.167  1.00  0.00     0.044 A 
ATOM     20  N   UNL A   1      29.211  29.081  22.491  1.00  0.00    -0.181 NA
ATOM     21  N   UNL A   1      29.654  29.921  23.450  1.00  0.00    -0.272 N 
ATOM     22  C   UNL A   1      31.355  30.115  25.314  1.00  0.00     0.067 C 
ATOM     23  C   UNL A   1      28.970  31.180  23.635  1.00  0.00     0.174 C 
ENDBRANCH  16  17
ENDBRANCH   9  11
ENDBRANCH   8   9
ENDBRANCH   7   8
ENDBRANCH   6   7
ENDBRANCH   5   6
ENDBRANCH   4   5
ENDBRANCH   3   4
ENDBRANCH   2   3
ENDBRANCH   1   2
BRANCH   1  24
ATOM     24  C   UNL A   1      36.110  21.855  24.832  1.00  0.00     0.188 C 
BRANCH  24  25
ATOM     25  O   UNL A   1      37.164  22.181  25.735  1.00  0.00    -0.376 OA
BRANCH  25  26
ATOM     26  C   UNL A   1      37.341  23.565  26.010  1.00  0.00     0.202 C 
BRANCH  26  27
ATOM     27  C   UNL A   1      38.808  23.952  26.218  1.00  0.00     0.261 C 
BRANCH  27  28
ATOM     28  O   UNL A   1      39.028  24.840  27.324  1.00  0.00    -0.460 OA
BRANCH  28  29
ATOM     29  C   UNL A   1      39.935  25.823  27.135  1.00  0.00     0.338 C 
ATOM     30  O   UNL A   1      40.609  26.028  26.142  1.00  0.00    -0.246 OA
BRANCH  29  31
ATOM     31  C   UNL A   1      39.856  26.734  28.290  1.00  0.00     0.060 A 
ATOM     32  C   UNL A   1      40.601  27.919  28.260  1.00  0.00     0.016 A 
ATOM     33  C   UNL A   1      39.057  26.415  29.391  1.00  0.00     0.016 A 
ATOM     34  C   UNL A   1      40.579  28.775  29.359  1.00  0.00     0.010 A 
ATOM     35  C   UNL A   1      39.050  27.263  30.498  1.00  0.00     0.010 A 
ATOM     36  C   UNL A   1      39.839  28.425  30.498  1.00  0.00    -0.014 A 
BRANCH  36  37
ATOM     37  C   UNL A   1      40.050  29.158  31.765  1.00  0.00     0.031 A 
ATOM     38  C   UNL A   1      39.088  30.261  32.111  1.00  0.00     0.074 A 
ATOM     39  C   UNL A   1      41.077  28.864  32.580  1.00  0.00     0.049 A 
ATOM     40  N   UNL A   1      39.078  31.053  33.150  1.00  0.00    -0.248 NA
ATOM     41  C   UNL A   1      37.992  30.500  31.156  1.00  0.00     0.031 C 
ATOM     42  C   UNL A   1      42.061  27.805  32.359  1.00  0.00     0.029 A 
ATOM     43  N   UNL A   1      41.465  29.447  33.758  1.00  0.00    -0.354 N 
ATOM     44  C   UNL A   1      37.975  31.880  32.978  1.00  0.00     0.074 A 
ATOM     45  C   UNL A   1      37.354  31.512  31.724  1.00  0.00     0.031 C 
ATOM     46  C   UNL A   1      42.950  27.821  33.369  1.00  0.00     0.029 A 
ATOM     47  C   UNL A   1      42.608  28.903  34.291  1.00  0.00     0.049 A 
ATOM     48  H   UNL A   1      40.971  30.184  34.184  1.00  0.00     0.167 HD
ATOM     49  C   UNL A   1      37.516  32.860  33.791  1.00  0.00     0.031 A 
ATOM     50  C   UNL A   1      43.304  29.252  35.392  1.00  0.00     0.031 A 
ATOM     51  C   UNL A   1      38.152  33.252  35.016  1.00  0.00     0.049 A 
ATOM     52  C   UNL A   1      42.815  30.392  36.245  1.00  0.00     0.074 A 
ATOM     53  C   UNL A   1      37.764  34.231  35.913  1.00  0.00     0.029 A 
ATOM     54  N   UNL A   1      39.322  32.694  35.508  1.00  0.00    -0.354 N 
ATOM     55  N   UNL A   1      41.747  31.139  36.090  1.00  0.00    -0.248 NA
ATOM     56  C   UNL A   1      43.625  30.735  37.423  1.00  0.00     0.031 C 
ATOM     57  C   UNL A   1      38.725  34.291  36.931  1.00  0.00     0.029 A 
ATOM     58  C   UNL A   1      39.685  33.322  36.685  1.00  0.00     0.049 A 
ATOM     59  H   UNL A   1      39.821  31.960  35.082  1.00  0.00     0.167 HD
ATOM     60  C   UNL A   1      41.744  32.023  37.164  1.00  0.00     0.074 A 
ATOM     61  C   UNL A   1      42.912  31.714  37.964  1.00  0.00     0.031 C 
ATOM     62  C   UNL A   1      40.852  33.000  37.464  1.00  0.00     0.031 A 
BRANCH  49  63
ATOM     63  C   UNL A   1      36.281  33.588  33.347  1.00  0.00    -0.014 A 
ATOM     64  C   UNL A   1      35.002  33.129  33.714  1.00  0.00     0.010 A 
ATOM     65  C   UNL A   1      36.396  34.741  32.551  1.00  0.00     0.010 A 
ATOM     66  C   UNL A   1      33.859  33.789  33.261  1.00  0.00     0.020 A 
ATOM     67  C   UNL A   1      35.254  35.414  32.110  1.00  0.00     0.020 A 
ATOM     68  C   UNL A   1      33.992  34.922  32.452  1.00  0.00     0.054 A 
BRANCH  68  69
ATOM     69  S   UNL A   1      32.493  35.764  31.874  1.00  0.00     0.124 S 
ATOM     70  O   UNL A   1      31.459  35.122  32.680  1.00  0.00    -0.237 OA
ATOM     71  O   UNL A   1      32.762  37.163  32.197  1.00  0.00    -0.237 OA
ATOM     72  O   UNL A   1      32.453  35.455  30.446  1.00  0.00    -0.744 OA
ENDBRANCH  68  69
ENDBRANCH  49  63
BRANCH  50  73
ATOM     73  C   UNL A   1      44.546  28.518  35.747  1.00  0.00    -0.014 A 
ATOM     74  C   UNL A   1      44.484  27.325  36.489  1.00  0.00     0.010 A 
ATOM     75  C   UNL A   1      45.802  29.011  35.346  1.00  0.00     0.010 A 
ATOM     76  C   UNL A   1      45.655  26.644  36.831  1.00  0.00     0.020 A 
ATOM     77  C   UNL A   1      46.974  28.322  35.671  1.00  0.00     0.020 A 
ATOM     78  C   UNL A   1      46.893  27.146  36.421  1.00  0.00     0.054 A 
BRANCH  78  79
ATOM     79  S   UNL A   1      48.398  26.217  36.823  1.00  0.00     0.124 S 
ATOM     80  O   UNL A   1      48.636  25.475  35.589  1.00  0.00    -0.237 OA
ATOM     81  O   UNL A   1      49.359  27.277  37.120  1.00  0.00    -0.237 OA
ATOM     82  O   UNL A   1      48.001  25.409  37.975  1.00  0.00    -0.744 OA
ENDBRANCH  78  79
ENDBRANCH  50  73
BRANCH  62  83
ATOM     83  C   UNL A   1      41.086  33.787  38.724  1.00  0.00    -0.014 A 
ATOM     84  C   UNL A   1      41.918  34.920  38.725  1.00  0.00     0.010 A 
ATOM     85  C   UNL A   1      40.408  33.427  39.902  1.00  0.00     0.010 A 
ATOM     86  C   UNL A   1      42.087  35.667  39.894  1.00  0.00     0.020 A 
ATOM     87  C   UNL A   1      40.560  34.183  41.066  1.00  0.00     0.020 A 
ATOM     88  C   UNL A   1      41.408  35.292  41.058  1.00  0.00     0.054 A 
BRANCH  88  89
ATOM     89  S   UNL A   1      41.598  36.306  42.551  1.00  0.00     0.124 S 
ATOM     90  O   UNL A   1      40.857  35.528  43.540  1.00  0.00    -0.237 OA
ATOM     91  O   UNL A   1      43.047  36.342  42.737  1.00  0.00    -0.237 OA
ATOM     92  O   UNL A   1      40.993  37.582  42.179  1.00  0.00    -0.744 OA
ENDBRANCH  88  89
ENDBRANCH  62  83
ENDBRANCH  36  37
ENDBRANCH  29  31
ENDBRANCH  28  29
ENDBRANCH  27  28
ENDBRANCH  26  27
ENDBRANCH  25  26
ENDBRANCH  24  25
ENDBRANCH   1  24
TORSDOF 24
ENDMDL
MODEL 2
REMARK VINA RESULT:      -9.1      1.591      2.209
REMARK SMILES Cc1onc(-c2cnn(C)c2C)c1C(=O)OCCOCCOCCOCCOC(=O)c1ccc(-c2c3nc(c(-c4ccc(S(=O)(=O)[O-])cc4)c4ccc([nH]4)c(-c4ccc(S(=O)(=O)[O-])cc4)c4nc(c(-c5ccc(S(=O)(=O)[O-])cc5)c5ccc2[nH]5)C=C4)C=C3)cc1
REMARK SMILES IDX 23 1 22 2 21 3 20 4 19 5 18 6 17 7 16 8 14 9 15 10 13 11
REMARK SMILES IDX 1 12 2 13 3 14 4 15 5 16 6 17 7 18 11 19 8 20 9 21 12 22
REMARK SMILES IDX 10 23 24 24 25 25 26 26 27 27 28 28 29 29 30 30 31 31 32 32
REMARK SMILES IDX 90 33 33 34 89 35 34 36 35 37 36 38 83 39 37 40 88 41 82 42
REMARK SMILES IDX 84 43 38 44 87 45 81 46 80 47 39 49 69 50 50 51 68 52 51 53
REMARK SMILES IDX 54 54 67 55 85 56 52 57 53 58 66 60 86 61 55 62 40 63 41 64
REMARK SMILES IDX 49 65 42 66 48 67 43 68 44 69 45 70 46 71 47 72 70 73 71 74
REMARK SMILES IDX 79 75 72 76 78 77 73 78 74 79 75 80 76 81 77 82 56 83 57 84
REMARK SMILES IDX 65 85 58 86 64 87 59 88 60 89 61 90 62 91 63 92
REMARK H PARENT 84 48 54 59
REMARK Flexibility Score: inf
ROOT
ATOM      1  C   UNL A   1      35.518  21.500  26.115  1.00  0.00     0.188 C 
ENDROOT
BRANCH   1   2
ATOM      2  O   UNL A   1      34.252  20.878  25.947  1.00  0.00    -0.377 OA
BRANCH   2   3
ATOM      3  C   UNL A   1      33.080  21.670  25.951  1.00  0.00     0.188 C 
BRANCH   3   4
ATOM      4  C   UNL A   1      32.418  22.015  24.609  1.00  0.00     0.188 C 
BRANCH   4   5
ATOM      5  O   UNL A   1      33.223  21.695  23.476  1.00  0.00    -0.376 OA
BRANCH   5   6
ATOM      6  C   UNL A   1      33.843  22.809  22.844  1.00  0.00     0.202 C 
BRANCH   6   7
ATOM      7  C   UNL A   1      32.871  23.581  21.949  1.00  0.00     0.261 C 
BRANCH   7   8
ATOM      8  O   UNL A   1      32.371  24.795  22.531  1.00  0.00    -0.459 OA
BRANCH   8   9
ATOM      9  C   UNL A   1      33.216  25.853  22.631  1.00  0.00     0.344 C 
ATOM     10  O   UNL A   1      33.827  26.342  21.689  1.00  0.00    -0.246 OA
BRANCH   9  11
ATOM     11  C   UNL A   1      33.240  26.396  23.969  1.00  0.00     0.130 A 
ATOM     12  C   UNL A   1      34.959  24.861  25.271  1.00  0.00     0.092 C 
ATOM     13  C   UNL A   1      33.984  25.950  25.046  1.00  0.00     0.148 A 
ATOM     14  O   UNL A   1      33.703  26.715  26.136  1.00  0.00    -0.360 OA
ATOM     15  N   UNL A   1      32.712  27.626  25.823  1.00  0.00    -0.079 NA
ATOM     16  C   UNL A   1      32.425  27.408  24.536  1.00  0.00     0.132 A 
BRANCH  16  17
ATOM     17  C   UNL A   1      31.265  28.015  23.905  1.00  0.00     0.046 A 
ATOM     18  C   UNL A   1      31.304  29.224  23.188  1.00  0.00     0.145 A 
ATOM     19  C   UNL A   1      29.962  27.573  23.812  1.00  0.00     0.044 A 
ATOM     20  N   UNL A   1      30.102  29.574  22.726  1.00  0.00    -0.181 NA
ATOM     21  N   UNL A   1      29.302  28.560  23.118  1.00  0.00    -0.272 N 
ATOM     22  C   UNL A   1      29.335  26.323  24.301  1.00  0.00     0.067 C 
ATOM     23  C   UNL A   1      27.905  28.602  22.751  1.00  0.00     0.174 C 
ENDBRANCH  16  17
ENDBRANCH   9  11
ENDBRANCH   8   9
ENDBRANCH   7   8
ENDBRANCH   6   7
ENDBRANCH   5   6
ENDBRANCH   4   5
ENDBRANCH   3   4
ENDBRANCH   2   3
ENDBRANCH   1   2
BRANCH   1  24
ATOM     24  C   UNL A   1      36.742  20.989  25.335  1.00  0.00     0.188 C 
BRANCH  24  25
ATOM     25  O   UNL A   1      37.640  22.010  24.908  1.00  0.00    -0.376 OA
BRANCH  25  26
ATOM     26  C   UNL A   1      38.650  22.379  25.838  1.00  0.00     0.202 C 
BRANCH  26  27
ATOM     27  C   UNL A   1      38.479  23.804  26.375  1.00  0.00     0.261 C 
BRANCH  27  28
ATOM     28  O   UNL A   1      39.654  24.619  26.257  1.00  0.00    -0.460 OA
BRANCH  28  29
ATOM     29  C   UNL A   1      40.581  24.484  27.230  1.00  0.00     0.338 C 
ATOM     30  O   UNL A   1      41.483  23.667  27.284  1.00  0.00    -0.246 OA
BRANCH  29  31
ATOM     31  C   UNL A   1      40.426  25.617  28.158  1.00  0.00     0.060 A 
ATOM     32  C   UNL A   1      41.457  26.560  28.240  1.00  0.00     0.016 A 
ATOM     33  C   UNL A   1      39.275  25.741  28.940  1.00  0.00     0.016 A 
ATOM     34  C   UNL A   1      41.355  27.616  29.144  1.00  0.00     0.010 A 
ATOM     35  C   UNL A   1      39.182  26.786  29.856  1.00  0.00     0.010 A 
ATOM     36  C   UNL A   1      40.237  27.705  29.985  1.00  0.00    -0.014 A 
BRANCH  36  37
ATOM     37  C   UNL A   1      40.259  28.626  31.142  1.00  0.00     0.031 A 
ATOM     38  C   UNL A   1      39.331  29.809  31.120  1.00  0.00     0.074 A 
ATOM     39  C   UNL A   1      41.093  28.429  32.177  1.00  0.00     0.049 A 
ATOM     40  N   UNL A   1      39.183  30.760  32.003  1.00  0.00    -0.248 NA
ATOM     41  C   UNL A   1      38.452  29.932  29.944  1.00  0.00     0.031 C 
ATOM     42  C   UNL A   1      42.023  27.309  32.318  1.00  0.00     0.029 A 
ATOM     43  N   UNL A   1      41.294  29.181  33.305  1.00  0.00    -0.354 N 
ATOM     44  C   UNL A   1      38.193  31.591  31.494  1.00  0.00     0.074 A 
ATOM     45  C   UNL A   1      37.793  31.047  30.214  1.00  0.00     0.031 C 
ATOM     46  C   UNL A   1      42.707  27.455  33.467  1.00  0.00     0.029 A 
ATOM     47  C   UNL A   1      42.276  28.686  34.128  1.00  0.00     0.049 A 
ATOM     48  H   UNL A   1      40.783  29.997  33.508  1.00  0.00     0.167 HD
ATOM     49  C   UNL A   1      37.661  32.709  32.041  1.00  0.00     0.031 A 
ATOM     50  C   UNL A   1      42.777  29.182  35.277  1.00  0.00     0.031 A 
ATOM     51  C   UNL A   1      38.083  33.270  33.293  1.00  0.00     0.049 A 
ATOM     52  C   UNL A   1      42.220  30.466  35.833  1.00  0.00     0.074 A 
ATOM     53  C   UNL A   1      37.605  34.398  33.936  1.00  0.00     0.029 A 
ATOM     54  N   UNL A   1      39.098  32.754  34.083  1.00  0.00    -0.354 N 
ATOM     55  N   UNL A   1      41.255  31.219  35.359  1.00  0.00    -0.248 NA
ATOM     56  C   UNL A   1      42.818  30.964  37.081  1.00  0.00     0.031 C 
ATOM     57  C   UNL A   1      38.361  34.586  35.100  1.00  0.00     0.029 A 
ATOM     58  C   UNL A   1      39.279  33.551  35.199  1.00  0.00     0.049 A 
ATOM     59  H   UNL A   1      39.615  31.941  33.881  1.00  0.00     0.167 HD
ATOM     60  C   UNL A   1      41.114  32.267  36.264  1.00  0.00     0.074 A 
ATOM     61  C   UNL A   1      42.088  32.046  37.315  1.00  0.00     0.031 C 
ATOM     62  C   UNL A   1      40.254  33.315  36.231  1.00  0.00     0.031 A 
BRANCH  49  63
ATOM     63  C   UNL A   1      36.585  33.403  31.258  1.00  0.00    -0.014 A 
ATOM     64  C   UNL A   1      35.287  33.542  31.783  1.00  0.00     0.010 A 
ATOM     65  C   UNL A   1      36.871  33.920  29.983  1.00  0.00     0.010 A 
ATOM     66  C   UNL A   1      34.283  34.152  31.029  1.00  0.00     0.020 A 
ATOM     67  C   UNL A   1      35.872  34.546  29.232  1.00  0.00     0.020 A 
ATOM     68  C   UNL A   1      34.580  34.641  29.753  1.00  0.00     0.054 A 
BRANCH  68  69
ATOM     69  S   UNL A   1      33.260  35.430  28.790  1.00  0.00     0.124 S 
ATOM     70  O   UNL A   1      32.621  34.278  28.159  1.00  0.00    -0.237 OA
ATOM     71  O   UNL A   1      32.468  36.102  29.817  1.00  0.00    -0.237 OA
ATOM     72  O   UNL A   1      33.980  36.319  27.882  1.00  0.00    -0.744 OA
ENDBRANCH  68  69
ENDBRANCH  49  63
BRANCH  50  73
ATOM     73  C   UNL A   1      43.876  28.467  35.977  1.00  0.00    -0.014 A 
ATOM     74  C   UNL A   1      45.218  28.711  35.636  1.00  0.00     0.010 A 
ATOM     75  C   UNL A   1      43.585  27.534  36.989  1.00  0.00     0.010 A 
ATOM     76  C   UNL A   1      46.248  28.027  36.287  1.00  0.00     0.020 A 
ATOM     77  C   UNL A   1      44.613  26.863  37.656  1.00  0.00     0.020 A 
ATOM     78  C   UNL A   1      45.940  27.107  37.293  1.00  0.00     0.054 A 
BRANCH  78  79
ATOM     79  S   UNL A   1      47.293  26.274  38.169  1.00  0.00     0.124 S 
ATOM     80  O   UNL A   1      48.419  27.162  37.903  1.00  0.00    -0.237 OA
ATOM     81  O   UNL A   1      46.814  26.253  39.550  1.00  0.00    -0.237 OA
ATOM     82  O   UNL A   1      47.359  24.964  37.524  1.00  0.00    -0.744 OA
ENDBRANCH  78  79
ENDBRANCH  50  73
BRANCH  62  83
ATOM     83  C   UNL A   1      40.304  34.288  37.376  1.00  0.00    -0.014 A 
ATOM     84  C   UNL A   1      39.420  34.171  38.464  1.00  0.00     0.010 A 
ATOM     85  C   UNL A   1      41.291  35.289  37.394  1.00  0.00     0.010 A 
ATOM     86  C   UNL A   1      39.511  35.057  39.541  1.00  0.00     0.020 A 
ATOM     87  C   UNL A   1      41.397  36.162  38.478  1.00  0.00     0.020 A 
ATOM     88  C   UNL A   1      40.498  36.048  39.540  1.00  0.00     0.054 A 
BRANCH  88  89
ATOM     89  S   UNL A   1      40.634  37.153  40.972  1.00  0.00     0.124 S 
ATOM     90  O   UNL A   1      41.617  36.458  41.798  1.00  0.00    -0.237 OA
ATOM     91  O   UNL A   1      41.089  38.406  40.373  1.00  0.00    -0.237 OA
ATOM     92  O   UNL A   1      39.277  37.187  41.512  1.00  0.00    -0.744 OA
ENDBRANCH  88  89
ENDBRANCH  62  83
ENDBRANCH  36  37
ENDBRANCH  29  31
ENDBRANCH  28  29
ENDBRANCH  27  28
ENDBRANCH  26  27
ENDBRANCH  25  26
ENDBRANCH  24  25
ENDBRANCH   1  24
TORSDOF 24
ENDMDL
MODEL 3
REMARK VINA RESULT:      -9.0      6.420      8.540
REMARK SMILES Cc1onc(-c2cnn(C)c2C)c1C(=O)OCCOCCOCCOCCOC(=O)c1ccc(-c2c3nc(c(-c4ccc(S(=O)(=O)[O-])cc4)c4ccc([nH]4)c(-c4ccc(S(=O)(=O)[O-])cc4)c4nc(c(-c5ccc(S(=O)(=O)[O-])cc5)c5ccc2[nH]5)C=C4)C=C3)cc1
REMARK SMILES IDX 23 1 22 2 21 3 20 4 19 5 18 6 17 7 16 8 14 9 15 10 13 11
REMARK SMILES IDX 1 12 2 13 3 14 4 15 5 16 6 17 7 18 11 19 8 20 9 21 12 22
REMARK SMILES IDX 10 23 24 24 25 25 26 26 27 27 28 28 29 29 30 30 31 31 32 32
REMARK SMILES IDX 90 33 33 34 89 35 34 36 35 37 36 38 83 39 37 40 88 41 82 42
REMARK SMILES IDX 84 43 38 44 87 45 81 46 80 47 39 49 69 50 50 51 68 52 51 53
REMARK SMILES IDX 54 54 67 55 85 56 52 57 53 58 66 60 86 61 55 62 40 63 41 64
REMARK SMILES IDX 49 65 42 66 48 67 43 68 44 69 45 70 46 71 47 72 70 73 71 74
REMARK SMILES IDX 79 75 72 76 78 77 73 78 74 79 75 80 76 81 77 82 56 83 57 84
REMARK SMILES IDX 65 85 58 86 64 87 59 88 60 89 61 90 62 91 63 92
REMARK H PARENT 84 48 54 59
REMARK Flexibility Score: inf
ROOT
ATOM      1  C   UNL A   1      34.470  19.870  25.329  1.00  0.00     0.188 C 
ENDROOT
BRANCH   1   2
ATOM      2  O   UNL A   1      33.801  18.929  24.501  1.00  0.00    -0.377 OA
BRANCH   2   3
ATOM      3  C   UNL A   1      32.771  19.368  23.637  1.00  0.00     0.188 C 
BRANCH   3   4
ATOM      4  C   UNL A   1      32.228  20.794  23.800  1.00  0.00     0.188 C 
BRANCH   4   5
ATOM      5  O   UNL A   1      32.334  21.585  22.619  1.00  0.00    -0.376 OA
BRANCH   5   6
ATOM      6  C   UNL A   1      33.073  22.793  22.766  1.00  0.00     0.202 C 
BRANCH   6   7
ATOM      7  C   UNL A   1      32.162  24.011  22.930  1.00  0.00     0.261 C 
BRANCH   7   8
ATOM      8  O   UNL A   1      32.840  25.200  23.365  1.00  0.00    -0.459 OA
BRANCH   8   9
ATOM      9  C   UNL A   1      33.261  25.264  24.655  1.00  0.00     0.344 C 
ATOM     10  O   UNL A   1      34.392  25.584  24.998  1.00  0.00    -0.246 OA
BRANCH   9  11
ATOM     11  C   UNL A   1      32.188  24.995  25.583  1.00  0.00     0.130 A 
ATOM     12  C   UNL A   1      32.938  22.786  26.834  1.00  0.00     0.092 C 
ATOM     13  C   UNL A   1      32.092  23.945  26.478  1.00  0.00     0.148 A 
ATOM     14  O   UNL A   1      30.914  24.035  27.154  1.00  0.00    -0.360 OA
ATOM     15  N   UNL A   1      30.176  25.095  26.664  1.00  0.00    -0.079 NA
ATOM     16  C   UNL A   1      30.934  25.643  25.709  1.00  0.00     0.132 A 
BRANCH  16  17
ATOM     17  C   UNL A   1      30.402  26.643  24.799  1.00  0.00     0.046 A 
ATOM     18  C   UNL A   1      29.242  26.462  24.025  1.00  0.00     0.145 A 
ATOM     19  C   UNL A   1      30.830  27.926  24.527  1.00  0.00     0.044 A 
ATOM     20  N   UNL A   1      28.979  27.521  23.257  1.00  0.00    -0.181 NA
ATOM     21  N   UNL A   1      29.956  28.397  23.575  1.00  0.00    -0.272 N 
ATOM     22  C   UNL A   1      31.953  28.705  25.100  1.00  0.00     0.067 C 
ATOM     23  C   UNL A   1      29.957  29.692  22.935  1.00  0.00     0.174 C 
ENDBRANCH  16  17
ENDBRANCH   9  11
ENDBRANCH   8   9
ENDBRANCH   7   8
ENDBRANCH   6   7
ENDBRANCH   5   6
ENDBRANCH   4   5
ENDBRANCH   3   4
ENDBRANCH   2   3
ENDBRANCH   1   2
BRANCH   1  24
ATOM     24  C   UNL A   1      35.665  20.670  24.782  1.00  0.00     0.188 C 
BRANCH  24  25
ATOM     25  O   UNL A   1      36.523  21.212  25.783  1.00  0.00    -0.376 OA
BRANCH  25  26
ATOM     26  C   UNL A   1      37.809  21.628  25.341  1.00  0.00     0.202 C 
BRANCH  26  27
ATOM     27  C   UNL A   1      38.882  20.549  25.517  1.00  0.00     0.261 C 
BRANCH  27  28
ATOM     28  O   UNL A   1      39.763  20.774  26.627  1.00  0.00    -0.460 OA
BRANCH  28  29
ATOM     29  C   UNL A   1      41.029  20.322  26.492  1.00  0.00     0.338 C 
ATOM     30  O   UNL A   1      41.385  19.206  26.158  1.00  0.00    -0.246 OA
BRANCH  29  31
ATOM     31  C   UNL A   1      41.935  21.471  26.655  1.00  0.00     0.060 A 
ATOM     32  C   UNL A   1      42.474  21.724  27.922  1.00  0.00     0.016 A 
ATOM     33  C   UNL A   1      42.245  22.290  25.566  1.00  0.00     0.016 A 
ATOM     34  C   UNL A   1      43.297  22.832  28.112  1.00  0.00     0.010 A 
ATOM     35  C   UNL A   1      43.054  23.408  25.761  1.00  0.00     0.010 A 
ATOM     36  C   UNL A   1      43.552  23.701  27.042  1.00  0.00    -0.014 A 
BRANCH  36  37
ATOM     37  C   UNL A   1      44.159  25.025  27.298  1.00  0.00     0.031 A 
ATOM     38  C   UNL A   1      43.261  26.135  27.769  1.00  0.00     0.074 A 
ATOM     39  C   UNL A   1      45.471  25.242  27.102  1.00  0.00     0.049 A 
ATOM     40  N   UNL A   1      43.555  27.378  28.040  1.00  0.00    -0.248 NA
ATOM     41  C   UNL A   1      41.840  25.793  27.960  1.00  0.00     0.031 C 
ATOM     42  C   UNL A   1      46.442  24.240  26.665  1.00  0.00     0.029 A 
ATOM     43  N   UNL A   1      46.206  26.391  27.237  1.00  0.00    -0.354 N 
ATOM     44  C   UNL A   1      42.361  27.966  28.439  1.00  0.00     0.074 A 
ATOM     45  C   UNL A   1      41.333  26.951  28.351  1.00  0.00     0.031 C 
ATOM     46  C   UNL A   1      47.650  24.824  26.558  1.00  0.00     0.029 A 
ATOM     47  C   UNL A   1      47.528  26.241  26.898  1.00  0.00     0.049 A 
ATOM     48  H   UNL A   1      45.823  27.243  27.549  1.00  0.00     0.167 HD
ATOM     49  C   UNL A   1      42.136  29.238  28.843  1.00  0.00     0.031 A 
ATOM     50  C   UNL A   1      48.521  27.152  26.853  1.00  0.00     0.031 A 
ATOM     51  C   UNL A   1      43.147  30.255  28.895  1.00  0.00     0.049 A 
ATOM     52  C   UNL A   1      48.234  28.578  27.239  1.00  0.00     0.074 A 
ATOM     53  C   UNL A   1      43.023  31.573  29.294  1.00  0.00     0.029 A 
ATOM     54  N   UNL A   1      44.468  30.071  28.519  1.00  0.00    -0.354 N 
ATOM     55  N   UNL A   1      47.108  29.110  27.653  1.00  0.00    -0.248 NA
ATOM     56  C   UNL A   1      49.355  29.527  27.157  1.00  0.00     0.031 C 
ATOM     57  C   UNL A   1      44.264  32.198  29.121  1.00  0.00     0.029 A 
ATOM     58  C   UNL A   1      45.168  31.255  28.654  1.00  0.00     0.049 A 
ATOM     59  H   UNL A   1      44.852  29.221  28.201  1.00  0.00     0.167 HD
ATOM     60  C   UNL A   1      47.390  30.449  27.902  1.00  0.00     0.074 A 
ATOM     61  C   UNL A   1      48.793  30.644  27.600  1.00  0.00     0.031 C 
ATOM     62  C   UNL A   1      46.563  31.428  28.346  1.00  0.00     0.031 A 
BRANCH  49  63
ATOM     63  C   UNL A   1      40.729  29.590  29.228  1.00  0.00    -0.014 A 
ATOM     64  C   UNL A   1      39.732  29.752  28.249  1.00  0.00     0.010 A 
ATOM     65  C   UNL A   1      40.398  29.765  30.583  1.00  0.00     0.010 A 
ATOM     66  C   UNL A   1      38.437  30.122  28.614  1.00  0.00     0.020 A 
ATOM     67  C   UNL A   1      39.098  30.118  30.954  1.00  0.00     0.020 A 
ATOM     68  C   UNL A   1      38.130  30.313  29.966  1.00  0.00     0.054 A 
BRANCH  68  69
ATOM     69  S   UNL A   1      36.440  30.793  30.418  1.00  0.00     0.124 S 
ATOM     70  O   UNL A   1      36.108  29.798  31.434  1.00  0.00    -0.237 OA
ATOM     71  O   UNL A   1      36.613  32.158  30.910  1.00  0.00    -0.237 OA
ATOM     72  O   UNL A   1      35.701  30.675  29.164  1.00  0.00    -0.744 OA
ENDBRANCH  68  69
ENDBRANCH  49  63
BRANCH  50  73
ATOM     73  C   UNL A   1      49.882  26.743  26.417  1.00  0.00    -0.014 A 
ATOM     74  C   UNL A   1      50.380  27.143  25.165  1.00  0.00     0.010 A 
ATOM     75  C   UNL A   1      50.688  25.949  27.253  1.00  0.00     0.010 A 
ATOM     76  C   UNL A   1      51.656  26.747  24.752  1.00  0.00     0.020 A 
ATOM     77  C   UNL A   1      51.971  25.567  26.852  1.00  0.00     0.020 A 
ATOM     78  C   UNL A   1      52.443  25.962  25.598  1.00  0.00     0.054 A 
BRANCH  78  79
ATOM     79  S   UNL A   1      54.119  25.508  25.072  1.00  0.00     0.124 S 
ATOM     80  O   UNL A   1      53.914  24.170  24.526  1.00  0.00    -0.237 OA
ATOM     81  O   UNL A   1      54.441  26.547  24.097  1.00  0.00    -0.237 OA
ATOM     82  O   UNL A   1      54.893  25.568  26.310  1.00  0.00    -0.744 OA
ENDBRANCH  78  79
ENDBRANCH  50  73
BRANCH  62  83
ATOM     83  C   UNL A   1      47.158  32.792  28.560  1.00  0.00    -0.014 A 
ATOM     84  C   UNL A   1      47.760  33.136  29.784  1.00  0.00     0.010 A 
ATOM     85  C   UNL A   1      47.175  33.716  27.500  1.00  0.00     0.010 A 
ATOM     86  C   UNL A   1      48.348  34.392  29.949  1.00  0.00     0.020 A 
ATOM     87  C   UNL A   1      47.779  34.965  27.656  1.00  0.00     0.020 A 
ATOM     88  C   UNL A   1      48.353  35.300  28.885  1.00  0.00     0.054 A 
BRANCH  88  89
ATOM     89  S   UNL A   1      49.170  36.905  29.102  1.00  0.00     0.124 S 
ATOM     90  O   UNL A   1      49.505  36.884  30.522  1.00  0.00    -0.237 OA
ATOM     91  O   UNL A   1      50.305  36.818  28.186  1.00  0.00    -0.237 OA
ATOM     92  O   UNL A   1      48.142  37.869  28.718  1.00  0.00    -0.744 OA
ENDBRANCH  88  89
ENDBRANCH  62  83
ENDBRANCH  36  37
ENDBRANCH  29  31
ENDBRANCH  28  29
ENDBRANCH  27  28
ENDBRANCH  26  27
ENDBRANCH  25  26
ENDBRANCH  24  25
ENDBRANCH   1  24
TORSDOF 24
ENDMDL
