MODEL 1
REMARK VINA RESULT:     -10.4      0.000      0.000
REMARK SMILES Cc1c(NC(=O)c2ccc(Br)cc2N)cccc1C(=O)OCCOCCOCCOCCOC(=O)c1ccc(-c2c3nc(c(-c4ccc(S(=O)(=O)[O-])cc4)c4ccc([nH]4)c(-c4ccc(S(=O)(=O)[O-])cc4)c4nc(c(-c5ccc(S(=O)(=O)[O-])cc5)c5ccc2[nH]5)C=C4)C=C3)cc1
REMARK SMILES IDX 27 1 26 2 25 3 24 4 23 5 22 6 21 7 19 8 20 9 18 10 1 11 2 12
REMARK SMILES IDX 3 13 15 14 17 15 16 16 4 17 5 18 6 20 7 21 8 22 13 23 9 24
REMARK SMILES IDX 12 25 10 26 11 27 14 28 28 31 29 32 30 33 31 34 32 35 33 36
REMARK SMILES IDX 34 37 35 38 36 39 37 40 95 41 38 42 94 43 39 44 40 45 41 46
REMARK SMILES IDX 88 47 42 48 93 49 87 50 89 51 43 52 92 53 86 54 85 55 44 57
REMARK SMILES IDX 74 58 55 59 73 60 56 61 59 62 72 63 90 64 57 65 58 66 71 68
REMARK SMILES IDX 91 69 60 70 45 71 46 72 54 73 47 74 53 75 48 76 49 77 50 78
REMARK SMILES IDX 51 79 52 80 75 81 76 82 84 83 77 84 83 85 78 86 79 87 80 88
REMARK SMILES IDX 81 89 82 90 61 91 62 92 70 93 63 94 69 95 64 96 65 97 66 98
REMARK SMILES IDX 67 99 68 100
REMARK H PARENT 4 19 14 29 14 30 89 56 59 67
REMARK Flexibility Score: inf
ROOT
ATOM      1  O   UNL A   1      36.040  21.207  25.589  1.00  0.00    -0.377 OA
ENDROOT
BRANCH   1   2
ATOM      2  C   UNL A   1      35.007  21.967  26.187  1.00  0.00     0.188 C 
BRANCH   2   3
ATOM      3  C   UNL A   1      33.647  21.331  26.514  1.00  0.00     0.188 C 
BRANCH   3   4
ATOM      4  O   UNL A   1      33.288  20.065  25.997  1.00  0.00    -0.376 OA
BRANCH   4   5
ATOM      5  C   UNL A   1      32.261  20.094  25.016  1.00  0.00     0.202 C 
BRANCH   5   6
ATOM      6  C   UNL A   1      32.657  20.446  23.598  1.00  0.00     0.261 C 
BRANCH   6   7
ATOM      7  O   UNL A   1      32.013  21.660  23.247  1.00  0.00    -0.460 OA
BRANCH   7   8
ATOM      8  C   UNL A   1      32.821  22.724  23.270  1.00  0.00     0.338 C 
ATOM      9  O   UNL A   1      33.958  22.793  22.862  1.00  0.00    -0.246 OA
BRANCH   8  10
ATOM     10  C   UNL A   1      32.002  23.920  23.566  1.00  0.00     0.065 A 
ATOM     11  C   UNL A   1      32.656  25.423  21.566  1.00  0.00     0.047 C 
ATOM     12  C   UNL A   1      31.808  25.065  22.762  1.00  0.00    -0.013 A 
ATOM     13  C   UNL A   1      30.819  25.979  23.172  1.00  0.00     0.045 A 
ATOM     14  C   UNL A   1      30.176  25.806  24.407  1.00  0.00     0.026 A 
ATOM     15  C   UNL A   1      31.445  23.848  24.853  1.00  0.00     0.016 A 
ATOM     16  C   UNL A   1      30.552  24.801  25.286  1.00  0.00     0.003 A 
BRANCH  13  17
ATOM     17  N   UNL A   1      30.483  27.049  22.310  1.00  0.00    -0.322 N 
ATOM     18  C   UNL A   1      30.655  28.406  22.486  1.00  0.00     0.257 C 
ATOM     19  H   UNL A   1      30.066  26.787  21.458  1.00  0.00     0.170 HD
ATOM     20  O   UNL A   1      30.058  29.216  21.781  1.00  0.00    -0.269 OA
BRANCH  18  21
ATOM     21  C   UNL A   1      31.596  28.893  23.521  1.00  0.00     0.063 A 
ATOM     22  C   UNL A   1      31.024  29.317  24.728  1.00  0.00     0.017 A 
ATOM     23  C   UNL A   1      32.996  28.806  23.366  1.00  0.00     0.045 A 
ATOM     24  C   UNL A   1      31.843  29.601  25.817  1.00  0.00     0.016 A 
ATOM     25  C   UNL A   1      33.799  29.106  24.472  1.00  0.00     0.042 A 
ATOM     26  C   UNL A   1      33.224  29.476  25.689  1.00  0.00     0.020 A 
ATOM     27  Br  UNL A   1      34.337  29.807  27.181  1.00  0.00    -0.051 Br
BRANCH  23  28
ATOM     28  N   UNL A   1      33.615  28.542  22.152  1.00  0.00    -0.398 N 
ATOM     29  H   UNL A   1      33.645  27.622  21.805  1.00  0.00     0.156 HD
ATOM     30  H   UNL A   1      34.023  29.277  21.638  1.00  0.00     0.156 HD
ENDBRANCH  23  28
ENDBRANCH  18  21
ENDBRANCH  13  17
ENDBRANCH   8  10
ENDBRANCH   7   8
ENDBRANCH   6   7
ENDBRANCH   5   6
ENDBRANCH   4   5
ENDBRANCH   3   4
ENDBRANCH   2   3
ENDBRANCH   1   2
BRANCH   1  31
ATOM     31  C   UNL A   1      37.247  21.886  25.216  1.00  0.00     0.188 C 
BRANCH  31  32
ATOM     32  C   UNL A   1      37.267  23.405  25.224  1.00  0.00     0.188 C 
BRANCH  32  33
ATOM     33  O   UNL A   1      38.173  23.795  26.260  1.00  0.00    -0.376 OA
BRANCH  33  34
ATOM     34  C   UNL A   1      39.171  22.855  26.606  1.00  0.00     0.202 C 
BRANCH  34  35
ATOM     35  C   UNL A   1      40.170  23.364  27.647  1.00  0.00     0.261 C 
BRANCH  35  36
ATOM     36  O   UNL A   1      39.858  24.703  28.116  1.00  0.00    -0.460 OA
BRANCH  36  37
ATOM     37  C   UNL A   1      40.657  25.762  27.775  1.00  0.00     0.338 C 
ATOM     38  O   UNL A   1      41.195  25.857  26.682  1.00  0.00    -0.246 OA
BRANCH  37  39
ATOM     39  C   UNL A   1      40.535  26.918  28.705  1.00  0.00     0.060 A 
ATOM     40  C   UNL A   1      41.532  27.892  28.861  1.00  0.00     0.016 A 
ATOM     41  C   UNL A   1      39.384  27.034  29.454  1.00  0.00     0.016 A 
ATOM     42  C   UNL A   1      41.476  28.830  29.917  1.00  0.00     0.010 A 
ATOM     43  C   UNL A   1      39.355  27.921  30.511  1.00  0.00     0.010 A 
ATOM     44  C   UNL A   1      40.414  28.794  30.811  1.00  0.00    -0.014 A 
BRANCH  44  45
ATOM     45  C   UNL A   1      40.308  29.519  32.105  1.00  0.00     0.031 A 
ATOM     46  C   UNL A   1      40.916  28.869  33.330  1.00  0.00     0.074 A 
ATOM     47  C   UNL A   1      40.068  30.861  32.085  1.00  0.00     0.049 A 
ATOM     48  N   UNL A   1      41.139  29.457  34.455  1.00  0.00    -0.248 NA
ATOM     49  C   UNL A   1      41.429  27.494  33.356  1.00  0.00     0.031 C 
ATOM     50  C   UNL A   1      40.485  31.855  33.081  1.00  0.00     0.029 A 
ATOM     51  N   UNL A   1      39.477  31.685  31.139  1.00  0.00    -0.354 N 
ATOM     52  C   UNL A   1      42.081  28.736  35.171  1.00  0.00     0.074 A 
ATOM     53  C   UNL A   1      42.186  27.486  34.464  1.00  0.00     0.031 C 
ATOM     54  C   UNL A   1      40.044  33.083  32.769  1.00  0.00     0.029 A 
ATOM     55  C   UNL A   1      39.078  32.890  31.723  1.00  0.00     0.049 A 
ATOM     56  H   UNL A   1      39.355  31.453  30.190  1.00  0.00     0.167 HD
ATOM     57  C   UNL A   1      42.739  29.347  36.207  1.00  0.00     0.031 A 
ATOM     58  C   UNL A   1      37.760  33.194  31.912  1.00  0.00     0.031 A 
ATOM     59  C   UNL A   1      42.141  30.669  36.504  1.00  0.00     0.049 A 
ATOM     60  C   UNL A   1      37.474  33.104  33.427  1.00  0.00     0.074 A 
ATOM     61  C   UNL A   1      42.626  31.961  36.601  1.00  0.00     0.029 A 
ATOM     62  N   UNL A   1      40.748  30.790  36.546  1.00  0.00    -0.354 N 
ATOM     63  N   UNL A   1      38.066  32.239  34.232  1.00  0.00    -0.248 NA
ATOM     64  C   UNL A   1      36.830  34.188  34.176  1.00  0.00     0.031 C 
ATOM     65  C   UNL A   1      41.514  32.853  36.481  1.00  0.00     0.029 A 
ATOM     66  C   UNL A   1      40.341  32.104  36.403  1.00  0.00     0.049 A 
ATOM     67  H   UNL A   1      40.132  30.032  36.664  1.00  0.00     0.167 HD
ATOM     68  C   UNL A   1      38.093  32.752  35.510  1.00  0.00     0.074 A 
ATOM     69  C   UNL A   1      37.236  33.933  35.434  1.00  0.00     0.031 C 
ATOM     70  C   UNL A   1      38.932  32.447  36.554  1.00  0.00     0.031 A 
BRANCH  57  71
ATOM     71  C   UNL A   1      44.037  28.866  36.880  1.00  0.00    -0.014 A 
ATOM     72  C   UNL A   1      44.041  27.622  37.554  1.00  0.00     0.010 A 
ATOM     73  C   UNL A   1      45.249  29.588  36.965  1.00  0.00     0.010 A 
ATOM     74  C   UNL A   1      45.156  27.127  38.260  1.00  0.00     0.020 A 
ATOM     75  C   UNL A   1      46.390  29.090  37.645  1.00  0.00     0.020 A 
ATOM     76  C   UNL A   1      46.335  27.859  38.295  1.00  0.00     0.054 A 
BRANCH  76  77
ATOM     77  S   UNL A   1      47.776  27.164  39.163  1.00  0.00     0.124 S 
ATOM     78  O   UNL A   1      48.732  28.269  39.132  1.00  0.00    -0.237 OA
ATOM     79  O   UNL A   1      47.232  26.843  40.479  1.00  0.00    -0.237 OA
ATOM     80  O   UNL A   1      48.147  26.006  38.351  1.00  0.00    -0.744 OA
ENDBRANCH  76  77
ENDBRANCH  57  71
BRANCH  58  81
ATOM     81  C   UNL A   1      36.978  32.904  30.658  1.00  0.00    -0.014 A 
ATOM     82  C   UNL A   1      35.681  32.377  30.914  1.00  0.00     0.010 A 
ATOM     83  C   UNL A   1      37.131  33.710  29.510  1.00  0.00     0.010 A 
ATOM     84  C   UNL A   1      34.549  32.864  30.242  1.00  0.00     0.020 A 
ATOM     85  C   UNL A   1      35.990  34.187  28.820  1.00  0.00     0.020 A 
ATOM     86  C   UNL A   1      34.704  33.819  29.241  1.00  0.00     0.054 A 
BRANCH  86  87
ATOM     87  S   UNL A   1      33.221  34.748  28.711  1.00  0.00     0.124 S 
ATOM     88  O   UNL A   1      32.580  33.822  27.787  1.00  0.00    -0.237 OA
ATOM     89  O   UNL A   1      32.519  34.974  29.974  1.00  0.00    -0.237 OA
ATOM     90  O   UNL A   1      33.778  35.951  28.108  1.00  0.00    -0.744 OA
ENDBRANCH  86  87
ENDBRANCH  58  81
BRANCH  70  91
ATOM     91  C   UNL A   1      38.385  32.370  37.960  1.00  0.00    -0.014 A 
ATOM     92  C   UNL A   1      38.737  33.304  38.943  1.00  0.00     0.010 A 
ATOM     93  C   UNL A   1      37.316  31.483  38.253  1.00  0.00     0.010 A 
ATOM     94  C   UNL A   1      38.091  33.321  40.177  1.00  0.00     0.020 A 
ATOM     95  C   UNL A   1      36.627  31.531  39.460  1.00  0.00     0.020 A 
ATOM     96  C   UNL A   1      37.043  32.436  40.426  1.00  0.00     0.054 A 
BRANCH  96  97
ATOM     97  S   UNL A   1      36.217  32.511  42.025  1.00  0.00     0.124 S 
ATOM     98  O   UNL A   1      37.195  31.858  42.889  1.00  0.00    -0.237 OA
ATOM     99  O   UNL A   1      36.057  33.949  42.233  1.00  0.00    -0.237 OA
ATOM    100  O   UNL A   1      34.974  31.776  41.811  1.00  0.00    -0.744 OA
ENDBRANCH  96  97
ENDBRANCH  70  91
ENDBRANCH  44  45
ENDBRANCH  37  39
ENDBRANCH  36  37
ENDBRANCH  35  36
ENDBRANCH  34  35
ENDBRANCH  33  34
ENDBRANCH  32  33
ENDBRANCH  31  32
ENDBRANCH   1  31
TORSDOF 26
ENDMDL
MODEL 2
REMARK VINA RESULT:     -10.1      5.757     11.183
REMARK SMILES Cc1c(NC(=O)c2ccc(Br)cc2N)cccc1C(=O)OCCOCCOCCOCCOC(=O)c1ccc(-c2c3nc(c(-c4ccc(S(=O)(=O)[O-])cc4)c4ccc([nH]4)c(-c4ccc(S(=O)(=O)[O-])cc4)c4nc(c(-c5ccc(S(=O)(=O)[O-])cc5)c5ccc2[nH]5)C=C4)C=C3)cc1
REMARK SMILES IDX 27 1 26 2 25 3 24 4 23 5 22 6 21 7 19 8 20 9 18 10 1 11 2 12
REMARK SMILES IDX 3 13 15 14 17 15 16 16 4 17 5 18 6 20 7 21 8 22 13 23 9 24
REMARK SMILES IDX 12 25 10 26 11 27 14 28 28 31 29 32 30 33 31 34 32 35 33 36
REMARK SMILES IDX 34 37 35 38 36 39 37 40 95 41 38 42 94 43 39 44 40 45 41 46
REMARK SMILES IDX 88 47 42 48 93 49 87 50 89 51 43 52 92 53 86 54 85 55 44 57
REMARK SMILES IDX 74 58 55 59 73 60 56 61 59 62 72 63 90 64 57 65 58 66 71 68
REMARK SMILES IDX 91 69 60 70 45 71 46 72 54 73 47 74 53 75 48 76 49 77 50 78
REMARK SMILES IDX 51 79 52 80 75 81 76 82 84 83 77 84 83 85 78 86 79 87 80 88
REMARK SMILES IDX 81 89 82 90 61 91 62 92 70 93 63 94 69 95 64 96 65 97 66 98
REMARK SMILES IDX 67 99 68 100
REMARK H PARENT 4 19 14 29 14 30 89 56 59 67
REMARK Flexibility Score: inf
ROOT
ATOM      1  O   UNL A   1      34.678  34.262  29.905  1.00  0.00    -0.377 OA
ENDROOT
BRANCH   1   2
ATOM      2  C   UNL A   1      35.202  33.733  28.702  1.00  0.00     0.188 C 
BRANCH   2   3
ATOM      3  C   UNL A   1      34.588  32.481  28.056  1.00  0.00     0.188 C 
BRANCH   3   4
ATOM      4  O   UNL A   1      35.340  31.294  27.903  1.00  0.00    -0.376 OA
BRANCH   4   5
ATOM      5  C   UNL A   1      34.564  30.122  27.691  1.00  0.00     0.202 C 
BRANCH   5   6
ATOM      6  C   UNL A   1      33.150  30.303  27.180  1.00  0.00     0.261 C 
BRANCH   6   7
ATOM      7  O   UNL A   1      32.773  29.119  26.495  1.00  0.00    -0.460 OA
BRANCH   7   8
ATOM      8  C   UNL A   1      31.729  29.281  25.677  1.00  0.00     0.338 C 
ATOM      9  O   UNL A   1      31.248  30.323  25.295  1.00  0.00    -0.246 OA
BRANCH   8  10
ATOM     10  C   UNL A   1      31.446  27.982  25.028  1.00  0.00     0.065 A 
ATOM     11  C   UNL A   1      31.844  28.617  22.553  1.00  0.00     0.047 C 
ATOM     12  C   UNL A   1      31.621  27.628  23.671  1.00  0.00    -0.013 A 
ATOM     13  C   UNL A   1      31.475  26.269  23.337  1.00  0.00     0.045 A 
ATOM     14  C   UNL A   1      31.029  25.355  24.304  1.00  0.00     0.026 A 
ATOM     15  C   UNL A   1      30.871  27.076  25.935  1.00  0.00     0.016 A 
ATOM     16  C   UNL A   1      30.639  25.769  25.569  1.00  0.00     0.003 A 
BRANCH  13  17
ATOM     17  N   UNL A   1      31.802  25.853  22.026  1.00  0.00    -0.322 N 
ATOM     18  C   UNL A   1      32.805  25.011  21.595  1.00  0.00     0.257 C 
ATOM     19  H   UNL A   1      31.228  26.217  21.315  1.00  0.00     0.170 HD
ATOM     20  O   UNL A   1      33.137  24.974  20.413  1.00  0.00    -0.269 OA
BRANCH  18  21
ATOM     21  C   UNL A   1      33.473  24.116  22.569  1.00  0.00     0.063 A 
ATOM     22  C   UNL A   1      34.441  24.708  23.391  1.00  0.00     0.017 A 
ATOM     23  C   UNL A   1      33.068  22.778  22.764  1.00  0.00     0.045 A 
ATOM     24  C   UNL A   1      34.972  23.990  24.459  1.00  0.00     0.016 A 
ATOM     25  C   UNL A   1      33.622  22.075  23.838  1.00  0.00     0.042 A 
ATOM     26  C   UNL A   1      34.545  22.685  24.689  1.00  0.00     0.020 A 
ATOM     27  Br  UNL A   1      35.222  21.724  26.170  1.00  0.00    -0.051 Br
BRANCH  23  28
ATOM     28  N   UNL A   1      32.232  22.100  21.888  1.00  0.00    -0.398 N 
ATOM     29  H   UNL A   1      32.253  22.307  20.927  1.00  0.00     0.156 HD
ATOM     30  H   UNL A   1      31.617  21.410  22.230  1.00  0.00     0.156 HD
ENDBRANCH  23  28
ENDBRANCH  18  21
ENDBRANCH  13  17
ENDBRANCH   8  10
ENDBRANCH   7   8
ENDBRANCH   6   7
ENDBRANCH   5   6
ENDBRANCH   4   5
ENDBRANCH   3   4
ENDBRANCH   2   3
ENDBRANCH   1   2
BRANCH   1  31
ATOM     31  C   UNL A   1      34.854  33.501  31.108  1.00  0.00     0.188 C 
BRANCH  31  32
ATOM     32  C   UNL A   1      36.119  33.700  31.925  1.00  0.00     0.188 C 
BRANCH  32  33
ATOM     33  O   UNL A   1      36.173  32.622  32.862  1.00  0.00    -0.376 OA
BRANCH  33  34
ATOM     34  C   UNL A   1      37.332  32.550  33.669  1.00  0.00     0.202 C 
BRANCH  34  35
ATOM     35  C   UNL A   1      37.816  31.124  33.938  1.00  0.00     0.261 C 
BRANCH  35  36
ATOM     36  O   UNL A   1      38.100  30.389  32.718  1.00  0.00    -0.460 OA
BRANCH  36  37
ATOM     37  C   UNL A   1      38.250  29.028  32.747  1.00  0.00     0.338 C 
ATOM     38  O   UNL A   1      37.327  28.268  32.998  1.00  0.00    -0.246 OA
BRANCH  37  39
ATOM     39  C   UNL A   1      39.519  28.559  32.125  1.00  0.00     0.060 A 
ATOM     40  C   UNL A   1      40.761  28.612  32.773  1.00  0.00     0.016 A 
ATOM     41  C   UNL A   1      39.469  28.050  30.845  1.00  0.00     0.016 A 
ATOM     42  C   UNL A   1      41.963  28.381  32.066  1.00  0.00     0.010 A 
ATOM     43  C   UNL A   1      40.646  27.869  30.147  1.00  0.00     0.010 A 
ATOM     44  C   UNL A   1      41.915  28.086  30.709  1.00  0.00    -0.014 A 
BRANCH  44  45
ATOM     45  C   UNL A   1      43.057  28.058  29.758  1.00  0.00     0.031 A 
ATOM     46  C   UNL A   1      43.700  26.720  29.466  1.00  0.00     0.074 A 
ATOM     47  C   UNL A   1      43.213  29.101  28.892  1.00  0.00     0.049 A 
ATOM     48  N   UNL A   1      44.513  26.477  28.496  1.00  0.00    -0.248 NA
ATOM     49  C   UNL A   1      43.394  25.487  30.202  1.00  0.00     0.031 C 
ATOM     50  C   UNL A   1      43.820  29.066  27.557  1.00  0.00     0.029 A 
ATOM     51  N   UNL A   1      42.794  30.421  28.944  1.00  0.00    -0.354 N 
ATOM     52  C   UNL A   1      44.546  25.112  28.255  1.00  0.00     0.074 A 
ATOM     53  C   UNL A   1      43.873  24.534  29.388  1.00  0.00     0.031 C 
ATOM     54  C   UNL A   1      43.847  30.283  26.994  1.00  0.00     0.029 A 
ATOM     55  C   UNL A   1      43.533  31.203  28.052  1.00  0.00     0.049 A 
ATOM     56  H   UNL A   1      42.077  30.761  29.528  1.00  0.00     0.167 HD
ATOM     57  C   UNL A   1      45.038  24.660  27.057  1.00  0.00     0.031 A 
ATOM     58  C   UNL A   1      44.446  32.120  28.487  1.00  0.00     0.031 A 
ATOM     59  C   UNL A   1      45.658  25.766  26.292  1.00  0.00     0.049 A 
ATOM     60  C   UNL A   1      45.852  31.565  28.167  1.00  0.00     0.074 A 
ATOM     61  C   UNL A   1      45.496  26.284  25.020  1.00  0.00     0.029 A 
ATOM     62  N   UNL A   1      46.489  26.672  26.959  1.00  0.00    -0.354 N 
ATOM     63  N   UNL A   1      46.153  30.278  28.197  1.00  0.00    -0.248 NA
ATOM     64  C   UNL A   1      46.862  32.342  27.443  1.00  0.00     0.031 C 
ATOM     65  C   UNL A   1      46.054  27.602  25.011  1.00  0.00     0.029 A 
ATOM     66  C   UNL A   1      46.638  27.852  26.251  1.00  0.00     0.049 A 
ATOM     67  H   UNL A   1      46.917  26.492  27.827  1.00  0.00     0.167 HD
ATOM     68  C   UNL A   1      47.201  30.038  27.336  1.00  0.00     0.074 A 
ATOM     69  C   UNL A   1      47.658  31.372  26.954  1.00  0.00     0.031 C 
ATOM     70  C   UNL A   1      47.574  28.866  26.722  1.00  0.00     0.031 A 
BRANCH  57  71
ATOM     71  C   UNL A   1      44.840  23.258  26.455  1.00  0.00    -0.014 A 
ATOM     72  C   UNL A   1      45.965  22.560  25.955  1.00  0.00     0.010 A 
ATOM     73  C   UNL A   1      43.605  22.596  26.274  1.00  0.00     0.010 A 
ATOM     74  C   UNL A   1      45.878  21.304  25.322  1.00  0.00     0.020 A 
ATOM     75  C   UNL A   1      43.503  21.317  25.667  1.00  0.00     0.020 A 
ATOM     76  C   UNL A   1      44.645  20.678  25.189  1.00  0.00     0.054 A 
BRANCH  76  77
ATOM     77  S   UNL A   1      44.574  19.029  24.423  1.00  0.00     0.124 S 
ATOM     78  O   UNL A   1      44.369  19.341  23.010  1.00  0.00    -0.237 OA
ATOM     79  O   UNL A   1      45.878  18.465  24.756  1.00  0.00    -0.237 OA
ATOM     80  O   UNL A   1      43.438  18.386  25.083  1.00  0.00    -0.744 OA
ENDBRANCH  76  77
ENDBRANCH  57  71
BRANCH  58  81
ATOM     81  C   UNL A   1      43.854  32.955  29.591  1.00  0.00    -0.014 A 
ATOM     82  C   UNL A   1      43.238  34.150  29.123  1.00  0.00     0.010 A 
ATOM     83  C   UNL A   1      43.293  32.347  30.734  1.00  0.00     0.010 A 
ATOM     84  C   UNL A   1      41.971  34.547  29.580  1.00  0.00     0.020 A 
ATOM     85  C   UNL A   1      42.022  32.758  31.207  1.00  0.00     0.020 A 
ATOM     86  C   UNL A   1      41.340  33.807  30.576  1.00  0.00     0.054 A 
BRANCH  86  87
ATOM     87  S   UNL A   1      39.546  34.067  30.824  1.00  0.00     0.124 S 
ATOM     88  O   UNL A   1      39.007  32.723  30.667  1.00  0.00    -0.237 OA
ATOM     89  O   UNL A   1      39.489  34.622  32.175  1.00  0.00    -0.237 OA
ATOM     90  O   UNL A   1      39.197  35.010  29.770  1.00  0.00    -0.744 OA
ENDBRANCH  86  87
ENDBRANCH  58  81
BRANCH  70  91
ATOM     91  C   UNL A   1      49.038  28.526  26.577  1.00  0.00    -0.014 A 
ATOM     92  C   UNL A   1      49.964  28.792  27.593  1.00  0.00     0.010 A 
ATOM     93  C   UNL A   1      49.469  27.713  25.497  1.00  0.00     0.010 A 
ATOM     94  C   UNL A   1      51.270  28.315  27.514  1.00  0.00     0.020 A 
ATOM     95  C   UNL A   1      50.754  27.184  25.437  1.00  0.00     0.020 A 
ATOM     96  C   UNL A   1      51.655  27.516  26.439  1.00  0.00     0.054 A 
BRANCH  96  97
ATOM     97  S   UNL A   1      53.345  26.897  26.391  1.00  0.00     0.124 S 
ATOM     98  O   UNL A   1      53.709  26.934  27.804  1.00  0.00    -0.237 OA
ATOM     99  O   UNL A   1      53.179  25.561  25.821  1.00  0.00    -0.237 OA
ATOM    100  O   UNL A   1      54.044  27.851  25.535  1.00  0.00    -0.744 OA
ENDBRANCH  96  97
ENDBRANCH  70  91
ENDBRANCH  44  45
ENDBRANCH  37  39
ENDBRANCH  36  37
ENDBRANCH  35  36
ENDBRANCH  34  35
ENDBRANCH  33  34
ENDBRANCH  32  33
ENDBRANCH  31  32
ENDBRANCH   1  31
TORSDOF 26
ENDMDL
MODEL 3
REMARK VINA RESULT:      -9.7      3.848      8.715
REMARK SMILES Cc1c(NC(=O)c2ccc(Br)cc2N)cccc1C(=O)OCCOCCOCCOCCOC(=O)c1ccc(-c2c3nc(c(-c4ccc(S(=O)(=O)[O-])cc4)c4ccc([nH]4)c(-c4ccc(S(=O)(=O)[O-])cc4)c4nc(c(-c5ccc(S(=O)(=O)[O-])cc5)c5ccc2[nH]5)C=C4)C=C3)cc1
REMARK SMILES IDX 27 1 26 2 25 3 24 4 23 5 22 6 21 7 19 8 20 9 18 10 1 11 2 12
REMARK SMILES IDX 3 13 15 14 17 15 16 16 4 17 5 18 6 20 7 21 8 22 13 23 9 24
REMARK SMILES IDX 12 25 10 26 11 27 14 28 28 31 29 32 30 33 31 34 32 35 33 36
REMARK SMILES IDX 34 37 35 38 36 39 37 40 95 41 38 42 94 43 39 44 40 45 41 46
REMARK SMILES IDX 88 47 42 48 93 49 87 50 89 51 43 52 92 53 86 54 85 55 44 57
REMARK SMILES IDX 74 58 55 59 73 60 56 61 59 62 72 63 90 64 57 65 58 66 71 68
REMARK SMILES IDX 91 69 60 70 45 71 46 72 54 73 47 74 53 75 48 76 49 77 50 78
REMARK SMILES IDX 51 79 52 80 75 81 76 82 84 83 77 84 83 85 78 86 79 87 80 88
REMARK SMILES IDX 81 89 82 90 61 91 62 92 70 93 63 94 69 95 64 96 65 97 66 98
REMARK SMILES IDX 67 99 68 100
REMARK H PARENT 4 19 14 29 14 30 89 56 59 67
REMARK Flexibility Score: inf
ROOT
ATOM      1  O   UNL A   1      28.825  31.986  24.039  1.00  0.00    -0.377 OA
ENDROOT
BRANCH   1   2
ATOM      2  C   UNL A   1      28.640  32.113  22.642  1.00  0.00     0.188 C 
BRANCH   2   3
ATOM      3  C   UNL A   1      29.153  31.032  21.677  1.00  0.00     0.188 C 
BRANCH   3   4
ATOM      4  O   UNL A   1      28.466  29.806  21.521  1.00  0.00    -0.376 OA
BRANCH   4   5
ATOM      5  C   UNL A   1      28.107  29.168  22.739  1.00  0.00     0.202 C 
BRANCH   5   6
ATOM      6  C   UNL A   1      28.453  27.701  22.889  1.00  0.00     0.261 C 
BRANCH   6   7
ATOM      7  O   UNL A   1      29.583  27.598  23.739  1.00  0.00    -0.460 OA
BRANCH   7   8
ATOM      8  C   UNL A   1      29.529  26.564  24.583  1.00  0.00     0.338 C 
ATOM      9  O   UNL A   1      28.551  25.928  24.905  1.00  0.00    -0.246 OA
BRANCH   8  10
ATOM     10  C   UNL A   1      30.909  26.086  24.816  1.00  0.00     0.065 A 
ATOM     11  C   UNL A   1      31.380  24.939  22.547  1.00  0.00     0.047 C 
ATOM     12  C   UNL A   1      31.793  25.488  23.890  1.00  0.00    -0.013 A 
ATOM     13  C   UNL A   1      33.128  25.306  24.300  1.00  0.00     0.045 A 
ATOM     14  C   UNL A   1      33.495  25.581  25.626  1.00  0.00     0.026 A 
ATOM     15  C   UNL A   1      31.272  26.220  26.167  1.00  0.00     0.016 A 
ATOM     16  C   UNL A   1      32.556  25.945  26.579  1.00  0.00     0.003 A 
BRANCH  13  17
ATOM     17  N   UNL A   1      34.076  24.864  23.349  1.00  0.00    -0.322 N 
ATOM     18  C   UNL A   1      34.698  23.639  23.232  1.00  0.00     0.257 C 
ATOM     19  H   UNL A   1      34.330  25.529  22.669  1.00  0.00     0.170 HD
ATOM     20  O   UNL A   1      35.701  23.502  22.535  1.00  0.00    -0.269 OA
BRANCH  18  21
ATOM     21  C   UNL A   1      34.131  22.465  23.935  1.00  0.00     0.063 A 
ATOM     22  C   UNL A   1      32.992  21.888  23.357  1.00  0.00     0.017 A 
ATOM     23  C   UNL A   1      34.772  21.867  25.041  1.00  0.00     0.045 A 
ATOM     24  C   UNL A   1      32.515  20.672  23.839  1.00  0.00     0.016 A 
ATOM     25  C   UNL A   1      34.269  20.651  25.513  1.00  0.00     0.042 A 
ATOM     26  C   UNL A   1      33.167  20.050  24.901  1.00  0.00     0.020 A 
ATOM     27  Br  UNL A   1      32.557  18.373  25.523  1.00  0.00    -0.051 Br
BRANCH  23  28
ATOM     28  N   UNL A   1      35.804  22.474  25.743  1.00  0.00    -0.398 N 
ATOM     29  H   UNL A   1      36.274  23.247  25.357  1.00  0.00     0.156 HD
ATOM     30  H   UNL A   1      36.065  22.130  26.629  1.00  0.00     0.156 HD
ENDBRANCH  23  28
ENDBRANCH  18  21
ENDBRANCH  13  17
ENDBRANCH   8  10
ENDBRANCH   7   8
ENDBRANCH   6   7
ENDBRANCH   5   6
ENDBRANCH   4   5
ENDBRANCH   3   4
ENDBRANCH   2   3
ENDBRANCH   1   2
BRANCH   1  31
ATOM     31  C   UNL A   1      30.167  31.869  24.534  1.00  0.00     0.188 C 
BRANCH  31  32
ATOM     32  C   UNL A   1      30.741  30.484  24.779  1.00  0.00     0.188 C 
BRANCH  32  33
ATOM     33  O   UNL A   1      31.847  30.654  25.670  1.00  0.00    -0.376 OA
BRANCH  33  34
ATOM     34  C   UNL A   1      32.787  29.599  25.709  1.00  0.00     0.202 C 
BRANCH  34  35
ATOM     35  C   UNL A   1      33.592  29.531  27.008  1.00  0.00     0.261 C 
BRANCH  35  36
ATOM     36  O   UNL A   1      33.750  30.831  27.639  1.00  0.00    -0.460 OA
BRANCH  36  37
ATOM     37  C   UNL A   1      34.990  31.399  27.757  1.00  0.00     0.338 C 
ATOM     38  O   UNL A   1      35.181  32.598  27.618  1.00  0.00    -0.246 OA
BRANCH  37  39
ATOM     39  C   UNL A   1      35.994  30.502  28.390  1.00  0.00     0.060 A 
ATOM     40  C   UNL A   1      35.851  29.972  29.680  1.00  0.00     0.016 A 
ATOM     41  C   UNL A   1      37.125  30.179  27.671  1.00  0.00     0.016 A 
ATOM     42  C   UNL A   1      36.929  29.324  30.326  1.00  0.00     0.010 A 
ATOM     43  C   UNL A   1      38.189  29.587  28.321  1.00  0.00     0.010 A 
ATOM     44  C   UNL A   1      38.148  29.202  29.671  1.00  0.00    -0.014 A 
BRANCH  44  45
ATOM     45  C   UNL A   1      39.445  28.786  30.266  1.00  0.00     0.031 A 
ATOM     46  C   UNL A   1      40.042  27.471  29.809  1.00  0.00     0.074 A 
ATOM     47  C   UNL A   1      40.234  29.736  30.845  1.00  0.00     0.049 A 
ATOM     48  N   UNL A   1      41.254  27.087  30.020  1.00  0.00    -0.248 NA
ATOM     49  C   UNL A   1      39.333  26.500  28.968  1.00  0.00     0.031 C 
ATOM     50  C   UNL A   1      41.698  29.733  30.954  1.00  0.00     0.029 A 
ATOM     51  N   UNL A   1      39.943  30.973  31.398  1.00  0.00    -0.354 N 
ATOM     52  C   UNL A   1      41.586  26.093  29.113  1.00  0.00     0.074 A 
ATOM     53  C   UNL A   1      40.329  25.723  28.516  1.00  0.00     0.031 C 
ATOM     54  C   UNL A   1      42.146  30.806  31.622  1.00  0.00     0.029 A 
ATOM     55  C   UNL A   1      40.984  31.393  32.229  1.00  0.00     0.049 A 
ATOM     56  H   UNL A   1      39.118  31.484  31.228  1.00  0.00     0.167 HD
ATOM     57  C   UNL A   1      42.908  25.799  28.903  1.00  0.00     0.031 A 
ATOM     58  C   UNL A   1      40.844  31.442  33.587  1.00  0.00     0.031 A 
ATOM     59  C   UNL A   1      43.766  26.500  29.885  1.00  0.00     0.049 A 
ATOM     60  C   UNL A   1      41.685  30.293  34.184  1.00  0.00     0.074 A 
ATOM     61  C   UNL A   1      44.855  27.348  29.801  1.00  0.00     0.029 A 
ATOM     62  N   UNL A   1      43.380  26.523  31.230  1.00  0.00    -0.354 N 
ATOM     63  N   UNL A   1      41.856  29.126  33.586  1.00  0.00    -0.248 NA
ATOM     64  C   UNL A   1      42.668  30.504  35.250  1.00  0.00     0.031 C 
ATOM     65  C   UNL A   1      44.971  28.034  31.052  1.00  0.00     0.029 A 
ATOM     66  C   UNL A   1      44.010  27.538  31.929  1.00  0.00     0.049 A 
ATOM     67  H   UNL A   1      42.739  25.892  31.631  1.00  0.00     0.167 HD
ATOM     68  C   UNL A   1      43.050  28.576  33.996  1.00  0.00     0.074 A 
ATOM     69  C   UNL A   1      43.477  29.438  35.096  1.00  0.00     0.031 C 
ATOM     70  C   UNL A   1      43.838  27.637  33.374  1.00  0.00     0.031 A 
BRANCH  57  71
ATOM     71  C   UNL A   1      43.495  25.012  27.719  1.00  0.00    -0.014 A 
ATOM     72  C   UNL A   1      44.894  24.799  27.660  1.00  0.00     0.010 A 
ATOM     73  C   UNL A   1      42.776  24.522  26.605  1.00  0.00     0.010 A 
ATOM     74  C   UNL A   1      45.534  24.153  26.584  1.00  0.00     0.020 A 
ATOM     75  C   UNL A   1      43.402  23.842  25.528  1.00  0.00     0.020 A 
ATOM     76  C   UNL A   1      44.783  23.665  25.522  1.00  0.00     0.054 A 
BRANCH  76  77
ATOM     77  S   UNL A   1      45.634  22.781  24.178  1.00  0.00     0.124 S 
ATOM     78  O   UNL A   1      46.079  21.553  24.833  1.00  0.00    -0.237 OA
ATOM     79  O   UNL A   1      44.576  22.613  23.185  1.00  0.00    -0.237 OA
ATOM     80  O   UNL A   1      46.707  23.693  23.784  1.00  0.00    -0.744 OA
ENDBRANCH  76  77
ENDBRANCH  57  71
BRANCH  58  81
ATOM     81  C   UNL A   1      39.545  32.113  33.948  1.00  0.00    -0.014 A 
ATOM     82  C   UNL A   1      39.457  33.455  33.480  1.00  0.00     0.010 A 
ATOM     83  C   UNL A   1      38.345  31.374  34.013  1.00  0.00     0.010 A 
ATOM     84  C   UNL A   1      38.303  33.930  32.837  1.00  0.00     0.020 A 
ATOM     85  C   UNL A   1      37.175  31.861  33.381  1.00  0.00     0.020 A 
ATOM     86  C   UNL A   1      37.188  33.104  32.732  1.00  0.00     0.054 A 
BRANCH  86  87
ATOM     87  S   UNL A   1      35.895  33.567  31.524  1.00  0.00     0.124 S 
ATOM     88  O   UNL A   1      35.368  34.805  32.082  1.00  0.00    -0.237 OA
ATOM     89  O   UNL A   1      36.653  33.700  30.281  1.00  0.00    -0.237 OA
ATOM     90  O   UNL A   1      34.986  32.429  31.556  1.00  0.00    -0.744 OA
ENDBRANCH  86  87
ENDBRANCH  58  81
BRANCH  70  91
ATOM     91  C   UNL A   1      44.523  26.569  34.192  1.00  0.00    -0.014 A 
ATOM     92  C   UNL A   1      43.814  25.744  35.074  1.00  0.00     0.010 A 
ATOM     93  C   UNL A   1      45.869  26.220  33.910  1.00  0.00     0.010 A 
ATOM     94  C   UNL A   1      44.429  24.654  35.685  1.00  0.00     0.020 A 
ATOM     95  C   UNL A   1      46.475  25.101  34.471  1.00  0.00     0.020 A 
ATOM     96  C   UNL A   1      45.753  24.341  35.380  1.00  0.00     0.054 A 
BRANCH  96  97
ATOM     97  S   UNL A   1      46.501  22.907  36.171  1.00  0.00     0.124 S 
ATOM     98  O   UNL A   1      47.138  22.248  35.036  1.00  0.00    -0.237 OA
ATOM     99  O   UNL A   1      47.414  23.516  37.137  1.00  0.00    -0.237 OA
ATOM    100  O   UNL A   1      45.367  22.198  36.755  1.00  0.00    -0.744 OA
ENDBRANCH  96  97
ENDBRANCH  70  91
ENDBRANCH  44  45
ENDBRANCH  37  39
ENDBRANCH  36  37
ENDBRANCH  35  36
ENDBRANCH  34  35
ENDBRANCH  33  34
ENDBRANCH  32  33
ENDBRANCH  31  32
ENDBRANCH   1  31
TORSDOF 26
ENDMDL
