MODEL 1
REMARK VINA RESULT:      -9.1      0.000      0.000
REMARK SMILES C[C@@H](C(=O)OCCOCCOCCOCCOC(=O)c1ccc(-c2c3nc(c(-c4ccc(S(=O)(=O)[O-])cc4)c4ccc([nH]4)c(-c4ccc(S(=O)(=O)[O-])cc4)c4nc(c(-c5ccc(S(=O)(=O)[O-])cc5)c5ccc2[nH]5)C=C4)C=C3)cc1)c1ccn(C(F)F)c(=O)c1
REMARK SMILES IDX 12 1 11 2 10 3 9 4 8 5 7 6 6 7 5 8 3 9 4 10 2 11 1 12 80 13
REMARK SMILES IDX 81 14 89 15 82 16 87 17 83 18 88 19 84 20 85 21 86 22 13 23
REMARK SMILES IDX 14 24 15 25 16 26 17 27 18 28 19 29 20 30 21 31 79 32 22 33
REMARK SMILES IDX 78 34 23 35 24 36 25 37 72 38 26 39 77 40 71 41 73 42 27 43
REMARK SMILES IDX 76 44 70 45 69 46 28 48 58 49 39 50 57 51 40 52 43 53 56 54
REMARK SMILES IDX 74 55 41 56 42 57 55 59 75 60 44 61 29 62 30 63 38 64 31 65
REMARK SMILES IDX 37 66 32 67 33 68 34 69 35 70 36 71 59 72 60 73 68 74 61 75
REMARK SMILES IDX 67 76 62 77 63 78 64 79 65 80 66 81 45 82 46 83 54 84 47 85
REMARK SMILES IDX 53 86 48 87 49 88 50 89 51 90 52 91
REMARK H PARENT 73 47 43 58
REMARK Flexibility Score: inf
ROOT
ATOM      1  C   UNL A   1      33.340  30.023  26.480  1.00  0.00     0.188 C 
ENDROOT
BRANCH   1   2
ATOM      2  O   UNL A   1      32.289  29.834  25.537  1.00  0.00    -0.377 OA
BRANCH   2   3
ATOM      3  C   UNL A   1      32.580  29.137  24.343  1.00  0.00     0.188 C 
BRANCH   3   4
ATOM      4  C   UNL A   1      31.352  28.737  23.513  1.00  0.00     0.188 C 
BRANCH   4   5
ATOM      5  O   UNL A   1      30.480  27.778  24.072  1.00  0.00    -0.376 OA
BRANCH   5   6
ATOM      6  C   UNL A   1      30.731  27.209  25.350  1.00  0.00     0.202 C 
BRANCH   6   7
ATOM      7  C   UNL A   1      30.436  25.753  25.779  1.00  0.00     0.261 C 
BRANCH   7   8
ATOM      8  O   UNL A   1      31.477  25.052  26.468  1.00  0.00    -0.463 OA
BRANCH   8   9
ATOM      9  C   UNL A   1      31.367  23.712  26.622  1.00  0.00     0.313 C 
ATOM     10  O   UNL A   1      30.765  23.164  27.538  1.00  0.00    -0.252 OA
BRANCH   9  11
ATOM     11  C   UNL A   1      31.965  22.935  25.426  1.00  0.00     0.126 C 
ATOM     12  C   UNL A   1      31.414  21.494  25.330  1.00  0.00     0.025 C 
BRANCH  11  13
ATOM     13  C   UNL A   1      33.496  23.081  25.335  1.00  0.00    -0.027 A 
ATOM     14  C   UNL A   1      34.274  23.177  26.563  1.00  0.00     0.023 A 
ATOM     15  C   UNL A   1      34.182  23.088  24.173  1.00  0.00     0.076 A 
ATOM     16  C   UNL A   1      35.610  23.284  26.532  1.00  0.00     0.095 A 
ATOM     17  C   UNL A   1      35.663  23.242  24.115  1.00  0.00     0.255 A 
ATOM     18  N   UNL A   1      36.302  23.307  25.337  1.00  0.00    -0.258 N 
ATOM     19  O   UNL A   1      36.211  23.297  23.018  1.00  0.00    -0.269 OA
BRANCH  18  20
ATOM     20  C   UNL A   1      37.739  23.400  25.315  1.00  0.00     0.451 C 
ATOM     21  F   UNL A   1      38.212  23.987  26.442  1.00  0.00    -0.185 F 
ATOM     22  F   UNL A   1      38.311  22.175  25.210  1.00  0.00    -0.185 F 
ENDBRANCH  18  20
ENDBRANCH  11  13
ENDBRANCH   9  11
ENDBRANCH   8   9
ENDBRANCH   7   8
ENDBRANCH   6   7
ENDBRANCH   5   6
ENDBRANCH   4   5
ENDBRANCH   3   4
ENDBRANCH   2   3
ENDBRANCH   1   2
BRANCH   1  23
ATOM     23  C   UNL A   1      33.280  31.158  27.528  1.00  0.00     0.188 C 
BRANCH  23  24
ATOM     24  O   UNL A   1      34.384  32.051  27.512  1.00  0.00    -0.376 OA
BRANCH  24  25
ATOM     25  C   UNL A   1      34.723  32.735  28.708  1.00  0.00     0.202 C 
BRANCH  25  26
ATOM     26  C   UNL A   1      35.408  31.921  29.816  1.00  0.00     0.261 C 
BRANCH  26  27
ATOM     27  O   UNL A   1      36.129  30.752  29.393  1.00  0.00    -0.460 OA
BRANCH  27  28
ATOM     28  C   UNL A   1      36.678  29.973  30.348  1.00  0.00     0.338 C 
ATOM     29  O   UNL A   1      36.154  29.603  31.386  1.00  0.00    -0.246 OA
BRANCH  28  30
ATOM     30  C   UNL A   1      37.968  29.470  29.832  1.00  0.00     0.060 A 
ATOM     31  C   UNL A   1      38.938  29.028  30.742  1.00  0.00     0.016 A 
ATOM     32  C   UNL A   1      38.217  29.432  28.459  1.00  0.00     0.016 A 
ATOM     33  C   UNL A   1      40.178  28.584  30.282  1.00  0.00     0.010 A 
ATOM     34  C   UNL A   1      39.468  29.008  28.000  1.00  0.00     0.010 A 
ATOM     35  C   UNL A   1      40.466  28.619  28.912  1.00  0.00    -0.014 A 
BRANCH  35  36
ATOM     36  C   UNL A   1      41.866  28.453  28.451  1.00  0.00     0.031 A 
ATOM     37  C   UNL A   1      42.307  27.087  27.994  1.00  0.00     0.074 A 
ATOM     38  C   UNL A   1      42.725  29.488  28.414  1.00  0.00     0.049 A 
ATOM     39  N   UNL A   1      43.486  26.683  27.601  1.00  0.00    -0.248 NA
ATOM     40  C   UNL A   1      41.275  26.036  27.982  1.00  0.00     0.031 C 
ATOM     41  C   UNL A   1      42.406  30.867  28.779  1.00  0.00     0.029 A 
ATOM     42  N   UNL A   1      44.049  29.531  28.055  1.00  0.00    -0.354 N 
ATOM     43  C   UNL A   1      43.342  25.332  27.305  1.00  0.00     0.074 A 
ATOM     44  C   UNL A   1      41.971  24.977  27.595  1.00  0.00     0.031 C 
ATOM     45  C   UNL A   1      43.511  31.621  28.636  1.00  0.00     0.029 A 
ATOM     46  C   UNL A   1      44.622  30.772  28.209  1.00  0.00     0.049 A 
ATOM     47  H   UNL A   1      44.542  28.749  27.719  1.00  0.00     0.167 HD
ATOM     48  C   UNL A   1      44.266  24.466  26.828  1.00  0.00     0.031 A 
ATOM     49  C   UNL A   1      45.901  31.169  28.050  1.00  0.00     0.031 A 
ATOM     50  C   UNL A   1      45.635  24.818  26.558  1.00  0.00     0.049 A 
ATOM     51  C   UNL A   1      46.935  30.166  27.601  1.00  0.00     0.074 A 
ATOM     52  C   UNL A   1      46.648  24.014  26.070  1.00  0.00     0.029 A 
ATOM     53  N   UNL A   1      46.183  26.076  26.762  1.00  0.00    -0.354 N 
ATOM     54  N   UNL A   1      46.781  28.896  27.308  1.00  0.00    -0.248 NA
ATOM     55  C   UNL A   1      48.314  30.652  27.454  1.00  0.00     0.031 C 
ATOM     56  C   UNL A   1      47.826  24.767  26.040  1.00  0.00     0.029 A 
ATOM     57  C   UNL A   1      47.529  26.061  26.437  1.00  0.00     0.049 A 
ATOM     58  H   UNL A   1      45.689  26.861  27.090  1.00  0.00     0.167 HD
ATOM     59  C   UNL A   1      48.036  28.441  26.911  1.00  0.00     0.074 A 
ATOM     60  C   UNL A   1      48.932  29.576  26.988  1.00  0.00     0.031 C 
ATOM     61  C   UNL A   1      48.411  27.199  26.516  1.00  0.00     0.031 A 
BRANCH  48  62
ATOM     62  C   UNL A   1      43.834  23.040  26.606  1.00  0.00    -0.014 A 
ATOM     63  C   UNL A   1      44.346  22.278  25.539  1.00  0.00     0.010 A 
ATOM     64  C   UNL A   1      42.929  22.440  27.501  1.00  0.00     0.010 A 
ATOM     65  C   UNL A   1      43.933  20.956  25.350  1.00  0.00     0.020 A 
ATOM     66  C   UNL A   1      42.538  21.108  27.335  1.00  0.00     0.020 A 
ATOM     67  C   UNL A   1      43.031  20.380  26.251  1.00  0.00     0.054 A 
BRANCH  67  68
ATOM     68  S   UNL A   1      42.535  18.654  25.998  1.00  0.00     0.124 S 
ATOM     69  O   UNL A   1      41.118  18.792  25.669  1.00  0.00    -0.237 OA
ATOM     70  O   UNL A   1      43.397  18.234  24.896  1.00  0.00    -0.237 OA
ATOM     71  O   UNL A   1      42.816  18.019  27.283  1.00  0.00    -0.744 OA
ENDBRANCH  67  68
ENDBRANCH  48  62
BRANCH  49  72
ATOM     72  C   UNL A   1      46.287  32.578  28.345  1.00  0.00    -0.014 A 
ATOM     73  C   UNL A   1      46.295  33.553  27.334  1.00  0.00     0.010 A 
ATOM     74  C   UNL A   1      46.663  32.948  29.650  1.00  0.00     0.010 A 
ATOM     75  C   UNL A   1      46.688  34.866  27.616  1.00  0.00     0.020 A 
ATOM     76  C   UNL A   1      47.025  34.265  29.944  1.00  0.00     0.020 A 
ATOM     77  C   UNL A   1      47.045  35.214  28.922  1.00  0.00     0.054 A 
BRANCH  77  78
ATOM     78  S   UNL A   1      47.503  36.934  29.275  1.00  0.00     0.124 S 
ATOM     79  O   UNL A   1      46.345  37.410  30.026  1.00  0.00    -0.237 OA
ATOM     80  O   UNL A   1      48.735  36.778  30.044  1.00  0.00    -0.237 OA
ATOM     81  O   UNL A   1      47.674  37.522  27.949  1.00  0.00    -0.744 OA
ENDBRANCH  77  78
ENDBRANCH  49  72
BRANCH  61  82
ATOM     82  C   UNL A   1      49.844  27.002  26.089  1.00  0.00    -0.014 A 
ATOM     83  C   UNL A   1      50.263  27.260  24.772  1.00  0.00     0.010 A 
ATOM     84  C   UNL A   1      50.801  26.609  27.045  1.00  0.00     0.010 A 
ATOM     85  C   UNL A   1      51.604  27.098  24.411  1.00  0.00     0.020 A 
ATOM     86  C   UNL A   1      52.148  26.477  26.697  1.00  0.00     0.020 A 
ATOM     87  C   UNL A   1      52.538  26.708  25.378  1.00  0.00     0.054 A 
BRANCH  87  88
ATOM     88  S   UNL A   1      54.279  26.548  24.892  1.00  0.00     0.124 S 
ATOM     89  O   UNL A   1      54.435  25.100  24.795  1.00  0.00    -0.237 OA
ATOM     90  O   UNL A   1      54.325  27.273  23.625  1.00  0.00    -0.237 OA
ATOM     91  O   UNL A   1      55.005  27.180  25.993  1.00  0.00    -0.744 OA
ENDBRANCH  87  88
ENDBRANCH  61  82
ENDBRANCH  35  36
ENDBRANCH  28  30
ENDBRANCH  27  28
ENDBRANCH  26  27
ENDBRANCH  25  26
ENDBRANCH  24  25
ENDBRANCH  23  24
ENDBRANCH   1  23
TORSDOF 25
ENDMDL
MODEL 2
REMARK VINA RESULT:      -8.9      6.324      8.599
REMARK SMILES C[C@@H](C(=O)OCCOCCOCCOCCOC(=O)c1ccc(-c2c3nc(c(-c4ccc(S(=O)(=O)[O-])cc4)c4ccc([nH]4)c(-c4ccc(S(=O)(=O)[O-])cc4)c4nc(c(-c5ccc(S(=O)(=O)[O-])cc5)c5ccc2[nH]5)C=C4)C=C3)cc1)c1ccn(C(F)F)c(=O)c1
REMARK SMILES IDX 12 1 11 2 10 3 9 4 8 5 7 6 6 7 5 8 3 9 4 10 2 11 1 12 80 13
REMARK SMILES IDX 81 14 89 15 82 16 87 17 83 18 88 19 84 20 85 21 86 22 13 23
REMARK SMILES IDX 14 24 15 25 16 26 17 27 18 28 19 29 20 30 21 31 79 32 22 33
REMARK SMILES IDX 78 34 23 35 24 36 25 37 72 38 26 39 77 40 71 41 73 42 27 43
REMARK SMILES IDX 76 44 70 45 69 46 28 48 58 49 39 50 57 51 40 52 43 53 56 54
REMARK SMILES IDX 74 55 41 56 42 57 55 59 75 60 44 61 29 62 30 63 38 64 31 65
REMARK SMILES IDX 37 66 32 67 33 68 34 69 35 70 36 71 59 72 60 73 68 74 61 75
REMARK SMILES IDX 67 76 62 77 63 78 64 79 65 80 66 81 45 82 46 83 54 84 47 85
REMARK SMILES IDX 53 86 48 87 49 88 50 89 51 90 52 91
REMARK H PARENT 73 47 43 58
REMARK Flexibility Score: inf
ROOT
ATOM      1  C   UNL A   1      32.769  29.482  25.176  1.00  0.00     0.188 C 
ENDROOT
BRANCH   1   2
ATOM      2  O   UNL A   1      33.039  28.131  24.812  1.00  0.00    -0.377 OA
BRANCH   2   3
ATOM      3  C   UNL A   1      33.053  27.154  25.833  1.00  0.00     0.188 C 
BRANCH   3   4
ATOM      4  C   UNL A   1      31.742  26.372  25.996  1.00  0.00     0.188 C 
BRANCH   4   5
ATOM      5  O   UNL A   1      30.822  26.425  24.926  1.00  0.00    -0.376 OA
BRANCH   5   6
ATOM      6  C   UNL A   1      30.776  25.400  23.942  1.00  0.00     0.202 C 
BRANCH   6   7
ATOM      7  C   UNL A   1      31.719  25.257  22.724  1.00  0.00     0.261 C 
BRANCH   7   8
ATOM      8  O   UNL A   1      33.106  25.036  22.997  1.00  0.00    -0.463 OA
BRANCH   8   9
ATOM      9  C   UNL A   1      33.567  23.764  23.033  1.00  0.00     0.313 C 
ATOM     10  O   UNL A   1      34.042  23.169  22.072  1.00  0.00    -0.252 OA
BRANCH   9  11
ATOM     11  C   UNL A   1      33.567  23.182  24.465  1.00  0.00     0.126 C 
ATOM     12  C   UNL A   1      34.535  23.940  25.404  1.00  0.00     0.025 C 
BRANCH  11  13
ATOM     13  C   UNL A   1      33.679  21.646  24.477  1.00  0.00    -0.027 A 
ATOM     14  C   UNL A   1      34.958  21.029  24.801  1.00  0.00     0.023 A 
ATOM     15  C   UNL A   1      32.641  20.817  24.241  1.00  0.00     0.076 A 
ATOM     16  C   UNL A   1      35.096  19.696  24.843  1.00  0.00     0.095 A 
ATOM     17  C   UNL A   1      32.780  19.333  24.247  1.00  0.00     0.255 A 
ATOM     18  N   UNL A   1      34.032  18.854  24.584  1.00  0.00    -0.258 N 
ATOM     19  O   UNL A   1      31.803  18.644  23.966  1.00  0.00    -0.269 OA
BRANCH  18  20
ATOM     20  C   UNL A   1      34.183  17.424  24.654  1.00  0.00     0.451 C 
ATOM     21  F   UNL A   1      35.485  17.074  24.800  1.00  0.00    -0.185 F 
ATOM     22  F   UNL A   1      33.491  16.905  25.697  1.00  0.00    -0.185 F 
ENDBRANCH  18  20
ENDBRANCH  11  13
ENDBRANCH   9  11
ENDBRANCH   8   9
ENDBRANCH   7   8
ENDBRANCH   6   7
ENDBRANCH   5   6
ENDBRANCH   4   5
ENDBRANCH   3   4
ENDBRANCH   2   3
ENDBRANCH   1   2
BRANCH   1  23
ATOM     23  C   UNL A   1      31.319  30.010  25.270  1.00  0.00     0.188 C 
BRANCH  23  24
ATOM     24  O   UNL A   1      31.201  31.390  25.583  1.00  0.00    -0.376 OA
BRANCH  24  25
ATOM     25  C   UNL A   1      31.308  31.792  26.940  1.00  0.00     0.202 C 
BRANCH  25  26
ATOM     26  C   UNL A   1      32.155  33.037  27.241  1.00  0.00     0.261 C 
BRANCH  26  27
ATOM     27  O   UNL A   1      33.430  32.805  27.862  1.00  0.00    -0.460 OA
BRANCH  27  28
ATOM     28  C   UNL A   1      34.285  33.845  27.948  1.00  0.00     0.338 C 
ATOM     29  O   UNL A   1      34.192  34.922  27.382  1.00  0.00    -0.246 OA
BRANCH  28  30
ATOM     30  C   UNL A   1      35.263  33.537  29.012  1.00  0.00     0.060 A 
ATOM     31  C   UNL A   1      36.498  34.200  29.013  1.00  0.00     0.016 A 
ATOM     32  C   UNL A   1      34.961  32.602  30.005  1.00  0.00     0.016 A 
ATOM     33  C   UNL A   1      37.453  33.898  29.984  1.00  0.00     0.010 A 
ATOM     34  C   UNL A   1      35.927  32.284  30.964  1.00  0.00     0.010 A 
ATOM     35  C   UNL A   1      37.191  32.904  30.935  1.00  0.00    -0.014 A 
BRANCH  35  36
ATOM     36  C   UNL A   1      38.300  32.363  31.758  1.00  0.00     0.031 A 
ATOM     37  C   UNL A   1      39.090  31.203  31.211  1.00  0.00     0.074 A 
ATOM     38  C   UNL A   1      38.618  32.896  32.951  1.00  0.00     0.049 A 
ATOM     39  N   UNL A   1      40.063  30.528  31.763  1.00  0.00    -0.248 NA
ATOM     40  C   UNL A   1      38.731  30.745  29.858  1.00  0.00     0.031 C 
ATOM     41  C   UNL A   1      37.964  34.050  33.565  1.00  0.00     0.029 A 
ATOM     42  N   UNL A   1      39.574  32.524  33.864  1.00  0.00    -0.354 N 
ATOM     43  C   UNL A   1      40.425  29.560  30.833  1.00  0.00     0.074 A 
ATOM     44  C   UNL A   1      39.547  29.714  29.695  1.00  0.00     0.031 C 
ATOM     45  C   UNL A   1      38.532  34.285  34.762  1.00  0.00     0.029 A 
ATOM     46  C   UNL A   1      39.559  33.276  35.015  1.00  0.00     0.049 A 
ATOM     47  H   UNL A   1      40.209  31.789  33.709  1.00  0.00     0.167 HD
ATOM     48  C   UNL A   1      41.406  28.631  30.915  1.00  0.00     0.031 A 
ATOM     49  C   UNL A   1      40.274  33.147  36.151  1.00  0.00     0.031 A 
ATOM     50  C   UNL A   1      42.266  28.467  32.056  1.00  0.00     0.049 A 
ATOM     51  C   UNL A   1      41.303  32.048  36.255  1.00  0.00     0.074 A 
ATOM     52  C   UNL A   1      43.293  27.558  32.235  1.00  0.00     0.029 A 
ATOM     53  N   UNL A   1      42.195  29.226  33.216  1.00  0.00    -0.354 N 
ATOM     54  N   UNL A   1      41.648  31.151  35.361  1.00  0.00    -0.248 NA
ATOM     55  C   UNL A   1      42.045  31.949  37.520  1.00  0.00     0.031 C 
ATOM     56  C   UNL A   1      43.799  27.722  33.528  1.00  0.00     0.029 A 
ATOM     57  C   UNL A   1      43.141  28.785  34.126  1.00  0.00     0.049 A 
ATOM     58  H   UNL A   1      41.566  29.967  33.368  1.00  0.00     0.167 HD
ATOM     59  C   UNL A   1      42.668  30.404  35.944  1.00  0.00     0.074 A 
ATOM     60  C   UNL A   1      42.894  30.964  37.260  1.00  0.00     0.031 C 
ATOM     61  C   UNL A   1      43.357  29.353  35.434  1.00  0.00     0.031 A 
BRANCH  48  62
ATOM     62  C   UNL A   1      41.573  27.691  29.750  1.00  0.00    -0.014 A 
ATOM     63  C   UNL A   1      40.681  26.624  29.536  1.00  0.00     0.010 A 
ATOM     64  C   UNL A   1      42.619  27.901  28.832  1.00  0.00     0.010 A 
ATOM     65  C   UNL A   1      40.854  25.763  28.448  1.00  0.00     0.020 A 
ATOM     66  C   UNL A   1      42.776  27.062  27.724  1.00  0.00     0.020 A 
ATOM     67  C   UNL A   1      41.901  25.989  27.549  1.00  0.00     0.054 A 
BRANCH  67  68
ATOM     68  S   UNL A   1      42.083  24.874  26.131  1.00  0.00     0.124 S 
ATOM     69  O   UNL A   1      40.893  24.034  26.252  1.00  0.00    -0.237 OA
ATOM     70  O   UNL A   1      42.087  25.796  24.998  1.00  0.00    -0.237 OA
ATOM     71  O   UNL A   1      43.352  24.195  26.383  1.00  0.00    -0.744 OA
ENDBRANCH  67  68
ENDBRANCH  48  62
BRANCH  49  72
ATOM     72  C   UNL A   1      40.025  34.065  37.299  1.00  0.00    -0.014 A 
ATOM     73  C   UNL A   1      39.070  33.752  38.282  1.00  0.00     0.010 A 
ATOM     74  C   UNL A   1      40.740  35.272  37.405  1.00  0.00     0.010 A 
ATOM     75  C   UNL A   1      38.823  34.636  39.338  1.00  0.00     0.020 A 
ATOM     76  C   UNL A   1      40.520  36.143  38.475  1.00  0.00     0.020 A 
ATOM     77  C   UNL A   1      39.554  35.823  39.430  1.00  0.00     0.054 A 
BRANCH  77  78
ATOM     78  S   UNL A   1      39.253  36.930  40.836  1.00  0.00     0.124 S 
ATOM     79  O   UNL A   1      40.606  37.338  41.199  1.00  0.00    -0.237 OA
ATOM     80  O   UNL A   1      38.416  37.969  40.242  1.00  0.00    -0.237 OA
ATOM     81  O   UNL A   1      38.575  36.073  41.807  1.00  0.00    -0.744 OA
ENDBRANCH  77  78
ENDBRANCH  49  72
BRANCH  61  82
ATOM     82  C   UNL A   1      44.457  28.759  36.278  1.00  0.00    -0.014 A 
ATOM     83  C   UNL A   1      44.221  27.670  37.135  1.00  0.00     0.010 A 
ATOM     84  C   UNL A   1      45.766  29.265  36.162  1.00  0.00     0.010 A 
ATOM     85  C   UNL A   1      45.265  27.120  37.884  1.00  0.00     0.020 A 
ATOM     86  C   UNL A   1      46.819  28.698  36.884  1.00  0.00     0.020 A 
ATOM     87  C   UNL A   1      46.559  27.637  37.753  1.00  0.00     0.054 A 
BRANCH  87  88
ATOM     88  S   UNL A   1      47.904  26.876  38.703  1.00  0.00     0.124 S 
ATOM     89  O   UNL A   1      48.951  27.889  38.612  1.00  0.00    -0.237 OA
ATOM     90  O   UNL A   1      47.305  26.707  40.025  1.00  0.00    -0.237 OA
ATOM     91  O   UNL A   1      48.176  25.633  37.984  1.00  0.00    -0.744 OA
ENDBRANCH  87  88
ENDBRANCH  61  82
ENDBRANCH  35  36
ENDBRANCH  28  30
ENDBRANCH  27  28
ENDBRANCH  26  27
ENDBRANCH  25  26
ENDBRANCH  24  25
ENDBRANCH  23  24
ENDBRANCH   1  23
TORSDOF 25
ENDMDL
MODEL 3
REMARK VINA RESULT:      -8.2      7.592     11.338
REMARK SMILES C[C@@H](C(=O)OCCOCCOCCOCCOC(=O)c1ccc(-c2c3nc(c(-c4ccc(S(=O)(=O)[O-])cc4)c4ccc([nH]4)c(-c4ccc(S(=O)(=O)[O-])cc4)c4nc(c(-c5ccc(S(=O)(=O)[O-])cc5)c5ccc2[nH]5)C=C4)C=C3)cc1)c1ccn(C(F)F)c(=O)c1
REMARK SMILES IDX 12 1 11 2 10 3 9 4 8 5 7 6 6 7 5 8 3 9 4 10 2 11 1 12 80 13
REMARK SMILES IDX 81 14 89 15 82 16 87 17 83 18 88 19 84 20 85 21 86 22 13 23
REMARK SMILES IDX 14 24 15 25 16 26 17 27 18 28 19 29 20 30 21 31 79 32 22 33
REMARK SMILES IDX 78 34 23 35 24 36 25 37 72 38 26 39 77 40 71 41 73 42 27 43
REMARK SMILES IDX 76 44 70 45 69 46 28 48 58 49 39 50 57 51 40 52 43 53 56 54
REMARK SMILES IDX 74 55 41 56 42 57 55 59 75 60 44 61 29 62 30 63 38 64 31 65
REMARK SMILES IDX 37 66 32 67 33 68 34 69 35 70 36 71 59 72 60 73 68 74 61 75
REMARK SMILES IDX 67 76 62 77 63 78 64 79 65 80 66 81 45 82 46 83 54 84 47 85
REMARK SMILES IDX 53 86 48 87 49 88 50 89 51 90 52 91
REMARK H PARENT 73 47 43 58
REMARK Flexibility Score: inf
ROOT
ATOM      1  C   UNL A   1      33.071  29.529  25.212  1.00  0.00     0.188 C 
ENDROOT
BRANCH   1   2
ATOM      2  O   UNL A   1      32.709  28.267  24.659  1.00  0.00    -0.377 OA
BRANCH   2   3
ATOM      3  C   UNL A   1      32.681  27.145  25.518  1.00  0.00     0.188 C 
BRANCH   3   4
ATOM      4  C   UNL A   1      31.366  26.352  25.500  1.00  0.00     0.188 C 
BRANCH   4   5
ATOM      5  O   UNL A   1      30.633  26.345  24.294  1.00  0.00    -0.376 OA
BRANCH   5   6
ATOM      6  C   UNL A   1      30.896  25.390  23.275  1.00  0.00     0.202 C 
BRANCH   6   7
ATOM      7  C   UNL A   1      32.184  25.289  22.425  1.00  0.00     0.261 C 
BRANCH   7   8
ATOM      8  O   UNL A   1      33.408  25.044  23.125  1.00  0.00    -0.463 OA
BRANCH   8   9
ATOM      9  C   UNL A   1      33.865  23.773  23.212  1.00  0.00     0.313 C 
ATOM     10  O   UNL A   1      34.539  23.215  22.353  1.00  0.00    -0.252 OA
BRANCH   9  11
ATOM     11  C   UNL A   1      33.566  23.138  24.590  1.00  0.00     0.126 C 
ATOM     12  C   UNL A   1      34.327  23.844  25.736  1.00  0.00     0.025 C 
BRANCH  11  13
ATOM     13  C   UNL A   1      33.660  21.600  24.562  1.00  0.00    -0.027 A 
ATOM     14  C   UNL A   1      34.933  20.961  24.867  1.00  0.00     0.023 A 
ATOM     15  C   UNL A   1      32.612  20.789  24.308  1.00  0.00     0.076 A 
ATOM     16  C   UNL A   1      35.056  19.626  24.875  1.00  0.00     0.095 A 
ATOM     17  C   UNL A   1      32.734  19.304  24.277  1.00  0.00     0.255 A 
ATOM     18  N   UNL A   1      33.982  18.803  24.598  1.00  0.00    -0.258 N 
ATOM     19  O   UNL A   1      31.750  18.634  23.981  1.00  0.00    -0.269 OA
BRANCH  18  20
ATOM     20  C   UNL A   1      34.117  17.370  24.631  1.00  0.00     0.451 C 
ATOM     21  F   UNL A   1      35.422  16.999  24.637  1.00  0.00    -0.185 F 
ATOM     22  F   UNL A   1      33.527  16.845  25.733  1.00  0.00    -0.185 F 
ENDBRANCH  18  20
ENDBRANCH  11  13
ENDBRANCH   9  11
ENDBRANCH   8   9
ENDBRANCH   7   8
ENDBRANCH   6   7
ENDBRANCH   5   6
ENDBRANCH   4   5
ENDBRANCH   3   4
ENDBRANCH   2   3
ENDBRANCH   1   2
BRANCH   1  23
ATOM     23  C   UNL A   1      32.122  30.284  26.171  1.00  0.00     0.188 C 
BRANCH  23  24
ATOM     24  O   UNL A   1      32.684  31.429  26.795  1.00  0.00    -0.376 OA
BRANCH  24  25
ATOM     25  C   UNL A   1      33.509  31.246  27.936  1.00  0.00     0.202 C 
BRANCH  25  26
ATOM     26  C   UNL A   1      35.006  30.998  27.690  1.00  0.00     0.261 C 
BRANCH  26  27
ATOM     27  O   UNL A   1      35.878  31.208  28.812  1.00  0.00    -0.460 OA
BRANCH  27  28
ATOM     28  C   UNL A   1      37.077  30.590  28.799  1.00  0.00     0.338 C 
ATOM     29  O   UNL A   1      37.328  29.481  28.357  1.00  0.00    -0.246 OA
BRANCH  28  30
ATOM     30  C   UNL A   1      38.094  31.571  29.232  1.00  0.00     0.060 A 
ATOM     31  C   UNL A   1      39.313  31.106  29.744  1.00  0.00     0.016 A 
ATOM     32  C   UNL A   1      37.846  32.942  29.131  1.00  0.00     0.016 A 
ATOM     33  C   UNL A   1      40.273  32.012  30.195  1.00  0.00     0.010 A 
ATOM     34  C   UNL A   1      38.799  33.848  29.605  1.00  0.00     0.010 A 
ATOM     35  C   UNL A   1      40.001  33.386  30.174  1.00  0.00    -0.014 A 
BRANCH  35  36
ATOM     36  C   UNL A   1      40.869  34.319  30.931  1.00  0.00     0.031 A 
ATOM     37  C   UNL A   1      40.799  34.293  32.435  1.00  0.00     0.074 A 
ATOM     38  C   UNL A   1      41.717  35.158  30.308  1.00  0.00     0.049 A 
ATOM     39  N   UNL A   1      41.415  35.044  33.308  1.00  0.00    -0.248 NA
ATOM     40  C   UNL A   1      39.911  33.280  33.032  1.00  0.00     0.031 C 
ATOM     41  C   UNL A   1      41.915  35.243  28.863  1.00  0.00     0.029 A 
ATOM     42  N   UNL A   1      42.567  36.106  30.822  1.00  0.00    -0.354 N 
ATOM     43  C   UNL A   1      40.985  34.604  34.555  1.00  0.00     0.074 A 
ATOM     44  C   UNL A   1      40.030  33.543  34.325  1.00  0.00     0.031 C 
ATOM     45  C   UNL A   1      42.822  36.202  28.604  1.00  0.00     0.029 A 
ATOM     46  C   UNL A   1      43.237  36.824  29.860  1.00  0.00     0.049 A 
ATOM     47  H   UNL A   1      42.685  36.257  31.787  1.00  0.00     0.167 HD
ATOM     48  C   UNL A   1      41.355  35.040  35.782  1.00  0.00     0.031 A 
ATOM     49  C   UNL A   1      44.069  37.879  29.980  1.00  0.00     0.031 A 
ATOM     50  C   UNL A   1      42.291  36.109  36.008  1.00  0.00     0.049 A 
ATOM     51  C   UNL A   1      44.401  38.405  31.355  1.00  0.00     0.074 A 
ATOM     52  C   UNL A   1      42.735  36.621  37.213  1.00  0.00     0.029 A 
ATOM     53  N   UNL A   1      42.920  36.834  35.007  1.00  0.00    -0.354 N 
ATOM     54  N   UNL A   1      44.000  37.968  32.525  1.00  0.00    -0.248 NA
ATOM     55  C   UNL A   1      45.304  39.562  31.424  1.00  0.00     0.031 C 
ATOM     56  C   UNL A   1      43.582  37.700  36.941  1.00  0.00     0.029 A 
ATOM     57  C   UNL A   1      43.726  37.810  35.568  1.00  0.00     0.049 A 
ATOM     58  H   UNL A   1      42.809  36.678  34.041  1.00  0.00     0.167 HD
ATOM     59  C   UNL A   1      44.628  38.776  33.470  1.00  0.00     0.074 A 
ATOM     60  C   UNL A   1      45.446  39.717  32.733  1.00  0.00     0.031 C 
ATOM     61  C   UNL A   1      44.539  38.740  34.823  1.00  0.00     0.031 A 
BRANCH  48  62
ATOM     62  C   UNL A   1      40.713  34.383  36.977  1.00  0.00    -0.014 A 
ATOM     63  C   UNL A   1      41.374  33.373  37.700  1.00  0.00     0.010 A 
ATOM     64  C   UNL A   1      39.443  34.810  37.406  1.00  0.00     0.010 A 
ATOM     65  C   UNL A   1      40.762  32.778  38.806  1.00  0.00     0.020 A 
ATOM     66  C   UNL A   1      38.840  34.240  38.531  1.00  0.00     0.020 A 
ATOM     67  C   UNL A   1      39.498  33.216  39.214  1.00  0.00     0.054 A 
BRANCH  67  68
ATOM     68  S   UNL A   1      38.740  32.445  40.670  1.00  0.00     0.124 S 
ATOM     69  O   UNL A   1      39.890  31.807  41.307  1.00  0.00    -0.237 OA
ATOM     70  O   UNL A   1      38.183  33.590  41.384  1.00  0.00    -0.237 OA
ATOM     71  O   UNL A   1      37.755  31.526  40.104  1.00  0.00    -0.744 OA
ENDBRANCH  67  68
ENDBRANCH  48  62
BRANCH  49  72
ATOM     72  C   UNL A   1      44.627  38.532  28.761  1.00  0.00    -0.014 A 
ATOM     73  C   UNL A   1      45.732  37.983  28.088  1.00  0.00     0.010 A 
ATOM     74  C   UNL A   1      44.055  39.722  28.274  1.00  0.00     0.010 A 
ATOM     75  C   UNL A   1      46.266  38.621  26.963  1.00  0.00     0.020 A 
ATOM     76  C   UNL A   1      44.564  40.345  27.131  1.00  0.00     0.020 A 
ATOM     77  C   UNL A   1      45.674  39.795  26.489  1.00  0.00     0.054 A 
BRANCH  77  78
ATOM     78  S   UNL A   1      46.351  40.577  24.998  1.00  0.00     0.124 S 
ATOM     79  O   UNL A   1      45.165  41.187  24.407  1.00  0.00    -0.237 OA
ATOM     80  O   UNL A   1      47.334  41.506  25.551  1.00  0.00    -0.237 OA
ATOM     81  O   UNL A   1      46.917  39.455  24.251  1.00  0.00    -0.744 OA
ENDBRANCH  77  78
ENDBRANCH  49  72
BRANCH  61  82
ATOM     82  C   UNL A   1      45.379  39.716  35.607  1.00  0.00    -0.014 A 
ATOM     83  C   UNL A   1      46.724  39.448  35.916  1.00  0.00     0.010 A 
ATOM     84  C   UNL A   1      44.825  40.954  35.988  1.00  0.00     0.010 A 
ATOM     85  C   UNL A   1      47.489  40.384  36.619  1.00  0.00     0.020 A 
ATOM     86  C   UNL A   1      45.595  41.905  36.662  1.00  0.00     0.020 A 
ATOM     87  C   UNL A   1      46.919  41.608  36.986  1.00  0.00     0.054 A 
BRANCH  87  88
ATOM     88  S   UNL A   1      47.947  42.822  37.858  1.00  0.00     0.124 S 
ATOM     89  O   UNL A   1      49.107  42.925  36.978  1.00  0.00    -0.237 OA
ATOM     90  O   UNL A   1      47.083  43.999  37.902  1.00  0.00    -0.237 OA
ATOM     91  O   UNL A   1      48.202  42.194  39.153  1.00  0.00    -0.744 OA
ENDBRANCH  87  88
ENDBRANCH  61  82
ENDBRANCH  35  36
ENDBRANCH  28  30
ENDBRANCH  27  28
ENDBRANCH  26  27
ENDBRANCH  25  26
ENDBRANCH  24  25
ENDBRANCH  23  24
ENDBRANCH   1  23
TORSDOF 25
ENDMDL
