MODEL 1
REMARK VINA RESULT:      -7.9      0.000      0.000
REMARK SMILES CC1(C)[C@H](O)CC[C@@]2(C)[C@H]1CC[C@@]1(C)Oc3oc(C(=O)OCCOCCOCCOCCOC(=O)c4ccc(-c5c6nc(c(-c7ccc(S(=O)(=O)[O-])cc7)c7ccc([nH]7)c(-c7ccc(S(=O)(=O)[O-])cc7)c7nc(c(-c8ccc(S(=O)(=O)[O-])cc8)c8ccc5[nH]8)C=C7)C=C6)cc4)cc(=O)c3C[C@@H]21
REMARK SMILES IDX 28 1 27 2 26 3 25 4 24 5 23 6 22 7 21 8 19 9 20 10 18 11
REMARK SMILES IDX 1 12 2 13 4 14 10 15 3 16 6 17 8 18 11 19 7 20 101 21 9 22
REMARK SMILES IDX 12 23 13 24 100 25 15 26 14 27 99 28 16 29 97 30 17 31 96 32
REMARK SMILES IDX 98 33 5 34 29 36 30 37 31 38 32 39 33 40 34 41 35 42 36 43
REMARK SMILES IDX 37 44 95 45 38 46 94 47 39 48 40 49 41 50 88 51 42 52 93 53
REMARK SMILES IDX 87 54 89 55 43 56 92 57 86 58 85 59 44 61 74 62 55 63 73 64
REMARK SMILES IDX 56 65 59 66 72 67 90 68 57 69 58 70 71 72 91 73 60 74 45 75
REMARK SMILES IDX 46 76 54 77 47 78 53 79 48 80 49 81 50 82 51 83 52 84 75 85
REMARK SMILES IDX 76 86 84 87 77 88 83 89 78 90 79 91 80 92 81 93 82 94 61 95
REMARK SMILES IDX 62 96 70 97 63 98 69 99 64 100 65 101 66 102 67 103 68 104
REMARK H PARENT 5 35 89 60 59 71
REMARK Flexibility Score: inf
ROOT
ATOM      1  C   UNL A   1      33.557  35.081  31.378  1.00  0.00     0.188 C 
ENDROOT
BRANCH   1   2
ATOM      2  O   UNL A   1      34.744  34.792  32.120  1.00  0.00    -0.377 OA
BRANCH   2   3
ATOM      3  C   UNL A   1      34.862  35.281  33.447  1.00  0.00     0.188 C 
BRANCH   3   4
ATOM      4  C   UNL A   1      35.817  34.459  34.335  1.00  0.00     0.188 C 
BRANCH   4   5
ATOM      5  O   UNL A   1      36.872  33.845  33.611  1.00  0.00    -0.376 OA
BRANCH   5   6
ATOM      6  C   UNL A   1      38.098  34.523  33.408  1.00  0.00     0.202 C 
BRANCH   6   7
ATOM      7  C   UNL A   1      39.193  34.580  34.481  1.00  0.00     0.261 C 
BRANCH   7   8
ATOM      8  O   UNL A   1      39.752  33.343  34.931  1.00  0.00    -0.457 OA
BRANCH   8   9
ATOM      9  C   UNL A   1      40.175  33.214  36.210  1.00  0.00     0.374 C 
ATOM     10  O   UNL A   1      39.873  33.920  37.154  1.00  0.00    -0.242 OA
BRANCH   9  11
ATOM     11  C   UNL A   1      41.054  32.016  36.275  1.00  0.00     0.219 A 
ATOM     12  C   UNL A   1      44.996  22.951  36.062  1.00  0.00     0.014 C 
ATOM     13  C   UNL A   1      45.403  24.328  36.633  1.00  0.00    -0.006 C 
ATOM     14  C   UNL A   1      46.679  24.785  35.841  1.00  0.00     0.120 C 
ATOM     15  C   UNL A   1      44.221  25.425  36.585  1.00  0.00     0.004 C 
ATOM     16  C   UNL A   1      45.791  24.089  38.119  1.00  0.00     0.014 C 
ATOM     17  C   UNL A   1      47.062  26.239  36.055  1.00  0.00     0.033 C 
ATOM     18  C   UNL A   1      44.511  26.598  35.594  1.00  0.00    -0.022 C 
ATOM     19  C   UNL A   1      42.766  24.926  36.473  1.00  0.00     0.009 C 
ATOM     20  C   UNL A   1      45.875  27.181  36.084  1.00  0.00     0.010 C 
ATOM     21  C   UNL A   1      43.403  27.723  35.638  1.00  0.00     0.044 C 
ATOM     22  C   UNL A   1      44.633  26.134  34.117  1.00  0.00     0.012 C 
ATOM     23  C   UNL A   1      41.742  26.080  36.657  1.00  0.00     0.049 C 
ATOM     24  C   UNL A   1      41.907  27.257  35.659  1.00  0.00     0.113 C 
ATOM     25  C   UNL A   1      43.610  28.696  36.798  1.00  0.00     0.055 C 
ATOM     26  O   UNL A   1      40.956  28.339  36.009  1.00  0.00    -0.458 OA
ATOM     27  C   UNL A   1      41.408  26.770  34.281  1.00  0.00     0.057 C 
ATOM     28  C   UNL A   1      42.700  29.834  36.594  1.00  0.00     0.081 A 
ATOM     29  C   UNL A   1      41.427  29.635  36.243  1.00  0.00     0.292 A 
ATOM     30  C   UNL A   1      43.263  31.192  36.691  1.00  0.00     0.192 A 
ATOM     31  O   UNL A   1      40.540  30.723  36.129  1.00  0.00    -0.418 OA
ATOM     32  C   UNL A   1      42.340  32.298  36.506  1.00  0.00     0.107 A 
ATOM     33  O   UNL A   1      44.447  31.406  36.909  1.00  0.00    -0.289 OA
BRANCH  14  34
ATOM     34  O   UNL A   1      47.821  23.975  36.132  1.00  0.00    -0.393 OA
ATOM     35  H   UNL A   1      48.594  24.544  36.273  1.00  0.00     0.210 HD
ENDBRANCH  14  34
ENDBRANCH   9  11
ENDBRANCH   8   9
ENDBRANCH   7   8
ENDBRANCH   6   7
ENDBRANCH   5   6
ENDBRANCH   4   5
ENDBRANCH   3   4
ENDBRANCH   2   3
ENDBRANCH   1   2
BRANCH   1  36
ATOM     36  C   UNL A   1      33.332  34.580  29.929  1.00  0.00     0.188 C 
BRANCH  36  37
ATOM     37  O   UNL A   1      34.105  35.255  28.948  1.00  0.00    -0.376 OA
BRANCH  37  38
ATOM     38  C   UNL A   1      34.446  34.572  27.760  1.00  0.00     0.202 C 
BRANCH  38  39
ATOM     39  C   UNL A   1      35.067  33.184  27.942  1.00  0.00     0.261 C 
BRANCH  39  40
ATOM     40  O   UNL A   1      34.197  32.178  28.473  1.00  0.00    -0.460 OA
BRANCH  40  41
ATOM     41  C   UNL A   1      34.320  30.928  27.977  1.00  0.00     0.338 C 
ATOM     42  O   UNL A   1      33.524  30.332  27.271  1.00  0.00    -0.246 OA
BRANCH  41  43
ATOM     43  C   UNL A   1      35.677  30.468  28.315  1.00  0.00     0.060 A 
ATOM     44  C   UNL A   1      36.014  30.231  29.654  1.00  0.00     0.016 A 
ATOM     45  C   UNL A   1      36.602  30.240  27.294  1.00  0.00     0.016 A 
ATOM     46  C   UNL A   1      37.293  29.775  29.975  1.00  0.00     0.010 A 
ATOM     47  C   UNL A   1      37.891  29.818  27.619  1.00  0.00     0.010 A 
ATOM     48  C   UNL A   1      38.247  29.609  28.962  1.00  0.00    -0.014 A 
BRANCH  48  49
ATOM     49  C   UNL A   1      39.672  29.441  29.319  1.00  0.00     0.031 A 
ATOM     50  C   UNL A   1      40.319  28.120  29.013  1.00  0.00     0.074 A 
ATOM     51  C   UNL A   1      40.378  30.430  29.892  1.00  0.00     0.049 A 
ATOM     52  N   UNL A   1      41.538  27.719  29.261  1.00  0.00    -0.248 NA
ATOM     53  C   UNL A   1      39.481  27.118  28.329  1.00  0.00     0.031 C 
ATOM     54  C   UNL A   1      39.875  31.771  30.183  1.00  0.00     0.029 A 
ATOM     55  N   UNL A   1      41.679  30.453  30.329  1.00  0.00    -0.354 N 
ATOM     56  C   UNL A   1      41.615  26.427  28.758  1.00  0.00     0.074 A 
ATOM     57  C   UNL A   1      40.316  26.097  28.217  1.00  0.00     0.031 C 
ATOM     58  C   UNL A   1      40.859  32.488  30.755  1.00  0.00     0.029 A 
ATOM     59  C   UNL A   1      42.049  31.649  30.894  1.00  0.00     0.049 A 
ATOM     60  H   UNL A   1      42.289  29.686  30.243  1.00  0.00     0.167 HD
ATOM     61  C   UNL A   1      42.677  25.591  28.742  1.00  0.00     0.031 A 
ATOM     62  C   UNL A   1      43.211  32.018  31.472  1.00  0.00     0.031 A 
ATOM     63  C   UNL A   1      43.956  25.909  29.309  1.00  0.00     0.049 A 
ATOM     64  C   UNL A   1      44.351  31.035  31.539  1.00  0.00     0.074 A 
ATOM     65  C   UNL A   1      45.092  25.120  29.356  1.00  0.00     0.029 A 
ATOM     66  N   UNL A   1      44.268  27.105  29.935  1.00  0.00    -0.354 N 
ATOM     67  N   UNL A   1      44.407  29.811  31.070  1.00  0.00    -0.248 NA
ATOM     68  C   UNL A   1      45.581  31.480  32.208  1.00  0.00     0.031 C 
ATOM     69  C   UNL A   1      46.077  25.822  30.055  1.00  0.00     0.029 A 
ATOM     70  C   UNL A   1      45.574  27.070  30.389  1.00  0.00     0.049 A 
ATOM     71  H   UNL A   1      43.653  27.866  30.038  1.00  0.00     0.167 HD
ATOM     72  C   UNL A   1      45.685  29.349  31.366  1.00  0.00     0.074 A 
ATOM     73  C   UNL A   1      46.370  30.422  32.056  1.00  0.00     0.031 C 
ATOM     74  C   UNL A   1      46.241  28.147  31.078  1.00  0.00     0.031 A 
BRANCH  61  75
ATOM     75  C   UNL A   1      42.488  24.242  28.109  1.00  0.00    -0.014 A 
ATOM     76  C   UNL A   1      42.650  24.069  26.724  1.00  0.00     0.010 A 
ATOM     77  C   UNL A   1      42.195  23.128  28.915  1.00  0.00     0.010 A 
ATOM     78  C   UNL A   1      42.501  22.804  26.151  1.00  0.00     0.020 A 
ATOM     79  C   UNL A   1      42.069  21.857  28.349  1.00  0.00     0.020 A 
ATOM     80  C   UNL A   1      42.217  21.705  26.968  1.00  0.00     0.054 A 
BRANCH  80  81
ATOM     81  S   UNL A   1      42.050  20.074  26.193  1.00  0.00     0.124 S 
ATOM     82  O   UNL A   1      40.695  20.131  25.651  1.00  0.00    -0.237 OA
ATOM     83  O   UNL A   1      43.124  20.087  25.205  1.00  0.00    -0.237 OA
ATOM     84  O   UNL A   1      42.234  19.141  27.303  1.00  0.00    -0.744 OA
ENDBRANCH  80  81
ENDBRANCH  61  75
BRANCH  62  85
ATOM     85  C   UNL A   1      43.343  33.393  32.021  1.00  0.00    -0.014 A 
ATOM     86  C   UNL A   1      43.029  33.654  33.365  1.00  0.00     0.010 A 
ATOM     87  C   UNL A   1      43.855  34.432  31.221  1.00  0.00     0.010 A 
ATOM     88  C   UNL A   1      43.246  34.924  33.907  1.00  0.00     0.020 A 
ATOM     89  C   UNL A   1      44.089  35.699  31.765  1.00  0.00     0.020 A 
ATOM     90  C   UNL A   1      43.792  35.934  33.109  1.00  0.00     0.054 A 
BRANCH  90  91
ATOM     91  S   UNL A   1      44.146  37.543  33.868  1.00  0.00     0.124 S 
ATOM     92  O   UNL A   1      42.843  38.200  33.826  1.00  0.00    -0.237 OA
ATOM     93  O   UNL A   1      44.619  37.157  35.195  1.00  0.00    -0.237 OA
ATOM     94  O   UNL A   1      45.164  38.121  32.992  1.00  0.00    -0.744 OA
ENDBRANCH  90  91
ENDBRANCH  62  85
BRANCH  74  95
ATOM     95  C   UNL A   1      47.672  27.905  31.476  1.00  0.00    -0.014 A 
ATOM     96  C   UNL A   1      48.730  28.299  30.641  1.00  0.00     0.010 A 
ATOM     97  C   UNL A   1      47.955  27.417  32.765  1.00  0.00     0.010 A 
ATOM     98  C   UNL A   1      50.050  28.215  31.093  1.00  0.00     0.020 A 
ATOM     99  C   UNL A   1      49.271  27.351  33.228  1.00  0.00     0.020 A 
ATOM    100  C   UNL A   1      50.312  27.755  32.390  1.00  0.00     0.054 A 
BRANCH 100 101
ATOM    101  S   UNL A   1      52.028  27.730  32.973  1.00  0.00     0.124 S 
ATOM    102  O   UNL A   1      52.772  27.520  31.733  1.00  0.00    -0.237 OA
ATOM    103  O   UNL A   1      52.173  29.052  33.576  1.00  0.00    -0.237 OA
ATOM    104  O   UNL A   1      52.063  26.611  33.913  1.00  0.00    -0.744 OA
ENDBRANCH 100 101
ENDBRANCH  74  95
ENDBRANCH  48  49
ENDBRANCH  41  43
ENDBRANCH  40  41
ENDBRANCH  39  40
ENDBRANCH  38  39
ENDBRANCH  37  38
ENDBRANCH  36  37
ENDBRANCH   1  36
TORSDOF 24
ENDMDL
MODEL 2
REMARK VINA RESULT:      -7.5      4.525     11.087
REMARK SMILES CC1(C)[C@H](O)CC[C@@]2(C)[C@H]1CC[C@@]1(C)Oc3oc(C(=O)OCCOCCOCCOCCOC(=O)c4ccc(-c5c6nc(c(-c7ccc(S(=O)(=O)[O-])cc7)c7ccc([nH]7)c(-c7ccc(S(=O)(=O)[O-])cc7)c7nc(c(-c8ccc(S(=O)(=O)[O-])cc8)c8ccc5[nH]8)C=C7)C=C6)cc4)cc(=O)c3C[C@@H]21
REMARK SMILES IDX 28 1 27 2 26 3 25 4 24 5 23 6 22 7 21 8 19 9 20 10 18 11
REMARK SMILES IDX 1 12 2 13 4 14 10 15 3 16 6 17 8 18 11 19 7 20 101 21 9 22
REMARK SMILES IDX 12 23 13 24 100 25 15 26 14 27 99 28 16 29 97 30 17 31 96 32
REMARK SMILES IDX 98 33 5 34 29 36 30 37 31 38 32 39 33 40 34 41 35 42 36 43
REMARK SMILES IDX 37 44 95 45 38 46 94 47 39 48 40 49 41 50 88 51 42 52 93 53
REMARK SMILES IDX 87 54 89 55 43 56 92 57 86 58 85 59 44 61 74 62 55 63 73 64
REMARK SMILES IDX 56 65 59 66 72 67 90 68 57 69 58 70 71 72 91 73 60 74 45 75
REMARK SMILES IDX 46 76 54 77 47 78 53 79 48 80 49 81 50 82 51 83 52 84 75 85
REMARK SMILES IDX 76 86 84 87 77 88 83 89 78 90 79 91 80 92 81 93 82 94 61 95
REMARK SMILES IDX 62 96 70 97 63 98 69 99 64 100 65 101 66 102 67 103 68 104
REMARK H PARENT 5 35 89 60 59 71
REMARK Flexibility Score: inf
ROOT
ATOM      1  C   UNL A   1      48.095  40.374  31.659  1.00  0.00     0.188 C 
ENDROOT
BRANCH   1   2
ATOM      2  O   UNL A   1      47.257  40.852  32.713  1.00  0.00    -0.377 OA
BRANCH   2   3
ATOM      3  C   UNL A   1      46.361  41.920  32.449  1.00  0.00     0.188 C 
BRANCH   3   4
ATOM      4  C   UNL A   1      45.609  42.430  33.694  1.00  0.00     0.188 C 
BRANCH   4   5
ATOM      5  O   UNL A   1      44.972  41.398  34.430  1.00  0.00    -0.376 OA
BRANCH   5   6
ATOM      6  C   UNL A   1      43.779  41.654  35.149  1.00  0.00     0.202 C 
BRANCH   6   7
ATOM      7  C   UNL A   1      42.613  42.452  34.551  1.00  0.00     0.261 C 
BRANCH   7   8
ATOM      8  O   UNL A   1      41.945  41.905  33.410  1.00  0.00    -0.457 OA
BRANCH   8   9
ATOM      9  C   UNL A   1      42.165  42.424  32.180  1.00  0.00     0.374 C 
ATOM     10  O   UNL A   1      42.146  43.602  31.870  1.00  0.00    -0.242 OA
BRANCH   9  11
ATOM     11  C   UNL A   1      42.480  41.296  31.264  1.00  0.00     0.219 A 
ATOM     12  C   UNL A   1      45.755  33.011  26.975  1.00  0.00     0.014 C 
ATOM     13  C   UNL A   1      45.101  34.328  26.498  1.00  0.00    -0.006 C 
ATOM     14  C   UNL A   1      43.694  33.946  25.914  1.00  0.00     0.120 C 
ATOM     15  C   UNL A   1      45.007  35.458  27.645  1.00  0.00     0.004 C 
ATOM     16  C   UNL A   1      45.994  34.869  25.347  1.00  0.00     0.014 C 
ATOM     17  C   UNL A   1      42.779  35.131  25.659  1.00  0.00     0.033 C 
ATOM     18  C   UNL A   1      43.539  35.773  28.080  1.00  0.00    -0.022 C 
ATOM     19  C   UNL A   1      45.953  35.348  28.858  1.00  0.00     0.009 C 
ATOM     20  C   UNL A   1      42.829  36.182  26.750  1.00  0.00     0.010 C 
ATOM     21  C   UNL A   1      43.450  36.959  29.119  1.00  0.00     0.044 C 
ATOM     22  C   UNL A   1      42.815  34.554  28.714  1.00  0.00     0.012 C 
ATOM     23  C   UNL A   1      45.895  36.614  29.756  1.00  0.00     0.049 C 
ATOM     24  C   UNL A   1      44.482  36.958  30.299  1.00  0.00     0.113 C 
ATOM     25  C   UNL A   1      43.509  38.328  28.442  1.00  0.00     0.055 C 
ATOM     26  O   UNL A   1      44.536  38.243  31.037  1.00  0.00    -0.458 OA
ATOM     27  C   UNL A   1      44.142  35.926  31.396  1.00  0.00     0.057 C 
ATOM     28  C   UNL A   1      43.157  39.340  29.452  1.00  0.00     0.081 A 
ATOM     29  C   UNL A   1      43.683  39.292  30.678  1.00  0.00     0.292 A 
ATOM     30  C   UNL A   1      42.136  40.340  29.097  1.00  0.00     0.192 A 
ATOM     31  O   UNL A   1      43.407  40.308  31.613  1.00  0.00    -0.418 OA
ATOM     32  C   UNL A   1      41.821  41.340  30.101  1.00  0.00     0.107 A 
ATOM     33  O   UNL A   1      41.560  40.348  28.017  1.00  0.00    -0.289 OA
BRANCH  14  34
ATOM     34  O   UNL A   1      43.792  33.188  24.706  1.00  0.00    -0.393 OA
ATOM     35  H   UNL A   1      43.360  32.328  24.827  1.00  0.00     0.210 HD
ENDBRANCH  14  34
ENDBRANCH   9  11
ENDBRANCH   8   9
ENDBRANCH   7   8
ENDBRANCH   6   7
ENDBRANCH   5   6
ENDBRANCH   4   5
ENDBRANCH   3   4
ENDBRANCH   2   3
ENDBRANCH   1   2
BRANCH   1  36
ATOM     36  C   UNL A   1      49.606  40.705  31.575  1.00  0.00     0.188 C 
BRANCH  36  37
ATOM     37  O   UNL A   1      50.444  39.577  31.368  1.00  0.00    -0.376 OA
BRANCH  37  38
ATOM     38  C   UNL A   1      51.199  39.497  30.178  1.00  0.00     0.202 C 
BRANCH  38  39
ATOM     39  C   UNL A   1      51.529  38.085  29.688  1.00  0.00     0.261 C 
BRANCH  39  40
ATOM     40  O   UNL A   1      50.615  37.058  30.088  1.00  0.00    -0.460 OA
BRANCH  40  41
ATOM     41  C   UNL A   1      51.142  35.922  30.593  1.00  0.00     0.338 C 
ATOM     42  O   UNL A   1      52.186  35.804  31.211  1.00  0.00    -0.246 OA
BRANCH  41  43
ATOM     43  C   UNL A   1      50.139  34.862  30.396  1.00  0.00     0.060 A 
ATOM     44  C   UNL A   1      49.744  34.072  31.484  1.00  0.00     0.016 A 
ATOM     45  C   UNL A   1      49.567  34.680  29.135  1.00  0.00     0.016 A 
ATOM     46  C   UNL A   1      48.778  33.082  31.304  1.00  0.00     0.010 A 
ATOM     47  C   UNL A   1      48.627  33.666  28.949  1.00  0.00     0.010 A 
ATOM     48  C   UNL A   1      48.250  32.848  30.027  1.00  0.00    -0.014 A 
BRANCH  48  49
ATOM     49  C   UNL A   1      47.481  31.612  29.768  1.00  0.00     0.031 A 
ATOM     50  C   UNL A   1      48.178  30.489  29.054  1.00  0.00     0.074 A 
ATOM     51  C   UNL A   1      46.201  31.483  30.158  1.00  0.00     0.049 A 
ATOM     52  N   UNL A   1      47.710  29.328  28.683  1.00  0.00    -0.248 NA
ATOM     53  C   UNL A   1      49.599  30.703  28.720  1.00  0.00     0.031 C 
ATOM     54  C   UNL A   1      45.438  32.480  30.906  1.00  0.00     0.029 A 
ATOM     55  N   UNL A   1      45.319  30.447  29.975  1.00  0.00    -0.354 N 
ATOM     56  C   UNL A   1      48.775  28.671  28.081  1.00  0.00     0.074 A 
ATOM     57  C   UNL A   1      49.907  29.569  28.110  1.00  0.00     0.031 C 
ATOM     58  C   UNL A   1      44.197  32.005  31.118  1.00  0.00     0.029 A 
ATOM     59  C   UNL A   1      44.072  30.687  30.496  1.00  0.00     0.049 A 
ATOM     60  H   UNL A   1      45.560  29.610  29.516  1.00  0.00     0.167 HD
ATOM     61  C   UNL A   1      48.810  27.425  27.558  1.00  0.00     0.031 A 
ATOM     62  C   UNL A   1      42.953  29.935  30.462  1.00  0.00     0.031 A 
ATOM     63  C   UNL A   1      47.676  26.546  27.503  1.00  0.00     0.049 A 
ATOM     64  C   UNL A   1      42.982  28.592  29.781  1.00  0.00     0.074 A 
ATOM     65  C   UNL A   1      47.608  25.269  26.977  1.00  0.00     0.029 A 
ATOM     66  N   UNL A   1      46.412  26.856  27.980  1.00  0.00    -0.354 N 
ATOM     67  N   UNL A   1      43.993  27.987  29.205  1.00  0.00    -0.248 NA
ATOM     68  C   UNL A   1      41.726  27.830  29.746  1.00  0.00     0.031 C 
ATOM     69  C   UNL A   1      46.289  24.825  27.092  1.00  0.00     0.029 A 
ATOM     70  C   UNL A   1      45.551  25.801  27.743  1.00  0.00     0.049 A 
ATOM     71  H   UNL A   1      46.166  27.700  28.422  1.00  0.00     0.167 HD
ATOM     72  C   UNL A   1      43.502  26.764  28.761  1.00  0.00     0.074 A 
ATOM     73  C   UNL A   1      42.103  26.714  29.131  1.00  0.00     0.031 C 
ATOM     74  C   UNL A   1      44.158  25.768  28.116  1.00  0.00     0.031 A 
BRANCH  61  75
ATOM     75  C   UNL A   1      50.113  26.950  26.984  1.00  0.00    -0.014 A 
ATOM     76  C   UNL A   1      51.043  26.262  27.783  1.00  0.00     0.010 A 
ATOM     77  C   UNL A   1      50.389  27.150  25.620  1.00  0.00     0.010 A 
ATOM     78  C   UNL A   1      52.239  25.800  27.230  1.00  0.00     0.020 A 
ATOM     79  C   UNL A   1      51.573  26.668  25.058  1.00  0.00     0.020 A 
ATOM     80  C   UNL A   1      52.494  26.000  25.869  1.00  0.00     0.054 A 
BRANCH  80  81
ATOM     81  S   UNL A   1      54.048  25.369  25.180  1.00  0.00     0.124 S 
ATOM     82  O   UNL A   1      53.739  25.287  23.755  1.00  0.00    -0.237 OA
ATOM     83  O   UNL A   1      55.001  26.407  25.559  1.00  0.00    -0.237 OA
ATOM     84  O   UNL A   1      54.228  24.082  25.849  1.00  0.00    -0.744 OA
ENDBRANCH  80  81
ENDBRANCH  61  75
BRANCH  62  85
ATOM     85  C   UNL A   1      41.715  30.446  31.109  1.00  0.00    -0.014 A 
ATOM     86  C   UNL A   1      40.802  31.224  30.378  1.00  0.00     0.010 A 
ATOM     87  C   UNL A   1      41.410  30.096  32.438  1.00  0.00     0.010 A 
ATOM     88  C   UNL A   1      39.592  31.622  30.956  1.00  0.00     0.020 A 
ATOM     89  C   UNL A   1      40.194  30.478  33.012  1.00  0.00     0.020 A 
ATOM     90  C   UNL A   1      39.288  31.231  32.263  1.00  0.00     0.054 A 
BRANCH  90  91
ATOM     91  S   UNL A   1      37.672  31.687  32.950  1.00  0.00     0.124 S 
ATOM     92  O   UNL A   1      37.549  33.087  32.553  1.00  0.00    -0.237 OA
ATOM     93  O   UNL A   1      36.777  30.754  32.269  1.00  0.00    -0.237 OA
ATOM     94  O   UNL A   1      37.830  31.458  34.385  1.00  0.00    -0.744 OA
ENDBRANCH  90  91
ENDBRANCH  62  85
BRANCH  74  95
ATOM     95  C   UNL A   1      43.401  24.513  27.776  1.00  0.00    -0.014 A 
ATOM     96  C   UNL A   1      42.880  24.310  26.488  1.00  0.00     0.010 A 
ATOM     97  C   UNL A   1      43.345  23.467  28.716  1.00  0.00     0.010 A 
ATOM     98  C   UNL A   1      42.321  23.076  26.143  1.00  0.00     0.020 A 
ATOM     99  C   UNL A   1      42.806  22.226  28.369  1.00  0.00     0.020 A 
ATOM    100  C   UNL A   1      42.300  22.037  27.081  1.00  0.00     0.054 A 
BRANCH 100 101
ATOM    101  S   UNL A   1      41.639  20.426  26.579  1.00  0.00     0.124 S 
ATOM    102  O   UNL A   1      42.443  20.116  25.399  1.00  0.00    -0.237 OA
ATOM    103  O   UNL A   1      41.903  19.598  27.753  1.00  0.00    -0.237 OA
ATOM    104  O   UNL A   1      40.227  20.694  26.313  1.00  0.00    -0.744 OA
ENDBRANCH 100 101
ENDBRANCH  74  95
ENDBRANCH  48  49
ENDBRANCH  41  43
ENDBRANCH  40  41
ENDBRANCH  39  40
ENDBRANCH  38  39
ENDBRANCH  37  38
ENDBRANCH  36  37
ENDBRANCH   1  36
TORSDOF 24
ENDMDL
MODEL 3
REMARK VINA RESULT:      -7.5      5.083     13.506
REMARK SMILES CC1(C)[C@H](O)CC[C@@]2(C)[C@H]1CC[C@@]1(C)Oc3oc(C(=O)OCCOCCOCCOCCOC(=O)c4ccc(-c5c6nc(c(-c7ccc(S(=O)(=O)[O-])cc7)c7ccc([nH]7)c(-c7ccc(S(=O)(=O)[O-])cc7)c7nc(c(-c8ccc(S(=O)(=O)[O-])cc8)c8ccc5[nH]8)C=C7)C=C6)cc4)cc(=O)c3C[C@@H]21
REMARK SMILES IDX 28 1 27 2 26 3 25 4 24 5 23 6 22 7 21 8 19 9 20 10 18 11
REMARK SMILES IDX 1 12 2 13 4 14 10 15 3 16 6 17 8 18 11 19 7 20 101 21 9 22
REMARK SMILES IDX 12 23 13 24 100 25 15 26 14 27 99 28 16 29 97 30 17 31 96 32
REMARK SMILES IDX 98 33 5 34 29 36 30 37 31 38 32 39 33 40 34 41 35 42 36 43
REMARK SMILES IDX 37 44 95 45 38 46 94 47 39 48 40 49 41 50 88 51 42 52 93 53
REMARK SMILES IDX 87 54 89 55 43 56 92 57 86 58 85 59 44 61 74 62 55 63 73 64
REMARK SMILES IDX 56 65 59 66 72 67 90 68 57 69 58 70 71 72 91 73 60 74 45 75
REMARK SMILES IDX 46 76 54 77 47 78 53 79 48 80 49 81 50 82 51 83 52 84 75 85
REMARK SMILES IDX 76 86 84 87 77 88 83 89 78 90 79 91 80 92 81 93 82 94 61 95
REMARK SMILES IDX 62 96 70 97 63 98 69 99 64 100 65 101 66 102 67 103 68 104
REMARK H PARENT 5 35 89 60 59 71
REMARK Flexibility Score: inf
ROOT
ATOM      1  C   UNL A   1      45.981  25.881  28.304  1.00  0.00     0.188 C 
ENDROOT
BRANCH   1   2
ATOM      2  O   UNL A   1      44.912  24.933  28.328  1.00  0.00    -0.377 OA
BRANCH   2   3
ATOM      3  C   UNL A   1      45.210  23.556  28.161  1.00  0.00     0.188 C 
BRANCH   3   4
ATOM      4  C   UNL A   1      45.481  23.146  26.700  1.00  0.00     0.188 C 
BRANCH   4   5
ATOM      5  O   UNL A   1      44.313  22.746  26.002  1.00  0.00    -0.376 OA
BRANCH   5   6
ATOM      6  C   UNL A   1      44.023  21.373  25.806  1.00  0.00     0.202 C 
BRANCH   6   7
ATOM      7  C   UNL A   1      42.588  20.833  25.771  1.00  0.00     0.261 C 
BRANCH   7   8
ATOM      8  O   UNL A   1      41.914  20.647  27.020  1.00  0.00    -0.457 OA
BRANCH   8   9
ATOM      9  C   UNL A   1      41.627  21.713  27.802  1.00  0.00     0.374 C 
ATOM     10  O   UNL A   1      42.278  22.125  28.745  1.00  0.00    -0.242 OA
BRANCH   9  11
ATOM     11  C   UNL A   1      40.379  22.332  27.279  1.00  0.00     0.219 A 
ATOM     12  C   UNL A   1      31.759  24.373  22.888  1.00  0.00     0.014 C 
ATOM     13  C   UNL A   1      32.903  25.192  23.529  1.00  0.00    -0.006 C 
ATOM     14  C   UNL A   1      32.300  25.892  24.798  1.00  0.00     0.120 C 
ATOM     15  C   UNL A   1      34.214  24.316  23.871  1.00  0.00     0.004 C 
ATOM     16  C   UNL A   1      33.297  26.281  22.492  1.00  0.00     0.014 C 
ATOM     17  C   UNL A   1      33.333  26.508  25.724  1.00  0.00     0.033 C 
ATOM     18  C   UNL A   1      34.475  24.175  25.406  1.00  0.00    -0.022 C 
ATOM     19  C   UNL A   1      34.412  22.978  23.131  1.00  0.00     0.009 C 
ATOM     20  C   UNL A   1      34.568  25.650  25.912  1.00  0.00     0.010 C 
ATOM     21  C   UNL A   1      35.821  23.414  25.729  1.00  0.00     0.044 C 
ATOM     22  C   UNL A   1      33.337  23.429  26.154  1.00  0.00     0.012 C 
ATOM     23  C   UNL A   1      35.813  22.365  23.405  1.00  0.00     0.049 C 
ATOM     24  C   UNL A   1      36.128  22.117  24.905  1.00  0.00     0.113 C 
ATOM     25  C   UNL A   1      37.041  24.330  25.638  1.00  0.00     0.055 C 
ATOM     26  O   UNL A   1      37.527  21.645  25.045  1.00  0.00    -0.458 OA
ATOM     27  C   UNL A   1      35.291  20.902  25.360  1.00  0.00     0.057 C 
ATOM     28  C   UNL A   1      38.188  23.603  26.206  1.00  0.00     0.081 A 
ATOM     29  C   UNL A   1      38.414  22.327  25.885  1.00  0.00     0.292 A 
ATOM     30  C   UNL A   1      39.013  24.296  27.211  1.00  0.00     0.192 A 
ATOM     31  O   UNL A   1      39.557  21.661  26.367  1.00  0.00    -0.418 OA
ATOM     32  C   UNL A   1      40.151  23.566  27.741  1.00  0.00     0.107 A 
ATOM     33  O   UNL A   1      38.770  25.429  27.602  1.00  0.00    -0.289 OA
BRANCH  14  34
ATOM     34  O   UNL A   1      31.342  26.899  24.462  1.00  0.00    -0.393 OA
ATOM     35  H   UNL A   1      31.794  27.649  24.044  1.00  0.00     0.210 HD
ENDBRANCH  14  34
ENDBRANCH   9  11
ENDBRANCH   8   9
ENDBRANCH   7   8
ENDBRANCH   6   7
ENDBRANCH   5   6
ENDBRANCH   4   5
ENDBRANCH   3   4
ENDBRANCH   2   3
ENDBRANCH   1   2
BRANCH   1  36
ATOM     36  C   UNL A   1      46.807  26.182  27.028  1.00  0.00     0.188 C 
BRANCH  36  37
ATOM     37  O   UNL A   1      47.364  27.487  26.984  1.00  0.00    -0.376 OA
BRANCH  37  38
ATOM     38  C   UNL A   1      46.502  28.592  26.808  1.00  0.00     0.202 C 
BRANCH  38  39
ATOM     39  C   UNL A   1      46.471  29.607  27.953  1.00  0.00     0.261 C 
BRANCH  39  40
ATOM     40  O   UNL A   1      47.082  29.183  29.177  1.00  0.00    -0.460 OA
BRANCH  40  41
ATOM     41  C   UNL A   1      47.581  30.142  29.986  1.00  0.00     0.338 C 
ATOM     42  O   UNL A   1      48.645  30.726  29.871  1.00  0.00    -0.246 OA
BRANCH  41  43
ATOM     43  C   UNL A   1      46.523  30.474  30.955  1.00  0.00     0.060 A 
ATOM     44  C   UNL A   1      46.319  31.809  31.328  1.00  0.00     0.016 A 
ATOM     45  C   UNL A   1      45.712  29.457  31.464  1.00  0.00     0.016 A 
ATOM     46  C   UNL A   1      45.304  32.127  32.230  1.00  0.00     0.010 A 
ATOM     47  C   UNL A   1      44.720  29.773  32.393  1.00  0.00     0.010 A 
ATOM     48  C   UNL A   1      44.531  31.105  32.798  1.00  0.00    -0.014 A 
BRANCH  48  49
ATOM     49  C   UNL A   1      43.684  31.394  33.975  1.00  0.00     0.031 A 
ATOM     50  C   UNL A   1      42.261  31.809  33.730  1.00  0.00     0.074 A 
ATOM     51  C   UNL A   1      44.158  31.288  35.228  1.00  0.00     0.049 A 
ATOM     52  N   UNL A   1      41.339  32.147  34.591  1.00  0.00    -0.248 NA
ATOM     53  C   UNL A   1      41.816  31.838  32.325  1.00  0.00     0.031 C 
ATOM     54  C   UNL A   1      45.502  30.841  35.591  1.00  0.00     0.029 A 
ATOM     55  N   UNL A   1      43.551  31.549  36.431  1.00  0.00    -0.354 N 
ATOM     56  C   UNL A   1      40.207  32.421  33.836  1.00  0.00     0.074 A 
ATOM     57  C   UNL A   1      40.561  32.238  32.446  1.00  0.00     0.031 C 
ATOM     58  C   UNL A   1      45.617  30.861  36.931  1.00  0.00     0.029 A 
ATOM     59  C   UNL A   1      44.369  31.348  37.516  1.00  0.00     0.049 A 
ATOM     60  H   UNL A   1      42.617  31.850  36.508  1.00  0.00     0.167 HD
ATOM     61  C   UNL A   1      38.977  32.785  34.263  1.00  0.00     0.031 A 
ATOM     62  C   UNL A   1      44.140  31.550  38.830  1.00  0.00     0.031 A 
ATOM     63  C   UNL A   1      38.636  32.997  35.640  1.00  0.00     0.049 A 
ATOM     64  C   UNL A   1      42.794  32.058  39.279  1.00  0.00     0.074 A 
ATOM     65  C   UNL A   1      37.419  33.383  36.172  1.00  0.00     0.029 A 
ATOM     66  N   UNL A   1      39.514  32.850  36.703  1.00  0.00    -0.354 N 
ATOM     67  N   UNL A   1      41.735  32.325  38.553  1.00  0.00    -0.248 NA
ATOM     68  C   UNL A   1      42.611  32.290  40.718  1.00  0.00     0.031 C 
ATOM     69  C   UNL A   1      37.574  33.518  37.553  1.00  0.00     0.029 A 
ATOM     70  C   UNL A   1      38.870  33.157  37.888  1.00  0.00     0.049 A 
ATOM     71  H   UNL A   1      40.453  32.568  36.625  1.00  0.00     0.167 HD
ATOM     72  C   UNL A   1      40.752  32.732  39.449  1.00  0.00     0.074 A 
ATOM     73  C   UNL A   1      41.342  32.680  40.770  1.00  0.00     0.031 C 
ATOM     74  C   UNL A   1      39.473  33.103  39.196  1.00  0.00     0.031 A 
BRANCH  61  75
ATOM     75  C   UNL A   1      37.916  33.000  33.220  1.00  0.00    -0.014 A 
ATOM     76  C   UNL A   1      37.069  31.948  32.829  1.00  0.00     0.010 A 
ATOM     77  C   UNL A   1      37.734  34.277  32.664  1.00  0.00     0.010 A 
ATOM     78  C   UNL A   1      36.068  32.167  31.881  1.00  0.00     0.020 A 
ATOM     79  C   UNL A   1      36.717  34.506  31.733  1.00  0.00     0.020 A 
ATOM     80  C   UNL A   1      35.894  33.447  31.344  1.00  0.00     0.054 A 
BRANCH  80  81
ATOM     81  S   UNL A   1      34.571  33.700  30.130  1.00  0.00     0.124 S 
ATOM     82  O   UNL A   1      33.583  34.445  30.906  1.00  0.00    -0.237 OA
ATOM     83  O   UNL A   1      35.250  34.457  29.083  1.00  0.00    -0.237 OA
ATOM     84  O   UNL A   1      34.173  32.344  29.761  1.00  0.00    -0.744 OA
ENDBRANCH  80  81
ENDBRANCH  61  75
BRANCH  62  85
ATOM     85  C   UNL A   1      45.219  31.254  39.808  1.00  0.00    -0.014 A 
ATOM     86  C   UNL A   1      46.175  32.234  40.127  1.00  0.00     0.010 A 
ATOM     87  C   UNL A   1      45.252  30.018  40.480  1.00  0.00     0.010 A 
ATOM     88  C   UNL A   1      47.132  31.991  41.117  1.00  0.00     0.020 A 
ATOM     89  C   UNL A   1      46.196  29.779  41.484  1.00  0.00     0.020 A 
ATOM     90  C   UNL A   1      47.124  30.772  41.803  1.00  0.00     0.054 A 
BRANCH  90  91
ATOM     91  S   UNL A   1      48.320  30.525  43.145  1.00  0.00     0.124 S 
ATOM     92  O   UNL A   1      47.634  31.123  44.287  1.00  0.00    -0.237 OA
ATOM     93  O   UNL A   1      48.449  29.070  43.174  1.00  0.00    -0.237 OA
ATOM     94  O   UNL A   1      49.507  31.243  42.685  1.00  0.00    -0.744 OA
ENDBRANCH  90  91
ENDBRANCH  62  85
BRANCH  74  95
ATOM     95  C   UNL A   1      38.589  33.466  40.359  1.00  0.00    -0.014 A 
ATOM     96  C   UNL A   1      37.811  32.492  41.006  1.00  0.00     0.010 A 
ATOM     97  C   UNL A   1      38.660  34.764  40.899  1.00  0.00     0.010 A 
ATOM     98  C   UNL A   1      37.121  32.811  42.180  1.00  0.00     0.020 A 
ATOM     99  C   UNL A   1      37.989  35.080  42.082  1.00  0.00     0.020 A 
ATOM    100  C   UNL A   1      37.226  34.099  42.718  1.00  0.00     0.054 A 
BRANCH 100 101
ATOM    101  S   UNL A   1      36.383  34.457  44.283  1.00  0.00     0.124 S 
ATOM    102  O   UNL A   1      36.891  33.402  45.157  1.00  0.00    -0.237 OA
ATOM    103  O   UNL A   1      36.851  35.807  44.589  1.00  0.00    -0.237 OA
ATOM    104  O   UNL A   1      34.964  34.354  43.947  1.00  0.00    -0.744 OA
ENDBRANCH 100 101
ENDBRANCH  74  95
ENDBRANCH  48  49
ENDBRANCH  41  43
ENDBRANCH  40  41
ENDBRANCH  39  40
ENDBRANCH  38  39
ENDBRANCH  37  38
ENDBRANCH  36  37
ENDBRANCH   1  36
TORSDOF 24
ENDMDL
