MODEL 1
REMARK VINA RESULT:     -10.4      0.000      0.000
REMARK SMILES O=C(OCCOCCOCCOCCOC(=O)[C@H]1CC=CC[C@@H]1C(=O)N[C@@H]1CCCN(c2ccccc2F)C1=O)c1ccc(-c2c3nc(c(-c4ccc(S(=O)(=O)[O-])cc4)c4ccc([nH]4)c(-c4ccc(S(=O)(=O)[O-])cc4)c4nc(c(-c5ccc(S(=O)(=O)[O-])cc5)c5ccc2[nH]5)C=C4)C=C3)cc1
REMARK SMILES IDX 9 1 8 2 7 3 6 4 5 5 4 6 3 7 2 8 1 9 41 10 42 11 100 12 43 13
REMARK SMILES IDX 99 14 44 15 45 16 46 17 93 18 47 19 98 20 92 21 94 22 48 23
REMARK SMILES IDX 97 24 91 25 90 26 49 28 79 29 60 30 78 31 61 32 64 33 77 34
REMARK SMILES IDX 95 35 62 36 63 37 76 39 96 40 65 41 50 42 51 43 59 44 52 45
REMARK SMILES IDX 58 46 53 47 54 48 55 49 56 50 57 51 80 52 81 53 89 54 82 55
REMARK SMILES IDX 88 56 83 57 84 58 85 59 86 60 87 61 66 62 67 63 75 64 68 65
REMARK SMILES IDX 74 66 69 67 70 68 71 69 72 70 73 71 10 72 11 73 12 74 13 75
REMARK SMILES IDX 14 76 15 77 16 78 17 79 18 80 19 81 23 82 20 83 22 84 21 85
REMARK SMILES IDX 24 86 25 87 26 88 27 90 28 91 39 92 29 93 31 94 40 95 30 96
REMARK SMILES IDX 32 97 33 98 37 99 34 100 36 101 38 102 35 103
REMARK H PARENT 94 27 64 38 26 89
REMARK Flexibility Score: inf
ROOT
ATOM      1  O   UNL A   1      35.193  32.761  27.633  1.00  0.00    -0.377 OA
ENDROOT
BRANCH   1   2
ATOM      2  C   UNL A   1      36.282  32.821  28.557  1.00  0.00     0.188 C 
BRANCH   2   3
ATOM      3  C   UNL A   1      36.202  33.932  29.616  1.00  0.00     0.188 C 
BRANCH   3   4
ATOM      4  O   UNL A   1      35.525  33.500  30.789  1.00  0.00    -0.376 OA
BRANCH   4   5
ATOM      5  C   UNL A   1      36.239  33.190  31.982  1.00  0.00     0.202 C 
BRANCH   5   6
ATOM      6  C   UNL A   1      35.990  31.823  32.577  1.00  0.00     0.261 C 
BRANCH   6   7
ATOM      7  O   UNL A   1      37.032  30.863  32.374  1.00  0.00    -0.460 OA
BRANCH   7   8
ATOM      8  C   UNL A   1      37.262  29.994  31.367  1.00  0.00     0.338 C 
ATOM      9  O   UNL A   1      36.312  29.322  30.964  1.00  0.00    -0.246 OA
BRANCH   8  10
ATOM     10  C   UNL A   1      38.564  29.821  30.666  1.00  0.00     0.060 A 
ATOM     11  C   UNL A   1      38.817  30.070  29.318  1.00  0.00     0.016 A 
ATOM     12  C   UNL A   1      39.661  29.517  31.485  1.00  0.00     0.016 A 
ATOM     13  C   UNL A   1      40.076  29.966  28.768  1.00  0.00     0.010 A 
ATOM     14  C   UNL A   1      40.950  29.444  30.954  1.00  0.00     0.010 A 
ATOM     15  C   UNL A   1      41.144  29.654  29.587  1.00  0.00    -0.014 A 
BRANCH  15  16
ATOM     16  C   UNL A   1      42.412  29.376  28.917  1.00  0.00     0.031 A 
ATOM     17  C   UNL A   1      42.560  28.026  28.303  1.00  0.00     0.074 A 
ATOM     18  C   UNL A   1      43.301  30.368  28.736  1.00  0.00     0.049 A 
ATOM     19  N   UNL A   1      43.613  27.478  27.774  1.00  0.00    -0.248 NA
ATOM     20  C   UNL A   1      41.350  27.178  28.269  1.00  0.00     0.031 C 
ATOM     21  C   UNL A   1      43.105  31.768  29.132  1.00  0.00     0.029 A 
ATOM     22  N   UNL A   1      44.536  30.358  28.154  1.00  0.00    -0.354 N 
ATOM     23  C   UNL A   1      43.214  26.198  27.413  1.00  0.00     0.074 A 
ATOM     24  C   UNL A   1      41.818  26.058  27.743  1.00  0.00     0.031 C 
ATOM     25  C   UNL A   1      44.194  32.477  28.791  1.00  0.00     0.029 A 
ATOM     26  C   UNL A   1      45.189  31.563  28.247  1.00  0.00     0.049 A 
ATOM     27  H   UNL A   1      44.920  29.566  27.712  1.00  0.00     0.167 HD
ATOM     28  C   UNL A   1      43.986  25.225  26.887  1.00  0.00     0.031 A 
ATOM     29  C   UNL A   1      46.478  31.854  27.993  1.00  0.00     0.031 A 
ATOM     30  C   UNL A   1      45.373  25.430  26.589  1.00  0.00     0.049 A 
ATOM     31  C   UNL A   1      47.349  30.717  27.527  1.00  0.00     0.074 A 
ATOM     32  C   UNL A   1      46.295  24.527  26.103  1.00  0.00     0.029 A 
ATOM     33  N   UNL A   1      46.034  26.641  26.764  1.00  0.00    -0.354 N 
ATOM     34  N   UNL A   1      47.001  29.481  27.244  1.00  0.00    -0.248 NA
ATOM     35  C   UNL A   1      48.780  30.994  27.372  1.00  0.00     0.031 C 
ATOM     36  C   UNL A   1      47.533  25.175  26.052  1.00  0.00     0.029 A 
ATOM     37  C   UNL A   1      47.366  26.500  26.436  1.00  0.00     0.049 A 
ATOM     38  H   UNL A   1      45.614  27.474  27.076  1.00  0.00     0.167 HD
ATOM     39  C   UNL A   1      48.169  28.833  26.867  1.00  0.00     0.074 A 
ATOM     40  C   UNL A   1      49.227  29.825  26.933  1.00  0.00     0.031 C 
ATOM     41  C   UNL A   1      48.365  27.540  26.512  1.00  0.00     0.031 A 
BRANCH  28  42
ATOM     42  C   UNL A   1      43.377  23.861  26.740  1.00  0.00    -0.014 A 
ATOM     43  C   UNL A   1      42.948  23.362  25.499  1.00  0.00     0.010 A 
ATOM     44  C   UNL A   1      43.227  23.065  27.891  1.00  0.00     0.010 A 
ATOM     45  C   UNL A   1      42.366  22.093  25.415  1.00  0.00     0.020 A 
ATOM     46  C   UNL A   1      42.670  21.789  27.807  1.00  0.00     0.020 A 
ATOM     47  C   UNL A   1      42.236  21.313  26.570  1.00  0.00     0.054 A 
BRANCH  47  48
ATOM     48  S   UNL A   1      41.530  19.650  26.418  1.00  0.00     0.124 S 
ATOM     49  O   UNL A   1      41.780  19.091  27.742  1.00  0.00    -0.237 OA
ATOM     50  O   UNL A   1      40.135  19.924  26.100  1.00  0.00    -0.237 OA
ATOM     51  O   UNL A   1      42.307  19.044  25.331  1.00  0.00    -0.744 OA
ENDBRANCH  47  48
ENDBRANCH  28  42
BRANCH  29  52
ATOM     52  C   UNL A   1      47.033  33.203  28.297  1.00  0.00    -0.014 A 
ATOM     53  C   UNL A   1      47.346  33.584  29.612  1.00  0.00     0.010 A 
ATOM     54  C   UNL A   1      47.226  34.138  27.258  1.00  0.00     0.010 A 
ATOM     55  C   UNL A   1      47.808  34.877  29.887  1.00  0.00     0.020 A 
ATOM     56  C   UNL A   1      47.720  35.417  27.522  1.00  0.00     0.020 A 
ATOM     57  C   UNL A   1      47.988  35.786  28.840  1.00  0.00     0.054 A 
BRANCH  57  58
ATOM     58  S   UNL A   1      48.589  37.456  29.220  1.00  0.00     0.124 S 
ATOM     59  O   UNL A   1      49.085  37.295  30.583  1.00  0.00    -0.237 OA
ATOM     60  O   UNL A   1      49.609  37.664  28.194  1.00  0.00    -0.237 OA
ATOM     61  O   UNL A   1      47.397  38.290  29.080  1.00  0.00    -0.744 OA
ENDBRANCH  57  58
ENDBRANCH  29  52
BRANCH  41  62
ATOM     62  C   UNL A   1      49.761  27.143  26.139  1.00  0.00    -0.014 A 
ATOM     63  C   UNL A   1      50.615  26.547  27.081  1.00  0.00     0.010 A 
ATOM     64  C   UNL A   1      50.174  27.268  24.801  1.00  0.00     0.010 A 
ATOM     65  C   UNL A   1      51.870  26.085  26.689  1.00  0.00     0.020 A 
ATOM     66  C   UNL A   1      51.415  26.777  24.400  1.00  0.00     0.020 A 
ATOM     67  C   UNL A   1      52.257  26.194  25.349  1.00  0.00     0.054 A 
BRANCH  67  68
ATOM     68  S   UNL A   1      53.854  25.501  24.850  1.00  0.00     0.124 S 
ATOM     69  O   UNL A   1      54.730  25.956  25.925  1.00  0.00    -0.237 OA
ATOM     70  O   UNL A   1      53.583  24.066  24.821  1.00  0.00    -0.237 OA
ATOM     71  O   UNL A   1      54.101  26.109  23.544  1.00  0.00    -0.744 OA
ENDBRANCH  67  68
ENDBRANCH  41  62
ENDBRANCH  15  16
ENDBRANCH   8  10
ENDBRANCH   7   8
ENDBRANCH   6   7
ENDBRANCH   5   6
ENDBRANCH   4   5
ENDBRANCH   3   4
ENDBRANCH   2   3
ENDBRANCH   1   2
BRANCH   1  72
ATOM     72  C   UNL A   1      34.181  31.820  27.966  1.00  0.00     0.188 C 
BRANCH  72  73
ATOM     73  C   UNL A   1      34.055  30.514  27.132  1.00  0.00     0.188 C 
BRANCH  73  74
ATOM     74  O   UNL A   1      33.783  29.326  27.879  1.00  0.00    -0.376 OA
BRANCH  74  75
ATOM     75  C   UNL A   1      33.280  28.208  27.142  1.00  0.00     0.202 C 
BRANCH  75  76
ATOM     76  C   UNL A   1      31.743  28.128  27.071  1.00  0.00     0.261 C 
BRANCH  76  77
ATOM     77  O   UNL A   1      31.256  27.715  25.788  1.00  0.00    -0.463 OA
BRANCH  77  78
ATOM     78  C   UNL A   1      31.261  28.687  24.853  1.00  0.00     0.310 C 
ATOM     79  O   UNL A   1      31.372  29.881  25.122  1.00  0.00    -0.252 OA
BRANCH  78  80
ATOM     80  C   UNL A   1      31.266  28.138  23.422  1.00  0.00     0.115 C 
ATOM     81  C   UNL A   1      32.044  29.013  22.438  1.00  0.00     0.043 C 
ATOM     82  C   UNL A   1      31.781  26.716  23.527  1.00  0.00     0.097 C 
ATOM     83  C   UNL A   1      33.487  29.040  22.817  1.00  0.00    -0.030 C 
ATOM     84  C   UNL A   1      33.262  26.770  23.824  1.00  0.00     0.041 C 
ATOM     85  C   UNL A   1      34.021  28.024  23.499  1.00  0.00    -0.030 C 
BRANCH  82  86
ATOM     86  C   UNL A   1      31.382  25.775  22.398  1.00  0.00     0.224 C 
ATOM     87  O   UNL A   1      31.253  26.167  21.237  1.00  0.00    -0.275 OA
ATOM     88  N   UNL A   1      31.087  24.466  22.668  1.00  0.00    -0.344 N 
ATOM     89  H   UNL A   1      30.827  23.954  21.868  1.00  0.00     0.164 HD
BRANCH  88  90
ATOM     90  C   UNL A   1      31.075  23.658  23.907  1.00  0.00     0.172 C 
ATOM     91  C   UNL A   1      30.510  24.365  25.134  1.00  0.00     0.037 C 
ATOM     92  C   UNL A   1      32.353  22.791  24.085  1.00  0.00     0.249 C 
ATOM     93  C   UNL A   1      31.080  23.811  26.421  1.00  0.00     0.025 C 
ATOM     94  N   UNL A   1      33.161  23.048  25.198  1.00  0.00    -0.308 N 
ATOM     95  O   UNL A   1      32.618  21.948  23.224  1.00  0.00    -0.272 OA
ATOM     96  C   UNL A   1      32.599  23.708  26.387  1.00  0.00     0.126 C 
BRANCH  94  97
ATOM     97  C   UNL A   1      34.615  22.862  25.147  1.00  0.00     0.080 A 
ATOM     98  C   UNL A   1      35.388  23.565  24.207  1.00  0.00     0.029 A 
ATOM     99  C   UNL A   1      35.302  21.862  25.880  1.00  0.00     0.146 A 
ATOM    100  C   UNL A   1      36.731  23.237  23.954  1.00  0.00     0.002 A 
ATOM    101  C   UNL A   1      36.620  21.495  25.585  1.00  0.00     0.041 A 
ATOM    102  F   UNL A   1      34.688  21.077  26.777  1.00  0.00    -0.205 F 
ATOM    103  C   UNL A   1      37.335  22.175  24.614  1.00  0.00     0.003 A 
ENDBRANCH  94  97
ENDBRANCH  88  90
ENDBRANCH  82  86
ENDBRANCH  78  80
ENDBRANCH  77  78
ENDBRANCH  76  77
ENDBRANCH  75  76
ENDBRANCH  74  75
ENDBRANCH  73  74
ENDBRANCH  72  73
ENDBRANCH   1  72
TORSDOF 26
ENDMDL
MODEL 2
REMARK VINA RESULT:     -10.0      1.463      2.263
REMARK SMILES O=C(OCCOCCOCCOCCOC(=O)[C@H]1CC=CC[C@@H]1C(=O)N[C@@H]1CCCN(c2ccccc2F)C1=O)c1ccc(-c2c3nc(c(-c4ccc(S(=O)(=O)[O-])cc4)c4ccc([nH]4)c(-c4ccc(S(=O)(=O)[O-])cc4)c4nc(c(-c5ccc(S(=O)(=O)[O-])cc5)c5ccc2[nH]5)C=C4)C=C3)cc1
REMARK SMILES IDX 9 1 8 2 7 3 6 4 5 5 4 6 3 7 2 8 1 9 41 10 42 11 100 12 43 13
REMARK SMILES IDX 99 14 44 15 45 16 46 17 93 18 47 19 98 20 92 21 94 22 48 23
REMARK SMILES IDX 97 24 91 25 90 26 49 28 79 29 60 30 78 31 61 32 64 33 77 34
REMARK SMILES IDX 95 35 62 36 63 37 76 39 96 40 65 41 50 42 51 43 59 44 52 45
REMARK SMILES IDX 58 46 53 47 54 48 55 49 56 50 57 51 80 52 81 53 89 54 82 55
REMARK SMILES IDX 88 56 83 57 84 58 85 59 86 60 87 61 66 62 67 63 75 64 68 65
REMARK SMILES IDX 74 66 69 67 70 68 71 69 72 70 73 71 10 72 11 73 12 74 13 75
REMARK SMILES IDX 14 76 15 77 16 78 17 79 18 80 19 81 23 82 20 83 22 84 21 85
REMARK SMILES IDX 24 86 25 87 26 88 27 90 28 91 39 92 29 93 31 94 40 95 30 96
REMARK SMILES IDX 32 97 33 98 37 99 34 100 36 101 38 102 35 103
REMARK H PARENT 94 27 64 38 26 89
REMARK Flexibility Score: inf
ROOT
ATOM      1  O   UNL A   1      34.969  32.810  27.671  1.00  0.00    -0.377 OA
ENDROOT
BRANCH   1   2
ATOM      2  C   UNL A   1      36.231  32.585  28.306  1.00  0.00     0.188 C 
BRANCH   2   3
ATOM      3  C   UNL A   1      36.563  33.513  29.485  1.00  0.00     0.188 C 
BRANCH   3   4
ATOM      4  O   UNL A   1      35.962  33.070  30.695  1.00  0.00    -0.376 OA
BRANCH   4   5
ATOM      5  C   UNL A   1      36.709  32.992  31.906  1.00  0.00     0.202 C 
BRANCH   5   6
ATOM      6  C   UNL A   1      36.387  31.831  32.819  1.00  0.00     0.261 C 
BRANCH   6   7
ATOM      7  O   UNL A   1      37.099  30.618  32.550  1.00  0.00    -0.460 OA
BRANCH   7   8
ATOM      8  C   UNL A   1      37.272  29.921  31.407  1.00  0.00     0.338 C 
ATOM      9  O   UNL A   1      36.275  29.418  30.887  1.00  0.00    -0.246 OA
BRANCH   8  10
ATOM     10  C   UNL A   1      38.568  29.754  30.694  1.00  0.00     0.060 A 
ATOM     11  C   UNL A   1      38.804  29.987  29.341  1.00  0.00     0.016 A 
ATOM     12  C   UNL A   1      39.679  29.476  31.505  1.00  0.00     0.016 A 
ATOM     13  C   UNL A   1      40.058  29.892  28.778  1.00  0.00     0.010 A 
ATOM     14  C   UNL A   1      40.962  29.412  30.962  1.00  0.00     0.010 A 
ATOM     15  C   UNL A   1      41.138  29.604  29.589  1.00  0.00    -0.014 A 
BRANCH  15  16
ATOM     16  C   UNL A   1      42.403  29.334  28.909  1.00  0.00     0.031 A 
ATOM     17  C   UNL A   1      42.556  27.982  28.299  1.00  0.00     0.074 A 
ATOM     18  C   UNL A   1      43.283  30.331  28.717  1.00  0.00     0.049 A 
ATOM     19  N   UNL A   1      43.608  27.439  27.763  1.00  0.00    -0.248 NA
ATOM     20  C   UNL A   1      41.352  27.125  28.279  1.00  0.00     0.031 C 
ATOM     21  C   UNL A   1      43.080  31.731  29.110  1.00  0.00     0.029 A 
ATOM     22  N   UNL A   1      44.513  30.327  28.124  1.00  0.00    -0.354 N 
ATOM     23  C   UNL A   1      43.215  26.156  27.411  1.00  0.00     0.074 A 
ATOM     24  C   UNL A   1      41.823  26.007  27.753  1.00  0.00     0.031 C 
ATOM     25  C   UNL A   1      44.161  32.446  28.756  1.00  0.00     0.029 A 
ATOM     26  C   UNL A   1      45.158  31.538  28.207  1.00  0.00     0.049 A 
ATOM     27  H   UNL A   1      44.899  29.537  27.682  1.00  0.00     0.167 HD
ATOM     28  C   UNL A   1      43.989  25.185  26.882  1.00  0.00     0.031 A 
ATOM     29  C   UNL A   1      46.443  31.837  27.941  1.00  0.00     0.031 A 
ATOM     30  C   UNL A   1      45.372  25.400  26.571  1.00  0.00     0.049 A 
ATOM     31  C   UNL A   1      47.318  30.704  27.471  1.00  0.00     0.074 A 
ATOM     32  C   UNL A   1      46.297  24.502  26.080  1.00  0.00     0.029 A 
ATOM     33  N   UNL A   1      46.026  26.616  26.736  1.00  0.00    -0.354 N 
ATOM     34  N   UNL A   1      46.977  29.465  27.196  1.00  0.00    -0.248 NA
ATOM     35  C   UNL A   1      48.745  30.991  27.303  1.00  0.00     0.031 C 
ATOM     36  C   UNL A   1      47.530  25.159  26.016  1.00  0.00     0.029 A 
ATOM     37  C   UNL A   1      47.356  26.484  26.396  1.00  0.00     0.049 A 
ATOM     38  H   UNL A   1      45.603  27.448  27.048  1.00  0.00     0.167 HD
ATOM     39  C   UNL A   1      48.146  28.825  26.812  1.00  0.00     0.074 A 
ATOM     40  C   UNL A   1      49.197  29.824  26.864  1.00  0.00     0.031 C 
ATOM     41  C   UNL A   1      48.348  27.531  26.459  1.00  0.00     0.031 A 
BRANCH  28  42
ATOM     42  C   UNL A   1      43.389  23.817  26.746  1.00  0.00    -0.014 A 
ATOM     43  C   UNL A   1      42.994  23.293  25.504  1.00  0.00     0.010 A 
ATOM     44  C   UNL A   1      43.213  23.042  27.907  1.00  0.00     0.010 A 
ATOM     45  C   UNL A   1      42.418  22.020  25.429  1.00  0.00     0.020 A 
ATOM     46  C   UNL A   1      42.663  21.762  27.834  1.00  0.00     0.020 A 
ATOM     47  C   UNL A   1      42.262  21.261  26.595  1.00  0.00     0.054 A 
BRANCH  47  48
ATOM     48  S   UNL A   1      41.566  19.593  26.457  1.00  0.00     0.124 S 
ATOM     49  O   UNL A   1      41.796  19.056  27.793  1.00  0.00    -0.237 OA
ATOM     50  O   UNL A   1      40.176  19.855  26.111  1.00  0.00    -0.237 OA
ATOM     51  O   UNL A   1      42.364  18.974  25.392  1.00  0.00    -0.744 OA
ENDBRANCH  47  48
ENDBRANCH  28  42
BRANCH  29  52
ATOM     52  C   UNL A   1      46.990  33.191  28.234  1.00  0.00    -0.014 A 
ATOM     53  C   UNL A   1      47.496  33.514  29.504  1.00  0.00     0.010 A 
ATOM     54  C   UNL A   1      46.981  34.189  27.237  1.00  0.00     0.010 A 
ATOM     55  C   UNL A   1      47.949  34.810  29.780  1.00  0.00     0.020 A 
ATOM     56  C   UNL A   1      47.465  35.473  27.496  1.00  0.00     0.020 A 
ATOM     57  C   UNL A   1      47.927  35.782  28.775  1.00  0.00     0.054 A 
BRANCH  57  58
ATOM     58  S   UNL A   1      48.521  37.454  29.157  1.00  0.00     0.124 S 
ATOM     59  O   UNL A   1      48.156  37.591  30.563  1.00  0.00    -0.237 OA
ATOM     60  O   UNL A   1      49.952  37.349  28.880  1.00  0.00    -0.237 OA
ATOM     61  O   UNL A   1      47.776  38.303  28.229  1.00  0.00    -0.744 OA
ENDBRANCH  57  58
ENDBRANCH  29  52
BRANCH  41  62
ATOM     62  C   UNL A   1      49.744  27.143  26.076  1.00  0.00    -0.014 A 
ATOM     63  C   UNL A   1      50.625  26.600  27.025  1.00  0.00     0.010 A 
ATOM     64  C   UNL A   1      50.129  27.220  24.727  1.00  0.00     0.010 A 
ATOM     65  C   UNL A   1      51.881  26.144  26.627  1.00  0.00     0.020 A 
ATOM     66  C   UNL A   1      51.371  26.734  24.322  1.00  0.00     0.020 A 
ATOM     67  C   UNL A   1      52.241  26.205  25.276  1.00  0.00     0.054 A 
BRANCH  67  68
ATOM     68  S   UNL A   1      53.840  25.519  24.775  1.00  0.00     0.124 S 
ATOM     69  O   UNL A   1      54.086  26.215  23.516  1.00  0.00    -0.237 OA
ATOM     70  O   UNL A   1      54.711  25.896  25.885  1.00  0.00    -0.237 OA
ATOM     71  O   UNL A   1      53.578  24.086  24.654  1.00  0.00    -0.744 OA
ENDBRANCH  67  68
ENDBRANCH  41  62
ENDBRANCH  15  16
ENDBRANCH   8  10
ENDBRANCH   7   8
ENDBRANCH   6   7
ENDBRANCH   5   6
ENDBRANCH   4   5
ENDBRANCH   3   4
ENDBRANCH   2   3
ENDBRANCH   1   2
BRANCH   1  72
ATOM     72  C   UNL A   1      33.944  31.901  28.047  1.00  0.00     0.188 C 
BRANCH  72  73
ATOM     73  C   UNL A   1      33.586  30.725  27.093  1.00  0.00     0.188 C 
BRANCH  73  74
ATOM     74  O   UNL A   1      34.037  29.433  27.509  1.00  0.00    -0.376 OA
BRANCH  74  75
ATOM     75  C   UNL A   1      34.391  28.515  26.470  1.00  0.00     0.202 C 
BRANCH  75  76
ATOM     76  C   UNL A   1      33.557  27.219  26.451  1.00  0.00     0.261 C 
BRANCH  76  77
ATOM     77  O   UNL A   1      33.309  26.726  25.128  1.00  0.00    -0.463 OA
BRANCH  77  78
ATOM     78  C   UNL A   1      32.037  26.885  24.706  1.00  0.00     0.310 C 
ATOM     79  O   UNL A   1      31.730  27.582  23.742  1.00  0.00    -0.252 OA
BRANCH  78  80
ATOM     80  C   UNL A   1      31.044  25.989  25.453  1.00  0.00     0.115 C 
ATOM     81  C   UNL A   1      29.662  25.936  24.800  1.00  0.00     0.043 C 
ATOM     82  C   UNL A   1      31.721  24.638  25.580  1.00  0.00     0.097 C 
ATOM     83  C   UNL A   1      29.764  25.309  23.451  1.00  0.00    -0.030 C 
ATOM     84  C   UNL A   1      31.733  23.985  24.218  1.00  0.00     0.041 C 
ATOM     85  C   UNL A   1      30.752  24.452  23.182  1.00  0.00    -0.030 C 
BRANCH  82  86
ATOM     86  C   UNL A   1      31.233  23.751  26.718  1.00  0.00     0.224 C 
ATOM     87  O   UNL A   1      30.090  23.836  27.169  1.00  0.00    -0.275 OA
ATOM     88  N   UNL A   1      32.093  22.871  27.319  1.00  0.00    -0.344 N 
ATOM     89  H   UNL A   1      31.677  22.361  28.051  1.00  0.00     0.164 HD
BRANCH  88  90
ATOM     90  C   UNL A   1      33.515  22.527  27.102  1.00  0.00     0.172 C 
ATOM     91  C   UNL A   1      34.359  23.631  26.472  1.00  0.00     0.037 C 
ATOM     92  C   UNL A   1      33.723  21.070  26.601  1.00  0.00     0.249 C 
ATOM     93  C   UNL A   1      35.538  23.075  25.706  1.00  0.00     0.025 C 
ATOM     94  N   UNL A   1      34.305  20.895  25.341  1.00  0.00    -0.308 N 
ATOM     95  O   UNL A   1      33.333  20.140  27.312  1.00  0.00    -0.272 OA
ATOM     96  C   UNL A   1      35.139  21.956  24.754  1.00  0.00     0.126 C 
BRANCH  94  97
ATOM     97  C   UNL A   1      33.949  19.758  24.485  1.00  0.00     0.080 A 
ATOM     98  C   UNL A   1      32.657  19.660  23.937  1.00  0.00     0.029 A 
ATOM     99  C   UNL A   1      34.779  18.624  24.305  1.00  0.00     0.146 A 
ATOM    100  C   UNL A   1      32.197  18.481  23.327  1.00  0.00     0.002 A 
ATOM    101  C   UNL A   1      34.300  17.430  23.753  1.00  0.00     0.041 A 
ATOM    102  F   UNL A   1      36.018  18.551  24.811  1.00  0.00    -0.205 F 
ATOM    103  C   UNL A   1      33.004  17.352  23.271  1.00  0.00     0.003 A 
ENDBRANCH  94  97
ENDBRANCH  88  90
ENDBRANCH  82  86
ENDBRANCH  78  80
ENDBRANCH  77  78
ENDBRANCH  76  77
ENDBRANCH  75  76
ENDBRANCH  74  75
ENDBRANCH  73  74
ENDBRANCH  72  73
ENDBRANCH   1  72
TORSDOF 26
ENDMDL
MODEL 3
REMARK VINA RESULT:      -9.5      3.823      9.370
REMARK SMILES O=C(OCCOCCOCCOCCOC(=O)[C@H]1CC=CC[C@@H]1C(=O)N[C@@H]1CCCN(c2ccccc2F)C1=O)c1ccc(-c2c3nc(c(-c4ccc(S(=O)(=O)[O-])cc4)c4ccc([nH]4)c(-c4ccc(S(=O)(=O)[O-])cc4)c4nc(c(-c5ccc(S(=O)(=O)[O-])cc5)c5ccc2[nH]5)C=C4)C=C3)cc1
REMARK SMILES IDX 9 1 8 2 7 3 6 4 5 5 4 6 3 7 2 8 1 9 41 10 42 11 100 12 43 13
REMARK SMILES IDX 99 14 44 15 45 16 46 17 93 18 47 19 98 20 92 21 94 22 48 23
REMARK SMILES IDX 97 24 91 25 90 26 49 28 79 29 60 30 78 31 61 32 64 33 77 34
REMARK SMILES IDX 95 35 62 36 63 37 76 39 96 40 65 41 50 42 51 43 59 44 52 45
REMARK SMILES IDX 58 46 53 47 54 48 55 49 56 50 57 51 80 52 81 53 89 54 82 55
REMARK SMILES IDX 88 56 83 57 84 58 85 59 86 60 87 61 66 62 67 63 75 64 68 65
REMARK SMILES IDX 74 66 69 67 70 68 71 69 72 70 73 71 10 72 11 73 12 74 13 75
REMARK SMILES IDX 14 76 15 77 16 78 17 79 18 80 19 81 23 82 20 83 22 84 21 85
REMARK SMILES IDX 24 86 25 87 26 88 27 90 28 91 39 92 29 93 31 94 40 95 30 96
REMARK SMILES IDX 32 97 33 98 37 99 34 100 36 101 38 102 35 103
REMARK H PARENT 94 27 64 38 26 89
REMARK Flexibility Score: inf
ROOT
ATOM      1  O   UNL A   1      36.180  29.836  31.304  1.00  0.00    -0.377 OA
ENDROOT
BRANCH   1   2
ATOM      2  C   UNL A   1      36.173  31.204  31.722  1.00  0.00     0.188 C 
BRANCH   2   3
ATOM      3  C   UNL A   1      35.191  32.125  30.981  1.00  0.00     0.188 C 
BRANCH   3   4
ATOM      4  O   UNL A   1      34.232  32.696  31.862  1.00  0.00    -0.376 OA
BRANCH   4   5
ATOM      5  C   UNL A   1      34.208  34.096  32.121  1.00  0.00     0.202 C 
BRANCH   5   6
ATOM      6  C   UNL A   1      34.421  34.516  33.557  1.00  0.00     0.261 C 
BRANCH   6   7
ATOM      7  O   UNL A   1      35.109  33.569  34.381  1.00  0.00    -0.460 OA
BRANCH   7   8
ATOM      8  C   UNL A   1      36.330  33.607  34.954  1.00  0.00     0.338 C 
ATOM      9  O   UNL A   1      36.387  33.554  36.183  1.00  0.00    -0.246 OA
BRANCH   8  10
ATOM     10  C   UNL A   1      37.622  33.655  34.215  1.00  0.00     0.060 A 
ATOM     11  C   UNL A   1      37.872  34.345  33.031  1.00  0.00     0.016 A 
ATOM     12  C   UNL A   1      38.717  33.063  34.862  1.00  0.00     0.016 A 
ATOM     13  C   UNL A   1      39.124  34.407  32.458  1.00  0.00     0.010 A 
ATOM     14  C   UNL A   1      39.999  33.146  34.319  1.00  0.00     0.010 A 
ATOM     15  C   UNL A   1      40.189  33.808  33.103  1.00  0.00    -0.014 A 
BRANCH  15  16
ATOM     16  C   UNL A   1      41.445  33.748  32.358  1.00  0.00     0.031 A 
ATOM     17  C   UNL A   1      42.420  34.848  32.608  1.00  0.00     0.074 A 
ATOM     18  C   UNL A   1      41.737  32.656  31.632  1.00  0.00     0.049 A 
ATOM     19  N   UNL A   1      43.534  35.109  31.993  1.00  0.00    -0.248 NA
ATOM     20  C   UNL A   1      42.101  35.777  33.711  1.00  0.00     0.031 C 
ATOM     21  C   UNL A   1      40.902  31.452  31.532  1.00  0.00     0.029 A 
ATOM     22  N   UNL A   1      42.826  32.369  30.861  1.00  0.00    -0.354 N 
ATOM     23  C   UNL A   1      44.012  36.271  32.583  1.00  0.00     0.074 A 
ATOM     24  C   UNL A   1      43.094  36.647  33.629  1.00  0.00     0.031 C 
ATOM     25  C   UNL A   1      41.508  30.564  30.728  1.00  0.00     0.029 A 
ATOM     26  C   UNL A   1      42.715  31.175  30.189  1.00  0.00     0.049 A 
ATOM     27  H   UNL A   1      43.612  32.958  30.791  1.00  0.00     0.167 HD
ATOM     28  C   UNL A   1      45.111  36.968  32.231  1.00  0.00     0.031 A 
ATOM     29  C   UNL A   1      43.473  30.687  29.190  1.00  0.00     0.031 A 
ATOM     30  C   UNL A   1      45.979  36.540  31.173  1.00  0.00     0.049 A 
ATOM     31  C   UNL A   1      44.622  31.547  28.731  1.00  0.00     0.074 A 
ATOM     32  C   UNL A   1      47.100  37.164  30.667  1.00  0.00     0.029 A 
ATOM     33  N   UNL A   1      45.804  35.363  30.453  1.00  0.00    -0.354 N 
ATOM     34  N   UNL A   1      45.047  32.684  29.235  1.00  0.00    -0.248 NA
ATOM     35  C   UNL A   1      45.372  31.085  27.560  1.00  0.00     0.031 C 
ATOM     36  C   UNL A   1      47.560  36.399  29.592  1.00  0.00     0.029 A 
ATOM     37  C   UNL A   1      46.771  35.261  29.477  1.00  0.00     0.049 A 
ATOM     38  H   UNL A   1      45.094  34.700  30.617  1.00  0.00     0.167 HD
ATOM     39  C   UNL A   1      46.124  33.070  28.449  1.00  0.00     0.074 A 
ATOM     40  C   UNL A   1      46.299  32.029  27.454  1.00  0.00     0.031 C 
ATOM     41  C   UNL A   1      46.894  34.183  28.525  1.00  0.00     0.031 A 
BRANCH  28  42
ATOM     42  C   UNL A   1      45.335  38.293  32.898  1.00  0.00    -0.014 A 
ATOM     43  C   UNL A   1      46.133  38.428  34.047  1.00  0.00     0.010 A 
ATOM     44  C   UNL A   1      44.714  39.433  32.354  1.00  0.00     0.010 A 
ATOM     45  C   UNL A   1      46.294  39.681  34.647  1.00  0.00     0.020 A 
ATOM     46  C   UNL A   1      44.892  40.688  32.936  1.00  0.00     0.020 A 
ATOM     47  C   UNL A   1      45.677  40.804  34.084  1.00  0.00     0.054 A 
BRANCH  47  48
ATOM     48  S   UNL A   1      45.952  42.423  34.853  1.00  0.00     0.124 S 
ATOM     49  O   UNL A   1      47.393  42.590  34.701  1.00  0.00    -0.237 OA
ATOM     50  O   UNL A   1      45.123  43.305  34.044  1.00  0.00    -0.237 OA
ATOM     51  O   UNL A   1      45.492  42.231  36.233  1.00  0.00    -0.744 OA
ENDBRANCH  47  48
ENDBRANCH  28  42
BRANCH  29  52
ATOM     52  C   UNL A   1      43.099  29.426  28.491  1.00  0.00    -0.014 A 
ATOM     53  C   UNL A   1      42.246  29.436  27.375  1.00  0.00     0.010 A 
ATOM     54  C   UNL A   1      43.579  28.187  28.964  1.00  0.00     0.010 A 
ATOM     55  C   UNL A   1      41.856  28.236  26.768  1.00  0.00     0.020 A 
ATOM     56  C   UNL A   1      43.221  26.989  28.340  1.00  0.00     0.020 A 
ATOM     57  C   UNL A   1      42.343  27.020  27.258  1.00  0.00     0.054 A 
BRANCH  57  58
ATOM     58  S   UNL A   1      41.824  25.478  26.454  1.00  0.00     0.124 S 
ATOM     59  O   UNL A   1      40.979  24.873  27.478  1.00  0.00    -0.237 OA
ATOM     60  O   UNL A   1      41.130  25.963  25.263  1.00  0.00    -0.237 OA
ATOM     61  O   UNL A   1      43.085  24.786  26.191  1.00  0.00    -0.744 OA
ENDBRANCH  57  58
ENDBRANCH  29  52
BRANCH  41  62
ATOM     62  C   UNL A   1      48.006  34.306  27.527  1.00  0.00    -0.014 A 
ATOM     63  C   UNL A   1      47.761  34.800  26.235  1.00  0.00     0.010 A 
ATOM     64  C   UNL A   1      49.323  34.031  27.933  1.00  0.00     0.010 A 
ATOM     65  C   UNL A   1      48.824  35.010  25.358  1.00  0.00     0.020 A 
ATOM     66  C   UNL A   1      50.390  34.272  27.069  1.00  0.00     0.020 A 
ATOM     67  C   UNL A   1      50.132  34.755  25.785  1.00  0.00     0.054 A 
BRANCH  67  68
ATOM     68  S   UNL A   1      51.498  35.127  24.657  1.00  0.00     0.124 S 
ATOM     69  O   UNL A   1      51.508  33.949  23.795  1.00  0.00    -0.237 OA
ATOM     70  O   UNL A   1      51.060  36.368  24.024  1.00  0.00    -0.237 OA
ATOM     71  O   UNL A   1      52.652  35.260  25.544  1.00  0.00    -0.744 OA
ENDBRANCH  67  68
ENDBRANCH  41  62
ENDBRANCH  15  16
ENDBRANCH   8  10
ENDBRANCH   7   8
ENDBRANCH   6   7
ENDBRANCH   5   6
ENDBRANCH   4   5
ENDBRANCH   3   4
ENDBRANCH   2   3
ENDBRANCH   1   2
BRANCH   1  72
ATOM     72  C   UNL A   1      37.028  29.556  30.198  1.00  0.00     0.188 C 
BRANCH  72  73
ATOM     73  C   UNL A   1      36.521  29.855  28.758  1.00  0.00     0.188 C 
BRANCH  73  74
ATOM     74  O   UNL A   1      35.341  29.152  28.360  1.00  0.00    -0.376 OA
BRANCH  74  75
ATOM     75  C   UNL A   1      34.384  29.891  27.595  1.00  0.00     0.202 C 
BRANCH  75  76
ATOM     76  C   UNL A   1      34.167  29.364  26.164  1.00  0.00     0.261 C 
BRANCH  76  77
ATOM     77  O   UNL A   1      32.864  28.802  25.960  1.00  0.00    -0.463 OA
BRANCH  77  78
ATOM     78  C   UNL A   1      32.869  27.577  25.396  1.00  0.00     0.310 C 
ATOM     79  O   UNL A   1      33.445  26.610  25.891  1.00  0.00    -0.252 OA
BRANCH  78  80
ATOM     80  C   UNL A   1      31.962  27.482  24.166  1.00  0.00     0.115 C 
ATOM     81  C   UNL A   1      31.850  28.794  23.389  1.00  0.00     0.043 C 
ATOM     82  C   UNL A   1      32.495  26.322  23.347  1.00  0.00     0.097 C 
ATOM     83  C   UNL A   1      33.180  29.164  22.825  1.00  0.00    -0.030 C 
ATOM     84  C   UNL A   1      33.799  26.751  22.714  1.00  0.00     0.041 C 
ATOM     85  C   UNL A   1      34.085  28.217  22.567  1.00  0.00    -0.030 C 
BRANCH  82  86
ATOM     86  C   UNL A   1      31.503  25.661  22.399  1.00  0.00     0.224 C 
ATOM     87  O   UNL A   1      31.194  26.167  21.319  1.00  0.00    -0.275 OA
ATOM     88  N   UNL A   1      30.870  24.504  22.767  1.00  0.00    -0.344 N 
ATOM     89  H   UNL A   1      30.240  24.174  22.086  1.00  0.00     0.164 HD
BRANCH  88  90
ATOM     90  C   UNL A   1      30.933  23.646  23.970  1.00  0.00     0.172 C 
ATOM     91  C   UNL A   1      30.718  24.372  25.294  1.00  0.00     0.037 C 
ATOM     92  C   UNL A   1      32.052  22.569  23.897  1.00  0.00     0.249 C 
ATOM     93  C   UNL A   1      31.397  23.664  26.445  1.00  0.00     0.025 C 
ATOM     94  N   UNL A   1      33.072  22.630  24.853  1.00  0.00    -0.308 N 
ATOM     95  O   UNL A   1      32.015  21.740  22.985  1.00  0.00    -0.272 OA
ATOM     96  C   UNL A   1      32.846  23.312  26.138  1.00  0.00     0.126 C 
BRANCH  94  97
ATOM     97  C   UNL A   1      34.441  22.207  24.539  1.00  0.00     0.080 A 
ATOM     98  C   UNL A   1      35.063  21.199  25.297  1.00  0.00     0.029 A 
ATOM     99  C   UNL A   1      35.275  22.881  23.613  1.00  0.00     0.146 A 
ATOM    100  C   UNL A   1      36.440  20.940  25.199  1.00  0.00     0.002 A 
ATOM    101  C   UNL A   1      36.657  22.665  23.559  1.00  0.00     0.041 A 
ATOM    102  F   UNL A   1      34.836  23.896  22.854  1.00  0.00    -0.205 F 
ATOM    103  C   UNL A   1      37.245  21.700  24.360  1.00  0.00     0.003 A 
ENDBRANCH  94  97
ENDBRANCH  88  90
ENDBRANCH  82  86
ENDBRANCH  78  80
ENDBRANCH  77  78
ENDBRANCH  76  77
ENDBRANCH  75  76
ENDBRANCH  74  75
ENDBRANCH  73  74
ENDBRANCH  72  73
ENDBRANCH   1  72
TORSDOF 26
ENDMDL
