MODEL 1
REMARK VINA RESULT:      -9.5      0.000      0.000
REMARK SMILES Cc1ccc2oc(CCCC(=O)OCCOCCOCCOCCOC(=O)c3ccc(-c4c5nc(c(-c6ccc(S(=O)(=O)[O-])cc6)c6ccc([nH]6)c(-c6ccc(S(=O)(=O)[O-])cc6)c6nc(c(-c7ccc(S(=O)(=O)[O-])cc7)c7ccc4[nH]7)C=C6)C=C5)cc3)cc(=O)c2c1
REMARK SMILES IDX 19 1 18 2 17 3 16 4 15 5 14 6 13 7 11 8 12 9 10 10 9 11 8 12
REMARK SMILES IDX 7 13 1 14 2 15 3 16 92 17 4 18 91 19 5 20 89 21 6 22 88 23
REMARK SMILES IDX 90 24 20 25 21 26 22 27 23 28 24 29 25 30 26 31 27 32 28 33
REMARK SMILES IDX 29 34 87 35 30 36 86 37 31 38 32 39 33 40 80 41 34 42 85 43
REMARK SMILES IDX 79 44 81 45 35 46 84 47 78 48 77 49 36 51 66 52 47 53 65 54
REMARK SMILES IDX 48 55 51 56 64 57 82 58 49 59 50 60 63 62 83 63 52 64 37 65
REMARK SMILES IDX 38 66 46 67 39 68 45 69 40 70 41 71 42 72 43 73 44 74 67 75
REMARK SMILES IDX 68 76 76 77 69 78 75 79 70 80 71 81 72 82 73 83 74 84 53 85
REMARK SMILES IDX 54 86 62 87 55 88 61 89 56 90 57 91 58 92 59 93 60 94
REMARK H PARENT 81 50 51 61
REMARK Flexibility Score: inf
ROOT
ATOM      1  O   UNL A   1      33.742  26.952  26.086  1.00  0.00    -0.377 OA
ENDROOT
BRANCH   1   2
ATOM      2  C   UNL A   1      33.273  25.627  25.886  1.00  0.00     0.188 C 
BRANCH   2   3
ATOM      3  C   UNL A   1      34.222  24.436  26.087  1.00  0.00     0.188 C 
BRANCH   3   4
ATOM      4  O   UNL A   1      35.298  24.395  25.178  1.00  0.00    -0.376 OA
BRANCH   4   5
ATOM      5  C   UNL A   1      36.571  23.948  25.611  1.00  0.00     0.202 C 
BRANCH   5   6
ATOM      6  C   UNL A   1      36.946  22.460  25.760  1.00  0.00     0.261 C 
BRANCH   6   7
ATOM      7  O   UNL A   1      36.659  21.606  24.644  1.00  0.00    -0.463 OA
BRANCH   7   8
ATOM      8  C   UNL A   1      35.900  20.515  24.874  1.00  0.00     0.305 C 
ATOM      9  O   UNL A   1      36.349  19.379  25.004  1.00  0.00    -0.252 OA
BRANCH   8  10
ATOM     10  C   UNL A   1      34.424  20.811  25.089  1.00  0.00     0.123 C 
BRANCH  10  11
ATOM     11  C   UNL A   1      33.462  21.281  23.979  1.00  0.00     0.020 C 
BRANCH  11  12
ATOM     12  C   UNL A   1      32.135  21.955  24.342  1.00  0.00     0.076 C 
BRANCH  12  13
ATOM     13  C   UNL A   1      31.927  23.178  23.509  1.00  0.00     0.108 A 
ATOM     14  C   UNL A   1      30.020  29.219  22.310  1.00  0.00     0.044 C 
ATOM     15  C   UNL A   1      30.242  27.796  22.722  1.00  0.00    -0.050 A 
ATOM     16  C   UNL A   1      29.392  27.183  23.654  1.00  0.00     0.007 A 
ATOM     17  C   UNL A   1      31.294  27.061  22.153  1.00  0.00     0.019 A 
ATOM     18  C   UNL A   1      29.574  25.847  23.998  1.00  0.00     0.048 A 
ATOM     19  C   UNL A   1      31.482  25.730  22.514  1.00  0.00     0.065 A 
ATOM     20  C   UNL A   1      30.617  25.130  23.421  1.00  0.00     0.138 A 
ATOM     21  C   UNL A   1      32.622  24.947  22.004  1.00  0.00     0.192 A 
ATOM     22  O   UNL A   1      30.747  23.827  23.804  1.00  0.00    -0.461 OA
ATOM     23  C   UNL A   1      32.826  23.622  22.620  1.00  0.00     0.095 A 
ATOM     24  O   UNL A   1      33.423  25.391  21.194  1.00  0.00    -0.289 OA
ENDBRANCH  12  13
ENDBRANCH  11  12
ENDBRANCH  10  11
ENDBRANCH   8  10
ENDBRANCH   7   8
ENDBRANCH   6   7
ENDBRANCH   5   6
ENDBRANCH   4   5
ENDBRANCH   3   4
ENDBRANCH   2   3
ENDBRANCH   1   2
BRANCH   1  25
ATOM     25  C   UNL A   1      32.819  28.039  26.108  1.00  0.00     0.188 C 
BRANCH  25  26
ATOM     26  C   UNL A   1      33.027  29.224  27.075  1.00  0.00     0.188 C 
BRANCH  26  27
ATOM     27  O   UNL A   1      34.075  30.110  26.718  1.00  0.00    -0.376 OA
BRANCH  27  28
ATOM     28  C   UNL A   1      34.350  31.187  27.601  1.00  0.00     0.202 C 
BRANCH  28  29
ATOM     29  C   UNL A   1      35.333  30.934  28.756  1.00  0.00     0.261 C 
BRANCH  29  30
ATOM     30  O   UNL A   1      36.289  29.878  28.563  1.00  0.00    -0.460 OA
BRANCH  30  31
ATOM     31  C   UNL A   1      36.951  29.425  29.653  1.00  0.00     0.338 C 
ATOM     32  O   UNL A   1      36.499  29.241  30.762  1.00  0.00    -0.246 OA
BRANCH  31  33
ATOM     33  C   UNL A   1      38.298  29.012  29.209  1.00  0.00     0.060 A 
ATOM     34  C   UNL A   1      39.148  28.366  30.116  1.00  0.00     0.016 A 
ATOM     35  C   UNL A   1      38.717  29.268  27.902  1.00  0.00     0.016 A 
ATOM     36  C   UNL A   1      40.436  27.998  29.724  1.00  0.00     0.010 A 
ATOM     37  C   UNL A   1      40.015  28.921  27.519  1.00  0.00     0.010 A 
ATOM     38  C   UNL A   1      40.890  28.315  28.437  1.00  0.00    -0.014 A 
BRANCH  38  39
ATOM     39  C   UNL A   1      42.332  28.194  28.111  1.00  0.00     0.031 A 
ATOM     40  C   UNL A   1      43.218  29.386  28.352  1.00  0.00     0.074 A 
ATOM     41  C   UNL A   1      42.847  27.053  27.620  1.00  0.00     0.049 A 
ATOM     42  N   UNL A   1      44.487  29.544  28.081  1.00  0.00    -0.248 NA
ATOM     43  C   UNL A   1      42.584  30.557  28.983  1.00  0.00     0.031 C 
ATOM     44  C   UNL A   1      42.105  25.813  27.395  1.00  0.00     0.029 A 
ATOM     45  N   UNL A   1      44.126  26.758  27.212  1.00  0.00    -0.354 N 
ATOM     46  C   UNL A   1      44.800  30.835  28.493  1.00  0.00     0.074 A 
ATOM     47  C   UNL A   1      43.584  31.424  29.009  1.00  0.00     0.031 C 
ATOM     48  C   UNL A   1      42.940  24.895  26.877  1.00  0.00     0.029 A 
ATOM     49  C   UNL A   1      44.262  25.492  26.695  1.00  0.00     0.049 A 
ATOM     50  H   UNL A   1      44.874  27.395  27.283  1.00  0.00     0.167 HD
ATOM     51  C   UNL A   1      45.994  31.472  28.448  1.00  0.00     0.031 A 
ATOM     52  C   UNL A   1      45.323  24.897  26.113  1.00  0.00     0.031 A 
ATOM     53  C   UNL A   1      47.196  30.887  27.916  1.00  0.00     0.049 A 
ATOM     54  C   UNL A   1      46.620  25.659  25.989  1.00  0.00     0.074 A 
ATOM     55  C   UNL A   1      48.460  31.446  27.836  1.00  0.00     0.029 A 
ATOM     56  N   UNL A   1      47.283  29.619  27.363  1.00  0.00    -0.354 N 
ATOM     57  N   UNL A   1      46.909  26.869  26.406  1.00  0.00    -0.248 NA
ATOM     58  C   UNL A   1      47.733  24.971  25.319  1.00  0.00     0.031 C 
ATOM     59  C   UNL A   1      49.294  30.542  27.171  1.00  0.00     0.029 A 
ATOM     60  C   UNL A   1      48.569  29.390  26.906  1.00  0.00     0.049 A 
ATOM     61  H   UNL A   1      46.539  28.976  27.305  1.00  0.00     0.167 HD
ATOM     62  C   UNL A   1      48.245  27.077  26.071  1.00  0.00     0.074 A 
ATOM     63  C   UNL A   1      48.710  25.861  25.437  1.00  0.00     0.031 C 
ATOM     64  C   UNL A   1      49.018  28.174  26.273  1.00  0.00     0.031 A 
BRANCH  51  65
ATOM     65  C   UNL A   1      46.045  32.893  28.947  1.00  0.00    -0.014 A 
ATOM     66  C   UNL A   1      46.347  33.188  30.289  1.00  0.00     0.010 A 
ATOM     67  C   UNL A   1      45.821  33.952  28.048  1.00  0.00     0.010 A 
ATOM     68  C   UNL A   1      46.388  34.515  30.729  1.00  0.00     0.020 A 
ATOM     69  C   UNL A   1      45.890  35.279  28.477  1.00  0.00     0.020 A 
ATOM     70  C   UNL A   1      46.159  35.552  29.819  1.00  0.00     0.054 A 
BRANCH  70  71
ATOM     71  S   UNL A   1      46.244  37.264  30.414  1.00  0.00     0.124 S 
ATOM     72  O   UNL A   1      46.877  37.098  31.720  1.00  0.00    -0.237 OA
ATOM     73  O   UNL A   1      47.064  37.915  29.397  1.00  0.00    -0.237 OA
ATOM     74  O   UNL A   1      44.847  37.688  30.450  1.00  0.00    -0.744 OA
ENDBRANCH  70  71
ENDBRANCH  51  65
BRANCH  52  75
ATOM     75  C   UNL A   1      45.201  23.512  25.575  1.00  0.00    -0.014 A 
ATOM     76  C   UNL A   1      44.720  23.286  24.273  1.00  0.00     0.010 A 
ATOM     77  C   UNL A   1      45.561  22.407  26.369  1.00  0.00     0.010 A 
ATOM     78  C   UNL A   1      44.586  21.983  23.781  1.00  0.00     0.020 A 
ATOM     79  C   UNL A   1      45.461  21.105  25.870  1.00  0.00     0.020 A 
ATOM     80  C   UNL A   1      44.964  20.901  24.582  1.00  0.00     0.054 A 
BRANCH  80  81
ATOM     81  S   UNL A   1      44.832  19.225  23.900  1.00  0.00     0.124 S 
ATOM     82  O   UNL A   1      46.202  18.736  24.025  1.00  0.00    -0.237 OA
ATOM     83  O   UNL A   1      43.854  18.600  24.787  1.00  0.00    -0.237 OA
ATOM     84  O   UNL A   1      44.369  19.446  22.532  1.00  0.00    -0.744 OA
ENDBRANCH  80  81
ENDBRANCH  52  75
BRANCH  64  85
ATOM     85  C   UNL A   1      50.459  28.106  25.834  1.00  0.00    -0.014 A 
ATOM     86  C   UNL A   1      51.466  27.631  26.693  1.00  0.00     0.010 A 
ATOM     87  C   UNL A   1      50.798  28.462  24.515  1.00  0.00     0.010 A 
ATOM     88  C   UNL A   1      52.789  27.544  26.252  1.00  0.00     0.020 A 
ATOM     89  C   UNL A   1      52.115  28.346  24.060  1.00  0.00     0.020 A 
ATOM     90  C   UNL A   1      53.105  27.899  24.937  1.00  0.00     0.054 A 
BRANCH  90  91
ATOM     91  S   UNL A   1      54.822  27.732  24.377  1.00  0.00     0.124 S 
ATOM     92  O   UNL A   1      54.798  28.448  23.104  1.00  0.00    -0.237 OA
ATOM     93  O   UNL A   1      55.572  28.381  25.449  1.00  0.00    -0.237 OA
ATOM     94  O   UNL A   1      55.016  26.288  24.274  1.00  0.00    -0.744 OA
ENDBRANCH  90  91
ENDBRANCH  64  85
ENDBRANCH  38  39
ENDBRANCH  31  33
ENDBRANCH  30  31
ENDBRANCH  29  30
ENDBRANCH  28  29
ENDBRANCH  27  28
ENDBRANCH  26  27
ENDBRANCH  25  26
ENDBRANCH   1  25
TORSDOF 26
ENDMDL
MODEL 2
REMARK VINA RESULT:      -9.1      0.525      7.934
REMARK SMILES Cc1ccc2oc(CCCC(=O)OCCOCCOCCOCCOC(=O)c3ccc(-c4c5nc(c(-c6ccc(S(=O)(=O)[O-])cc6)c6ccc([nH]6)c(-c6ccc(S(=O)(=O)[O-])cc6)c6nc(c(-c7ccc(S(=O)(=O)[O-])cc7)c7ccc4[nH]7)C=C6)C=C5)cc3)cc(=O)c2c1
REMARK SMILES IDX 19 1 18 2 17 3 16 4 15 5 14 6 13 7 11 8 12 9 10 10 9 11 8 12
REMARK SMILES IDX 7 13 1 14 2 15 3 16 92 17 4 18 91 19 5 20 89 21 6 22 88 23
REMARK SMILES IDX 90 24 20 25 21 26 22 27 23 28 24 29 25 30 26 31 27 32 28 33
REMARK SMILES IDX 29 34 87 35 30 36 86 37 31 38 32 39 33 40 80 41 34 42 85 43
REMARK SMILES IDX 79 44 81 45 35 46 84 47 78 48 77 49 36 51 66 52 47 53 65 54
REMARK SMILES IDX 48 55 51 56 64 57 82 58 49 59 50 60 63 62 83 63 52 64 37 65
REMARK SMILES IDX 38 66 46 67 39 68 45 69 40 70 41 71 42 72 43 73 44 74 67 75
REMARK SMILES IDX 68 76 76 77 69 78 75 79 70 80 71 81 72 82 73 83 74 84 53 85
REMARK SMILES IDX 54 86 62 87 55 88 61 89 56 90 57 91 58 92 59 93 60 94
REMARK H PARENT 81 50 51 61
REMARK Flexibility Score: inf
ROOT
ATOM      1  O   UNL A   1      33.976  26.841  25.940  1.00  0.00    -0.377 OA
ENDROOT
BRANCH   1   2
ATOM      2  C   UNL A   1      33.527  25.519  25.687  1.00  0.00     0.188 C 
BRANCH   2   3
ATOM      3  C   UNL A   1      34.464  24.326  25.933  1.00  0.00     0.188 C 
BRANCH   3   4
ATOM      4  O   UNL A   1      35.633  24.340  25.146  1.00  0.00    -0.376 OA
BRANCH   4   5
ATOM      5  C   UNL A   1      36.822  23.745  25.638  1.00  0.00     0.202 C 
BRANCH   5   6
ATOM      6  C   UNL A   1      37.032  22.221  25.740  1.00  0.00     0.261 C 
BRANCH   6   7
ATOM      7  O   UNL A   1      36.618  21.434  24.614  1.00  0.00    -0.463 OA
BRANCH   7   8
ATOM      8  C   UNL A   1      35.826  20.370  24.855  1.00  0.00     0.305 C 
ATOM      9  O   UNL A   1      36.244  19.233  25.058  1.00  0.00    -0.252 OA
BRANCH   8  10
ATOM     10  C   UNL A   1      34.348  20.704  24.986  1.00  0.00     0.123 C 
BRANCH  10  11
ATOM     11  C   UNL A   1      33.496  21.327  23.862  1.00  0.00     0.020 C 
BRANCH  11  12
ATOM     12  C   UNL A   1      32.131  21.947  24.180  1.00  0.00     0.076 C 
BRANCH  12  13
ATOM     13  C   UNL A   1      31.932  23.201  23.393  1.00  0.00     0.108 A 
ATOM     14  C   UNL A   1      30.010  29.273  22.397  1.00  0.00     0.044 C 
ATOM     15  C   UNL A   1      30.234  27.836  22.757  1.00  0.00    -0.050 A 
ATOM     16  C   UNL A   1      29.369  27.181  23.646  1.00  0.00     0.007 A 
ATOM     17  C   UNL A   1      31.302  27.132  22.181  1.00  0.00     0.019 A 
ATOM     18  C   UNL A   1      29.552  25.834  23.939  1.00  0.00     0.048 A 
ATOM     19  C   UNL A   1      31.491  25.788  22.492  1.00  0.00     0.065 A 
ATOM     20  C   UNL A   1      30.612  25.146  23.355  1.00  0.00     0.138 A 
ATOM     21  C   UNL A   1      32.647  25.033  21.975  1.00  0.00     0.192 A 
ATOM     22  O   UNL A   1      30.742  23.830  23.689  1.00  0.00    -0.461 OA
ATOM     23  C   UNL A   1      32.847  23.686  22.541  1.00  0.00     0.095 A 
ATOM     24  O   UNL A   1      33.462  25.515  21.200  1.00  0.00    -0.289 OA
ENDBRANCH  12  13
ENDBRANCH  11  12
ENDBRANCH  10  11
ENDBRANCH   8  10
ENDBRANCH   7   8
ENDBRANCH   6   7
ENDBRANCH   5   6
ENDBRANCH   4   5
ENDBRANCH   3   4
ENDBRANCH   2   3
ENDBRANCH   1   2
BRANCH   1  25
ATOM     25  C   UNL A   1      33.060  27.931  25.865  1.00  0.00     0.188 C 
BRANCH  25  26
ATOM     26  C   UNL A   1      33.177  29.122  26.841  1.00  0.00     0.188 C 
BRANCH  26  27
ATOM     27  O   UNL A   1      34.340  29.917  26.679  1.00  0.00    -0.376 OA
BRANCH  27  28
ATOM     28  C   UNL A   1      34.599  30.904  27.665  1.00  0.00     0.202 C 
BRANCH  28  29
ATOM     29  C   UNL A   1      35.438  30.496  28.886  1.00  0.00     0.261 C 
BRANCH  29  30
ATOM     30  O   UNL A   1      36.481  29.535  28.654  1.00  0.00    -0.460 OA
BRANCH  30  31
ATOM     31  C   UNL A   1      37.236  29.161  29.714  1.00  0.00     0.338 C 
ATOM     32  O   UNL A   1      36.856  28.927  30.840  1.00  0.00    -0.246 OA
BRANCH  31  33
ATOM     33  C   UNL A   1      38.602  28.905  29.211  1.00  0.00     0.060 A 
ATOM     34  C   UNL A   1      39.574  28.416  30.094  1.00  0.00     0.016 A 
ATOM     35  C   UNL A   1      38.917  29.152  27.873  1.00  0.00     0.016 A 
ATOM     36  C   UNL A   1      40.877  28.200  29.645  1.00  0.00     0.010 A 
ATOM     37  C   UNL A   1      40.228  28.957  27.432  1.00  0.00     0.010 A 
ATOM     38  C   UNL A   1      41.220  28.512  28.323  1.00  0.00    -0.014 A 
BRANCH  38  39
ATOM     39  C   UNL A   1      42.647  28.562  27.922  1.00  0.00     0.031 A 
ATOM     40  C   UNL A   1      43.255  27.334  27.301  1.00  0.00     0.074 A 
ATOM     41  C   UNL A   1      43.386  29.672  28.095  1.00  0.00     0.049 A 
ATOM     42  N   UNL A   1      44.491  27.114  26.936  1.00  0.00    -0.248 NA
ATOM     43  C   UNL A   1      42.344  26.201  27.062  1.00  0.00     0.031 C 
ATOM     44  C   UNL A   1      42.900  30.942  28.632  1.00  0.00     0.029 A 
ATOM     45  N   UNL A   1      44.717  29.903  27.841  1.00  0.00    -0.354 N 
ATOM     46  C   UNL A   1      44.510  25.815  26.440  1.00  0.00     0.074 A 
ATOM     47  C   UNL A   1      43.169  25.289  26.572  1.00  0.00     0.031 C 
ATOM     48  C   UNL A   1      43.921  31.815  28.679  1.00  0.00     0.029 A 
ATOM     49  C   UNL A   1      45.142  31.155  28.216  1.00  0.00     0.049 A 
ATOM     50  H   UNL A   1      45.310  29.233  27.429  1.00  0.00     0.167 HD
ATOM     51  C   UNL A   1      45.550  25.123  25.917  1.00  0.00     0.031 A 
ATOM     52  C   UNL A   1      46.378  31.694  28.215  1.00  0.00     0.031 A 
ATOM     53  C   UNL A   1      46.886  25.646  25.805  1.00  0.00     0.049 A 
ATOM     54  C   UNL A   1      47.540  30.871  27.715  1.00  0.00     0.074 A 
ATOM     55  C   UNL A   1      48.008  25.028  25.279  1.00  0.00     0.029 A 
ATOM     56  N   UNL A   1      47.284  26.902  26.235  1.00  0.00    -0.354 N 
ATOM     57  N   UNL A   1      47.540  29.654  27.224  1.00  0.00    -0.248 NA
ATOM     58  C   UNL A   1      48.869  31.499  27.765  1.00  0.00     0.031 C 
ATOM     59  C   UNL A   1      49.098  25.886  25.456  1.00  0.00     0.029 A 
ATOM     60  C   UNL A   1      48.642  27.066  26.022  1.00  0.00     0.049 A 
ATOM     61  H   UNL A   1      46.689  27.577  26.634  1.00  0.00     0.167 HD
ATOM     62  C   UNL A   1      48.862  29.382  26.883  1.00  0.00     0.074 A 
ATOM     63  C   UNL A   1      49.628  30.567  27.205  1.00  0.00     0.031 C 
ATOM     64  C   UNL A   1      49.394  28.252  26.350  1.00  0.00     0.031 A 
BRANCH  51  65
ATOM     65  C   UNL A   1      45.292  23.708  25.471  1.00  0.00    -0.014 A 
ATOM     66  C   UNL A   1      44.730  23.427  24.211  1.00  0.00     0.010 A 
ATOM     67  C   UNL A   1      45.651  22.639  26.312  1.00  0.00     0.010 A 
ATOM     68  C   UNL A   1      44.498  22.105  23.819  1.00  0.00     0.020 A 
ATOM     69  C   UNL A   1      45.448  21.316  25.911  1.00  0.00     0.020 A 
ATOM     70  C   UNL A   1      44.860  21.058  24.672  1.00  0.00     0.054 A 
BRANCH  70  71
ATOM     71  S   UNL A   1      44.570  19.353  24.125  1.00  0.00     0.124 S 
ATOM     72  O   UNL A   1      43.271  19.060  24.725  1.00  0.00    -0.237 OA
ATOM     73  O   UNL A   1      44.576  19.480  22.670  1.00  0.00    -0.237 OA
ATOM     74  O   UNL A   1      45.696  18.611  24.688  1.00  0.00    -0.744 OA
ENDBRANCH  70  71
ENDBRANCH  51  65
BRANCH  52  75
ATOM     75  C   UNL A   1      46.592  33.076  28.730  1.00  0.00    -0.014 A 
ATOM     76  C   UNL A   1      46.850  33.303  30.093  1.00  0.00     0.010 A 
ATOM     77  C   UNL A   1      46.529  34.178  27.857  1.00  0.00     0.010 A 
ATOM     78  C   UNL A   1      47.027  34.605  30.576  1.00  0.00     0.020 A 
ATOM     79  C   UNL A   1      46.738  35.477  28.327  1.00  0.00     0.020 A 
ATOM     80  C   UNL A   1      46.975  35.684  29.687  1.00  0.00     0.054 A 
BRANCH  80  81
ATOM     81  S   UNL A   1      47.264  37.356  30.329  1.00  0.00     0.124 S 
ATOM     82  O   UNL A   1      47.522  37.100  31.743  1.00  0.00    -0.237 OA
ATOM     83  O   UNL A   1      48.413  37.799  29.546  1.00  0.00    -0.237 OA
ATOM     84  O   UNL A   1      46.014  38.056  30.038  1.00  0.00    -0.744 OA
ENDBRANCH  80  81
ENDBRANCH  52  75
BRANCH  64  85
ATOM     85  C   UNL A   1      50.872  28.249  26.049  1.00  0.00    -0.014 A 
ATOM     86  C   UNL A   1      51.818  27.898  27.028  1.00  0.00     0.010 A 
ATOM     87  C   UNL A   1      51.313  28.540  24.745  1.00  0.00     0.010 A 
ATOM     88  C   UNL A   1      53.181  27.870  26.716  1.00  0.00     0.020 A 
ATOM     89  C   UNL A   1      52.671  28.481  24.420  1.00  0.00     0.020 A 
ATOM     90  C   UNL A   1      53.598  28.159  25.413  1.00  0.00     0.054 A 
BRANCH  90  91
ATOM     91  S   UNL A   1      55.368  28.068  25.024  1.00  0.00     0.124 S 
ATOM     92  O   UNL A   1      55.357  28.027  23.564  1.00  0.00    -0.237 OA
ATOM     93  O   UNL A   1      55.888  29.299  25.615  1.00  0.00    -0.237 OA
ATOM     94  O   UNL A   1      55.806  26.837  25.678  1.00  0.00    -0.744 OA
ENDBRANCH  90  91
ENDBRANCH  64  85
ENDBRANCH  38  39
ENDBRANCH  31  33
ENDBRANCH  30  31
ENDBRANCH  29  30
ENDBRANCH  28  29
ENDBRANCH  27  28
ENDBRANCH  26  27
ENDBRANCH  25  26
ENDBRANCH   1  25
TORSDOF 26
ENDMDL
MODEL 3
REMARK VINA RESULT:      -8.7      2.806      8.814
REMARK SMILES Cc1ccc2oc(CCCC(=O)OCCOCCOCCOCCOC(=O)c3ccc(-c4c5nc(c(-c6ccc(S(=O)(=O)[O-])cc6)c6ccc([nH]6)c(-c6ccc(S(=O)(=O)[O-])cc6)c6nc(c(-c7ccc(S(=O)(=O)[O-])cc7)c7ccc4[nH]7)C=C6)C=C5)cc3)cc(=O)c2c1
REMARK SMILES IDX 19 1 18 2 17 3 16 4 15 5 14 6 13 7 11 8 12 9 10 10 9 11 8 12
REMARK SMILES IDX 7 13 1 14 2 15 3 16 92 17 4 18 91 19 5 20 89 21 6 22 88 23
REMARK SMILES IDX 90 24 20 25 21 26 22 27 23 28 24 29 25 30 26 31 27 32 28 33
REMARK SMILES IDX 29 34 87 35 30 36 86 37 31 38 32 39 33 40 80 41 34 42 85 43
REMARK SMILES IDX 79 44 81 45 35 46 84 47 78 48 77 49 36 51 66 52 47 53 65 54
REMARK SMILES IDX 48 55 51 56 64 57 82 58 49 59 50 60 63 62 83 63 52 64 37 65
REMARK SMILES IDX 38 66 46 67 39 68 45 69 40 70 41 71 42 72 43 73 44 74 67 75
REMARK SMILES IDX 68 76 76 77 69 78 75 79 70 80 71 81 72 82 73 83 74 84 53 85
REMARK SMILES IDX 54 86 62 87 55 88 61 89 56 90 57 91 58 92 59 93 60 94
REMARK H PARENT 81 50 51 61
REMARK Flexibility Score: inf
ROOT
ATOM      1  O   UNL A   1      29.580  29.465  23.238  1.00  0.00    -0.377 OA
ENDROOT
BRANCH   1   2
ATOM      2  C   UNL A   1      29.089  28.159  22.978  1.00  0.00     0.188 C 
BRANCH   2   3
ATOM      3  C   UNL A   1      29.917  26.930  23.388  1.00  0.00     0.188 C 
BRANCH   3   4
ATOM      4  O   UNL A   1      29.363  26.190  24.451  1.00  0.00    -0.376 OA
BRANCH   4   5
ATOM      5  C   UNL A   1      30.143  25.918  25.603  1.00  0.00     0.202 C 
BRANCH   5   6
ATOM      6  C   UNL A   1      29.917  24.696  26.515  1.00  0.00     0.261 C 
BRANCH   6   7
ATOM      7  O   UNL A   1      31.069  24.166  27.184  1.00  0.00    -0.463 OA
BRANCH   7   8
ATOM      8  C   UNL A   1      31.373  22.870  26.970  1.00  0.00     0.305 C 
ATOM      9  O   UNL A   1      30.871  22.183  26.085  1.00  0.00    -0.252 OA
BRANCH   8  10
ATOM     10  C   UNL A   1      32.501  22.337  27.841  1.00  0.00     0.123 C 
BRANCH  10  11
ATOM     11  C   UNL A   1      33.999  22.503  27.520  1.00  0.00     0.020 C 
BRANCH  11  12
ATOM     12  C   UNL A   1      34.552  22.056  26.162  1.00  0.00     0.076 C 
BRANCH  12  13
ATOM     13  C   UNL A   1      34.121  23.001  25.088  1.00  0.00     0.108 A 
ATOM     14  C   UNL A   1      33.798  28.661  22.019  1.00  0.00     0.044 C 
ATOM     15  C   UNL A   1      33.850  27.487  22.948  1.00  0.00    -0.050 A 
ATOM     16  C   UNL A   1      33.944  27.678  24.334  1.00  0.00     0.007 A 
ATOM     17  C   UNL A   1      33.781  26.184  22.429  1.00  0.00     0.019 A 
ATOM     18  C   UNL A   1      33.945  26.586  25.195  1.00  0.00     0.048 A 
ATOM     19  C   UNL A   1      33.800  25.094  23.295  1.00  0.00     0.065 A 
ATOM     20  C   UNL A   1      33.868  25.301  24.667  1.00  0.00     0.138 A 
ATOM     21  C   UNL A   1      33.812  23.709  22.791  1.00  0.00     0.192 A 
ATOM     22  O   UNL A   1      33.881  24.272  25.563  1.00  0.00    -0.461 OA
ATOM     23  C   UNL A   1      34.042  22.654  23.795  1.00  0.00     0.095 A 
ATOM     24  O   UNL A   1      33.741  23.436  21.600  1.00  0.00    -0.289 OA
ENDBRANCH  12  13
ENDBRANCH  11  12
ENDBRANCH  10  11
ENDBRANCH   8  10
ENDBRANCH   7   8
ENDBRANCH   6   7
ENDBRANCH   5   6
ENDBRANCH   4   5
ENDBRANCH   3   4
ENDBRANCH   2   3
ENDBRANCH   1   2
BRANCH   1  25
ATOM     25  C   UNL A   1      30.906  29.642  23.732  1.00  0.00     0.188 C 
BRANCH  25  26
ATOM     26  C   UNL A   1      31.145  30.170  25.162  1.00  0.00     0.188 C 
BRANCH  26  27
ATOM     27  O   UNL A   1      31.500  29.181  26.115  1.00  0.00    -0.376 OA
BRANCH  27  28
ATOM     28  C   UNL A   1      32.169  29.614  27.289  1.00  0.00     0.202 C 
BRANCH  28  29
ATOM     29  C   UNL A   1      33.411  30.503  27.120  1.00  0.00     0.261 C 
BRANCH  29  30
ATOM     30  O   UNL A   1      34.651  29.971  27.616  1.00  0.00    -0.460 OA
BRANCH  30  31
ATOM     31  C   UNL A   1      35.304  30.683  28.564  1.00  0.00     0.338 C 
ATOM     32  O   UNL A   1      34.835  31.511  29.315  1.00  0.00    -0.246 OA
BRANCH  31  33
ATOM     33  C   UNL A   1      36.675  30.140  28.655  1.00  0.00     0.060 A 
ATOM     34  C   UNL A   1      37.175  29.754  29.906  1.00  0.00     0.016 A 
ATOM     35  C   UNL A   1      37.461  30.016  27.507  1.00  0.00     0.016 A 
ATOM     36  C   UNL A   1      38.479  29.270  30.016  1.00  0.00     0.010 A 
ATOM     37  C   UNL A   1      38.773  29.554  27.623  1.00  0.00     0.010 A 
ATOM     38  C   UNL A   1      39.299  29.210  28.882  1.00  0.00    -0.014 A 
BRANCH  38  39
ATOM     39  C   UNL A   1      40.756  28.978  29.033  1.00  0.00     0.031 A 
ATOM     40  C   UNL A   1      41.305  27.630  28.651  1.00  0.00     0.074 A 
ATOM     41  C   UNL A   1      41.576  29.940  29.491  1.00  0.00     0.049 A 
ATOM     42  N   UNL A   1      42.522  27.169  28.760  1.00  0.00    -0.248 NA
ATOM     43  C   UNL A   1      40.347  26.674  28.068  1.00  0.00     0.031 C 
ATOM     44  C   UNL A   1      41.176  31.301  29.842  1.00  0.00     0.029 A 
ATOM     45  N   UNL A   1      42.925  29.909  29.749  1.00  0.00    -0.354 N 
ATOM     46  C   UNL A   1      42.476  25.866  28.276  1.00  0.00     0.074 A 
ATOM     47  C   UNL A   1      41.106  25.602  27.894  1.00  0.00     0.031 C 
ATOM     48  C   UNL A   1      42.255  31.973  30.281  1.00  0.00     0.029 A 
ATOM     49  C   UNL A   1      43.412  31.078  30.283  1.00  0.00     0.049 A 
ATOM     50  H   UNL A   1      43.490  29.123  29.568  1.00  0.00     0.167 HD
ATOM     51  C   UNL A   1      43.484  24.970  28.156  1.00  0.00     0.031 A 
ATOM     52  C   UNL A   1      44.642  31.380  30.748  1.00  0.00     0.031 A 
ATOM     53  C   UNL A   1      44.842  25.232  28.554  1.00  0.00     0.049 A 
ATOM     54  C   UNL A   1      45.728  30.334  30.690  1.00  0.00     0.074 A 
ATOM     55  C   UNL A   1      45.940  24.394  28.462  1.00  0.00     0.029 A 
ATOM     56  N   UNL A   1      45.285  26.413  29.129  1.00  0.00    -0.354 N 
ATOM     57  N   UNL A   1      45.677  29.116  30.205  1.00  0.00    -0.248 NA
ATOM     58  C   UNL A   1      47.040  30.708  31.239  1.00  0.00     0.031 C 
ATOM     59  C   UNL A   1      47.032  25.044  29.047  1.00  0.00     0.029 A 
ATOM     60  C   UNL A   1      46.632  26.314  29.433  1.00  0.00     0.049 A 
ATOM     61  H   UNL A   1      44.725  27.205  29.297  1.00  0.00     0.167 HD
ATOM     62  C   UNL A   1      46.956  28.588  30.368  1.00  0.00     0.074 A 
ATOM     63  C   UNL A   1      47.761  29.627  30.976  1.00  0.00     0.031 C 
ATOM     64  C   UNL A   1      47.422  27.356  30.041  1.00  0.00     0.031 A 
BRANCH  51  65
ATOM     65  C   UNL A   1      43.144  23.607  27.613  1.00  0.00    -0.014 A 
ATOM     66  C   UNL A   1      43.375  23.276  26.265  1.00  0.00     0.010 A 
ATOM     67  C   UNL A   1      42.617  22.629  28.476  1.00  0.00     0.010 A 
ATOM     68  C   UNL A   1      43.050  22.004  25.783  1.00  0.00     0.020 A 
ATOM     69  C   UNL A   1      42.320  21.347  28.006  1.00  0.00     0.020 A 
ATOM     70  C   UNL A   1      42.525  21.048  26.658  1.00  0.00     0.054 A 
BRANCH  70  71
ATOM     71  S   UNL A   1      42.137  19.398  26.010  1.00  0.00     0.124 S 
ATOM     72  O   UNL A   1      42.577  18.534  27.102  1.00  0.00    -0.237 OA
ATOM     73  O   UNL A   1      40.693  19.467  25.806  1.00  0.00    -0.237 OA
ATOM     74  O   UNL A   1      42.933  19.309  24.788  1.00  0.00    -0.744 OA
ENDBRANCH  70  71
ENDBRANCH  51  65
BRANCH  52  75
ATOM     75  C   UNL A   1      44.909  32.722  31.337  1.00  0.00    -0.014 A 
ATOM     76  C   UNL A   1      45.348  33.787  30.531  1.00  0.00     0.010 A 
ATOM     77  C   UNL A   1      44.734  32.941  32.717  1.00  0.00     0.010 A 
ATOM     78  C   UNL A   1      45.620  35.039  31.094  1.00  0.00     0.020 A 
ATOM     79  C   UNL A   1      44.972  34.198  33.278  1.00  0.00     0.020 A 
ATOM     80  C   UNL A   1      45.424  35.238  32.464  1.00  0.00     0.054 A 
BRANCH  80  81
ATOM     81  S   UNL A   1      45.731  36.886  33.158  1.00  0.00     0.124 S 
ATOM     82  O   UNL A   1      47.169  37.038  32.959  1.00  0.00    -0.237 OA
ATOM     83  O   UNL A   1      44.883  37.738  32.329  1.00  0.00    -0.237 OA
ATOM     84  O   UNL A   1      45.301  36.758  34.549  1.00  0.00    -0.744 OA
ENDBRANCH  80  81
ENDBRANCH  52  75
BRANCH  64  85
ATOM     85  C   UNL A   1      48.879  27.067  30.304  1.00  0.00    -0.014 A 
ATOM     86  C   UNL A   1      49.828  27.087  29.267  1.00  0.00     0.010 A 
ATOM     87  C   UNL A   1      49.312  26.834  31.622  1.00  0.00     0.010 A 
ATOM     88  C   UNL A   1      51.179  26.850  29.539  1.00  0.00     0.020 A 
ATOM     89  C   UNL A   1      50.665  26.628  31.904  1.00  0.00     0.020 A 
ATOM     90  C   UNL A   1      51.589  26.625  30.857  1.00  0.00     0.054 A 
BRANCH  90  91
ATOM     91  S   UNL A   1      53.353  26.366  31.189  1.00  0.00     0.124 S 
ATOM     92  O   UNL A   1      53.355  25.048  31.817  1.00  0.00    -0.237 OA
ATOM     93  O   UNL A   1      53.941  26.427  29.853  1.00  0.00    -0.237 OA
ATOM     94  O   UNL A   1      53.708  27.476  32.070  1.00  0.00    -0.744 OA
ENDBRANCH  90  91
ENDBRANCH  64  85
ENDBRANCH  38  39
ENDBRANCH  31  33
ENDBRANCH  30  31
ENDBRANCH  29  30
ENDBRANCH  28  29
ENDBRANCH  27  28
ENDBRANCH  26  27
ENDBRANCH  25  26
ENDBRANCH   1  25
TORSDOF 26
ENDMDL
