MODEL 1
REMARK VINA RESULT:      -8.5      0.000      0.000
REMARK SMILES O=C(OCCOCCOCCOCCOC(=O)[C@@H]1CC=CC[C@H]1C(=O)N1CC[NH+](Cc2ccc3c(c2)OCO3)CC1)c1ccc(-c2c3nc(c(-c4ccc(S(=O)(=O)[O-])cc4)c4ccc([nH]4)c(-c4ccc(S(=O)(=O)[O-])cc4)c4nc(c(-c5ccc(S(=O)(=O)[O-])cc5)c5ccc2[nH]5)C=C4)C=C3)cc1
REMARK SMILES IDX 9 1 8 2 7 3 6 4 5 5 4 6 3 7 2 8 1 9 42 10 43 11 101 12 44 13
REMARK SMILES IDX 100 14 45 15 46 16 47 17 94 18 48 19 99 20 93 21 95 22 49 23
REMARK SMILES IDX 98 24 92 25 91 26 50 28 80 29 61 30 79 31 62 32 65 33 78 34
REMARK SMILES IDX 96 35 63 36 64 37 77 39 97 40 66 41 51 42 52 43 60 44 53 45
REMARK SMILES IDX 59 46 54 47 55 48 56 49 57 50 58 51 81 52 82 53 90 54 83 55
REMARK SMILES IDX 89 56 84 57 85 58 86 59 87 60 88 61 67 62 68 63 76 64 69 65
REMARK SMILES IDX 75 66 70 67 71 68 72 69 73 70 74 71 10 72 11 73 12 74 13 75
REMARK SMILES IDX 14 76 15 77 16 78 17 79 18 80 19 81 23 82 20 83 22 84 21 85
REMARK SMILES IDX 24 86 25 87 26 88 27 89 41 90 28 91 40 92 29 93 30 95 31 96
REMARK SMILES IDX 32 97 36 98 33 99 35 100 34 101 37 102 39 103 38 104
REMARK H PARENT 95 27 65 38 29 94
REMARK Flexibility Score: inf
ROOT
ATOM      1  O   UNL A   1      46.524  18.963  25.569  1.00  0.00    -0.377 OA
ENDROOT
BRANCH   1   2
ATOM      2  C   UNL A   1      46.597  19.890  24.497  1.00  0.00     0.188 C 
BRANCH   2   3
ATOM      3  C   UNL A   1      46.187  21.318  24.847  1.00  0.00     0.188 C 
BRANCH   3   4
ATOM      4  O   UNL A   1      46.943  22.315  24.156  1.00  0.00    -0.376 OA
BRANCH   4   5
ATOM      5  C   UNL A   1      46.451  23.656  24.233  1.00  0.00     0.202 C 
BRANCH   5   6
ATOM      6  C   UNL A   1      47.021  24.533  25.351  1.00  0.00     0.261 C 
BRANCH   6   7
ATOM      7  O   UNL A   1      48.377  24.970  25.165  1.00  0.00    -0.460 OA
BRANCH   7   8
ATOM      8  C   UNL A   1      49.015  26.076  25.621  1.00  0.00     0.338 C 
ATOM      9  O   UNL A   1      50.242  26.104  25.525  1.00  0.00    -0.246 OA
BRANCH   8  10
ATOM     10  C   UNL A   1      48.346  27.227  26.312  1.00  0.00     0.060 A 
ATOM     11  C   UNL A   1      47.432  28.093  25.722  1.00  0.00     0.016 A 
ATOM     12  C   UNL A   1      48.637  27.426  27.678  1.00  0.00     0.016 A 
ATOM     13  C   UNL A   1      46.786  29.077  26.444  1.00  0.00     0.010 A 
ATOM     14  C   UNL A   1      48.039  28.463  28.408  1.00  0.00     0.010 A 
ATOM     15  C   UNL A   1      47.111  29.291  27.776  1.00  0.00    -0.014 A 
BRANCH  15  16
ATOM     16  C   UNL A   1      46.652  30.578  28.313  1.00  0.00     0.031 A 
ATOM     17  C   UNL A   1      47.446  31.788  27.913  1.00  0.00     0.074 A 
ATOM     18  C   UNL A   1      45.427  30.679  28.858  1.00  0.00     0.049 A 
ATOM     19  N   UNL A   1      47.219  33.045  28.163  1.00  0.00    -0.248 NA
ATOM     20  C   UNL A   1      48.634  31.543  27.071  1.00  0.00     0.031 C 
ATOM     21  C   UNL A   1      44.498  29.564  29.055  1.00  0.00     0.029 A 
ATOM     22  N   UNL A   1      44.726  31.777  29.273  1.00  0.00    -0.354 N 
ATOM     23  C   UNL A   1      48.252  33.736  27.541  1.00  0.00     0.074 A 
ATOM     24  C   UNL A   1      49.084  32.769  26.867  1.00  0.00     0.031 C 
ATOM     25  C   UNL A   1      43.334  30.045  29.526  1.00  0.00     0.029 A 
ATOM     26  C   UNL A   1      43.467  31.482  29.739  1.00  0.00     0.049 A 
ATOM     27  H   UNL A   1      45.089  32.692  29.240  1.00  0.00     0.167 HD
ATOM     28  C   UNL A   1      48.500  35.064  27.571  1.00  0.00     0.031 A 
ATOM     29  C   UNL A   1      42.556  32.293  30.313  1.00  0.00     0.031 A 
ATOM     30  C   UNL A   1      47.676  35.984  28.299  1.00  0.00     0.049 A 
ATOM     31  C   UNL A   1      42.934  33.744  30.486  1.00  0.00     0.074 A 
ATOM     32  C   UNL A   1      47.883  37.326  28.546  1.00  0.00     0.029 A 
ATOM     33  N   UNL A   1      46.478  35.637  28.912  1.00  0.00    -0.354 N 
ATOM     34  N   UNL A   1      43.985  34.383  30.020  1.00  0.00    -0.248 NA
ATOM     35  C   UNL A   1      42.029  34.575  31.288  1.00  0.00     0.031 C 
ATOM     36  C   UNL A   1      46.843  37.774  29.367  1.00  0.00     0.029 A 
ATOM     37  C   UNL A   1      45.947  36.731  29.564  1.00  0.00     0.049 A 
ATOM     38  H   UNL A   1      46.068  34.742  28.884  1.00  0.00     0.167 HD
ATOM     39  C   UNL A   1      43.864  35.693  30.468  1.00  0.00     0.074 A 
ATOM     40  C   UNL A   1      42.622  35.760  31.215  1.00  0.00     0.031 C 
ATOM     41  C   UNL A   1      44.703  36.745  30.294  1.00  0.00     0.031 A 
BRANCH  28  42
ATOM     42  C   UNL A   1      49.782  35.530  26.941  1.00  0.00    -0.014 A 
ATOM     43  C   UNL A   1      50.977  35.646  27.672  1.00  0.00     0.010 A 
ATOM     44  C   UNL A   1      49.763  35.922  25.590  1.00  0.00     0.010 A 
ATOM     45  C   UNL A   1      52.122  36.181  27.070  1.00  0.00     0.020 A 
ATOM     46  C   UNL A   1      50.910  36.432  24.979  1.00  0.00     0.020 A 
ATOM     47  C   UNL A   1      52.078  36.574  25.728  1.00  0.00     0.054 A 
BRANCH  47  48
ATOM     48  S   UNL A   1      53.577  37.261  24.972  1.00  0.00     0.124 S 
ATOM     49  O   UNL A   1      53.826  38.433  25.804  1.00  0.00    -0.237 OA
ATOM     50  O   UNL A   1      54.534  36.171  25.114  1.00  0.00    -0.237 OA
ATOM     51  O   UNL A   1      53.167  37.553  23.596  1.00  0.00    -0.744 OA
ENDBRANCH  47  48
ENDBRANCH  28  42
BRANCH  29  52
ATOM     52  C   UNL A   1      41.280  31.747  30.862  1.00  0.00    -0.014 A 
ATOM     53  C   UNL A   1      41.232  31.101  32.109  1.00  0.00     0.010 A 
ATOM     54  C   UNL A   1      40.094  31.840  30.106  1.00  0.00     0.010 A 
ATOM     55  C   UNL A   1      40.035  30.542  32.577  1.00  0.00     0.020 A 
ATOM     56  C   UNL A   1      38.890  31.316  30.583  1.00  0.00     0.020 A 
ATOM     57  C   UNL A   1      38.871  30.654  31.810  1.00  0.00     0.054 A 
BRANCH  57  58
ATOM     58  S   UNL A   1      37.325  29.941  32.441  1.00  0.00     0.124 S 
ATOM     59  O   UNL A   1      36.906  29.094  31.330  1.00  0.00    -0.237 OA
ATOM     60  O   UNL A   1      37.768  29.239  33.642  1.00  0.00    -0.237 OA
ATOM     61  O   UNL A   1      36.485  31.112  32.687  1.00  0.00    -0.744 OA
ENDBRANCH  57  58
ENDBRANCH  29  52
BRANCH  41  62
ATOM     62  C   UNL A   1      44.287  38.061  30.891  1.00  0.00    -0.014 A 
ATOM     63  C   UNL A   1      43.663  39.049  30.112  1.00  0.00     0.010 A 
ATOM     64  C   UNL A   1      44.447  38.265  32.273  1.00  0.00     0.010 A 
ATOM     65  C   UNL A   1      43.228  40.236  30.706  1.00  0.00     0.020 A 
ATOM     66  C   UNL A   1      43.983  39.434  32.874  1.00  0.00     0.020 A 
ATOM     67  C   UNL A   1      43.387  40.418  32.083  1.00  0.00     0.054 A 
BRANCH  67  68
ATOM     68  S   UNL A   1      42.759  41.940  32.838  1.00  0.00     0.124 S 
ATOM     69  O   UNL A   1      43.950  42.465  33.498  1.00  0.00    -0.237 OA
ATOM     70  O   UNL A   1      42.293  42.701  31.682  1.00  0.00    -0.237 OA
ATOM     71  O   UNL A   1      41.704  41.473  33.734  1.00  0.00    -0.744 OA
ENDBRANCH  67  68
ENDBRANCH  41  62
ENDBRANCH  15  16
ENDBRANCH   8  10
ENDBRANCH   7   8
ENDBRANCH   6   7
ENDBRANCH   5   6
ENDBRANCH   4   5
ENDBRANCH   3   4
ENDBRANCH   2   3
ENDBRANCH   1   2
BRANCH   1  72
ATOM     72  C   UNL A   1      45.521  17.965  25.455  1.00  0.00     0.188 C 
BRANCH  72  73
ATOM     73  C   UNL A   1      44.256  18.060  26.338  1.00  0.00     0.188 C 
BRANCH  73  74
ATOM     74  O   UNL A   1      43.078  18.332  25.603  1.00  0.00    -0.376 OA
BRANCH  74  75
ATOM     75  C   UNL A   1      41.956  18.742  26.373  1.00  0.00     0.202 C 
BRANCH  75  76
ATOM     76  C   UNL A   1      41.217  20.026  25.946  1.00  0.00     0.261 C 
BRANCH  76  77
ATOM     77  O   UNL A   1      42.020  21.225  25.789  1.00  0.00    -0.463 OA
BRANCH  77  78
ATOM     78  C   UNL A   1      41.960  22.192  26.727  1.00  0.00     0.310 C 
ATOM     79  O   UNL A   1      41.907  21.949  27.930  1.00  0.00    -0.252 OA
BRANCH  78  80
ATOM     80  C   UNL A   1      41.894  23.625  26.156  1.00  0.00     0.115 C 
ATOM     81  C   UNL A   1      43.345  24.131  25.982  1.00  0.00     0.043 C 
ATOM     82  C   UNL A   1      41.083  24.798  26.778  1.00  0.00     0.097 C 
ATOM     83  C   UNL A   1      43.403  25.443  25.245  1.00  0.00    -0.030 C 
ATOM     84  C   UNL A   1      41.013  25.959  25.749  1.00  0.00     0.041 C 
ATOM     85  C   UNL A   1      42.340  26.251  25.112  1.00  0.00    -0.030 C 
BRANCH  82  86
ATOM     86  C   UNL A   1      39.670  24.725  27.367  1.00  0.00     0.227 C 
ATOM     87  O   UNL A   1      39.347  25.518  28.257  1.00  0.00    -0.275 OA
ATOM     88  N   UNL A   1      38.723  23.978  26.705  1.00  0.00    -0.331 N 
ATOM     89  C   UNL A   1      37.345  24.461  26.667  1.00  0.00     0.181 C 
ATOM     90  C   UNL A   1      38.827  22.536  26.656  1.00  0.00     0.181 C 
ATOM     91  C   UNL A   1      36.546  23.820  25.507  1.00  0.00     0.284 C 
ATOM     92  C   UNL A   1      38.091  21.936  25.459  1.00  0.00     0.284 C 
ATOM     93  N   UNL A   1      36.696  22.368  25.307  1.00  0.00    -0.328 N 
ATOM     94  H   UNL A   1      36.444  22.215  24.330  1.00  0.00     0.348 HD
BRANCH  93  95
ATOM     95  C   UNL A   1      35.714  21.510  25.987  1.00  0.00     0.299 C 
BRANCH  95  96
ATOM     96  C   UNL A   1      34.925  20.565  25.113  1.00  0.00     0.010 A 
ATOM     97  C   UNL A   1      33.705  20.984  24.531  1.00  0.00     0.013 A 
ATOM     98  C   UNL A   1      35.350  19.237  24.944  1.00  0.00     0.060 A 
ATOM     99  C   UNL A   1      32.854  20.070  23.908  1.00  0.00     0.051 A 
ATOM    100  C   UNL A   1      34.489  18.359  24.324  1.00  0.00     0.166 A 
ATOM    101  C   UNL A   1      33.265  18.759  23.844  1.00  0.00     0.165 A 
ATOM    102  O   UNL A   1      34.698  17.026  24.175  1.00  0.00    -0.454 OA
ATOM    103  O   UNL A   1      32.539  17.724  23.350  1.00  0.00    -0.454 OA
ATOM    104  C   UNL A   1      33.482  16.638  23.505  1.00  0.00     0.468 C 
ENDBRANCH  95  96
ENDBRANCH  93  95
ENDBRANCH  82  86
ENDBRANCH  78  80
ENDBRANCH  77  78
ENDBRANCH  76  77
ENDBRANCH  75  76
ENDBRANCH  74  75
ENDBRANCH  73  74
ENDBRANCH  72  73
ENDBRANCH   1  72
TORSDOF 26
ENDMDL
MODEL 2
REMARK VINA RESULT:      -7.8      5.708     11.670
REMARK SMILES O=C(OCCOCCOCCOCCOC(=O)[C@@H]1CC=CC[C@H]1C(=O)N1CC[NH+](Cc2ccc3c(c2)OCO3)CC1)c1ccc(-c2c3nc(c(-c4ccc(S(=O)(=O)[O-])cc4)c4ccc([nH]4)c(-c4ccc(S(=O)(=O)[O-])cc4)c4nc(c(-c5ccc(S(=O)(=O)[O-])cc5)c5ccc2[nH]5)C=C4)C=C3)cc1
REMARK SMILES IDX 9 1 8 2 7 3 6 4 5 5 4 6 3 7 2 8 1 9 42 10 43 11 101 12 44 13
REMARK SMILES IDX 100 14 45 15 46 16 47 17 94 18 48 19 99 20 93 21 95 22 49 23
REMARK SMILES IDX 98 24 92 25 91 26 50 28 80 29 61 30 79 31 62 32 65 33 78 34
REMARK SMILES IDX 96 35 63 36 64 37 77 39 97 40 66 41 51 42 52 43 60 44 53 45
REMARK SMILES IDX 59 46 54 47 55 48 56 49 57 50 58 51 81 52 82 53 90 54 83 55
REMARK SMILES IDX 89 56 84 57 85 58 86 59 87 60 88 61 67 62 68 63 76 64 69 65
REMARK SMILES IDX 75 66 70 67 71 68 72 69 73 70 74 71 10 72 11 73 12 74 13 75
REMARK SMILES IDX 14 76 15 77 16 78 17 79 18 80 19 81 23 82 20 83 22 84 21 85
REMARK SMILES IDX 24 86 25 87 26 88 27 89 41 90 28 91 40 92 29 93 30 95 31 96
REMARK SMILES IDX 32 97 36 98 33 99 35 100 34 101 37 102 39 103 38 104
REMARK H PARENT 95 27 65 38 29 94
REMARK Flexibility Score: inf
ROOT
ATOM      1  O   UNL A   1      45.179  25.777  30.820  1.00  0.00    -0.377 OA
ENDROOT
BRANCH   1   2
ATOM      2  C   UNL A   1      44.397  24.617  31.054  1.00  0.00     0.188 C 
BRANCH   2   3
ATOM      3  C   UNL A   1      44.236  23.689  29.853  1.00  0.00     0.188 C 
BRANCH   3   4
ATOM      4  O   UNL A   1      42.873  23.406  29.528  1.00  0.00    -0.376 OA
BRANCH   4   5
ATOM      5  C   UNL A   1      42.585  23.148  28.151  1.00  0.00     0.202 C 
BRANCH   5   6
ATOM      6  C   UNL A   1      42.657  24.344  27.199  1.00  0.00     0.261 C 
BRANCH   6   7
ATOM      7  O   UNL A   1      41.392  24.902  26.809  1.00  0.00    -0.460 OA
BRANCH   7   8
ATOM      8  C   UNL A   1      40.975  26.191  26.765  1.00  0.00     0.338 C 
ATOM      9  O   UNL A   1      40.884  26.722  25.657  1.00  0.00    -0.246 OA
BRANCH   8  10
ATOM     10  C   UNL A   1      40.702  27.045  27.968  1.00  0.00     0.060 A 
ATOM     11  C   UNL A   1      41.281  28.284  28.218  1.00  0.00     0.016 A 
ATOM     12  C   UNL A   1      39.755  26.573  28.901  1.00  0.00     0.016 A 
ATOM     13  C   UNL A   1      40.913  29.057  29.302  1.00  0.00     0.010 A 
ATOM     14  C   UNL A   1      39.421  27.317  30.042  1.00  0.00     0.010 A 
ATOM     15  C   UNL A   1      40.013  28.565  30.236  1.00  0.00    -0.014 A 
BRANCH  15  16
ATOM     16  C   UNL A   1      39.998  29.297  31.509  1.00  0.00     0.031 A 
ATOM     17  C   UNL A   1      41.242  29.206  32.344  1.00  0.00     0.074 A 
ATOM     18  C   UNL A   1      39.055  30.228  31.736  1.00  0.00     0.049 A 
ATOM     19  N   UNL A   1      41.537  29.815  33.456  1.00  0.00    -0.248 NA
ATOM     20  C   UNL A   1      42.321  28.345  31.821  1.00  0.00     0.031 C 
ATOM     21  C   UNL A   1      37.941  30.536  30.835  1.00  0.00     0.029 A 
ATOM     22  N   UNL A   1      38.925  31.134  32.751  1.00  0.00    -0.354 N 
ATOM     23  C   UNL A   1      42.818  29.384  33.783  1.00  0.00     0.074 A 
ATOM     24  C   UNL A   1      43.262  28.497  32.737  1.00  0.00     0.031 C 
ATOM     25  C   UNL A   1      37.260  31.585  31.329  1.00  0.00     0.029 A 
ATOM     26  C   UNL A   1      37.838  31.964  32.613  1.00  0.00     0.049 A 
ATOM     27  H   UNL A   1      39.552  31.186  33.509  1.00  0.00     0.167 HD
ATOM     28  C   UNL A   1      43.535  29.678  34.889  1.00  0.00     0.031 A 
ATOM     29  C   UNL A   1      37.356  32.891  33.465  1.00  0.00     0.031 A 
ATOM     30  C   UNL A   1      43.032  30.524  35.931  1.00  0.00     0.049 A 
ATOM     31  C   UNL A   1      38.089  33.076  34.772  1.00  0.00     0.074 A 
ATOM     32  C   UNL A   1      43.577  30.791  37.171  1.00  0.00     0.029 A 
ATOM     33  N   UNL A   1      41.840  31.235  35.848  1.00  0.00    -0.354 N 
ATOM     34  N   UNL A   1      39.237  32.559  35.153  1.00  0.00    -0.248 NA
ATOM     35  C   UNL A   1      37.449  33.933  35.776  1.00  0.00     0.031 C 
ATOM     36  C   UNL A   1      42.679  31.611  37.863  1.00  0.00     0.029 A 
ATOM     37  C   UNL A   1      41.616  31.918  37.024  1.00  0.00     0.049 A 
ATOM     38  H   UNL A   1      41.246  31.250  35.063  1.00  0.00     0.167 HD
ATOM     39  C   UNL A   1      39.461  33.035  36.439  1.00  0.00     0.074 A 
ATOM     40  C   UNL A   1      38.343  33.905  36.757  1.00  0.00     0.031 C 
ATOM     41  C   UNL A   1      40.485  32.774  37.290  1.00  0.00     0.031 A 
BRANCH  28  42
ATOM     42  C   UNL A   1      44.836  28.947  35.069  1.00  0.00    -0.014 A 
ATOM     43  C   UNL A   1      45.871  29.015  34.121  1.00  0.00     0.010 A 
ATOM     44  C   UNL A   1      44.991  28.118  36.196  1.00  0.00     0.010 A 
ATOM     45  C   UNL A   1      47.024  28.238  34.280  1.00  0.00     0.020 A 
ATOM     46  C   UNL A   1      46.150  27.361  36.370  1.00  0.00     0.020 A 
ATOM     47  C   UNL A   1      47.153  27.413  35.402  1.00  0.00     0.054 A 
BRANCH  47  48
ATOM     48  S   UNL A   1      48.659  26.419  35.585  1.00  0.00     0.124 S 
ATOM     49  O   UNL A   1      48.483  25.409  34.546  1.00  0.00    -0.237 OA
ATOM     50  O   UNL A   1      49.716  27.393  35.345  1.00  0.00    -0.237 OA
ATOM     51  O   UNL A   1      48.577  25.916  36.959  1.00  0.00    -0.744 OA
ENDBRANCH  47  48
ENDBRANCH  28  42
BRANCH  29  52
ATOM     52  C   UNL A   1      36.082  33.611  33.175  1.00  0.00    -0.014 A 
ATOM     53  C   UNL A   1      34.831  33.043  33.470  1.00  0.00     0.010 A 
ATOM     54  C   UNL A   1      36.117  34.876  32.554  1.00  0.00     0.010 A 
ATOM     55  C   UNL A   1      33.646  33.712  33.133  1.00  0.00     0.020 A 
ATOM     56  C   UNL A   1      34.940  35.564  32.248  1.00  0.00     0.020 A 
ATOM     57  C   UNL A   1      33.709  34.970  32.524  1.00  0.00     0.054 A 
BRANCH  57  58
ATOM     58  S   UNL A   1      32.165  35.830  32.112  1.00  0.00     0.124 S 
ATOM     59  O   UNL A   1      31.172  35.022  32.811  1.00  0.00    -0.237 OA
ATOM     60  O   UNL A   1      32.393  37.166  32.656  1.00  0.00    -0.237 OA
ATOM     61  O   UNL A   1      32.114  35.760  30.653  1.00  0.00    -0.744 OA
ENDBRANCH  57  58
ENDBRANCH  29  52
BRANCH  41  62
ATOM     62  C   UNL A   1      40.459  33.462  38.627  1.00  0.00    -0.014 A 
ATOM     63  C   UNL A   1      41.029  34.733  38.803  1.00  0.00     0.010 A 
ATOM     64  C   UNL A   1      39.772  32.855  39.694  1.00  0.00     0.010 A 
ATOM     65  C   UNL A   1      40.934  35.377  40.038  1.00  0.00     0.020 A 
ATOM     66  C   UNL A   1      39.646  33.511  40.918  1.00  0.00     0.020 A 
ATOM     67  C   UNL A   1      40.240  34.763  41.085  1.00  0.00     0.054 A 
BRANCH  67  68
ATOM     68  S   UNL A   1      40.078  35.647  42.659  1.00  0.00     0.124 S 
ATOM     69  O   UNL A   1      39.081  34.841  43.358  1.00  0.00    -0.237 OA
ATOM     70  O   UNL A   1      41.433  35.581  43.202  1.00  0.00    -0.237 OA
ATOM     71  O   UNL A   1      39.637  36.982  42.263  1.00  0.00    -0.744 OA
ENDBRANCH  67  68
ENDBRANCH  41  62
ENDBRANCH  15  16
ENDBRANCH   8  10
ENDBRANCH   7   8
ENDBRANCH   6   7
ENDBRANCH   5   6
ENDBRANCH   4   5
ENDBRANCH   3   4
ENDBRANCH   2   3
ENDBRANCH   1   2
BRANCH   1  72
ATOM     72  C   UNL A   1      44.977  26.415  29.567  1.00  0.00     0.188 C 
BRANCH  72  73
ATOM     73  C   UNL A   1      46.197  26.966  28.795  1.00  0.00     0.188 C 
BRANCH  73  74
ATOM     74  O   UNL A   1      45.967  27.101  27.405  1.00  0.00    -0.376 OA
BRANCH  74  75
ATOM     75  C   UNL A   1      45.921  28.435  26.918  1.00  0.00     0.202 C 
BRANCH  75  76
ATOM     76  C   UNL A   1      44.537  29.062  26.656  1.00  0.00     0.261 C 
BRANCH  76  77
ATOM     77  O   UNL A   1      44.487  30.504  26.504  1.00  0.00    -0.463 OA
BRANCH  77  78
ATOM     78  C   UNL A   1      44.850  31.293  27.535  1.00  0.00     0.310 C 
ATOM     79  O   UNL A   1      44.667  30.979  28.709  1.00  0.00    -0.252 OA
BRANCH  78  80
ATOM     80  C   UNL A   1      45.453  32.649  27.113  1.00  0.00     0.115 C 
ATOM     81  C   UNL A   1      46.987  32.478  27.023  1.00  0.00     0.043 C 
ATOM     82  C   UNL A   1      45.197  34.005  27.835  1.00  0.00     0.097 C 
ATOM     83  C   UNL A   1      47.659  33.685  26.425  1.00  0.00    -0.030 C 
ATOM     84  C   UNL A   1      45.707  35.158  26.929  1.00  0.00     0.041 C 
ATOM     85  C   UNL A   1      47.067  34.887  26.353  1.00  0.00    -0.030 C 
BRANCH  82  86
ATOM     86  C   UNL A   1      43.859  34.513  28.383  1.00  0.00     0.227 C 
ATOM     87  O   UNL A   1      43.137  35.206  27.659  1.00  0.00    -0.275 OA
ATOM     88  N   UNL A   1      43.376  33.959  29.544  1.00  0.00    -0.331 N 
ATOM     89  C   UNL A   1      41.937  33.744  29.678  1.00  0.00     0.181 C 
ATOM     90  C   UNL A   1      44.037  34.204  30.808  1.00  0.00     0.181 C 
ATOM     91  C   UNL A   1      41.613  32.690  30.764  1.00  0.00     0.284 C 
ATOM     92  C   UNL A   1      43.761  33.109  31.837  1.00  0.00     0.284 C 
ATOM     93  N   UNL A   1      42.341  32.793  32.041  1.00  0.00    -0.328 N 
ATOM     94  H   UNL A   1      42.302  31.852  32.435  1.00  0.00     0.348 HD
BRANCH  93  95
ATOM     95  C   UNL A   1      41.689  33.571  33.104  1.00  0.00     0.299 C 
BRANCH  95  96
ATOM     96  C   UNL A   1      42.530  34.627  33.779  1.00  0.00     0.010 A 
ATOM     97  C   UNL A   1      42.726  35.884  33.160  1.00  0.00     0.013 A 
ATOM     98  C   UNL A   1      43.197  34.340  34.982  1.00  0.00     0.060 A 
ATOM     99  C   UNL A   1      43.670  36.789  33.650  1.00  0.00     0.051 A 
ATOM    100  C   UNL A   1      44.120  35.251  35.441  1.00  0.00     0.166 A 
ATOM    101  C   UNL A   1      44.368  36.430  34.779  1.00  0.00     0.165 A 
ATOM    102  O   UNL A   1      44.922  35.081  36.524  1.00  0.00    -0.454 OA
ATOM    103  O   UNL A   1      45.374  37.142  35.350  1.00  0.00    -0.454 OA
ATOM    104  C   UNL A   1      45.676  36.310  36.493  1.00  0.00     0.468 C 
ENDBRANCH  95  96
ENDBRANCH  93  95
ENDBRANCH  82  86
ENDBRANCH  78  80
ENDBRANCH  77  78
ENDBRANCH  76  77
ENDBRANCH  75  76
ENDBRANCH  74  75
ENDBRANCH  73  74
ENDBRANCH  72  73
ENDBRANCH   1  72
TORSDOF 26
ENDMDL
MODEL 3
REMARK VINA RESULT:      -7.7      7.841     13.298
REMARK SMILES O=C(OCCOCCOCCOCCOC(=O)[C@@H]1CC=CC[C@H]1C(=O)N1CC[NH+](Cc2ccc3c(c2)OCO3)CC1)c1ccc(-c2c3nc(c(-c4ccc(S(=O)(=O)[O-])cc4)c4ccc([nH]4)c(-c4ccc(S(=O)(=O)[O-])cc4)c4nc(c(-c5ccc(S(=O)(=O)[O-])cc5)c5ccc2[nH]5)C=C4)C=C3)cc1
REMARK SMILES IDX 9 1 8 2 7 3 6 4 5 5 4 6 3 7 2 8 1 9 42 10 43 11 101 12 44 13
REMARK SMILES IDX 100 14 45 15 46 16 47 17 94 18 48 19 99 20 93 21 95 22 49 23
REMARK SMILES IDX 98 24 92 25 91 26 50 28 80 29 61 30 79 31 62 32 65 33 78 34
REMARK SMILES IDX 96 35 63 36 64 37 77 39 97 40 66 41 51 42 52 43 60 44 53 45
REMARK SMILES IDX 59 46 54 47 55 48 56 49 57 50 58 51 81 52 82 53 90 54 83 55
REMARK SMILES IDX 89 56 84 57 85 58 86 59 87 60 88 61 67 62 68 63 76 64 69 65
REMARK SMILES IDX 75 66 70 67 71 68 72 69 73 70 74 71 10 72 11 73 12 74 13 75
REMARK SMILES IDX 14 76 15 77 16 78 17 79 18 80 19 81 23 82 20 83 22 84 21 85
REMARK SMILES IDX 24 86 25 87 26 88 27 89 41 90 28 91 40 92 29 93 30 95 31 96
REMARK SMILES IDX 32 97 36 98 33 99 35 100 34 101 37 102 39 103 38 104
REMARK H PARENT 95 27 65 38 29 94
REMARK Flexibility Score: inf
ROOT
ATOM      1  O   UNL A   1      40.529  31.481  35.200  1.00  0.00    -0.377 OA
ENDROOT
BRANCH   1   2
ATOM      2  C   UNL A   1      40.604  30.216  34.562  1.00  0.00     0.188 C 
BRANCH   2   3
ATOM      3  C   UNL A   1      41.534  30.152  33.354  1.00  0.00     0.188 C 
BRANCH   3   4
ATOM      4  O   UNL A   1      42.135  28.869  33.162  1.00  0.00    -0.376 OA
BRANCH   4   5
ATOM      5  C   UNL A   1      43.185  28.515  34.066  1.00  0.00     0.202 C 
BRANCH   5   6
ATOM      6  C   UNL A   1      44.071  29.657  34.571  1.00  0.00     0.261 C 
BRANCH   6   7
ATOM      7  O   UNL A   1      45.137  30.050  33.691  1.00  0.00    -0.460 OA
BRANCH   7   8
ATOM      8  C   UNL A   1      45.868  31.191  33.650  1.00  0.00     0.338 C 
ATOM      9  O   UNL A   1      46.966  31.143  33.095  1.00  0.00    -0.246 OA
BRANCH   8  10
ATOM     10  C   UNL A   1      45.479  32.482  34.307  1.00  0.00     0.060 A 
ATOM     11  C   UNL A   1      45.909  32.905  35.560  1.00  0.00     0.016 A 
ATOM     12  C   UNL A   1      44.640  33.355  33.583  1.00  0.00     0.016 A 
ATOM     13  C   UNL A   1      45.583  34.148  36.064  1.00  0.00     0.010 A 
ATOM     14  C   UNL A   1      44.246  34.594  34.110  1.00  0.00     0.010 A 
ATOM     15  C   UNL A   1      44.723  34.981  35.362  1.00  0.00    -0.014 A 
BRANCH  15  16
ATOM     16  C   UNL A   1      44.160  36.080  36.157  1.00  0.00     0.031 A 
ATOM     17  C   UNL A   1      43.097  35.708  37.148  1.00  0.00     0.074 A 
ATOM     18  C   UNL A   1      44.790  37.267  36.200  1.00  0.00     0.049 A 
ATOM     19  N   UNL A   1      42.496  36.449  38.034  1.00  0.00    -0.248 NA
ATOM     20  C   UNL A   1      42.694  34.287  37.175  1.00  0.00     0.031 C 
ATOM     21  C   UNL A   1      45.987  37.614  35.432  1.00  0.00     0.029 A 
ATOM     22  N   UNL A   1      44.557  38.370  36.975  1.00  0.00    -0.354 N 
ATOM     23  C   UNL A   1      41.621  35.596  38.697  1.00  0.00     0.074 A 
ATOM     24  C   UNL A   1      41.795  34.275  38.144  1.00  0.00     0.031 C 
ATOM     25  C   UNL A   1      46.401  38.840  35.800  1.00  0.00     0.029 A 
ATOM     26  C   UNL A   1      45.453  39.390  36.764  1.00  0.00     0.049 A 
ATOM     27  H   UNL A   1      43.817  38.426  37.622  1.00  0.00     0.167 HD
ATOM     28  C   UNL A   1      40.722  35.909  39.655  1.00  0.00     0.031 A 
ATOM     29  C   UNL A   1      45.462  40.639  37.271  1.00  0.00     0.031 A 
ATOM     30  C   UNL A   1      40.545  37.247  40.137  1.00  0.00     0.049 A 
ATOM     31  C   UNL A   1      44.343  41.011  38.212  1.00  0.00     0.074 A 
ATOM     32  C   UNL A   1      39.579  37.742  40.989  1.00  0.00     0.029 A 
ATOM     33  N   UNL A   1      41.364  38.314  39.785  1.00  0.00    -0.354 N 
ATOM     34  N   UNL A   1      43.418  40.238  38.738  1.00  0.00    -0.248 NA
ATOM     35  C   UNL A   1      44.242  42.422  38.599  1.00  0.00     0.031 C 
ATOM     36  C   UNL A   1      39.774  39.123  41.100  1.00  0.00     0.029 A 
ATOM     37  C   UNL A   1      40.909  39.473  40.379  1.00  0.00     0.049 A 
ATOM     38  H   UNL A   1      42.153  38.252  39.200  1.00  0.00     0.167 HD
ATOM     39  C   UNL A   1      42.628  41.069  39.524  1.00  0.00     0.074 A 
ATOM     40  C   UNL A   1      43.205  42.397  39.428  1.00  0.00     0.031 C 
ATOM     41  C   UNL A   1      41.522  40.773  40.252  1.00  0.00     0.031 A 
BRANCH  28  42
ATOM     42  C   UNL A   1      39.785  34.817  40.090  1.00  0.00    -0.014 A 
ATOM     43  C   UNL A   1      39.967  34.109  41.290  1.00  0.00     0.010 A 
ATOM     44  C   UNL A   1      38.730  34.456  39.233  1.00  0.00     0.010 A 
ATOM     45  C   UNL A   1      39.130  33.033  41.607  1.00  0.00     0.020 A 
ATOM     46  C   UNL A   1      37.877  33.399  39.557  1.00  0.00     0.020 A 
ATOM     47  C   UNL A   1      38.093  32.683  40.735  1.00  0.00     0.054 A 
BRANCH  47  48
ATOM     48  S   UNL A   1      37.021  31.287  41.171  1.00  0.00     0.124 S 
ATOM     49  O   UNL A   1      36.001  31.352  40.130  1.00  0.00    -0.237 OA
ATOM     50  O   UNL A   1      37.929  30.150  41.095  1.00  0.00    -0.237 OA
ATOM     51  O   UNL A   1      36.552  31.619  42.520  1.00  0.00    -0.744 OA
ENDBRANCH  47  48
ENDBRANCH  28  42
BRANCH  29  52
ATOM     52  C   UNL A   1      46.470  41.643  36.820  1.00  0.00    -0.014 A 
ATOM     53  C   UNL A   1      47.665  41.857  37.529  1.00  0.00     0.010 A 
ATOM     54  C   UNL A   1      46.215  42.430  35.679  1.00  0.00     0.010 A 
ATOM     55  C   UNL A   1      48.568  42.848  37.121  1.00  0.00     0.020 A 
ATOM     56  C   UNL A   1      47.129  43.394  35.246  1.00  0.00     0.020 A 
ATOM     57  C   UNL A   1      48.294  43.610  35.981  1.00  0.00     0.054 A 
BRANCH  57  58
ATOM     58  S   UNL A   1      49.485  44.875  35.456  1.00  0.00     0.124 S 
ATOM     59  O   UNL A   1      50.633  44.582  36.306  1.00  0.00    -0.237 OA
ATOM     60  O   UNL A   1      49.655  44.579  34.037  1.00  0.00    -0.237 OA
ATOM     61  O   UNL A   1      48.797  46.132  35.746  1.00  0.00    -0.744 OA
ENDBRANCH  57  58
ENDBRANCH  29  52
BRANCH  41  62
ATOM     62  C   UNL A   1      40.887  41.896  41.024  1.00  0.00    -0.014 A 
ATOM     63  C   UNL A   1      41.295  42.202  42.332  1.00  0.00     0.010 A 
ATOM     64  C   UNL A   1      39.931  42.708  40.387  1.00  0.00     0.010 A 
ATOM     65  C   UNL A   1      40.735  43.291  43.003  1.00  0.00     0.020 A 
ATOM     66  C   UNL A   1      39.396  43.816  41.042  1.00  0.00     0.020 A 
ATOM     67  C   UNL A   1      39.793  44.093  42.351  1.00  0.00     0.054 A 
BRANCH  67  68
ATOM     68  S   UNL A   1      39.127  45.536  43.221  1.00  0.00     0.124 S 
ATOM     69  O   UNL A   1      40.136  46.552  42.939  1.00  0.00    -0.237 OA
ATOM     70  O   UNL A   1      37.835  45.735  42.568  1.00  0.00    -0.237 OA
ATOM     71  O   UNL A   1      39.053  45.099  44.612  1.00  0.00    -0.744 OA
ENDBRANCH  67  68
ENDBRANCH  41  62
ENDBRANCH  15  16
ENDBRANCH   8  10
ENDBRANCH   7   8
ENDBRANCH   6   7
ENDBRANCH   5   6
ENDBRANCH   4   5
ENDBRANCH   3   4
ENDBRANCH   2   3
ENDBRANCH   1   2
BRANCH   1  72
ATOM     72  C   UNL A   1      39.432  31.664  36.082  1.00  0.00     0.188 C 
BRANCH  72  73
ATOM     73  C   UNL A   1      38.433  32.813  35.817  1.00  0.00     0.188 C 
BRANCH  73  74
ATOM     74  O   UNL A   1      37.167  32.364  35.372  1.00  0.00    -0.376 OA
BRANCH  74  75
ATOM     75  C   UNL A   1      37.125  31.867  34.042  1.00  0.00     0.202 C 
BRANCH  75  76
ATOM     76  C   UNL A   1      37.813  32.695  32.938  1.00  0.00     0.261 C 
BRANCH  76  77
ATOM     77  O   UNL A   1      37.607  32.265  31.568  1.00  0.00    -0.463 OA
BRANCH  77  78
ATOM     78  C   UNL A   1      36.404  31.780  31.198  1.00  0.00     0.310 C 
ATOM     79  O   UNL A   1      36.057  30.623  31.421  1.00  0.00    -0.252 OA
BRANCH  78  80
ATOM     80  C   UNL A   1      35.531  32.782  30.413  1.00  0.00     0.115 C 
ATOM     81  C   UNL A   1      34.615  33.506  31.427  1.00  0.00     0.043 C 
ATOM     82  C   UNL A   1      34.645  32.424  29.185  1.00  0.00     0.097 C 
ATOM     83  C   UNL A   1      33.861  34.647  30.796  1.00  0.00    -0.030 C 
ATOM     84  C   UNL A   1      34.193  33.739  28.495  1.00  0.00     0.041 C 
ATOM     85  C   UNL A   1      33.701  34.769  29.470  1.00  0.00    -0.030 C 
BRANCH  82  86
ATOM     86  C   UNL A   1      35.017  31.493  28.027  1.00  0.00     0.227 C 
ATOM     87  O   UNL A   1      36.197  31.420  27.668  1.00  0.00    -0.275 OA
ATOM     88  N   UNL A   1      34.091  30.565  27.610  1.00  0.00    -0.331 N 
ATOM     89  C   UNL A   1      34.555  29.246  27.190  1.00  0.00     0.181 C 
ATOM     90  C   UNL A   1      32.878  30.985  26.942  1.00  0.00     0.181 C 
ATOM     91  C   UNL A   1      33.421  28.195  27.244  1.00  0.00     0.284 C 
ATOM     92  C   UNL A   1      31.752  29.962  27.076  1.00  0.00     0.284 C 
ATOM     93  N   UNL A   1      32.110  28.589  26.698  1.00  0.00    -0.328 N 
ATOM     94  H   UNL A   1      31.442  27.972  27.161  1.00  0.00     0.348 HD
BRANCH  93  95
ATOM     95  C   UNL A   1      31.865  28.261  25.286  1.00  0.00     0.299 C 
BRANCH  95  96
ATOM     96  C   UNL A   1      32.294  26.888  24.829  1.00  0.00     0.010 A 
ATOM     97  C   UNL A   1      33.475  26.727  24.066  1.00  0.00     0.013 A 
ATOM     98  C   UNL A   1      31.479  25.772  25.081  1.00  0.00     0.060 A 
ATOM     99  C   UNL A   1      33.774  25.511  23.449  1.00  0.00     0.051 A 
ATOM    100  C   UNL A   1      31.799  24.586  24.459  1.00  0.00     0.166 A 
ATOM    101  C   UNL A   1      32.901  24.467  23.646  1.00  0.00     0.165 A 
ATOM    102  O   UNL A   1      31.063  23.446  24.511  1.00  0.00    -0.454 OA
ATOM    103  O   UNL A   1      32.985  23.243  23.065  1.00  0.00    -0.454 OA
ATOM    104  C   UNL A   1      31.850  22.580  23.669  1.00  0.00     0.468 C 
ENDBRANCH  95  96
ENDBRANCH  93  95
ENDBRANCH  82  86
ENDBRANCH  78  80
ENDBRANCH  77  78
ENDBRANCH  76  77
ENDBRANCH  75  76
ENDBRANCH  74  75
ENDBRANCH  73  74
ENDBRANCH  72  73
ENDBRANCH   1  72
TORSDOF 26
ENDMDL
