MODEL 1
REMARK VINA RESULT:      -9.7      0.000      0.000
REMARK SMILES O=C(OCCOCCOCCOCCOC(=O)[C@H]1CCCC[N@H+]1Cc1ccc(F)cc1Cl)c1ccc(-c2c3nc(c(-c4ccc(S(=O)(=O)[O-])cc4)c4ccc([nH]4)c(-c4ccc(S(=O)(=O)[O-])cc4)c4nc(c(-c5ccc(S(=O)(=O)[O-])cc5)c5ccc2[nH]5)C=C4)C=C3)cc1
REMARK SMILES IDX 8 1 7 2 6 3 5 4 4 5 3 6 2 7 1 8 33 9 34 10 92 11 35 12 91 13
REMARK SMILES IDX 36 14 37 15 38 16 85 17 39 18 90 19 84 20 86 21 40 22 89 23
REMARK SMILES IDX 83 24 82 25 41 27 71 28 52 29 70 30 53 31 56 32 69 33 87 34
REMARK SMILES IDX 54 35 55 36 68 38 88 39 57 40 42 41 43 42 51 43 44 44 50 45
REMARK SMILES IDX 45 46 46 47 47 48 48 49 49 50 72 51 73 52 81 53 74 54 80 55
REMARK SMILES IDX 75 56 76 57 77 58 78 59 79 60 58 61 59 62 67 63 60 64 66 65
REMARK SMILES IDX 61 66 62 67 63 68 64 69 65 70 9 71 10 72 11 73 12 74 13 75
REMARK SMILES IDX 14 76 15 77 16 78 17 79 18 80 19 81 23 82 20 83 22 84 21 86
REMARK SMILES IDX 24 87 25 88 26 89 31 90 27 91 30 92 32 93 28 94 29 95
REMARK H PARENT 86 26 56 37 23 85
REMARK Flexibility Score: inf
ROOT
ATOM      1  C   UNL A   1      36.100  20.841  25.267  1.00  0.00     0.188 C 
ENDROOT
BRANCH   1   2
ATOM      2  C   UNL A   1      36.974  21.845  24.542  1.00  0.00     0.188 C 
BRANCH   2   3
ATOM      3  O   UNL A   1      37.983  22.320  25.416  1.00  0.00    -0.376 OA
BRANCH   3   4
ATOM      4  C   UNL A   1      39.035  21.437  25.728  1.00  0.00     0.202 C 
BRANCH   4   5
ATOM      5  C   UNL A   1      40.040  22.020  26.717  1.00  0.00     0.261 C 
BRANCH   5   6
ATOM      6  O   UNL A   1      39.803  23.418  27.007  1.00  0.00    -0.460 OA
BRANCH   6   7
ATOM      7  C   UNL A   1      40.756  24.371  27.189  1.00  0.00     0.338 C 
ATOM      8  O   UNL A   1      41.833  24.294  26.591  1.00  0.00    -0.246 OA
BRANCH   7   9
ATOM      9  C   UNL A   1      40.514  25.537  28.069  1.00  0.00     0.060 A 
ATOM     10  C   UNL A   1      41.378  26.624  28.095  1.00  0.00     0.016 A 
ATOM     11  C   UNL A   1      39.352  25.603  28.836  1.00  0.00     0.016 A 
ATOM     12  C   UNL A   1      41.276  27.608  29.051  1.00  0.00     0.010 A 
ATOM     13  C   UNL A   1      39.141  26.696  29.687  1.00  0.00     0.010 A 
ATOM     14  C   UNL A   1      40.142  27.671  29.844  1.00  0.00    -0.014 A 
BRANCH  14  15
ATOM     15  C   UNL A   1      40.110  28.704  30.898  1.00  0.00     0.031 A 
ATOM     16  C   UNL A   1      41.152  28.636  31.973  1.00  0.00     0.074 A 
ATOM     17  C   UNL A   1      39.278  29.761  30.787  1.00  0.00     0.049 A 
ATOM     18  N   UNL A   1      41.265  29.348  33.058  1.00  0.00    -0.248 NA
ATOM     19  C   UNL A   1      42.216  27.628  31.802  1.00  0.00     0.031 C 
ATOM     20  C   UNL A   1      38.339  29.994  29.679  1.00  0.00     0.029 A 
ATOM     21  N   UNL A   1      39.118  30.863  31.583  1.00  0.00    -0.354 N 
ATOM     22  C   UNL A   1      42.376  28.842  33.720  1.00  0.00     0.074 A 
ATOM     23  C   UNL A   1      42.900  27.757  32.927  1.00  0.00     0.031 C 
ATOM     24  C   UNL A   1      37.741  31.183  29.846  1.00  0.00     0.029 A 
ATOM     25  C   UNL A   1      38.159  31.738  31.124  1.00  0.00     0.049 A 
ATOM     26  H   UNL A   1      39.637  31.015  32.404  1.00  0.00     0.167 HD
ATOM     27  C   UNL A   1      42.904  29.255  34.894  1.00  0.00     0.031 A 
ATOM     28  C   UNL A   1      37.635  32.832  31.709  1.00  0.00     0.031 A 
ATOM     29  C   UNL A   1      42.356  30.347  35.647  1.00  0.00     0.049 A 
ATOM     30  C   UNL A   1      38.159  33.196  33.071  1.00  0.00     0.074 A 
ATOM     31  C   UNL A   1      42.725  30.813  36.894  1.00  0.00     0.029 A 
ATOM     32  N   UNL A   1      41.321  31.158  35.199  1.00  0.00    -0.354 N 
ATOM     33  N   UNL A   1      39.131  32.634  33.756  1.00  0.00    -0.248 NA
ATOM     34  C   UNL A   1      37.511  34.322  33.750  1.00  0.00     0.031 C 
ATOM     35  C   UNL A   1      41.878  31.878  37.219  1.00  0.00     0.029 A 
ATOM     36  C   UNL A   1      41.027  32.116  36.148  1.00  0.00     0.049 A 
ATOM     37  H   UNL A   1      40.864  31.063  34.333  1.00  0.00     0.167 HD
ATOM     38  C   UNL A   1      39.217  33.346  34.945  1.00  0.00     0.074 A 
ATOM     39  C   UNL A   1      38.223  34.401  34.865  1.00  0.00     0.031 C 
ATOM     40  C   UNL A   1      40.027  33.146  36.014  1.00  0.00     0.031 A 
BRANCH  27  41
ATOM     41  C   UNL A   1      44.063  28.471  35.441  1.00  0.00    -0.014 A 
ATOM     42  C   UNL A   1      45.394  28.829  35.157  1.00  0.00     0.010 A 
ATOM     43  C   UNL A   1      43.815  27.338  36.236  1.00  0.00     0.010 A 
ATOM     44  C   UNL A   1      46.453  28.050  35.635  1.00  0.00     0.020 A 
ATOM     45  C   UNL A   1      44.870  26.570  36.736  1.00  0.00     0.020 A 
ATOM     46  C   UNL A   1      46.183  26.926  36.423  1.00  0.00     0.054 A 
BRANCH  46  47
ATOM     47  S   UNL A   1      47.577  25.953  37.054  1.00  0.00     0.124 S 
ATOM     48  O   UNL A   1      47.134  25.634  38.409  1.00  0.00    -0.237 OA
ATOM     49  O   UNL A   1      47.623  24.825  36.127  1.00  0.00    -0.237 OA
ATOM     50  O   UNL A   1      48.709  26.872  36.969  1.00  0.00    -0.744 OA
ENDBRANCH  46  47
ENDBRANCH  27  41
BRANCH  28  51
ATOM     51  C   UNL A   1      36.501  33.571  31.079  1.00  0.00    -0.014 A 
ATOM     52  C   UNL A   1      35.276  33.743  31.746  1.00  0.00     0.010 A 
ATOM     53  C   UNL A   1      36.634  34.083  29.773  1.00  0.00     0.010 A 
ATOM     54  C   UNL A   1      34.199  34.371  31.106  1.00  0.00     0.020 A 
ATOM     55  C   UNL A   1      35.577  34.745  29.144  1.00  0.00     0.020 A 
ATOM     56  C   UNL A   1      34.357  34.864  29.806  1.00  0.00     0.054 A 
BRANCH  56  57
ATOM     57  S   UNL A   1      32.948  35.668  28.992  1.00  0.00     0.124 S 
ATOM     58  O   UNL A   1      32.146  36.099  30.133  1.00  0.00    -0.237 OA
ATOM     59  O   UNL A   1      33.591  36.736  28.231  1.00  0.00    -0.237 OA
ATOM     60  O   UNL A   1      32.364  34.599  28.184  1.00  0.00    -0.744 OA
ENDBRANCH  56  57
ENDBRANCH  28  51
BRANCH  40  61
ATOM     61  C   UNL A   1      39.889  34.118  37.150  1.00  0.00    -0.014 A 
ATOM     62  C   UNL A   1      40.343  35.443  37.032  1.00  0.00     0.010 A 
ATOM     63  C   UNL A   1      39.259  33.702  38.335  1.00  0.00     0.010 A 
ATOM     64  C   UNL A   1      40.211  36.325  38.105  1.00  0.00     0.020 A 
ATOM     65  C   UNL A   1      39.093  34.591  39.396  1.00  0.00     0.020 A 
ATOM     66  C   UNL A   1      39.589  35.892  39.280  1.00  0.00     0.054 A 
BRANCH  66  67
ATOM     67  S   UNL A   1      39.406  37.063  40.649  1.00  0.00     0.124 S 
ATOM     68  O   UNL A   1      38.855  38.234  39.973  1.00  0.00    -0.237 OA
ATOM     69  O   UNL A   1      38.490  36.365  41.548  1.00  0.00    -0.237 OA
ATOM     70  O   UNL A   1      40.767  37.219  41.155  1.00  0.00    -0.744 OA
ENDBRANCH  66  67
ENDBRANCH  40  61
ENDBRANCH  14  15
ENDBRANCH   7   9
ENDBRANCH   6   7
ENDBRANCH   5   6
ENDBRANCH   4   5
ENDBRANCH   3   4
ENDBRANCH   2   3
ENDBRANCH   1   2
BRANCH   1  71
ATOM     71  O   UNL A   1      34.987  20.351  24.535  1.00  0.00    -0.377 OA
BRANCH  71  72
ATOM     72  C   UNL A   1      33.805  19.908  25.207  1.00  0.00     0.188 C 
BRANCH  72  73
ATOM     73  C   UNL A   1      32.404  20.308  24.699  1.00  0.00     0.188 C 
BRANCH  73  74
ATOM     74  O   UNL A   1      32.083  21.692  24.789  1.00  0.00    -0.376 OA
BRANCH  74  75
ATOM     75  C   UNL A   1      31.946  22.182  26.118  1.00  0.00     0.202 C 
BRANCH  75  76
ATOM     76  C   UNL A   1      30.812  23.201  26.317  1.00  0.00     0.261 C 
BRANCH  76  77
ATOM     77  O   UNL A   1      31.051  24.618  26.172  1.00  0.00    -0.459 OA
BRANCH  77  78
ATOM     78  C   UNL A   1      31.343  25.155  24.967  1.00  0.00     0.364 C 
ATOM     79  O   UNL A   1      30.608  25.083  23.986  1.00  0.00    -0.245 OA
BRANCH  78  80
ATOM     80  C   UNL A   1      32.735  25.823  24.881  1.00  0.00     0.295 C 
ATOM     81  C   UNL A   1      33.802  25.085  24.053  1.00  0.00     0.078 C 
ATOM     82  N   UNL A   1      32.690  27.238  24.451  1.00  0.00    -0.319 N 
ATOM     83  C   UNL A   1      33.546  25.163  22.555  1.00  0.00     0.013 C 
ATOM     84  C   UNL A   1      32.448  27.410  23.021  1.00  0.00     0.263 C 
ATOM     85  H   UNL A   1      33.649  27.565  24.569  1.00  0.00     0.349 HD
ATOM     86  C   UNL A   1      33.427  26.620  22.141  1.00  0.00     0.062 C 
BRANCH  82  87
ATOM     87  C   UNL A   1      31.996  28.172  25.359  1.00  0.00     0.301 C 
BRANCH  87  88
ATOM     88  C   UNL A   1      32.830  29.168  26.146  1.00  0.00     0.025 A 
ATOM     89  C   UNL A   1      34.083  28.760  26.650  1.00  0.00     0.014 A 
ATOM     90  C   UNL A   1      32.408  30.475  26.442  1.00  0.00     0.052 A 
ATOM     91  C   UNL A   1      34.782  29.541  27.573  1.00  0.00     0.040 A 
ATOM     92  C   UNL A   1      33.107  31.258  27.364  1.00  0.00     0.060 A 
ATOM     93  Cl  UNL A   1      31.054  31.216  25.666  1.00  0.00    -0.084 Cl
ATOM     94  C   UNL A   1      34.265  30.769  27.949  1.00  0.00     0.124 A 
ATOM     95  F   UNL A   1      34.874  31.484  28.900  1.00  0.00    -0.207 F 
ENDBRANCH  87  88
ENDBRANCH  82  87
ENDBRANCH  78  80
ENDBRANCH  77  78
ENDBRANCH  76  77
ENDBRANCH  75  76
ENDBRANCH  74  75
ENDBRANCH  73  74
ENDBRANCH  72  73
ENDBRANCH  71  72
ENDBRANCH   1  71
TORSDOF 25
ENDMDL
MODEL 2
REMARK VINA RESULT:      -9.5      1.912      2.648
REMARK SMILES O=C(OCCOCCOCCOCCOC(=O)[C@H]1CCCC[N@H+]1Cc1ccc(F)cc1Cl)c1ccc(-c2c3nc(c(-c4ccc(S(=O)(=O)[O-])cc4)c4ccc([nH]4)c(-c4ccc(S(=O)(=O)[O-])cc4)c4nc(c(-c5ccc(S(=O)(=O)[O-])cc5)c5ccc2[nH]5)C=C4)C=C3)cc1
REMARK SMILES IDX 8 1 7 2 6 3 5 4 4 5 3 6 2 7 1 8 33 9 34 10 92 11 35 12 91 13
REMARK SMILES IDX 36 14 37 15 38 16 85 17 39 18 90 19 84 20 86 21 40 22 89 23
REMARK SMILES IDX 83 24 82 25 41 27 71 28 52 29 70 30 53 31 56 32 69 33 87 34
REMARK SMILES IDX 54 35 55 36 68 38 88 39 57 40 42 41 43 42 51 43 44 44 50 45
REMARK SMILES IDX 45 46 46 47 47 48 48 49 49 50 72 51 73 52 81 53 74 54 80 55
REMARK SMILES IDX 75 56 76 57 77 58 78 59 79 60 58 61 59 62 67 63 60 64 66 65
REMARK SMILES IDX 61 66 62 67 63 68 64 69 65 70 9 71 10 72 11 73 12 74 13 75
REMARK SMILES IDX 14 76 15 77 16 78 17 79 18 80 19 81 23 82 20 83 22 84 21 86
REMARK SMILES IDX 24 87 25 88 26 89 31 90 27 91 30 92 32 93 28 94 29 95
REMARK H PARENT 86 26 56 37 23 85
REMARK Flexibility Score: inf
ROOT
ATOM      1  C   UNL A   1      36.197  20.834  25.342  1.00  0.00     0.188 C 
ENDROOT
BRANCH   1   2
ATOM      2  C   UNL A   1      37.432  21.409  24.677  1.00  0.00     0.188 C 
BRANCH   2   3
ATOM      3  O   UNL A   1      38.066  22.322  25.555  1.00  0.00    -0.376 OA
BRANCH   3   4
ATOM      4  C   UNL A   1      39.273  21.910  26.152  1.00  0.00     0.202 C 
BRANCH   4   5
ATOM      5  C   UNL A   1      40.062  23.059  26.775  1.00  0.00     0.261 C 
BRANCH   5   6
ATOM      6  O   UNL A   1      39.486  24.357  26.498  1.00  0.00    -0.460 OA
BRANCH   6   7
ATOM      7  C   UNL A   1      40.143  25.547  26.524  1.00  0.00     0.338 C 
ATOM      8  O   UNL A   1      40.876  25.873  25.585  1.00  0.00    -0.246 OA
BRANCH   7   9
ATOM      9  C   UNL A   1      39.968  26.493  27.649  1.00  0.00     0.060 A 
ATOM     10  C   UNL A   1      40.419  27.805  27.579  1.00  0.00     0.016 A 
ATOM     11  C   UNL A   1      39.260  26.103  28.786  1.00  0.00     0.016 A 
ATOM     12  C   UNL A   1      40.448  28.622  28.685  1.00  0.00     0.010 A 
ATOM     13  C   UNL A   1      39.121  26.993  29.859  1.00  0.00     0.010 A 
ATOM     14  C   UNL A   1      39.776  28.237  29.833  1.00  0.00    -0.014 A 
BRANCH  14  15
ATOM     15  C   UNL A   1      39.892  29.116  31.013  1.00  0.00     0.031 A 
ATOM     16  C   UNL A   1      41.067  28.915  31.920  1.00  0.00     0.074 A 
ATOM     17  C   UNL A   1      39.060  30.169  31.157  1.00  0.00     0.049 A 
ATOM     18  N   UNL A   1      41.329  29.474  33.067  1.00  0.00    -0.248 NA
ATOM     19  C   UNL A   1      42.092  27.951  31.474  1.00  0.00     0.031 C 
ATOM     20  C   UNL A   1      37.984  30.540  30.227  1.00  0.00     0.029 A 
ATOM     21  N   UNL A   1      39.015  31.151  32.110  1.00  0.00    -0.354 N 
ATOM     22  C   UNL A   1      42.515  28.895  33.500  1.00  0.00     0.074 A 
ATOM     23  C   UNL A   1      42.921  27.934  32.504  1.00  0.00     0.031 C 
ATOM     24  C   UNL A   1      37.422  31.689  30.632  1.00  0.00     0.029 A 
ATOM     25  C   UNL A   1      38.011  32.071  31.906  1.00  0.00     0.049 A 
ATOM     26  H   UNL A   1      39.641  31.197  32.868  1.00  0.00     0.167 HD
ATOM     27  C   UNL A   1      43.197  29.151  34.639  1.00  0.00     0.031 A 
ATOM     28  C   UNL A   1      37.578  33.069  32.699  1.00  0.00     0.031 A 
ATOM     29  C   UNL A   1      42.763  30.125  35.599  1.00  0.00     0.049 A 
ATOM     30  C   UNL A   1      38.281  33.250  34.015  1.00  0.00     0.074 A 
ATOM     31  C   UNL A   1      43.298  30.422  36.838  1.00  0.00     0.029 A 
ATOM     32  N   UNL A   1      41.683  30.978  35.407  1.00  0.00    -0.354 N 
ATOM     33  N   UNL A   1      39.331  32.612  34.483  1.00  0.00    -0.248 NA
ATOM     34  C   UNL A   1      37.737  34.267  34.921  1.00  0.00     0.031 C 
ATOM     35  C   UNL A   1      42.509  31.423  37.415  1.00  0.00     0.029 A 
ATOM     36  C   UNL A   1      41.525  31.795  36.509  1.00  0.00     0.049 A 
ATOM     37  H   UNL A   1      41.114  30.996  34.605  1.00  0.00     0.167 HD
ATOM     38  C   UNL A   1      39.579  33.156  35.735  1.00  0.00     0.074 A 
ATOM     39  C   UNL A   1      38.592  34.202  35.932  1.00  0.00     0.031 C 
ATOM     40  C   UNL A   1      40.524  32.823  36.649  1.00  0.00     0.031 A 
BRANCH  27  41
ATOM     41  C   UNL A   1      44.414  28.313  34.915  1.00  0.00    -0.014 A 
ATOM     42  C   UNL A   1      44.329  27.105  35.632  1.00  0.00     0.010 A 
ATOM     43  C   UNL A   1      45.671  28.757  34.469  1.00  0.00     0.010 A 
ATOM     44  C   UNL A   1      45.485  26.373  35.921  1.00  0.00     0.020 A 
ATOM     45  C   UNL A   1      46.826  28.015  34.735  1.00  0.00     0.020 A 
ATOM     46  C   UNL A   1      46.725  26.833  35.469  1.00  0.00     0.054 A 
BRANCH  46  47
ATOM     47  S   UNL A   1      48.203  25.845  35.833  1.00  0.00     0.124 S 
ATOM     48  O   UNL A   1      47.640  24.717  36.570  1.00  0.00    -0.237 OA
ATOM     49  O   UNL A   1      48.712  25.534  34.500  1.00  0.00    -0.237 OA
ATOM     50  O   UNL A   1      49.040  26.749  36.620  1.00  0.00    -0.744 OA
ENDBRANCH  46  47
ENDBRANCH  27  41
BRANCH  28  51
ATOM     51  C   UNL A   1      36.375  33.874  32.332  1.00  0.00    -0.014 A 
ATOM     52  C   UNL A   1      35.650  34.594  33.297  1.00  0.00     0.010 A 
ATOM     53  C   UNL A   1      35.922  33.894  30.997  1.00  0.00     0.010 A 
ATOM     54  C   UNL A   1      34.480  35.279  32.944  1.00  0.00     0.020 A 
ATOM     55  C   UNL A   1      34.778  34.607  30.632  1.00  0.00     0.020 A 
ATOM     56  C   UNL A   1      34.049  35.276  31.613  1.00  0.00     0.054 A 
BRANCH  56  57
ATOM     57  S   UNL A   1      32.527  36.163  31.177  1.00  0.00     0.124 S 
ATOM     58  O   UNL A   1      32.920  37.554  31.382  1.00  0.00    -0.237 OA
ATOM     59  O   UNL A   1      32.315  35.763  29.790  1.00  0.00    -0.237 OA
ATOM     60  O   UNL A   1      31.545  35.645  32.127  1.00  0.00    -0.744 OA
ENDBRANCH  56  57
ENDBRANCH  28  51
BRANCH  40  61
ATOM     61  C   UNL A   1      40.545  33.630  37.915  1.00  0.00    -0.014 A 
ATOM     62  C   UNL A   1      39.856  33.201  39.062  1.00  0.00     0.010 A 
ATOM     63  C   UNL A   1      41.298  34.816  37.959  1.00  0.00     0.010 A 
ATOM     64  C   UNL A   1      39.884  33.974  40.224  1.00  0.00     0.020 A 
ATOM     65  C   UNL A   1      41.358  35.572  39.129  1.00  0.00     0.020 A 
ATOM     66  C   UNL A   1      40.633  35.155  40.248  1.00  0.00     0.054 A 
BRANCH  66  67
ATOM     67  S   UNL A   1      40.675  36.126  41.775  1.00  0.00     0.124 S 
ATOM     68  O   UNL A   1      40.680  35.083  42.797  1.00  0.00    -0.237 OA
ATOM     69  O   UNL A   1      41.916  36.883  41.640  1.00  0.00    -0.237 OA
ATOM     70  O   UNL A   1      39.454  36.927  41.709  1.00  0.00    -0.744 OA
ENDBRANCH  66  67
ENDBRANCH  40  61
ENDBRANCH  14  15
ENDBRANCH   7   9
ENDBRANCH   6   7
ENDBRANCH   5   6
ENDBRANCH   4   5
ENDBRANCH   3   4
ENDBRANCH   2   3
ENDBRANCH   1   2
BRANCH   1  71
ATOM     71  O   UNL A   1      34.991  20.942  24.601  1.00  0.00    -0.377 OA
BRANCH  71  72
ATOM     72  C   UNL A   1      33.787  20.327  25.066  1.00  0.00     0.188 C 
BRANCH  72  73
ATOM     73  C   UNL A   1      32.425  20.655  24.420  1.00  0.00     0.188 C 
BRANCH  73  74
ATOM     74  O   UNL A   1      31.734  21.775  24.963  1.00  0.00    -0.376 OA
BRANCH  74  75
ATOM     75  C   UNL A   1      32.373  22.377  26.083  1.00  0.00     0.202 C 
BRANCH  75  76
ATOM     76  C   UNL A   1      31.438  23.171  27.010  1.00  0.00     0.261 C 
BRANCH  76  77
ATOM     77  O   UNL A   1      31.557  24.606  27.135  1.00  0.00    -0.459 OA
BRANCH  77  78
ATOM     78  C   UNL A   1      30.748  25.433  26.436  1.00  0.00     0.364 C 
ATOM     79  O   UNL A   1      29.527  25.315  26.378  1.00  0.00    -0.245 OA
BRANCH  78  80
ATOM     80  C   UNL A   1      31.489  26.529  25.634  1.00  0.00     0.295 C 
ATOM     81  C   UNL A   1      32.940  26.824  26.051  1.00  0.00     0.078 C 
ATOM     82  N   UNL A   1      31.442  26.327  24.169  1.00  0.00    -0.319 N 
ATOM     83  C   UNL A   1      33.906  25.717  25.650  1.00  0.00     0.013 C 
ATOM     84  C   UNL A   1      32.342  25.280  23.693  1.00  0.00     0.263 C 
ATOM     85  H   UNL A   1      31.850  27.180  23.787  1.00  0.00     0.349 HD
ATOM     86  C   UNL A   1      33.793  25.469  24.156  1.00  0.00     0.062 C 
BRANCH  82  87
ATOM     87  C   UNL A   1      30.106  26.390  23.545  1.00  0.00     0.301 C 
BRANCH  87  88
ATOM     88  C   UNL A   1      29.544  27.751  23.177  1.00  0.00     0.025 A 
ATOM     89  C   UNL A   1      28.162  27.985  23.341  1.00  0.00     0.014 A 
ATOM     90  C   UNL A   1      30.317  28.794  22.638  1.00  0.00     0.052 A 
ATOM     91  C   UNL A   1      27.550  29.120  22.803  1.00  0.00     0.040 A 
ATOM     92  C   UNL A   1      29.707  29.930  22.101  1.00  0.00     0.060 A 
ATOM     93  Cl  UNL A   1      32.044  28.774  22.647  1.00  0.00    -0.084 Cl
ATOM     94  C   UNL A   1      28.328  30.064  22.155  1.00  0.00     0.124 A 
ATOM     95  F   UNL A   1      27.744  31.107  21.555  1.00  0.00    -0.207 F 
ENDBRANCH  87  88
ENDBRANCH  82  87
ENDBRANCH  78  80
ENDBRANCH  77  78
ENDBRANCH  76  77
ENDBRANCH  75  76
ENDBRANCH  74  75
ENDBRANCH  73  74
ENDBRANCH  72  73
ENDBRANCH  71  72
ENDBRANCH   1  71
TORSDOF 25
ENDMDL
MODEL 3
REMARK VINA RESULT:      -9.4      1.609      8.180
REMARK SMILES O=C(OCCOCCOCCOCCOC(=O)[C@H]1CCCC[N@H+]1Cc1ccc(F)cc1Cl)c1ccc(-c2c3nc(c(-c4ccc(S(=O)(=O)[O-])cc4)c4ccc([nH]4)c(-c4ccc(S(=O)(=O)[O-])cc4)c4nc(c(-c5ccc(S(=O)(=O)[O-])cc5)c5ccc2[nH]5)C=C4)C=C3)cc1
REMARK SMILES IDX 8 1 7 2 6 3 5 4 4 5 3 6 2 7 1 8 33 9 34 10 92 11 35 12 91 13
REMARK SMILES IDX 36 14 37 15 38 16 85 17 39 18 90 19 84 20 86 21 40 22 89 23
REMARK SMILES IDX 83 24 82 25 41 27 71 28 52 29 70 30 53 31 56 32 69 33 87 34
REMARK SMILES IDX 54 35 55 36 68 38 88 39 57 40 42 41 43 42 51 43 44 44 50 45
REMARK SMILES IDX 45 46 46 47 47 48 48 49 49 50 72 51 73 52 81 53 74 54 80 55
REMARK SMILES IDX 75 56 76 57 77 58 78 59 79 60 58 61 59 62 67 63 60 64 66 65
REMARK SMILES IDX 61 66 62 67 63 68 64 69 65 70 9 71 10 72 11 73 12 74 13 75
REMARK SMILES IDX 14 76 15 77 16 78 17 79 18 80 19 81 23 82 20 83 22 84 21 86
REMARK SMILES IDX 24 87 25 88 26 89 31 90 27 91 30 92 32 93 28 94 29 95
REMARK H PARENT 86 26 56 37 23 85
REMARK Flexibility Score: inf
ROOT
ATOM      1  C   UNL A   1      36.267  21.296  25.561  1.00  0.00     0.188 C 
ENDROOT
BRANCH   1   2
ATOM      2  C   UNL A   1      37.363  22.069  24.854  1.00  0.00     0.188 C 
BRANCH   2   3
ATOM      3  O   UNL A   1      38.174  22.729  25.810  1.00  0.00    -0.376 OA
BRANCH   3   4
ATOM      4  C   UNL A   1      39.422  22.149  26.108  1.00  0.00     0.202 C 
BRANCH   4   5
ATOM      5  C   UNL A   1      40.313  23.042  26.967  1.00  0.00     0.261 C 
BRANCH   5   6
ATOM      6  O   UNL A   1      39.621  24.201  27.487  1.00  0.00    -0.460 OA
BRANCH   6   7
ATOM      7  C   UNL A   1      39.993  25.499  27.318  1.00  0.00     0.338 C 
ATOM      8  O   UNL A   1      40.350  25.903  26.207  1.00  0.00    -0.246 OA
BRANCH   7   9
ATOM      9  C   UNL A   1      39.940  26.462  28.441  1.00  0.00     0.060 A 
ATOM     10  C   UNL A   1      40.688  27.632  28.436  1.00  0.00     0.016 A 
ATOM     11  C   UNL A   1      39.060  26.250  29.502  1.00  0.00     0.016 A 
ATOM     12  C   UNL A   1      40.806  28.422  29.556  1.00  0.00     0.010 A 
ATOM     13  C   UNL A   1      39.034  27.151  30.575  1.00  0.00     0.010 A 
ATOM     14  C   UNL A   1      39.960  28.207  30.632  1.00  0.00    -0.014 A 
BRANCH  14  15
ATOM     15  C   UNL A   1      40.169  29.037  31.834  1.00  0.00     0.031 A 
ATOM     16  C   UNL A   1      39.160  30.107  32.127  1.00  0.00     0.074 A 
ATOM     17  C   UNL A   1      41.137  28.719  32.719  1.00  0.00     0.049 A 
ATOM     18  N   UNL A   1      39.182  31.031  33.044  1.00  0.00    -0.248 NA
ATOM     19  C   UNL A   1      37.961  30.139  31.268  1.00  0.00     0.031 C 
ATOM     20  C   UNL A   1      42.066  27.585  32.595  1.00  0.00     0.029 A 
ATOM     21  N   UNL A   1      41.475  29.282  33.919  1.00  0.00    -0.354 N 
ATOM     22  C   UNL A   1      38.030  31.781  32.842  1.00  0.00     0.074 A 
ATOM     23  C   UNL A   1      37.335  31.218  31.711  1.00  0.00     0.031 C 
ATOM     24  C   UNL A   1      42.829  27.514  33.695  1.00  0.00     0.029 A 
ATOM     25  C   UNL A   1      42.532  28.658  34.542  1.00  0.00     0.049 A 
ATOM     26  H   UNL A   1      41.007  30.059  34.302  1.00  0.00     0.167 HD
ATOM     27  C   UNL A   1      37.602  32.853  33.546  1.00  0.00     0.031 A 
ATOM     28  C   UNL A   1      43.222  29.016  35.642  1.00  0.00     0.031 A 
ATOM     29  C   UNL A   1      38.320  33.375  34.674  1.00  0.00     0.049 A 
ATOM     30  C   UNL A   1      42.796  30.281  36.335  1.00  0.00     0.074 A 
ATOM     31  C   UNL A   1      38.058  34.507  35.421  1.00  0.00     0.029 A 
ATOM     32  N   UNL A   1      39.445  32.775  35.225  1.00  0.00    -0.354 N 
ATOM     33  N   UNL A   1      41.777  31.065  36.062  1.00  0.00    -0.248 NA
ATOM     34  C   UNL A   1      43.616  30.724  37.466  1.00  0.00     0.031 C 
ATOM     35  C   UNL A   1      39.056  34.615  36.396  1.00  0.00     0.029 A 
ATOM     36  C   UNL A   1      39.899  33.516  36.297  1.00  0.00     0.049 A 
ATOM     37  H   UNL A   1      39.858  31.943  34.898  1.00  0.00     0.167 HD
ATOM     38  C   UNL A   1      41.827  32.091  36.996  1.00  0.00     0.074 A 
ATOM     39  C   UNL A   1      42.956  31.803  37.862  1.00  0.00     0.031 C 
ATOM     40  C   UNL A   1      41.030  33.180  37.126  1.00  0.00     0.031 A 
BRANCH  27  41
ATOM     41  C   UNL A   1      36.361  33.546  33.059  1.00  0.00    -0.014 A 
ATOM     42  C   UNL A   1      36.371  34.346  31.901  1.00  0.00     0.010 A 
ATOM     43  C   UNL A   1      35.166  33.412  33.788  1.00  0.00     0.010 A 
ATOM     44  C   UNL A   1      35.214  35.023  31.501  1.00  0.00     0.020 A 
ATOM     45  C   UNL A   1      34.002  34.066  33.377  1.00  0.00     0.020 A 
ATOM     46  C   UNL A   1      34.037  34.877  32.241  1.00  0.00     0.054 A 
BRANCH  46  47
ATOM     47  S   UNL A   1      32.544  35.741  31.680  1.00  0.00     0.124 S 
ATOM     48  O   UNL A   1      31.527  35.207  32.582  1.00  0.00    -0.237 OA
ATOM     49  O   UNL A   1      32.893  37.145  31.887  1.00  0.00    -0.237 OA
ATOM     50  O   UNL A   1      32.413  35.336  30.282  1.00  0.00    -0.744 OA
ENDBRANCH  46  47
ENDBRANCH  27  41
BRANCH  28  51
ATOM     51  C   UNL A   1      44.429  28.251  36.074  1.00  0.00    -0.014 A 
ATOM     52  C   UNL A   1      45.701  28.522  35.540  1.00  0.00     0.010 A 
ATOM     53  C   UNL A   1      44.301  27.205  37.010  1.00  0.00     0.010 A 
ATOM     54  C   UNL A   1      46.806  27.740  35.901  1.00  0.00     0.020 A 
ATOM     55  C   UNL A   1      45.407  26.447  37.404  1.00  0.00     0.020 A 
ATOM     56  C   UNL A   1      46.650  26.704  36.828  1.00  0.00     0.054 A 
BRANCH  56  57
ATOM     57  S   UNL A   1      48.092  25.698  37.277  1.00  0.00     0.124 S 
ATOM     58  O   UNL A   1      47.987  24.585  36.338  1.00  0.00    -0.237 OA
ATOM     59  O   UNL A   1      49.202  26.617  37.047  1.00  0.00    -0.237 OA
ATOM     60  O   UNL A   1      47.849  25.360  38.678  1.00  0.00    -0.744 OA
ENDBRANCH  56  57
ENDBRANCH  28  51
BRANCH  40  61
ATOM     61  C   UNL A   1      41.338  34.103  38.270  1.00  0.00    -0.014 A 
ATOM     62  C   UNL A   1      42.181  35.214  38.101  1.00  0.00     0.010 A 
ATOM     63  C   UNL A   1      40.740  33.867  39.520  1.00  0.00     0.010 A 
ATOM     64  C   UNL A   1      42.459  36.051  39.182  1.00  0.00     0.020 A 
ATOM     65  C   UNL A   1      40.987  34.723  40.593  1.00  0.00     0.020 A 
ATOM     66  C   UNL A   1      41.861  35.798  40.421  1.00  0.00     0.054 A 
BRANCH  66  67
ATOM     67  S   UNL A   1      42.217  36.915  41.801  1.00  0.00     0.124 S 
ATOM     68  O   UNL A   1      42.497  35.977  42.884  1.00  0.00    -0.237 OA
ATOM     69  O   UNL A   1      43.365  37.674  41.311  1.00  0.00    -0.237 OA
ATOM     70  O   UNL A   1      40.985  37.687  41.948  1.00  0.00    -0.744 OA
ENDBRANCH  66  67
ENDBRANCH  40  61
ENDBRANCH  14  15
ENDBRANCH   7   9
ENDBRANCH   6   7
ENDBRANCH   5   6
ENDBRANCH   4   5
ENDBRANCH   3   4
ENDBRANCH   2   3
ENDBRANCH   1   2
BRANCH   1  71
ATOM     71  O   UNL A   1      35.083  21.076  24.809  1.00  0.00    -0.377 OA
BRANCH  71  72
ATOM     72  C   UNL A   1      33.797  21.153  25.427  1.00  0.00     0.188 C 
BRANCH  72  73
ATOM     73  C   UNL A   1      32.684  22.047  24.840  1.00  0.00     0.188 C 
BRANCH  73  74
ATOM     74  O   UNL A   1      32.735  23.421  25.206  1.00  0.00    -0.376 OA
BRANCH  74  75
ATOM     75  C   UNL A   1      32.090  23.730  26.437  1.00  0.00     0.202 C 
BRANCH  75  76
ATOM     76  C   UNL A   1      31.006  24.816  26.344  1.00  0.00     0.261 C 
BRANCH  76  77
ATOM     77  O   UNL A   1      31.226  26.137  26.885  1.00  0.00    -0.459 OA
BRANCH  77  78
ATOM     78  C   UNL A   1      31.579  27.167  26.084  1.00  0.00     0.364 C 
ATOM     79  O   UNL A   1      30.796  27.772  25.358  1.00  0.00    -0.245 OA
BRANCH  78  80
ATOM     80  C   UNL A   1      33.090  27.496  26.088  1.00  0.00     0.295 C 
ATOM     81  C   UNL A   1      33.976  26.667  25.142  1.00  0.00     0.078 C 
ATOM     82  N   UNL A   1      33.387  28.932  25.886  1.00  0.00    -0.319 N 
ATOM     83  C   UNL A   1      33.784  27.034  23.678  1.00  0.00     0.013 C 
ATOM     84  C   UNL A   1      33.228  29.375  24.503  1.00  0.00     0.263 C 
ATOM     85  H   UNL A   1      34.392  29.003  26.043  1.00  0.00     0.349 HD
ATOM     86  C   UNL A   1      34.018  28.525  23.499  1.00  0.00     0.062 C 
BRANCH  82  87
ATOM     87  C   UNL A   1      32.906  29.849  26.937  1.00  0.00     0.301 C 
BRANCH  87  88
ATOM     88  C   UNL A   1      33.889  30.839  27.536  1.00  0.00     0.025 A 
ATOM     89  C   UNL A   1      33.440  32.139  27.854  1.00  0.00     0.014 A 
ATOM     90  C   UNL A   1      35.247  30.552  27.759  1.00  0.00     0.052 A 
ATOM     91  C   UNL A   1      34.339  33.158  28.179  1.00  0.00     0.040 A 
ATOM     92  C   UNL A   1      36.147  31.569  28.086  1.00  0.00     0.060 A 
ATOM     93  Cl  UNL A   1      35.881  28.947  27.699  1.00  0.00    -0.084 Cl
ATOM     94  C   UNL A   1      35.690  32.867  28.255  1.00  0.00     0.124 A 
ATOM     95  F   UNL A   1      36.570  33.851  28.473  1.00  0.00    -0.207 F 
ENDBRANCH  87  88
ENDBRANCH  82  87
ENDBRANCH  78  80
ENDBRANCH  77  78
ENDBRANCH  76  77
ENDBRANCH  75  76
ENDBRANCH  74  75
ENDBRANCH  73  74
ENDBRANCH  72  73
ENDBRANCH  71  72
ENDBRANCH   1  71
TORSDOF 25
ENDMDL
