MODEL 1
REMARK VINA RESULT:      -7.4      0.000      0.000
REMARK SMILES O=C(OCCOCCOCCOCCOC(=O)c1ccc(-c2c3nc(c(-c4ccc(S(=O)(=O)[O-])cc4)c4ccc([nH]4)c(-c4ccc(S(=O)(=O)[O-])cc4)c4nc(c(-c5ccc(S(=O)(=O)[O-])cc5)c5ccc2[nH]5)C=C4)C=C3)cc1)C1=NN(c2ccc([N+](=O)[O-])cc2)[C@H](c2ccccc2)C1
REMARK SMILES IDX 10 1 9 2 8 3 7 4 6 5 5 6 4 7 3 8 2 9 1 10 78 11 79 12 97 13
REMARK SMILES IDX 80 14 90 15 81 16 82 17 89 18 83 19 88 20 84 21 85 22 86 23
REMARK SMILES IDX 87 24 91 25 92 26 96 27 93 28 95 29 94 30 11 31 12 32 13 33
REMARK SMILES IDX 14 34 15 35 16 36 17 37 18 38 19 39 77 40 20 41 76 42 21 43
REMARK SMILES IDX 22 44 23 45 70 46 24 47 75 48 69 49 71 50 25 51 74 52 68 53
REMARK SMILES IDX 67 54 26 56 56 57 37 58 55 59 38 60 41 61 54 62 72 63 39 64
REMARK SMILES IDX 40 65 53 67 73 68 42 69 27 70 28 71 36 72 29 73 35 74 30 75
REMARK SMILES IDX 31 76 32 77 33 78 34 79 57 80 58 81 66 82 59 83 65 84 60 85
REMARK SMILES IDX 61 86 62 87 63 88 64 89 43 90 44 91 52 92 45 93 51 94 46 95
REMARK SMILES IDX 47 96 48 97 49 98 50 99
REMARK H PARENT 71 55 41 66
REMARK Flexibility Score: inf
ROOT
ATOM      1  C   UNL A   1      38.208  33.521  30.025  1.00  0.00     0.188 C 
ENDROOT
BRANCH   1   2
ATOM      2  O   UNL A   1      38.444  32.229  29.499  1.00  0.00    -0.377 OA
BRANCH   2   3
ATOM      3  C   UNL A   1      39.045  31.268  30.350  1.00  0.00     0.188 C 
BRANCH   3   4
ATOM      4  C   UNL A   1      39.584  29.941  29.798  1.00  0.00     0.188 C 
BRANCH   4   5
ATOM      5  O   UNL A   1      39.675  29.798  28.398  1.00  0.00    -0.376 OA
BRANCH   5   6
ATOM      6  C   UNL A   1      39.870  28.537  27.765  1.00  0.00     0.202 C 
BRANCH   6   7
ATOM      7  C   UNL A   1      41.245  27.870  27.657  1.00  0.00     0.261 C 
BRANCH   7   8
ATOM      8  O   UNL A   1      42.224  28.339  26.714  1.00  0.00    -0.459 OA
BRANCH   8   9
ATOM      9  C   UNL A   1      42.761  27.668  25.698  1.00  0.00     0.354 C 
ATOM     10  O   UNL A   1      42.507  27.937  24.530  1.00  0.00    -0.245 OA
BRANCH   9  11
ATOM     11  C   UNL A   1      43.613  26.453  25.947  1.00  0.00     0.148 C 
ATOM     12  N   UNL A   1      43.265  25.226  25.719  1.00  0.00    -0.169 NA
ATOM     13  C   UNL A   1      45.014  26.629  26.475  1.00  0.00     0.098 C 
ATOM     14  N   UNL A   1      44.359  24.495  26.028  1.00  0.00    -0.257 N 
ATOM     15  C   UNL A   1      45.204  25.198  26.994  1.00  0.00     0.144 C 
BRANCH  14  16
ATOM     16  C   UNL A   1      44.488  23.191  25.596  1.00  0.00     0.061 A 
ATOM     17  C   UNL A   1      45.597  22.788  24.838  1.00  0.00     0.035 A 
ATOM     18  C   UNL A   1      43.505  22.239  25.891  1.00  0.00     0.035 A 
ATOM     19  C   UNL A   1      45.761  21.453  24.445  1.00  0.00     0.088 A 
ATOM     20  C   UNL A   1      43.662  20.898  25.532  1.00  0.00     0.088 A 
ATOM     21  C   UNL A   1      44.802  20.507  24.823  1.00  0.00     0.269 A 
BRANCH  21  22
ATOM     22  N   UNL A   1      45.004  19.088  24.503  1.00  0.00     0.062 N 
ATOM     23  O   UNL A   1      46.063  18.763  23.948  1.00  0.00    -0.258 OA
ATOM     24  O   UNL A   1      44.116  18.290  24.842  1.00  0.00    -0.258 OA
ENDBRANCH  21  22
ENDBRANCH  14  16
BRANCH  15  25
ATOM     25  C   UNL A   1      44.609  24.935  28.385  1.00  0.00    -0.023 A 
ATOM     26  C   UNL A   1      44.649  23.669  29.005  1.00  0.00     0.006 A 
ATOM     27  C   UNL A   1      44.223  26.036  29.163  1.00  0.00     0.006 A 
ATOM     28  C   UNL A   1      44.411  23.529  30.371  1.00  0.00     0.000 A 
ATOM     29  C   UNL A   1      43.987  25.895  30.532  1.00  0.00     0.000 A 
ATOM     30  C   UNL A   1      44.102  24.646  31.137  1.00  0.00     0.000 A 
ENDBRANCH  15  25
ENDBRANCH   9  11
ENDBRANCH   8   9
ENDBRANCH   7   8
ENDBRANCH   6   7
ENDBRANCH   5   6
ENDBRANCH   4   5
ENDBRANCH   3   4
ENDBRANCH   2   3
ENDBRANCH   1   2
BRANCH   1  31
ATOM     31  C   UNL A   1      38.849  33.897  31.386  1.00  0.00     0.188 C 
BRANCH  31  32
ATOM     32  O   UNL A   1      37.966  33.987  32.483  1.00  0.00    -0.376 OA
BRANCH  32  33
ATOM     33  C   UNL A   1      37.891  32.967  33.459  1.00  0.00     0.202 C 
BRANCH  33  34
ATOM     34  C   UNL A   1      37.501  33.150  34.940  1.00  0.00     0.261 C 
BRANCH  34  35
ATOM     35  O   UNL A   1      37.538  32.019  35.804  1.00  0.00    -0.460 OA
BRANCH  35  36
ATOM     36  C   UNL A   1      38.451  32.026  36.799  1.00  0.00     0.338 C 
ATOM     37  O   UNL A   1      38.255  32.269  37.979  1.00  0.00    -0.246 OA
BRANCH  36  38
ATOM     38  C   UNL A   1      39.687  31.439  36.240  1.00  0.00     0.060 A 
ATOM     39  C   UNL A   1      40.929  31.989  36.603  1.00  0.00     0.016 A 
ATOM     40  C   UNL A   1      39.622  30.295  35.443  1.00  0.00     0.016 A 
ATOM     41  C   UNL A   1      42.110  31.403  36.154  1.00  0.00     0.010 A 
ATOM     42  C   UNL A   1      40.802  29.736  34.957  1.00  0.00     0.010 A 
ATOM     43  C   UNL A   1      42.045  30.308  35.283  1.00  0.00    -0.014 A 
BRANCH  43  44
ATOM     44  C   UNL A   1      43.218  29.948  34.458  1.00  0.00     0.031 A 
ATOM     45  C   UNL A   1      43.549  30.872  33.319  1.00  0.00     0.074 A 
ATOM     46  C   UNL A   1      43.924  28.826  34.663  1.00  0.00     0.049 A 
ATOM     47  N   UNL A   1      44.396  30.714  32.341  1.00  0.00    -0.248 NA
ATOM     48  C   UNL A   1      42.799  32.140  33.274  1.00  0.00     0.031 C 
ATOM     49  C   UNL A   1      43.729  27.889  35.767  1.00  0.00     0.029 A 
ATOM     50  N   UNL A   1      44.936  28.273  33.920  1.00  0.00    -0.354 N 
ATOM     51  C   UNL A   1      44.260  31.847  31.546  1.00  0.00     0.074 A 
ATOM     52  C   UNL A   1      43.237  32.672  32.147  1.00  0.00     0.031 C 
ATOM     53  C   UNL A   1      44.578  26.856  35.610  1.00  0.00     0.029 A 
ATOM     54  C   UNL A   1      45.335  27.038  34.372  1.00  0.00     0.049 A 
ATOM     55  H   UNL A   1      45.337  28.718  33.139  1.00  0.00     0.167 HD
ATOM     56  C   UNL A   1      44.919  32.164  30.409  1.00  0.00     0.031 A 
ATOM     57  C   UNL A   1      46.181  26.143  33.822  1.00  0.00     0.031 A 
ATOM     58  C   UNL A   1      45.907  31.315  29.805  1.00  0.00     0.049 A 
ATOM     59  C   UNL A   1      46.855  26.478  32.514  1.00  0.00     0.074 A 
ATOM     60  C   UNL A   1      46.645  31.538  28.658  1.00  0.00     0.029 A 
ATOM     61  N   UNL A   1      46.280  30.070  30.291  1.00  0.00    -0.354 N 
ATOM     62  N   UNL A   1      46.733  27.556  31.775  1.00  0.00    -0.248 NA
ATOM     63  C   UNL A   1      47.785  25.479  31.969  1.00  0.00     0.031 C 
ATOM     64  C   UNL A   1      47.417  30.398  28.415  1.00  0.00     0.029 A 
ATOM     65  C   UNL A   1      47.221  29.500  29.453  1.00  0.00     0.049 A 
ATOM     66  H   UNL A   1      45.927  29.655  31.111  1.00  0.00     0.167 HD
ATOM     67  C   UNL A   1      47.597  27.382  30.698  1.00  0.00     0.074 A 
ATOM     68  C   UNL A   1      48.234  26.094  30.882  1.00  0.00     0.031 C 
ATOM     69  C   UNL A   1      47.851  28.218  29.660  1.00  0.00     0.031 A 
BRANCH  56  70
ATOM     70  C   UNL A   1      44.531  33.448  29.726  1.00  0.00    -0.014 A 
ATOM     71  C   UNL A   1      43.390  33.532  28.906  1.00  0.00     0.010 A 
ATOM     72  C   UNL A   1      45.339  34.588  29.890  1.00  0.00     0.010 A 
ATOM     73  C   UNL A   1      43.101  34.712  28.216  1.00  0.00     0.020 A 
ATOM     74  C   UNL A   1      45.033  35.781  29.232  1.00  0.00     0.020 A 
ATOM     75  C   UNL A   1      43.928  35.827  28.380  1.00  0.00     0.054 A 
BRANCH  75  76
ATOM     76  S   UNL A   1      43.534  37.343  27.466  1.00  0.00     0.124 S 
ATOM     77  O   UNL A   1      44.855  37.778  27.021  1.00  0.00    -0.237 OA
ATOM     78  O   UNL A   1      42.645  36.860  26.413  1.00  0.00    -0.237 OA
ATOM     79  O   UNL A   1      42.902  38.199  28.468  1.00  0.00    -0.744 OA
ENDBRANCH  75  76
ENDBRANCH  56  70
BRANCH  57  80
ATOM     80  C   UNL A   1      46.416  24.841  34.501  1.00  0.00    -0.014 A 
ATOM     81  C   UNL A   1      47.495  24.679  35.389  1.00  0.00     0.010 A 
ATOM     82  C   UNL A   1      45.533  23.763  34.300  1.00  0.00     0.010 A 
ATOM     83  C   UNL A   1      47.681  23.470  36.066  1.00  0.00     0.020 A 
ATOM     84  C   UNL A   1      45.698  22.562  34.996  1.00  0.00     0.020 A 
ATOM     85  C   UNL A   1      46.774  22.424  35.875  1.00  0.00     0.054 A 
BRANCH  85  86
ATOM     86  S   UNL A   1      46.982  20.901  36.842  1.00  0.00     0.124 S 
ATOM     87  O   UNL A   1      46.905  19.872  35.810  1.00  0.00    -0.237 OA
ATOM     88  O   UNL A   1      48.298  21.095  37.448  1.00  0.00    -0.237 OA
ATOM     89  O   UNL A   1      45.863  20.935  37.780  1.00  0.00    -0.744 OA
ENDBRANCH  85  86
ENDBRANCH  57  80
BRANCH  69  90
ATOM     90  C   UNL A   1      48.906  27.811  28.664  1.00  0.00    -0.014 A 
ATOM     91  C   UNL A   1      50.266  28.101  28.867  1.00  0.00     0.010 A 
ATOM     92  C   UNL A   1      48.530  27.026  27.557  1.00  0.00     0.010 A 
ATOM     93  C   UNL A   1      51.228  27.624  27.971  1.00  0.00     0.020 A 
ATOM     94  C   UNL A   1      49.490  26.523  26.678  1.00  0.00     0.020 A 
ATOM     95  C   UNL A   1      50.835  26.833  26.887  1.00  0.00     0.054 A 
BRANCH  95  96
ATOM     96  S   UNL A   1      52.110  26.163  25.785  1.00  0.00     0.124 S 
ATOM     97  O   UNL A   1      53.233  27.062  26.036  1.00  0.00    -0.237 OA
ATOM     98  O   UNL A   1      52.275  24.798  26.279  1.00  0.00    -0.237 OA
ATOM     99  O   UNL A   1      51.512  26.269  24.456  1.00  0.00    -0.744 OA
ENDBRANCH  95  96
ENDBRANCH  69  90
ENDBRANCH  43  44
ENDBRANCH  36  38
ENDBRANCH  35  36
ENDBRANCH  34  35
ENDBRANCH  33  34
ENDBRANCH  32  33
ENDBRANCH  31  32
ENDBRANCH   1  31
TORSDOF 26
ENDMDL
MODEL 2
REMARK VINA RESULT:      -7.0      5.802     11.848
REMARK SMILES O=C(OCCOCCOCCOCCOC(=O)c1ccc(-c2c3nc(c(-c4ccc(S(=O)(=O)[O-])cc4)c4ccc([nH]4)c(-c4ccc(S(=O)(=O)[O-])cc4)c4nc(c(-c5ccc(S(=O)(=O)[O-])cc5)c5ccc2[nH]5)C=C4)C=C3)cc1)C1=NN(c2ccc([N+](=O)[O-])cc2)[C@H](c2ccccc2)C1
REMARK SMILES IDX 10 1 9 2 8 3 7 4 6 5 5 6 4 7 3 8 2 9 1 10 78 11 79 12 97 13
REMARK SMILES IDX 80 14 90 15 81 16 82 17 89 18 83 19 88 20 84 21 85 22 86 23
REMARK SMILES IDX 87 24 91 25 92 26 96 27 93 28 95 29 94 30 11 31 12 32 13 33
REMARK SMILES IDX 14 34 15 35 16 36 17 37 18 38 19 39 77 40 20 41 76 42 21 43
REMARK SMILES IDX 22 44 23 45 70 46 24 47 75 48 69 49 71 50 25 51 74 52 68 53
REMARK SMILES IDX 67 54 26 56 56 57 37 58 55 59 38 60 41 61 54 62 72 63 39 64
REMARK SMILES IDX 40 65 53 67 73 68 42 69 27 70 28 71 36 72 29 73 35 74 30 75
REMARK SMILES IDX 31 76 32 77 33 78 34 79 57 80 58 81 66 82 59 83 65 84 60 85
REMARK SMILES IDX 61 86 62 87 63 88 64 89 43 90 44 91 52 92 45 93 51 94 46 95
REMARK SMILES IDX 47 96 48 97 49 98 50 99
REMARK H PARENT 71 55 41 66
REMARK Flexibility Score: inf
ROOT
ATOM      1  C   UNL A   1      39.082  21.726  25.857  1.00  0.00     0.188 C 
ENDROOT
BRANCH   1   2
ATOM      2  O   UNL A   1      37.984  21.286  25.081  1.00  0.00    -0.377 OA
BRANCH   2   3
ATOM      3  C   UNL A   1      36.905  22.185  24.893  1.00  0.00     0.188 C 
BRANCH   3   4
ATOM      4  C   UNL A   1      36.695  22.909  23.556  1.00  0.00     0.188 C 
BRANCH   4   5
ATOM      5  O   UNL A   1      35.444  23.522  23.328  1.00  0.00    -0.376 OA
BRANCH   5   6
ATOM      6  C   UNL A   1      34.228  22.784  23.262  1.00  0.00     0.202 C 
BRANCH   6   7
ATOM      7  C   UNL A   1      33.195  22.990  22.149  1.00  0.00     0.261 C 
BRANCH   7   8
ATOM      8  O   UNL A   1      33.374  24.009  21.151  1.00  0.00    -0.459 OA
BRANCH   8   9
ATOM      9  C   UNL A   1      32.939  25.266  21.185  1.00  0.00     0.354 C 
ATOM     10  O   UNL A   1      32.980  26.000  20.205  1.00  0.00    -0.245 OA
BRANCH   9  11
ATOM     11  C   UNL A   1      32.489  25.886  22.481  1.00  0.00     0.148 C 
ATOM     12  N   UNL A   1      33.243  26.536  23.310  1.00  0.00    -0.169 NA
ATOM     13  C   UNL A   1      31.037  25.798  22.876  1.00  0.00     0.098 C 
ATOM     14  N   UNL A   1      32.403  26.955  24.282  1.00  0.00    -0.257 N 
ATOM     15  C   UNL A   1      31.228  26.089  24.371  1.00  0.00     0.144 C 
BRANCH  14  16
ATOM     16  C   UNL A   1      32.772  27.958  25.155  1.00  0.00     0.061 A 
ATOM     17  C   UNL A   1      34.003  27.913  25.829  1.00  0.00     0.035 A 
ATOM     18  C   UNL A   1      31.920  29.040  25.404  1.00  0.00     0.035 A 
ATOM     19  C   UNL A   1      34.407  28.956  26.672  1.00  0.00     0.088 A 
ATOM     20  C   UNL A   1      32.315  30.103  26.221  1.00  0.00     0.088 A 
ATOM     21  C   UNL A   1      33.569  30.064  26.839  1.00  0.00     0.269 A 
BRANCH  21  22
ATOM     22  N   UNL A   1      34.015  31.208  27.642  1.00  0.00     0.062 N 
ATOM     23  O   UNL A   1      33.298  32.218  27.663  1.00  0.00    -0.258 OA
ATOM     24  O   UNL A   1      35.070  31.084  28.284  1.00  0.00    -0.258 OA
ENDBRANCH  21  22
ENDBRANCH  14  16
BRANCH  15  25
ATOM     25  C   UNL A   1      31.631  24.871  25.216  1.00  0.00    -0.023 A 
ATOM     26  C   UNL A   1      32.858  24.794  25.906  1.00  0.00     0.006 A 
ATOM     27  C   UNL A   1      30.653  23.906  25.500  1.00  0.00     0.006 A 
ATOM     28  C   UNL A   1      33.058  23.852  26.913  1.00  0.00     0.000 A 
ATOM     29  C   UNL A   1      30.855  22.965  26.511  1.00  0.00     0.000 A 
ATOM     30  C   UNL A   1      32.048  22.952  27.230  1.00  0.00     0.000 A 
ENDBRANCH  15  25
ENDBRANCH   9  11
ENDBRANCH   8   9
ENDBRANCH   7   8
ENDBRANCH   6   7
ENDBRANCH   5   6
ENDBRANCH   4   5
ENDBRANCH   3   4
ENDBRANCH   2   3
ENDBRANCH   1   2
BRANCH   1  31
ATOM     31  C   UNL A   1      40.216  20.719  26.180  1.00  0.00     0.188 C 
BRANCH  31  32
ATOM     32  O   UNL A   1      41.526  21.241  26.186  1.00  0.00    -0.376 OA
BRANCH  32  33
ATOM     33  C   UNL A   1      42.202  21.529  27.395  1.00  0.00     0.202 C 
BRANCH  33  34
ATOM     34  C   UNL A   1      42.676  22.920  27.865  1.00  0.00     0.261 C 
BRANCH  34  35
ATOM     35  O   UNL A   1      44.062  23.237  27.779  1.00  0.00    -0.460 OA
BRANCH  35  36
ATOM     36  C   UNL A   1      44.507  23.764  26.618  1.00  0.00     0.338 C 
ATOM     37  O   UNL A   1      44.562  23.213  25.531  1.00  0.00    -0.246 OA
BRANCH  36  38
ATOM     38  C   UNL A   1      44.679  25.214  26.852  1.00  0.00     0.060 A 
ATOM     39  C   UNL A   1      45.174  25.651  28.093  1.00  0.00     0.016 A 
ATOM     40  C   UNL A   1      44.444  26.124  25.820  1.00  0.00     0.016 A 
ATOM     41  C   UNL A   1      45.421  27.005  28.308  1.00  0.00     0.010 A 
ATOM     42  C   UNL A   1      44.648  27.483  26.050  1.00  0.00     0.010 A 
ATOM     43  C   UNL A   1      45.103  27.928  27.305  1.00  0.00    -0.014 A 
BRANCH  43  44
ATOM     44  C   UNL A   1      44.935  29.358  27.641  1.00  0.00     0.031 A 
ATOM     45  C   UNL A   1      46.116  30.252  27.392  1.00  0.00     0.074 A 
ATOM     46  C   UNL A   1      43.812  29.838  28.198  1.00  0.00     0.049 A 
ATOM     47  N   UNL A   1      46.312  31.490  27.753  1.00  0.00    -0.248 NA
ATOM     48  C   UNL A   1      47.240  29.651  26.651  1.00  0.00     0.031 C 
ATOM     49  C   UNL A   1      42.587  29.077  28.432  1.00  0.00     0.029 A 
ATOM     50  N   UNL A   1      43.539  31.087  28.696  1.00  0.00    -0.354 N 
ATOM     51  C   UNL A   1      47.592  31.806  27.309  1.00  0.00     0.074 A 
ATOM     52  C   UNL A   1      48.130  30.627  26.672  1.00  0.00     0.031 C 
ATOM     53  C   UNL A   1      41.700  29.872  29.060  1.00  0.00     0.029 A 
ATOM     54  C   UNL A   1      42.315  31.174  29.314  1.00  0.00     0.049 A 
ATOM     55  H   UNL A   1      44.161  31.846  28.619  1.00  0.00     0.167 HD
ATOM     56  C   UNL A   1      48.264  32.973  27.435  1.00  0.00     0.031 A 
ATOM     57  C   UNL A   1      41.776  32.177  30.036  1.00  0.00     0.031 A 
ATOM     58  C   UNL A   1      47.729  34.126  28.104  1.00  0.00     0.049 A 
ATOM     59  C   UNL A   1      42.566  33.448  30.232  1.00  0.00     0.074 A 
ATOM     60  C   UNL A   1      48.315  35.364  28.285  1.00  0.00     0.029 A 
ATOM     61  N   UNL A   1      46.486  34.173  28.720  1.00  0.00    -0.354 N 
ATOM     62  N   UNL A   1      43.769  33.746  29.799  1.00  0.00    -0.248 NA
ATOM     63  C   UNL A   1      41.925  34.518  31.008  1.00  0.00     0.031 C 
ATOM     64  C   UNL A   1      47.454  36.139  29.066  1.00  0.00     0.029 A 
ATOM     65  C   UNL A   1      46.296  35.412  29.304  1.00  0.00     0.049 A 
ATOM     66  H   UNL A   1      45.836  33.434  28.738  1.00  0.00     0.167 HD
ATOM     67  C   UNL A   1      44.014  35.051  30.217  1.00  0.00     0.074 A 
ATOM     68  C   UNL A   1      42.834  35.483  30.939  1.00  0.00     0.031 C 
ATOM     69  C   UNL A   1      45.109  35.826  30.011  1.00  0.00     0.031 A 
BRANCH  56  70
ATOM     70  C   UNL A   1      49.668  33.019  26.895  1.00  0.00    -0.014 A 
ATOM     71  C   UNL A   1      50.699  32.242  27.455  1.00  0.00     0.010 A 
ATOM     72  C   UNL A   1      49.966  33.876  25.820  1.00  0.00     0.010 A 
ATOM     73  C   UNL A   1      52.011  32.366  26.990  1.00  0.00     0.020 A 
ATOM     74  C   UNL A   1      51.269  33.976  25.328  1.00  0.00     0.020 A 
ATOM     75  C   UNL A   1      52.288  33.238  25.933  1.00  0.00     0.054 A 
BRANCH  75  76
ATOM     76  S   UNL A   1      54.000  33.387  25.354  1.00  0.00     0.124 S 
ATOM     77  O   UNL A   1      54.696  32.447  26.229  1.00  0.00    -0.237 OA
ATOM     78  O   UNL A   1      53.900  32.985  23.953  1.00  0.00    -0.237 OA
ATOM     79  O   UNL A   1      54.319  34.796  25.574  1.00  0.00    -0.744 OA
ENDBRANCH  75  76
ENDBRANCH  56  70
BRANCH  57  80
ATOM     80  C   UNL A   1      40.428  32.005  30.642  1.00  0.00    -0.014 A 
ATOM     81  C   UNL A   1      40.287  31.515  31.952  1.00  0.00     0.010 A 
ATOM     82  C   UNL A   1      39.274  32.375  29.925  1.00  0.00     0.010 A 
ATOM     83  C   UNL A   1      39.021  31.406  32.536  1.00  0.00     0.020 A 
ATOM     84  C   UNL A   1      38.009  32.294  30.515  1.00  0.00     0.020 A 
ATOM     85  C   UNL A   1      37.891  31.808  31.818  1.00  0.00     0.054 A 
BRANCH  85  86
ATOM     86  S   UNL A   1      36.272  31.748  32.635  1.00  0.00     0.124 S 
ATOM     87  O   UNL A   1      35.499  32.708  31.854  1.00  0.00    -0.237 OA
ATOM     88  O   UNL A   1      35.892  30.346  32.473  1.00  0.00    -0.237 OA
ATOM     89  O   UNL A   1      36.566  32.149  34.009  1.00  0.00    -0.744 OA
ENDBRANCH  85  86
ENDBRANCH  57  80
BRANCH  69  90
ATOM     90  C   UNL A   1      45.075  37.247  30.511  1.00  0.00    -0.014 A 
ATOM     91  C   UNL A   1      44.521  38.287  29.746  1.00  0.00     0.010 A 
ATOM     92  C   UNL A   1      45.512  37.517  31.822  1.00  0.00     0.010 A 
ATOM     93  C   UNL A   1      44.419  39.576  30.280  1.00  0.00     0.020 A 
ATOM     94  C   UNL A   1      45.384  38.795  32.369  1.00  0.00     0.020 A 
ATOM     95  C   UNL A   1      44.845  39.819  31.590  1.00  0.00     0.054 A 
BRANCH  95  96
ATOM     96  S   UNL A   1      44.630  41.481  32.285  1.00  0.00     0.124 S 
ATOM     97  O   UNL A   1      43.609  42.048  31.409  1.00  0.00    -0.237 OA
ATOM     98  O   UNL A   1      44.200  41.202  33.653  1.00  0.00    -0.237 OA
ATOM     99  O   UNL A   1      45.957  42.082  32.166  1.00  0.00    -0.744 OA
ENDBRANCH  95  96
ENDBRANCH  69  90
ENDBRANCH  43  44
ENDBRANCH  36  38
ENDBRANCH  35  36
ENDBRANCH  34  35
ENDBRANCH  33  34
ENDBRANCH  32  33
ENDBRANCH  31  32
ENDBRANCH   1  31
TORSDOF 26
ENDMDL
MODEL 3
REMARK VINA RESULT:      -6.8      7.213     11.177
REMARK SMILES O=C(OCCOCCOCCOCCOC(=O)c1ccc(-c2c3nc(c(-c4ccc(S(=O)(=O)[O-])cc4)c4ccc([nH]4)c(-c4ccc(S(=O)(=O)[O-])cc4)c4nc(c(-c5ccc(S(=O)(=O)[O-])cc5)c5ccc2[nH]5)C=C4)C=C3)cc1)C1=NN(c2ccc([N+](=O)[O-])cc2)[C@H](c2ccccc2)C1
REMARK SMILES IDX 10 1 9 2 8 3 7 4 6 5 5 6 4 7 3 8 2 9 1 10 78 11 79 12 97 13
REMARK SMILES IDX 80 14 90 15 81 16 82 17 89 18 83 19 88 20 84 21 85 22 86 23
REMARK SMILES IDX 87 24 91 25 92 26 96 27 93 28 95 29 94 30 11 31 12 32 13 33
REMARK SMILES IDX 14 34 15 35 16 36 17 37 18 38 19 39 77 40 20 41 76 42 21 43
REMARK SMILES IDX 22 44 23 45 70 46 24 47 75 48 69 49 71 50 25 51 74 52 68 53
REMARK SMILES IDX 67 54 26 56 56 57 37 58 55 59 38 60 41 61 54 62 72 63 39 64
REMARK SMILES IDX 40 65 53 67 73 68 42 69 27 70 28 71 36 72 29 73 35 74 30 75
REMARK SMILES IDX 31 76 32 77 33 78 34 79 57 80 58 81 66 82 59 83 65 84 60 85
REMARK SMILES IDX 61 86 62 87 63 88 64 89 43 90 44 91 52 92 45 93 51 94 46 95
REMARK SMILES IDX 47 96 48 97 49 98 50 99
REMARK H PARENT 71 55 41 66
REMARK Flexibility Score: inf
ROOT
ATOM      1  C   UNL A   1      38.457  23.773  26.566  1.00  0.00     0.188 C 
ENDROOT
BRANCH   1   2
ATOM      2  O   UNL A   1      37.609  22.751  26.080  1.00  0.00    -0.377 OA
BRANCH   2   3
ATOM      3  C   UNL A   1      36.306  23.119  25.658  1.00  0.00     0.188 C 
BRANCH   3   4
ATOM      4  C   UNL A   1      36.056  23.710  24.264  1.00  0.00     0.188 C 
BRANCH   4   5
ATOM      5  O   UNL A   1      34.732  23.712  23.777  1.00  0.00    -0.376 OA
BRANCH   5   6
ATOM      6  C   UNL A   1      34.255  22.748  22.844  1.00  0.00     0.202 C 
BRANCH   6   7
ATOM      7  C   UNL A   1      32.930  22.911  22.090  1.00  0.00     0.261 C 
BRANCH   7   8
ATOM      8  O   UNL A   1      32.062  24.026  22.351  1.00  0.00    -0.459 OA
BRANCH   8   9
ATOM      9  C   UNL A   1      31.191  24.162  23.347  1.00  0.00     0.354 C 
ATOM     10  O   UNL A   1      30.722  23.199  23.943  1.00  0.00    -0.245 OA
BRANCH   9  11
ATOM     11  C   UNL A   1      30.640  25.516  23.705  1.00  0.00     0.148 C 
ATOM     12  N   UNL A   1      30.644  26.560  22.939  1.00  0.00    -0.169 NA
ATOM     13  C   UNL A   1      29.987  25.715  25.050  1.00  0.00     0.098 C 
ATOM     14  N   UNL A   1      29.996  27.511  23.650  1.00  0.00    -0.257 N 
ATOM     15  C   UNL A   1      30.087  27.246  25.085  1.00  0.00     0.144 C 
BRANCH  14  16
ATOM     16  C   UNL A   1      29.507  28.646  23.037  1.00  0.00     0.061 A 
ATOM     17  C   UNL A   1      30.327  29.432  22.214  1.00  0.00     0.035 A 
ATOM     18  C   UNL A   1      28.181  29.051  23.233  1.00  0.00     0.035 A 
ATOM     19  C   UNL A   1      29.820  30.554  21.544  1.00  0.00     0.088 A 
ATOM     20  C   UNL A   1      27.650  30.150  22.554  1.00  0.00     0.088 A 
ATOM     21  C   UNL A   1      28.470  30.888  21.695  1.00  0.00     0.269 A 
BRANCH  21  22
ATOM     22  N   UNL A   1      27.899  32.001  20.928  1.00  0.00     0.062 N 
ATOM     23  O   UNL A   1      27.479  31.765  19.786  1.00  0.00    -0.258 OA
ATOM     24  O   UNL A   1      27.835  33.110  21.483  1.00  0.00    -0.258 OA
ENDBRANCH  21  22
ENDBRANCH  14  16
BRANCH  15  25
ATOM     25  C   UNL A   1      31.444  27.790  25.556  1.00  0.00    -0.023 A 
ATOM     26  C   UNL A   1      32.533  27.986  24.681  1.00  0.00     0.006 A 
ATOM     27  C   UNL A   1      31.533  28.329  26.849  1.00  0.00     0.006 A 
ATOM     28  C   UNL A   1      33.619  28.776  25.052  1.00  0.00     0.000 A 
ATOM     29  C   UNL A   1      32.621  29.121  27.217  1.00  0.00     0.000 A 
ATOM     30  C   UNL A   1      33.652  29.361  26.312  1.00  0.00     0.000 A 
ENDBRANCH  15  25
ENDBRANCH   9  11
ENDBRANCH   8   9
ENDBRANCH   7   8
ENDBRANCH   6   7
ENDBRANCH   5   6
ENDBRANCH   4   5
ENDBRANCH   3   4
ENDBRANCH   2   3
ENDBRANCH   1   2
BRANCH   1  31
ATOM     31  C   UNL A   1      39.798  23.371  27.232  1.00  0.00     0.188 C 
BRANCH  31  32
ATOM     32  O   UNL A   1      40.852  24.302  27.116  1.00  0.00    -0.376 OA
BRANCH  32  33
ATOM     33  C   UNL A   1      41.287  25.069  28.221  1.00  0.00     0.202 C 
BRANCH  33  34
ATOM     34  C   UNL A   1      40.642  26.372  28.736  1.00  0.00     0.261 C 
BRANCH  34  35
ATOM     35  O   UNL A   1      40.102  27.290  27.791  1.00  0.00    -0.460 OA
BRANCH  35  36
ATOM     36  C   UNL A   1      40.096  28.598  28.129  1.00  0.00     0.338 C 
ATOM     37  O   UNL A   1      39.186  29.221  28.651  1.00  0.00    -0.246 OA
BRANCH  36  38
ATOM     38  C   UNL A   1      41.487  29.077  27.984  1.00  0.00     0.060 A 
ATOM     39  C   UNL A   1      42.219  29.408  29.137  1.00  0.00     0.016 A 
ATOM     40  C   UNL A   1      42.092  29.105  26.726  1.00  0.00     0.016 A 
ATOM     41  C   UNL A   1      43.556  29.784  29.032  1.00  0.00     0.010 A 
ATOM     42  C   UNL A   1      43.416  29.524  26.617  1.00  0.00     0.010 A 
ATOM     43  C   UNL A   1      44.139  29.897  27.764  1.00  0.00    -0.014 A 
BRANCH  43  44
ATOM     44  C   UNL A   1      45.372  30.694  27.585  1.00  0.00     0.031 A 
ATOM     45  C   UNL A   1      45.202  32.183  27.483  1.00  0.00     0.074 A 
ATOM     46  C   UNL A   1      46.581  30.127  27.455  1.00  0.00     0.049 A 
ATOM     47  N   UNL A   1      46.071  33.098  27.151  1.00  0.00    -0.248 NA
ATOM     48  C   UNL A   1      43.855  32.704  27.779  1.00  0.00     0.031 C 
ATOM     49  C   UNL A   1      46.871  28.701  27.593  1.00  0.00     0.029 A 
ATOM     50  N   UNL A   1      47.792  30.693  27.147  1.00  0.00    -0.354 N 
ATOM     51  C   UNL A   1      45.369  34.298  27.167  1.00  0.00     0.074 A 
ATOM     52  C   UNL A   1      44.002  33.993  27.524  1.00  0.00     0.031 C 
ATOM     53  C   UNL A   1      48.177  28.500  27.337  1.00  0.00     0.029 A 
ATOM     54  C   UNL A   1      48.797  29.774  26.971  1.00  0.00     0.049 A 
ATOM     55  H   UNL A   1      47.926  31.665  27.059  1.00  0.00     0.167 HD
ATOM     56  C   UNL A   1      45.821  35.543  26.896  1.00  0.00     0.031 A 
ATOM     57  C   UNL A   1      50.059  29.940  26.524  1.00  0.00     0.031 A 
ATOM     58  C   UNL A   1      47.174  35.826  26.507  1.00  0.00     0.049 A 
ATOM     59  C   UNL A   1      50.530  31.325  26.154  1.00  0.00     0.074 A 
ATOM     60  C   UNL A   1      47.746  37.049  26.215  1.00  0.00     0.029 A 
ATOM     61  N   UNL A   1      48.162  34.866  26.336  1.00  0.00    -0.354 N 
ATOM     62  N   UNL A   1      49.866  32.458  26.185  1.00  0.00    -0.248 NA
ATOM     63  C   UNL A   1      51.919  31.457  25.694  1.00  0.00     0.031 C 
ATOM     64  C   UNL A   1      49.063  36.823  25.806  1.00  0.00     0.029 A 
ATOM     65  C   UNL A   1      49.335  35.467  25.919  1.00  0.00     0.049 A 
ATOM     66  H   UNL A   1      48.044  33.901  26.490  1.00  0.00     0.167 HD
ATOM     67  C   UNL A   1      50.767  33.441  25.786  1.00  0.00     0.074 A 
ATOM     68  C   UNL A   1      52.022  32.768  25.517  1.00  0.00     0.031 C 
ATOM     69  C   UNL A   1      50.578  34.779  25.666  1.00  0.00     0.031 A 
BRANCH  56  70
ATOM     70  C   UNL A   1      44.818  36.664  26.947  1.00  0.00    -0.014 A 
ATOM     71  C   UNL A   1      43.439  36.429  26.787  1.00  0.00     0.010 A 
ATOM     72  C   UNL A   1      45.267  37.984  27.135  1.00  0.00     0.010 A 
ATOM     73  C   UNL A   1      42.539  37.496  26.754  1.00  0.00     0.020 A 
ATOM     74  C   UNL A   1      44.366  39.051  27.139  1.00  0.00     0.020 A 
ATOM     75  C   UNL A   1      43.010  38.802  26.925  1.00  0.00     0.054 A 
BRANCH  75  76
ATOM     76  S   UNL A   1      41.821  40.170  26.869  1.00  0.00     0.124 S 
ATOM     77  O   UNL A   1      42.633  41.252  26.319  1.00  0.00    -0.237 OA
ATOM     78  O   UNL A   1      40.781  39.653  25.982  1.00  0.00    -0.237 OA
ATOM     79  O   UNL A   1      41.420  40.339  28.263  1.00  0.00    -0.744 OA
ENDBRANCH  75  76
ENDBRANCH  56  70
BRANCH  57  80
ATOM     80  C   UNL A   1      50.952  28.758  26.386  1.00  0.00    -0.014 A 
ATOM     81  C   UNL A   1      51.031  28.058  25.169  1.00  0.00     0.010 A 
ATOM     82  C   UNL A   1      51.767  28.352  27.460  1.00  0.00     0.010 A 
ATOM     83  C   UNL A   1      51.911  26.981  25.028  1.00  0.00     0.020 A 
ATOM     84  C   UNL A   1      52.668  27.294  27.314  1.00  0.00     0.020 A 
ATOM     85  C   UNL A   1      52.734  26.614  26.097  1.00  0.00     0.054 A 
BRANCH  85  86
ATOM     86  S   UNL A   1      53.937  25.277  25.853  1.00  0.00     0.124 S 
ATOM     87  O   UNL A   1      53.080  24.096  25.822  1.00  0.00    -0.237 OA
ATOM     88  O   UNL A   1      54.558  25.644  24.583  1.00  0.00    -0.237 OA
ATOM     89  O   UNL A   1      54.811  25.386  27.019  1.00  0.00    -0.744 OA
ENDBRANCH  85  86
ENDBRANCH  57  80
BRANCH  69  90
ATOM     90  C   UNL A   1      51.762  35.631  25.287  1.00  0.00    -0.014 A 
ATOM     91  C   UNL A   1      51.942  36.108  23.978  1.00  0.00     0.010 A 
ATOM     92  C   UNL A   1      52.651  36.047  26.297  1.00  0.00     0.010 A 
ATOM     93  C   UNL A   1      53.000  36.974  23.684  1.00  0.00     0.020 A 
ATOM     94  C   UNL A   1      53.689  36.936  26.014  1.00  0.00     0.020 A 
ATOM     95  C   UNL A   1      53.861  37.388  24.705  1.00  0.00     0.054 A 
BRANCH  95  96
ATOM     96  S   UNL A   1      55.177  38.573  24.312  1.00  0.00     0.124 S 
ATOM     97  O   UNL A   1      56.009  38.514  25.511  1.00  0.00    -0.237 OA
ATOM     98  O   UNL A   1      55.772  38.002  23.106  1.00  0.00    -0.237 OA
ATOM     99  O   UNL A   1      54.464  39.832  24.110  1.00  0.00    -0.744 OA
ENDBRANCH  95  96
ENDBRANCH  69  90
ENDBRANCH  43  44
ENDBRANCH  36  38
ENDBRANCH  35  36
ENDBRANCH  34  35
ENDBRANCH  33  34
ENDBRANCH  32  33
ENDBRANCH  31  32
ENDBRANCH   1  31
TORSDOF 26
ENDMDL
