MODEL 1
REMARK VINA RESULT:      -9.2      0.000      0.000
REMARK SMILES O=C(OCCOCCOCCOCCOC(=O)c1cccc(-c2cc(NCc3ccccn3)nc3[nH]ccc23)c1)c1ccc(-c2c3nc(c(-c4ccc(S(=O)(=O)[O-])cc4)c4ccc([nH]4)c(-c4ccc(S(=O)(=O)[O-])cc4)c4nc(c(-c5ccc(S(=O)(=O)[O-])cc5)c5ccc2[nH]5)C=C4)C=C3)cc1
REMARK SMILES IDX 10 1 9 2 8 3 7 4 6 5 5 6 4 7 3 8 2 9 1 10 41 11 42 12 100 13
REMARK SMILES IDX 43 14 99 15 44 16 45 17 46 18 93 19 47 20 98 21 92 22 94 23
REMARK SMILES IDX 48 24 97 25 91 26 90 27 49 29 79 30 60 31 78 32 61 33 64 34
REMARK SMILES IDX 77 35 95 36 62 37 63 38 76 40 96 41 65 42 50 43 51 44 59 45
REMARK SMILES IDX 52 46 58 47 53 48 54 49 55 50 56 51 57 52 80 53 81 54 89 55
REMARK SMILES IDX 82 56 88 57 83 58 84 59 85 60 86 61 87 62 66 63 67 64 75 65
REMARK SMILES IDX 68 66 74 67 69 68 70 69 71 70 72 71 73 72 11 73 12 74 13 75
REMARK SMILES IDX 14 76 15 77 16 78 17 79 18 80 19 81 40 82 20 83 22 84 21 85
REMARK SMILES IDX 23 86 24 87 39 88 25 89 35 90 38 91 34 92 36 93 37 94 26 96
REMARK SMILES IDX 27 98 28 99 29 100 33 101 30 102 32 103 31 104
REMARK H PARENT 94 28 64 39 36 95 26 97
REMARK Flexibility Score: inf
ROOT
ATOM      1  C   UNL A   1      34.084  33.095  27.852  1.00  0.00     0.188 C 
ENDROOT
BRANCH   1   2
ATOM      2  O   UNL A   1      34.982  33.837  28.671  1.00  0.00    -0.377 OA
BRANCH   2   3
ATOM      3  C   UNL A   1      34.744  33.800  30.075  1.00  0.00     0.188 C 
BRANCH   3   4
ATOM      4  C   UNL A   1      33.983  35.002  30.630  1.00  0.00     0.188 C 
BRANCH   4   5
ATOM      5  O   UNL A   1      34.350  35.266  31.986  1.00  0.00    -0.376 OA
BRANCH   5   6
ATOM      6  C   UNL A   1      34.090  34.209  32.910  1.00  0.00     0.202 C 
BRANCH   6   7
ATOM      7  C   UNL A   1      35.139  34.074  34.014  1.00  0.00     0.261 C 
BRANCH   7   8
ATOM      8  O   UNL A   1      35.754  32.779  34.018  1.00  0.00    -0.460 OA
BRANCH   8   9
ATOM      9  C   UNL A   1      37.008  32.455  34.426  1.00  0.00     0.338 C 
ATOM     10  O   UNL A   1      37.197  32.307  35.634  1.00  0.00    -0.246 OA
BRANCH   9  11
ATOM     11  C   UNL A   1      38.175  32.244  33.507  1.00  0.00     0.060 A 
ATOM     12  C   UNL A   1      39.393  31.648  33.845  1.00  0.00     0.016 A 
ATOM     13  C   UNL A   1      38.007  32.663  32.174  1.00  0.00     0.016 A 
ATOM     14  C   UNL A   1      40.446  31.574  32.945  1.00  0.00     0.010 A 
ATOM     15  C   UNL A   1      39.053  32.576  31.250  1.00  0.00     0.010 A 
ATOM     16  C   UNL A   1      40.295  32.084  31.661  1.00  0.00    -0.014 A 
BRANCH  16  17
ATOM     17  C   UNL A   1      41.527  32.336  30.894  1.00  0.00     0.031 A 
ATOM     18  C   UNL A   1      42.257  33.618  31.180  1.00  0.00     0.074 A 
ATOM     19  C   UNL A   1      42.059  31.371  30.126  1.00  0.00     0.049 A 
ATOM     20  N   UNL A   1      43.363  34.077  30.664  1.00  0.00    -0.248 NA
ATOM     21  C   UNL A   1      41.666  34.495  32.210  1.00  0.00     0.031 C 
ATOM     22  C   UNL A   1      41.493  30.033  29.938  1.00  0.00     0.029 A 
ATOM     23  N   UNL A   1      43.219  31.349  29.401  1.00  0.00    -0.354 N 
ATOM     24  C   UNL A   1      43.575  35.309  31.274  1.00  0.00     0.074 A 
ATOM     25  C   UNL A   1      42.490  35.529  32.199  1.00  0.00     0.031 C 
ATOM     26  C   UNL A   1      42.326  29.310  29.170  1.00  0.00     0.029 A 
ATOM     27  C   UNL A   1      43.446  30.152  28.764  1.00  0.00     0.049 A 
ATOM     28  H   UNL A   1      43.832  32.117  29.342  1.00  0.00     0.167 HD
ATOM     29  C   UNL A   1      44.582  36.186  31.060  1.00  0.00     0.031 A 
ATOM     30  C   UNL A   1      44.441  29.800  27.928  1.00  0.00     0.031 A 
ATOM     31  C   UNL A   1      45.639  35.938  30.122  1.00  0.00     0.049 A 
ATOM     32  C   UNL A   1      45.497  30.831  27.626  1.00  0.00     0.074 A 
ATOM     33  C   UNL A   1      46.679  36.766  29.747  1.00  0.00     0.029 A 
ATOM     34  N   UNL A   1      45.783  34.754  29.409  1.00  0.00    -0.354 N 
ATOM     35  N   UNL A   1      45.639  32.036  28.132  1.00  0.00    -0.248 NA
ATOM     36  C   UNL A   1      46.517  30.465  26.638  1.00  0.00     0.031 C 
ATOM     37  C   UNL A   1      47.424  36.100  28.767  1.00  0.00     0.029 A 
ATOM     38  C   UNL A   1      46.886  34.833  28.581  1.00  0.00     0.049 A 
ATOM     39  H   UNL A   1      45.188  33.975  29.483  1.00  0.00     0.167 HD
ATOM     40  C   UNL A   1      46.781  32.565  27.541  1.00  0.00     0.074 A 
ATOM     41  C   UNL A   1      47.294  31.541  26.650  1.00  0.00     0.031 C 
ATOM     42  C   UNL A   1      47.357  33.780  27.715  1.00  0.00     0.031 A 
BRANCH  29  43
ATOM     43  C   UNL A   1      44.496  37.509  31.773  1.00  0.00    -0.014 A 
ATOM     44  C   UNL A   1      43.953  38.653  31.160  1.00  0.00     0.010 A 
ATOM     45  C   UNL A   1      45.040  37.622  33.065  1.00  0.00     0.010 A 
ATOM     46  C   UNL A   1      44.011  39.895  31.802  1.00  0.00     0.020 A 
ATOM     47  C   UNL A   1      45.074  38.855  33.722  1.00  0.00     0.020 A 
ATOM     48  C   UNL A   1      44.583  39.990  33.075  1.00  0.00     0.054 A 
BRANCH  48  49
ATOM     49  S   UNL A   1      44.679  41.615  33.875  1.00  0.00     0.124 S 
ATOM     50  O   UNL A   1      43.590  41.537  34.846  1.00  0.00    -0.237 OA
ATOM     51  O   UNL A   1      46.025  41.616  34.440  1.00  0.00    -0.237 OA
ATOM     52  O   UNL A   1      44.467  42.555  32.776  1.00  0.00    -0.744 OA
ENDBRANCH  48  49
ENDBRANCH  29  43
BRANCH  30  53
ATOM     53  C   UNL A   1      44.457  28.449  27.299  1.00  0.00    -0.014 A 
ATOM     54  C   UNL A   1      43.683  28.168  26.160  1.00  0.00     0.010 A 
ATOM     55  C   UNL A   1      45.264  27.428  27.836  1.00  0.00     0.010 A 
ATOM     56  C   UNL A   1      43.706  26.894  25.579  1.00  0.00     0.020 A 
ATOM     57  C   UNL A   1      45.314  26.162  27.244  1.00  0.00     0.020 A 
ATOM     58  C   UNL A   1      44.525  25.899  26.124  1.00  0.00     0.054 A 
BRANCH  58  59
ATOM     59  S   UNL A   1      44.576  24.267  25.331  1.00  0.00     0.124 S 
ATOM     60  O   UNL A   1      43.245  24.175  24.738  1.00  0.00    -0.237 OA
ATOM     61  O   UNL A   1      45.681  24.409  24.386  1.00  0.00    -0.237 OA
ATOM     62  O   UNL A   1      44.830  23.353  26.442  1.00  0.00    -0.744 OA
ENDBRANCH  58  59
ENDBRANCH  30  53
BRANCH  42  63
ATOM     63  C   UNL A   1      48.633  34.039  26.966  1.00  0.00    -0.014 A 
ATOM     64  C   UNL A   1      48.629  34.674  25.712  1.00  0.00     0.010 A 
ATOM     65  C   UNL A   1      49.859  33.696  27.567  1.00  0.00     0.010 A 
ATOM     66  C   UNL A   1      49.834  34.929  25.055  1.00  0.00     0.020 A 
ATOM     67  C   UNL A   1      51.064  33.977  26.925  1.00  0.00     0.020 A 
ATOM     68  C   UNL A   1      51.043  34.579  25.665  1.00  0.00     0.054 A 
BRANCH  68  69
ATOM     69  S   UNL A   1      52.596  34.960  24.812  1.00  0.00     0.124 S 
ATOM     70  O   UNL A   1      53.591  34.564  25.804  1.00  0.00    -0.237 OA
ATOM     71  O   UNL A   1      52.523  34.117  23.621  1.00  0.00    -0.237 OA
ATOM     72  O   UNL A   1      52.505  36.395  24.557  1.00  0.00    -0.744 OA
ENDBRANCH  68  69
ENDBRANCH  42  63
ENDBRANCH  16  17
ENDBRANCH   9  11
ENDBRANCH   8   9
ENDBRANCH   7   8
ENDBRANCH   6   7
ENDBRANCH   5   6
ENDBRANCH   4   5
ENDBRANCH   3   4
ENDBRANCH   2   3
ENDBRANCH   1   2
BRANCH   1  73
ATOM     73  C   UNL A   1      33.893  31.585  28.126  1.00  0.00     0.188 C 
BRANCH  73  74
ATOM     74  O   UNL A   1      34.066  30.752  26.991  1.00  0.00    -0.376 OA
BRANCH  74  75
ATOM     75  C   UNL A   1      32.885  30.462  26.250  1.00  0.00     0.202 C 
BRANCH  75  76
ATOM     76  C   UNL A   1      32.856  29.072  25.602  1.00  0.00     0.261 C 
BRANCH  76  77
ATOM     77  O   UNL A   1      32.997  27.966  26.514  1.00  0.00    -0.460 OA
BRANCH  77  78
ATOM     78  C   UNL A   1      32.152  26.919  26.398  1.00  0.00     0.338 C 
ATOM     79  O   UNL A   1      31.078  26.765  26.952  1.00  0.00    -0.246 OA
BRANCH  78  80
ATOM     80  C   UNL A   1      32.668  26.075  25.296  1.00  0.00     0.060 A 
ATOM     81  C   UNL A   1      32.147  26.202  24.004  1.00  0.00     0.016 A 
ATOM     82  C   UNL A   1      33.740  25.219  25.527  1.00  0.00     0.024 A 
ATOM     83  C   UNL A   1      32.750  25.517  22.945  1.00  0.00     0.002 A 
ATOM     84  C   UNL A   1      34.267  24.421  24.493  1.00  0.00    -0.017 A 
ATOM     85  C   UNL A   1      33.802  24.624  23.188  1.00  0.00     0.009 A 
BRANCH  84  86
ATOM     86  C   UNL A   1      35.065  23.259  24.876  1.00  0.00    -0.004 A 
ATOM     87  C   UNL A   1      36.343  23.502  25.408  1.00  0.00     0.056 A 
ATOM     88  C   UNL A   1      34.679  21.913  24.775  1.00  0.00     0.027 A 
ATOM     89  C   UNL A   1      37.218  22.478  25.734  1.00  0.00     0.129 A 
ATOM     90  C   UNL A   1      35.628  20.969  25.170  1.00  0.00     0.140 A 
ATOM     91  C   UNL A   1      33.534  21.178  24.349  1.00  0.00     0.030 A 
ATOM     92  N   UNL A   1      36.876  21.181  25.635  1.00  0.00    -0.213 NA
ATOM     93  N   UNL A   1      35.079  19.725  25.010  1.00  0.00    -0.346 N 
ATOM     94  C   UNL A   1      33.804  19.835  24.517  1.00  0.00     0.085 A 
ATOM     95  H   UNL A   1      35.532  18.877  25.220  1.00  0.00     0.167 HD
BRANCH  89  96
ATOM     96  N   UNL A   1      38.443  22.875  26.250  1.00  0.00    -0.364 N 
ATOM     97  H   UNL A   1      39.132  22.195  26.426  1.00  0.00     0.162 HD
BRANCH  96  98
ATOM     98  C   UNL A   1      38.729  24.262  26.534  1.00  0.00     0.170 C 
BRANCH  98  99
ATOM     99  C   UNL A   1      40.022  24.353  27.329  1.00  0.00     0.059 A 
ATOM    100  C   UNL A   1      40.481  25.585  27.786  1.00  0.00     0.026 A 
ATOM    101  N   UNL A   1      40.709  23.194  27.545  1.00  0.00    -0.259 NA
ATOM    102  C   UNL A   1      41.683  25.636  28.485  1.00  0.00     0.004 A 
ATOM    103  C   UNL A   1      41.869  23.275  28.233  1.00  0.00     0.111 A 
ATOM    104  C   UNL A   1      42.393  24.462  28.713  1.00  0.00     0.020 A 
ENDBRANCH  98  99
ENDBRANCH  96  98
ENDBRANCH  89  96
ENDBRANCH  84  86
ENDBRANCH  78  80
ENDBRANCH  77  78
ENDBRANCH  76  77
ENDBRANCH  75  76
ENDBRANCH  74  75
ENDBRANCH  73  74
ENDBRANCH   1  73
TORSDOF 27
ENDMDL
MODEL 2
REMARK VINA RESULT:      -8.1      5.048     10.268
REMARK SMILES O=C(OCCOCCOCCOCCOC(=O)c1cccc(-c2cc(NCc3ccccn3)nc3[nH]ccc23)c1)c1ccc(-c2c3nc(c(-c4ccc(S(=O)(=O)[O-])cc4)c4ccc([nH]4)c(-c4ccc(S(=O)(=O)[O-])cc4)c4nc(c(-c5ccc(S(=O)(=O)[O-])cc5)c5ccc2[nH]5)C=C4)C=C3)cc1
REMARK SMILES IDX 10 1 9 2 8 3 7 4 6 5 5 6 4 7 3 8 2 9 1 10 41 11 42 12 100 13
REMARK SMILES IDX 43 14 99 15 44 16 45 17 46 18 93 19 47 20 98 21 92 22 94 23
REMARK SMILES IDX 48 24 97 25 91 26 90 27 49 29 79 30 60 31 78 32 61 33 64 34
REMARK SMILES IDX 77 35 95 36 62 37 63 38 76 40 96 41 65 42 50 43 51 44 59 45
REMARK SMILES IDX 52 46 58 47 53 48 54 49 55 50 56 51 57 52 80 53 81 54 89 55
REMARK SMILES IDX 82 56 88 57 83 58 84 59 85 60 86 61 87 62 66 63 67 64 75 65
REMARK SMILES IDX 68 66 74 67 69 68 70 69 71 70 72 71 73 72 11 73 12 74 13 75
REMARK SMILES IDX 14 76 15 77 16 78 17 79 18 80 19 81 40 82 20 83 22 84 21 85
REMARK SMILES IDX 23 86 24 87 39 88 25 89 35 90 38 91 34 92 36 93 37 94 26 96
REMARK SMILES IDX 27 98 28 99 29 100 33 101 30 102 32 103 31 104
REMARK H PARENT 94 28 64 39 36 95 26 97
REMARK Flexibility Score: inf
ROOT
ATOM      1  C   UNL A   1      41.482  29.396  29.173  1.00  0.00     0.188 C 
ENDROOT
BRANCH   1   2
ATOM      2  O   UNL A   1      40.386  30.300  29.276  1.00  0.00    -0.377 OA
BRANCH   2   3
ATOM      3  C   UNL A   1      39.100  29.722  29.483  1.00  0.00     0.188 C 
BRANCH   3   4
ATOM      4  C   UNL A   1      37.926  30.596  29.046  1.00  0.00     0.188 C 
BRANCH   4   5
ATOM      5  O   UNL A   1      37.134  29.940  28.053  1.00  0.00    -0.376 OA
BRANCH   5   6
ATOM      6  C   UNL A   1      35.722  29.993  28.260  1.00  0.00     0.202 C 
BRANCH   6   7
ATOM      7  C   UNL A   1      35.064  31.273  27.745  1.00  0.00     0.261 C 
BRANCH   7   8
ATOM      8  O   UNL A   1      34.091  31.786  28.665  1.00  0.00    -0.460 OA
BRANCH   8   9
ATOM      9  C   UNL A   1      34.179  32.903  29.432  1.00  0.00     0.338 C 
ATOM     10  O   UNL A   1      33.390  33.820  29.199  1.00  0.00    -0.246 OA
BRANCH   9  11
ATOM     11  C   UNL A   1      35.155  33.091  30.555  1.00  0.00     0.060 A 
ATOM     12  C   UNL A   1      35.743  34.298  30.942  1.00  0.00     0.016 A 
ATOM     13  C   UNL A   1      35.480  31.944  31.301  1.00  0.00     0.016 A 
ATOM     14  C   UNL A   1      36.702  34.357  31.943  1.00  0.00     0.010 A 
ATOM     15  C   UNL A   1      36.430  31.992  32.327  1.00  0.00     0.010 A 
ATOM     16  C   UNL A   1      37.084  33.196  32.603  1.00  0.00    -0.014 A 
BRANCH  16  17
ATOM     17  C   UNL A   1      38.349  33.242  33.355  1.00  0.00     0.031 A 
ATOM     18  C   UNL A   1      39.613  33.385  32.555  1.00  0.00     0.074 A 
ATOM     19  C   UNL A   1      38.341  33.346  34.695  1.00  0.00     0.049 A 
ATOM     20  N   UNL A   1      40.849  33.465  32.962  1.00  0.00    -0.248 NA
ATOM     21  C   UNL A   1      39.457  33.472  31.090  1.00  0.00     0.031 C 
ATOM     22  C   UNL A   1      37.138  33.388  35.531  1.00  0.00     0.029 A 
ATOM     23  N   UNL A   1      39.371  33.484  35.584  1.00  0.00    -0.354 N 
ATOM     24  C   UNL A   1      41.616  33.568  31.805  1.00  0.00     0.074 A 
ATOM     25  C   UNL A   1      40.712  33.545  30.681  1.00  0.00     0.031 C 
ATOM     26  C   UNL A   1      37.502  33.573  36.811  1.00  0.00     0.029 A 
ATOM     27  C   UNL A   1      38.959  33.597  36.889  1.00  0.00     0.049 A 
ATOM     28  H   UNL A   1      40.318  33.502  35.313  1.00  0.00     0.167 HD
ATOM     29  C   UNL A   1      42.961  33.657  31.698  1.00  0.00     0.031 A 
ATOM     30  C   UNL A   1      39.692  33.685  38.016  1.00  0.00     0.031 A 
ATOM     31  C   UNL A   1      43.830  33.666  32.840  1.00  0.00     0.049 A 
ATOM     32  C   UNL A   1      41.192  33.678  37.877  1.00  0.00     0.074 A 
ATOM     33  C   UNL A   1      45.211  33.673  32.880  1.00  0.00     0.029 A 
ATOM     34  N   UNL A   1      43.384  33.671  34.156  1.00  0.00    -0.354 N 
ATOM     35  N   UNL A   1      41.915  33.676  36.780  1.00  0.00    -0.248 NA
ATOM     36  C   UNL A   1      41.972  33.674  39.118  1.00  0.00     0.031 C 
ATOM     37  C   UNL A   1      45.599  33.630  34.224  1.00  0.00     0.029 A 
ATOM     38  C   UNL A   1      44.461  33.664  35.020  1.00  0.00     0.049 A 
ATOM     39  H   UNL A   1      42.440  33.678  34.432  1.00  0.00     0.167 HD
ATOM     40  C   UNL A   1      43.240  33.696  37.198  1.00  0.00     0.074 A 
ATOM     41  C   UNL A   1      43.213  33.721  38.649  1.00  0.00     0.031 C 
ATOM     42  C   UNL A   1      44.378  33.694  36.460  1.00  0.00     0.031 A 
BRANCH  29  43
ATOM     43  C   UNL A   1      43.537  33.632  30.307  1.00  0.00    -0.014 A 
ATOM     44  C   UNL A   1      43.779  34.811  29.579  1.00  0.00     0.010 A 
ATOM     45  C   UNL A   1      43.773  32.390  29.691  1.00  0.00     0.010 A 
ATOM     46  C   UNL A   1      44.188  34.747  28.242  1.00  0.00     0.020 A 
ATOM     47  C   UNL A   1      44.209  32.321  28.365  1.00  0.00     0.020 A 
ATOM     48  C   UNL A   1      44.389  33.500  27.641  1.00  0.00     0.054 A 
BRANCH  48  49
ATOM     49  S   UNL A   1      44.886  33.438  25.897  1.00  0.00     0.124 S 
ATOM     50  O   UNL A   1      44.103  34.529  25.322  1.00  0.00    -0.237 OA
ATOM     51  O   UNL A   1      46.326  33.669  25.965  1.00  0.00    -0.237 OA
ATOM     52  O   UNL A   1      44.493  32.096  25.472  1.00  0.00    -0.744 OA
ENDBRANCH  48  49
ENDBRANCH  29  43
BRANCH  30  53
ATOM     53  C   UNL A   1      39.025  33.741  39.348  1.00  0.00    -0.014 A 
ATOM     54  C   UNL A   1      38.517  32.580  39.957  1.00  0.00     0.010 A 
ATOM     55  C   UNL A   1      38.903  34.969  40.027  1.00  0.00     0.010 A 
ATOM     56  C   UNL A   1      37.892  32.648  41.209  1.00  0.00     0.020 A 
ATOM     57  C   UNL A   1      38.306  35.038  41.289  1.00  0.00     0.020 A 
ATOM     58  C   UNL A   1      37.793  33.877  41.868  1.00  0.00     0.054 A 
BRANCH  58  59
ATOM     59  S   UNL A   1      37.019  33.937  43.510  1.00  0.00     0.124 S 
ATOM     60  O   UNL A   1      35.780  33.199  43.289  1.00  0.00    -0.237 OA
ATOM     61  O   UNL A   1      38.011  33.271  44.350  1.00  0.00    -0.237 OA
ATOM     62  O   UNL A   1      36.860  35.367  43.762  1.00  0.00    -0.744 OA
ENDBRANCH  58  59
ENDBRANCH  30  53
BRANCH  42  63
ATOM     63  C   UNL A   1      45.676  33.776  37.211  1.00  0.00    -0.014 A 
ATOM     64  C   UNL A   1      46.247  35.013  37.553  1.00  0.00     0.010 A 
ATOM     65  C   UNL A   1      46.294  32.585  37.635  1.00  0.00     0.010 A 
ATOM     66  C   UNL A   1      47.439  35.057  38.279  1.00  0.00     0.020 A 
ATOM     67  C   UNL A   1      47.468  32.627  38.386  1.00  0.00     0.020 A 
ATOM     68  C   UNL A   1      48.041  33.863  38.690  1.00  0.00     0.054 A 
BRANCH  68  69
ATOM     69  S   UNL A   1      49.564  33.945  39.669  1.00  0.00     0.124 S 
ATOM     70  O   UNL A   1      50.548  33.389  38.745  1.00  0.00    -0.237 OA
ATOM     71  O   UNL A   1      49.694  35.375  39.942  1.00  0.00    -0.237 OA
ATOM     72  O   UNL A   1      49.268  33.120  40.837  1.00  0.00    -0.744 OA
ENDBRANCH  68  69
ENDBRANCH  42  63
ENDBRANCH  16  17
ENDBRANCH   9  11
ENDBRANCH   8   9
ENDBRANCH   7   8
ENDBRANCH   6   7
ENDBRANCH   5   6
ENDBRANCH   4   5
ENDBRANCH   3   4
ENDBRANCH   2   3
ENDBRANCH   1   2
BRANCH   1  73
ATOM     73  C   UNL A   1      41.410  28.043  29.918  1.00  0.00     0.188 C 
BRANCH  73  74
ATOM     74  O   UNL A   1      41.569  26.903  29.089  1.00  0.00    -0.376 OA
BRANCH  74  75
ATOM     75  C   UNL A   1      40.366  26.337  28.577  1.00  0.00     0.202 C 
BRANCH  75  76
ATOM     76  C   UNL A   1      40.211  26.421  27.053  1.00  0.00     0.261 C 
BRANCH  76  77
ATOM     77  O   UNL A   1      40.402  25.181  26.348  1.00  0.00    -0.460 OA
BRANCH  77  78
ATOM     78  C   UNL A   1      39.526  24.174  26.559  1.00  0.00     0.338 C 
ATOM     79  O   UNL A   1      38.310  24.242  26.602  1.00  0.00    -0.246 OA
BRANCH  78  80
ATOM     80  C   UNL A   1      40.304  22.915  26.514  1.00  0.00     0.060 A 
ATOM     81  C   UNL A   1      39.729  21.711  26.931  1.00  0.00     0.016 A 
ATOM     82  C   UNL A   1      41.583  22.915  25.965  1.00  0.00     0.024 A 
ATOM     83  C   UNL A   1      40.417  20.510  26.734  1.00  0.00     0.002 A 
ATOM     84  C   UNL A   1      42.339  21.730  25.889  1.00  0.00    -0.017 A 
ATOM     85  C   UNL A   1      41.720  20.518  26.221  1.00  0.00     0.009 A 
BRANCH  84  86
ATOM     86  C   UNL A   1      43.785  21.859  25.723  1.00  0.00    -0.004 A 
ATOM     87  C   UNL A   1      44.399  22.994  26.278  1.00  0.00     0.056 A 
ATOM     88  C   UNL A   1      44.632  20.952  25.067  1.00  0.00     0.027 A 
ATOM     89  C   UNL A   1      45.749  23.261  26.117  1.00  0.00     0.129 A 
ATOM     90  C   UNL A   1      45.980  21.306  25.001  1.00  0.00     0.140 A 
ATOM     91  C   UNL A   1      44.512  19.701  24.395  1.00  0.00     0.030 A 
ATOM     92  N   UNL A   1      46.579  22.414  25.484  1.00  0.00    -0.213 NA
ATOM     93  N   UNL A   1      46.648  20.311  24.340  1.00  0.00    -0.346 N 
ATOM     94  C   UNL A   1      45.770  19.324  23.969  1.00  0.00     0.085 A 
ATOM     95  H   UNL A   1      47.615  20.303  24.158  1.00  0.00     0.167 HD
BRANCH  89  96
ATOM     96  N   UNL A   1      46.209  24.420  26.725  1.00  0.00    -0.364 N 
ATOM     97  H   UNL A   1      47.028  24.848  26.385  1.00  0.00     0.162 HD
BRANCH  96  98
ATOM     98  C   UNL A   1      45.517  25.012  27.847  1.00  0.00     0.170 C 
BRANCH  98  99
ATOM     99  C   UNL A   1      44.974  26.372  27.438  1.00  0.00     0.059 A 
ATOM    100  C   UNL A   1      45.289  27.506  28.180  1.00  0.00     0.026 A 
ATOM    101  N   UNL A   1      44.156  26.419  26.346  1.00  0.00    -0.259 NA
ATOM    102  C   UNL A   1      44.751  28.731  27.795  1.00  0.00     0.004 A 
ATOM    103  C   UNL A   1      43.656  27.624  25.993  1.00  0.00     0.111 A 
ATOM    104  C   UNL A   1      43.918  28.794  26.683  1.00  0.00     0.020 A 
ENDBRANCH  98  99
ENDBRANCH  96  98
ENDBRANCH  89  96
ENDBRANCH  84  86
ENDBRANCH  78  80
ENDBRANCH  77  78
ENDBRANCH  76  77
ENDBRANCH  75  76
ENDBRANCH  74  75
ENDBRANCH  73  74
ENDBRANCH   1  73
TORSDOF 27
ENDMDL
MODEL 3
REMARK VINA RESULT:      -8.0      7.139     10.921
REMARK SMILES O=C(OCCOCCOCCOCCOC(=O)c1cccc(-c2cc(NCc3ccccn3)nc3[nH]ccc23)c1)c1ccc(-c2c3nc(c(-c4ccc(S(=O)(=O)[O-])cc4)c4ccc([nH]4)c(-c4ccc(S(=O)(=O)[O-])cc4)c4nc(c(-c5ccc(S(=O)(=O)[O-])cc5)c5ccc2[nH]5)C=C4)C=C3)cc1
REMARK SMILES IDX 10 1 9 2 8 3 7 4 6 5 5 6 4 7 3 8 2 9 1 10 41 11 42 12 100 13
REMARK SMILES IDX 43 14 99 15 44 16 45 17 46 18 93 19 47 20 98 21 92 22 94 23
REMARK SMILES IDX 48 24 97 25 91 26 90 27 49 29 79 30 60 31 78 32 61 33 64 34
REMARK SMILES IDX 77 35 95 36 62 37 63 38 76 40 96 41 65 42 50 43 51 44 59 45
REMARK SMILES IDX 52 46 58 47 53 48 54 49 55 50 56 51 57 52 80 53 81 54 89 55
REMARK SMILES IDX 82 56 88 57 83 58 84 59 85 60 86 61 87 62 66 63 67 64 75 65
REMARK SMILES IDX 68 66 74 67 69 68 70 69 71 70 72 71 73 72 11 73 12 74 13 75
REMARK SMILES IDX 14 76 15 77 16 78 17 79 18 80 19 81 40 82 20 83 22 84 21 85
REMARK SMILES IDX 23 86 24 87 39 88 25 89 35 90 38 91 34 92 36 93 37 94 26 96
REMARK SMILES IDX 27 98 28 99 29 100 33 101 30 102 32 103 31 104
REMARK H PARENT 94 28 64 39 36 95 26 97
REMARK Flexibility Score: inf
ROOT
ATOM      1  C   UNL A   1      44.693  24.603  25.129  1.00  0.00     0.188 C 
ENDROOT
BRANCH   1   2
ATOM      2  O   UNL A   1      43.454  24.908  25.761  1.00  0.00    -0.377 OA
BRANCH   2   3
ATOM      3  C   UNL A   1      43.505  25.221  27.150  1.00  0.00     0.188 C 
BRANCH   3   4
ATOM      4  C   UNL A   1      43.517  26.713  27.472  1.00  0.00     0.188 C 
BRANCH   4   5
ATOM      5  O   UNL A   1      42.605  27.431  26.636  1.00  0.00    -0.376 OA
BRANCH   5   6
ATOM      6  C   UNL A   1      41.793  28.398  27.302  1.00  0.00     0.202 C 
BRANCH   6   7
ATOM      7  C   UNL A   1      40.785  27.796  28.283  1.00  0.00     0.261 C 
BRANCH   7   8
ATOM      8  O   UNL A   1      39.861  28.777  28.775  1.00  0.00    -0.460 OA
BRANCH   8   9
ATOM      9  C   UNL A   1      39.244  28.805  29.983  1.00  0.00     0.338 C 
ATOM     10  O   UNL A   1      38.058  28.475  30.028  1.00  0.00    -0.246 OA
BRANCH   9  11
ATOM     11  C   UNL A   1      39.909  29.190  31.272  1.00  0.00     0.060 A 
ATOM     12  C   UNL A   1      41.016  30.032  31.408  1.00  0.00     0.016 A 
ATOM     13  C   UNL A   1      39.339  28.673  32.450  1.00  0.00     0.016 A 
ATOM     14  C   UNL A   1      41.612  30.262  32.639  1.00  0.00     0.010 A 
ATOM     15  C   UNL A   1      39.917  28.914  33.700  1.00  0.00     0.010 A 
ATOM     16  C   UNL A   1      41.095  29.663  33.781  1.00  0.00    -0.014 A 
BRANCH  16  17
ATOM     17  C   UNL A   1      41.969  29.616  34.965  1.00  0.00     0.031 A 
ATOM     18  C   UNL A   1      41.792  30.705  35.985  1.00  0.00     0.074 A 
ATOM     19  C   UNL A   1      42.742  28.542  35.198  1.00  0.00     0.049 A 
ATOM     20  N   UNL A   1      42.415  30.894  37.116  1.00  0.00    -0.248 NA
ATOM     21  C   UNL A   1      40.752  31.712  35.699  1.00  0.00     0.031 C 
ATOM     22  C   UNL A   1      42.832  27.363  34.333  1.00  0.00     0.029 A 
ATOM     23  N   UNL A   1      43.559  28.246  36.255  1.00  0.00    -0.354 N 
ATOM     24  C   UNL A   1      41.872  32.057  37.651  1.00  0.00     0.074 A 
ATOM     25  C   UNL A   1      40.869  32.532  36.729  1.00  0.00     0.031 C 
ATOM     26  C   UNL A   1      43.638  26.457  34.912  1.00  0.00     0.029 A 
ATOM     27  C   UNL A   1      44.166  27.018  36.151  1.00  0.00     0.049 A 
ATOM     28  H   UNL A   1      43.697  28.854  37.016  1.00  0.00     0.167 HD
ATOM     29  C   UNL A   1      42.200  32.680  38.805  1.00  0.00     0.031 A 
ATOM     30  C   UNL A   1      45.068  26.435  36.965  1.00  0.00     0.031 A 
ATOM     31  C   UNL A   1      43.212  32.183  39.693  1.00  0.00     0.049 A 
ATOM     32  C   UNL A   1      45.494  27.195  38.193  1.00  0.00     0.074 A 
ATOM     33  C   UNL A   1      43.703  32.748  40.854  1.00  0.00     0.029 A 
ATOM     34  N   UNL A   1      43.890  30.984  39.505  1.00  0.00    -0.354 N 
ATOM     35  N   UNL A   1      45.047  28.346  38.645  1.00  0.00    -0.248 NA
ATOM     36  C   UNL A   1      46.548  26.590  39.013  1.00  0.00     0.031 C 
ATOM     37  C   UNL A   1      44.715  31.913  41.341  1.00  0.00     0.029 A 
ATOM     38  C   UNL A   1      44.808  30.797  40.519  1.00  0.00     0.049 A 
ATOM     39  H   UNL A   1      43.738  30.361  38.759  1.00  0.00     0.167 HD
ATOM     40  C   UNL A   1      45.750  28.593  39.819  1.00  0.00     0.074 A 
ATOM     41  C   UNL A   1      46.641  27.463  40.009  1.00  0.00     0.031 C 
ATOM     42  C   UNL A   1      45.670  29.649  40.665  1.00  0.00     0.031 A 
BRANCH  29  43
ATOM     43  C   UNL A   1      41.533  34.001  39.081  1.00  0.00    -0.014 A 
ATOM     44  C   UNL A   1      42.109  35.224  38.690  1.00  0.00     0.010 A 
ATOM     45  C   UNL A   1      40.332  34.017  39.813  1.00  0.00     0.010 A 
ATOM     46  C   UNL A   1      41.529  36.436  39.079  1.00  0.00     0.020 A 
ATOM     47  C   UNL A   1      39.734  35.225  40.179  1.00  0.00     0.020 A 
ATOM     48  C   UNL A   1      40.350  36.428  39.832  1.00  0.00     0.054 A 
BRANCH  48  49
ATOM     49  S   UNL A   1      39.633  38.011  40.355  1.00  0.00     0.124 S 
ATOM     50  O   UNL A   1      40.766  38.920  40.201  1.00  0.00    -0.237 OA
ATOM     51  O   UNL A   1      38.544  38.200  39.402  1.00  0.00    -0.237 OA
ATOM     52  O   UNL A   1      39.215  37.763  41.734  1.00  0.00    -0.744 OA
ENDBRANCH  48  49
ENDBRANCH  29  43
BRANCH  30  53
ATOM     53  C   UNL A   1      45.645  25.104  36.623  1.00  0.00    -0.014 A 
ATOM     54  C   UNL A   1      45.006  23.912  37.009  1.00  0.00     0.010 A 
ATOM     55  C   UNL A   1      46.845  25.020  35.892  1.00  0.00     0.010 A 
ATOM     56  C   UNL A   1      45.560  22.669  36.682  1.00  0.00     0.020 A 
ATOM     57  C   UNL A   1      47.388  23.781  35.537  1.00  0.00     0.020 A 
ATOM     58  C   UNL A   1      46.747  22.612  35.945  1.00  0.00     0.054 A 
BRANCH  58  59
ATOM     59  S   UNL A   1      47.425  20.989  35.492  1.00  0.00     0.124 S 
ATOM     60  O   UNL A   1      46.250  20.305  34.963  1.00  0.00    -0.237 OA
ATOM     61  O   UNL A   1      48.450  21.338  34.511  1.00  0.00    -0.237 OA
ATOM     62  O   UNL A   1      47.938  20.467  36.757  1.00  0.00    -0.744 OA
ENDBRANCH  58  59
ENDBRANCH  30  53
BRANCH  42  63
ATOM     63  C   UNL A   1      46.531  29.600  41.895  1.00  0.00    -0.014 A 
ATOM     64  C   UNL A   1      46.002  29.230  43.143  1.00  0.00     0.010 A 
ATOM     65  C   UNL A   1      47.907  29.870  41.776  1.00  0.00     0.010 A 
ATOM     66  C   UNL A   1      46.834  29.164  44.263  1.00  0.00     0.020 A 
ATOM     67  C   UNL A   1      48.744  29.775  42.886  1.00  0.00     0.020 A 
ATOM     68  C   UNL A   1      48.199  29.438  44.127  1.00  0.00     0.054 A 
BRANCH  68  69
ATOM     69  S   UNL A   1      49.267  29.303  45.585  1.00  0.00     0.124 S 
ATOM     70  O   UNL A   1      49.385  30.697  46.003  1.00  0.00    -0.237 OA
ATOM     71  O   UNL A   1      48.489  28.442  46.473  1.00  0.00    -0.237 OA
ATOM     72  O   UNL A   1      50.491  28.703  45.061  1.00  0.00    -0.744 OA
ENDBRANCH  68  69
ENDBRANCH  42  63
ENDBRANCH  16  17
ENDBRANCH   9  11
ENDBRANCH   8   9
ENDBRANCH   7   8
ENDBRANCH   6   7
ENDBRANCH   5   6
ENDBRANCH   4   5
ENDBRANCH   3   4
ENDBRANCH   2   3
ENDBRANCH   1   2
BRANCH   1  73
ATOM     73  C   UNL A   1      45.312  23.201  25.331  1.00  0.00     0.188 C 
BRANCH  73  74
ATOM     74  O   UNL A   1      44.942  22.245  24.349  1.00  0.00    -0.376 OA
BRANCH  74  75
ATOM     75  C   UNL A   1      44.324  21.060  24.841  1.00  0.00     0.202 C 
BRANCH  75  76
ATOM     76  C   UNL A   1      43.355  21.275  26.010  1.00  0.00     0.261 C 
BRANCH  76  77
ATOM     77  O   UNL A   1      42.007  21.613  25.636  1.00  0.00    -0.460 OA
BRANCH  77  78
ATOM     78  C   UNL A   1      40.986  21.089  26.349  1.00  0.00     0.338 C 
ATOM     79  O   UNL A   1      40.956  20.019  26.931  1.00  0.00    -0.246 OA
BRANCH  78  80
ATOM     80  C   UNL A   1      39.968  22.157  26.483  1.00  0.00     0.060 A 
ATOM     81  C   UNL A   1      40.274  23.346  27.151  1.00  0.00     0.016 A 
ATOM     82  C   UNL A   1      38.732  22.013  25.859  1.00  0.00     0.024 A 
ATOM     83  C   UNL A   1      39.360  24.405  27.131  1.00  0.00     0.002 A 
ATOM     84  C   UNL A   1      37.753  23.020  25.950  1.00  0.00    -0.017 A 
ATOM     85  C   UNL A   1      38.101  24.242  26.539  1.00  0.00     0.009 A 
BRANCH  84  86
ATOM     86  C   UNL A   1      36.370  22.646  25.666  1.00  0.00    -0.004 A 
ATOM     87  C   UNL A   1      36.099  21.282  25.464  1.00  0.00     0.056 A 
ATOM     88  C   UNL A   1      35.271  23.516  25.584  1.00  0.00     0.027 A 
ATOM     89  C   UNL A   1      34.841  20.819  25.114  1.00  0.00     0.129 A 
ATOM     90  C   UNL A   1      34.045  22.932  25.264  1.00  0.00     0.140 A 
ATOM     91  C   UNL A   1      35.025  24.913  25.730  1.00  0.00     0.030 A 
ATOM     92  N   UNL A   1      33.776  21.634  25.017  1.00  0.00    -0.213 NA
ATOM     93  N   UNL A   1      33.099  23.922  25.236  1.00  0.00    -0.346 N 
ATOM     94  C   UNL A   1      33.678  25.131  25.523  1.00  0.00     0.085 A 
ATOM     95  H   UNL A   1      32.145  23.785  25.040  1.00  0.00     0.167 HD
BRANCH  89  96
ATOM     96  N   UNL A   1      34.729  19.446  24.949  1.00  0.00    -0.364 N 
ATOM     97  H   UNL A   1      35.420  18.859  25.333  1.00  0.00     0.162 HD
BRANCH  96  98
ATOM     98  C   UNL A   1      33.625  18.858  24.227  1.00  0.00     0.170 C 
BRANCH  98  99
ATOM     99  C   UNL A   1      33.382  17.449  24.743  1.00  0.00     0.059 A 
ATOM    100  C   UNL A   1      34.388  16.491  24.666  1.00  0.00     0.026 A 
ATOM    101  N   UNL A   1      32.146  17.170  25.249  1.00  0.00    -0.259 NA
ATOM    102  C   UNL A   1      34.124  15.202  25.121  1.00  0.00     0.004 A 
ATOM    103  C   UNL A   1      31.922  15.912  25.689  1.00  0.00     0.111 A 
ATOM    104  C   UNL A   1      32.868  14.904  25.641  1.00  0.00     0.020 A 
ENDBRANCH  98  99
ENDBRANCH  96  98
ENDBRANCH  89  96
ENDBRANCH  84  86
ENDBRANCH  78  80
ENDBRANCH  77  78
ENDBRANCH  76  77
ENDBRANCH  75  76
ENDBRANCH  74  75
ENDBRANCH  73  74
ENDBRANCH   1  73
TORSDOF 27
ENDMDL
