MODEL 1
REMARK VINA RESULT:      -7.3      0.000      0.000
REMARK SMILES C[C@@H](C(=O)OCCOCCOCCOCCOC(=O)c1ccc(-c2c3nc(c(-c4ccc(S(=O)(=O)[O-])cc4)c4ccc([nH]4)c(-c4ccc(S(=O)(=O)[O-])cc4)c4nc(c(-c5ccc(S(=O)(=O)[O-])cc5)c5ccc2[nH]5)C=C4)C=C3)cc1)c1ccc(-c2ccc3[nH]ccc3c2)cc1
REMARK SMILES IDX 12 1 11 2 10 3 9 4 8 5 7 6 6 7 5 8 3 9 4 10 2 11 1 12 80 13
REMARK SMILES IDX 81 14 94 15 82 16 93 17 83 18 84 19 85 20 92 21 86 22 91 23
REMARK SMILES IDX 87 24 90 25 88 26 89 27 13 29 14 30 15 31 16 32 17 33 18 34
REMARK SMILES IDX 19 35 20 36 21 37 79 38 22 39 78 40 23 41 24 42 25 43 72 44
REMARK SMILES IDX 26 45 77 46 71 47 73 48 27 49 76 50 70 51 69 52 28 54 58 55
REMARK SMILES IDX 39 56 57 57 40 58 43 59 56 60 74 61 41 62 42 63 55 65 75 66
REMARK SMILES IDX 44 67 29 68 30 69 38 70 31 71 37 72 32 73 33 74 34 75 35 76
REMARK SMILES IDX 36 77 59 78 60 79 68 80 61 81 67 82 62 83 63 84 64 85 65 86
REMARK SMILES IDX 66 87 45 88 46 89 54 90 47 91 53 92 48 93 49 94 50 95 51 96
REMARK SMILES IDX 52 97
REMARK H PARENT 88 28 73 53 43 64
REMARK Flexibility Score: inf
ROOT
ATOM      1  C   UNL A   1      33.310  34.895  29.155  1.00  0.00     0.188 C 
ENDROOT
BRANCH   1   2
ATOM      2  O   UNL A   1      33.752  34.163  28.025  1.00  0.00    -0.377 OA
BRANCH   2   3
ATOM      3  C   UNL A   1      35.092  33.725  28.042  1.00  0.00     0.188 C 
BRANCH   3   4
ATOM      4  C   UNL A   1      35.438  32.746  29.181  1.00  0.00     0.188 C 
BRANCH   4   5
ATOM      5  O   UNL A   1      36.512  33.035  30.061  1.00  0.00    -0.376 OA
BRANCH   5   6
ATOM      6  C   UNL A   1      37.846  32.737  29.673  1.00  0.00     0.202 C 
BRANCH   6   7
ATOM      7  C   UNL A   1      38.230  31.420  28.963  1.00  0.00     0.261 C 
BRANCH   7   8
ATOM      8  O   UNL A   1      38.587  30.289  29.783  1.00  0.00    -0.463 OA
BRANCH   8   9
ATOM      9  C   UNL A   1      38.338  29.056  29.272  1.00  0.00     0.313 C 
ATOM     10  O   UNL A   1      37.723  28.867  28.225  1.00  0.00    -0.252 OA
BRANCH   9  11
ATOM     11  C   UNL A   1      38.894  27.895  30.124  1.00  0.00     0.126 C 
ATOM     12  C   UNL A   1      39.619  28.211  31.436  1.00  0.00     0.025 C 
BRANCH  11  13
ATOM     13  C   UNL A   1      39.671  26.903  29.255  1.00  0.00    -0.034 A 
ATOM     14  C   UNL A   1      41.062  27.018  29.180  1.00  0.00     0.005 A 
ATOM     15  C   UNL A   1      39.069  25.812  28.605  1.00  0.00     0.005 A 
ATOM     16  C   UNL A   1      41.825  26.038  28.542  1.00  0.00     0.009 A 
ATOM     17  C   UNL A   1      39.833  24.813  27.992  1.00  0.00     0.009 A 
ATOM     18  C   UNL A   1      41.226  24.903  27.977  1.00  0.00    -0.018 A 
BRANCH  18  19
ATOM     19  C   UNL A   1      42.059  23.830  27.432  1.00  0.00    -0.018 A 
ATOM     20  C   UNL A   1      43.343  24.125  26.949  1.00  0.00     0.011 A 
ATOM     21  C   UNL A   1      41.569  22.517  27.330  1.00  0.00     0.019 A 
ATOM     22  C   UNL A   1      44.154  23.151  26.361  1.00  0.00     0.027 A 
ATOM     23  C   UNL A   1      42.341  21.535  26.679  1.00  0.00    -0.000 A 
ATOM     24  C   UNL A   1      43.617  21.870  26.227  1.00  0.00     0.045 A 
ATOM     25  C   UNL A   1      42.105  20.185  26.297  1.00  0.00     0.028 A 
ATOM     26  N   UNL A   1      44.155  20.739  25.660  1.00  0.00    -0.361 N 
ATOM     27  C   UNL A   1      43.222  19.735  25.632  1.00  0.00     0.083 A 
ATOM     28  H   UNL A   1      45.077  20.659  25.322  1.00  0.00     0.166 HD
ENDBRANCH  18  19
ENDBRANCH  11  13
ENDBRANCH   9  11
ENDBRANCH   8   9
ENDBRANCH   7   8
ENDBRANCH   6   7
ENDBRANCH   5   6
ENDBRANCH   4   5
ENDBRANCH   3   4
ENDBRANCH   2   3
ENDBRANCH   1   2
BRANCH   1  29
ATOM     29  C   UNL A   1      33.112  36.417  29.011  1.00  0.00     0.188 C 
BRANCH  29  30
ATOM     30  O   UNL A   1      32.930  37.105  30.245  1.00  0.00    -0.376 OA
BRANCH  30  31
ATOM     31  C   UNL A   1      32.612  36.354  31.408  1.00  0.00     0.202 C 
BRANCH  31  32
ATOM     32  C   UNL A   1      33.697  36.242  32.492  1.00  0.00     0.261 C 
BRANCH  32  33
ATOM     33  O   UNL A   1      34.785  35.347  32.217  1.00  0.00    -0.460 OA
BRANCH  33  34
ATOM     34  C   UNL A   1      34.674  34.070  32.639  1.00  0.00     0.338 C 
ATOM     35  O   UNL A   1      33.768  33.293  32.388  1.00  0.00    -0.246 OA
BRANCH  34  36
ATOM     36  C   UNL A   1      35.950  33.699  33.283  1.00  0.00     0.060 A 
ATOM     37  C   UNL A   1      36.973  34.655  33.359  1.00  0.00     0.016 A 
ATOM     38  C   UNL A   1      36.127  32.429  33.837  1.00  0.00     0.016 A 
ATOM     39  C   UNL A   1      38.189  34.331  33.959  1.00  0.00     0.010 A 
ATOM     40  C   UNL A   1      37.356  32.097  34.412  1.00  0.00     0.010 A 
ATOM     41  C   UNL A   1      38.403  33.035  34.444  1.00  0.00    -0.014 A 
BRANCH  41  42
ATOM     42  C   UNL A   1      39.780  32.595  34.775  1.00  0.00     0.031 A 
ATOM     43  C   UNL A   1      40.221  32.685  36.213  1.00  0.00     0.074 A 
ATOM     44  C   UNL A   1      40.611  32.107  33.838  1.00  0.00     0.049 A 
ATOM     45  N   UNL A   1      41.381  32.403  36.744  1.00  0.00    -0.248 NA
ATOM     46  C   UNL A   1      39.215  33.161  37.178  1.00  0.00     0.031 C 
ATOM     47  C   UNL A   1      40.282  31.918  32.426  1.00  0.00     0.029 A 
ATOM     48  N   UNL A   1      41.914  31.685  33.940  1.00  0.00    -0.354 N 
ATOM     49  C   UNL A   1      41.249  32.680  38.100  1.00  0.00     0.074 A 
ATOM     50  C   UNL A   1      39.908  33.177  38.306  1.00  0.00     0.031 C 
ATOM     51  C   UNL A   1      41.360  31.421  31.792  1.00  0.00     0.029 A 
ATOM     52  C   UNL A   1      42.464  31.294  32.743  1.00  0.00     0.049 A 
ATOM     53  H   UNL A   1      42.408  31.664  34.792  1.00  0.00     0.167 HD
ATOM     54  C   UNL A   1      42.164  32.532  39.087  1.00  0.00     0.031 A 
ATOM     55  C   UNL A   1      43.719  30.902  32.447  1.00  0.00     0.031 A 
ATOM     56  C   UNL A   1      43.503  32.052  38.874  1.00  0.00     0.049 A 
ATOM     57  C   UNL A   1      44.747  30.828  33.549  1.00  0.00     0.074 A 
ATOM     58  C   UNL A   1      44.502  31.851  39.809  1.00  0.00     0.029 A 
ATOM     59  N   UNL A   1      44.035  31.710  37.639  1.00  0.00    -0.354 N 
ATOM     60  N   UNL A   1      44.603  31.068  34.831  1.00  0.00    -0.248 NA
ATOM     61  C   UNL A   1      46.107  30.422  33.163  1.00  0.00     0.031 C 
ATOM     62  C   UNL A   1      45.658  31.455  39.132  1.00  0.00     0.029 A 
ATOM     63  C   UNL A   1      45.358  31.333  37.784  1.00  0.00     0.049 A 
ATOM     64  H   UNL A   1      43.543  31.732  36.786  1.00  0.00     0.167 HD
ATOM     65  C   UNL A   1      45.843  30.808  35.409  1.00  0.00     0.074 A 
ATOM     66  C   UNL A   1      46.720  30.381  34.338  1.00  0.00     0.031 C 
ATOM     67  C   UNL A   1      46.220  30.909  36.708  1.00  0.00     0.031 A 
BRANCH  54  68
ATOM     68  C   UNL A   1      41.760  32.943  40.479  1.00  0.00    -0.014 A 
ATOM     69  C   UNL A   1      41.236  32.014  41.396  1.00  0.00     0.010 A 
ATOM     70  C   UNL A   1      41.942  34.277  40.885  1.00  0.00     0.010 A 
ATOM     71  C   UNL A   1      40.865  32.422  42.681  1.00  0.00     0.020 A 
ATOM     72  C   UNL A   1      41.602  34.682  42.178  1.00  0.00     0.020 A 
ATOM     73  C   UNL A   1      41.050  33.755  43.063  1.00  0.00     0.054 A 
BRANCH  73  74
ATOM     74  S   UNL A   1      40.586  34.249  44.744  1.00  0.00     0.124 S 
ATOM     75  O   UNL A   1      41.728  33.774  45.523  1.00  0.00    -0.237 OA
ATOM     76  O   UNL A   1      40.466  35.699  44.629  1.00  0.00    -0.237 OA
ATOM     77  O   UNL A   1      39.333  33.538  44.984  1.00  0.00    -0.744 OA
ENDBRANCH  73  74
ENDBRANCH  54  68
BRANCH  55  78
ATOM     78  C   UNL A   1      44.087  30.566  31.042  1.00  0.00    -0.014 A 
ATOM     79  C   UNL A   1      44.603  31.549  30.178  1.00  0.00     0.010 A 
ATOM     80  C   UNL A   1      43.914  29.257  30.556  1.00  0.00     0.010 A 
ATOM     81  C   UNL A   1      44.920  31.233  28.853  1.00  0.00     0.020 A 
ATOM     82  C   UNL A   1      44.260  28.929  29.242  1.00  0.00     0.020 A 
ATOM     83  C   UNL A   1      44.752  29.924  28.394  1.00  0.00     0.054 A 
BRANCH  83  84
ATOM     84  S   UNL A   1      45.221  29.528  26.687  1.00  0.00     0.124 S 
ATOM     85  O   UNL A   1      45.552  30.843  26.149  1.00  0.00    -0.237 OA
ATOM     86  O   UNL A   1      46.348  28.618  26.875  1.00  0.00    -0.237 OA
ATOM     87  O   UNL A   1      44.016  28.911  26.136  1.00  0.00    -0.744 OA
ENDBRANCH  83  84
ENDBRANCH  55  78
BRANCH  67  88
ATOM     88  C   UNL A   1      47.630  30.508  37.061  1.00  0.00    -0.014 A 
ATOM     89  C   UNL A   1      47.927  29.230  37.565  1.00  0.00     0.010 A 
ATOM     90  C   UNL A   1      48.685  31.410  36.821  1.00  0.00     0.010 A 
ATOM     91  C   UNL A   1      49.248  28.874  37.854  1.00  0.00     0.020 A 
ATOM     92  C   UNL A   1      50.009  31.047  37.077  1.00  0.00     0.020 A 
ATOM     93  C   UNL A   1      50.281  29.785  37.607  1.00  0.00     0.054 A 
BRANCH  93  94
ATOM     94  S   UNL A   1      51.990  29.281  37.948  1.00  0.00     0.124 S 
ATOM     95  O   UNL A   1      52.225  28.282  36.910  1.00  0.00    -0.237 OA
ATOM     96  O   UNL A   1      52.728  30.532  37.796  1.00  0.00    -0.237 OA
ATOM     97  O   UNL A   1      51.933  28.760  39.312  1.00  0.00    -0.744 OA
ENDBRANCH  93  94
ENDBRANCH  67  88
ENDBRANCH  41  42
ENDBRANCH  34  36
ENDBRANCH  33  34
ENDBRANCH  32  33
ENDBRANCH  31  32
ENDBRANCH  30  31
ENDBRANCH  29  30
ENDBRANCH   1  29
TORSDOF 25
ENDMDL
MODEL 2
REMARK VINA RESULT:      -7.2      6.492      9.504
REMARK SMILES C[C@@H](C(=O)OCCOCCOCCOCCOC(=O)c1ccc(-c2c3nc(c(-c4ccc(S(=O)(=O)[O-])cc4)c4ccc([nH]4)c(-c4ccc(S(=O)(=O)[O-])cc4)c4nc(c(-c5ccc(S(=O)(=O)[O-])cc5)c5ccc2[nH]5)C=C4)C=C3)cc1)c1ccc(-c2ccc3[nH]ccc3c2)cc1
REMARK SMILES IDX 12 1 11 2 10 3 9 4 8 5 7 6 6 7 5 8 3 9 4 10 2 11 1 12 80 13
REMARK SMILES IDX 81 14 94 15 82 16 93 17 83 18 84 19 85 20 92 21 86 22 91 23
REMARK SMILES IDX 87 24 90 25 88 26 89 27 13 29 14 30 15 31 16 32 17 33 18 34
REMARK SMILES IDX 19 35 20 36 21 37 79 38 22 39 78 40 23 41 24 42 25 43 72 44
REMARK SMILES IDX 26 45 77 46 71 47 73 48 27 49 76 50 70 51 69 52 28 54 58 55
REMARK SMILES IDX 39 56 57 57 40 58 43 59 56 60 74 61 41 62 42 63 55 65 75 66
REMARK SMILES IDX 44 67 29 68 30 69 38 70 31 71 37 72 32 73 33 74 34 75 35 76
REMARK SMILES IDX 36 77 59 78 60 79 68 80 61 81 67 82 62 83 63 84 64 85 65 86
REMARK SMILES IDX 66 87 45 88 46 89 54 90 47 91 53 92 48 93 49 94 50 95 51 96
REMARK SMILES IDX 52 97
REMARK H PARENT 88 28 73 53 43 64
REMARK Flexibility Score: inf
ROOT
ATOM      1  C   UNL A   1      41.448  32.354  31.253  1.00  0.00     0.188 C 
ENDROOT
BRANCH   1   2
ATOM      2  O   UNL A   1      42.461  31.493  30.763  1.00  0.00    -0.377 OA
BRANCH   2   3
ATOM      3  C   UNL A   1      42.994  31.803  29.495  1.00  0.00     0.188 C 
BRANCH   3   4
ATOM      4  C   UNL A   1      44.043  30.803  28.971  1.00  0.00     0.188 C 
BRANCH   4   5
ATOM      5  O   UNL A   1      43.639  29.717  28.154  1.00  0.00    -0.376 OA
BRANCH   5   6
ATOM      6  C   UNL A   1      42.327  29.691  27.608  1.00  0.00     0.202 C 
BRANCH   6   7
ATOM      7  C   UNL A   1      41.861  28.602  26.617  1.00  0.00     0.261 C 
BRANCH   7   8
ATOM      8  O   UNL A   1      41.522  27.305  27.146  1.00  0.00    -0.463 OA
BRANCH   8   9
ATOM      9  C   UNL A   1      41.743  26.234  26.341  1.00  0.00     0.313 C 
ATOM     10  O   UNL A   1      41.366  26.175  25.174  1.00  0.00    -0.252 OA
BRANCH   9  11
ATOM     11  C   UNL A   1      42.514  25.082  27.020  1.00  0.00     0.126 C 
ATOM     12  C   UNL A   1      42.012  24.533  28.360  1.00  0.00     0.025 C 
BRANCH  11  13
ATOM     13  C   UNL A   1      44.019  25.365  27.036  1.00  0.00    -0.034 A 
ATOM     14  C   UNL A   1      44.748  25.069  28.191  1.00  0.00     0.005 A 
ATOM     15  C   UNL A   1      44.729  25.816  25.910  1.00  0.00     0.005 A 
ATOM     16  C   UNL A   1      46.142  25.149  28.193  1.00  0.00     0.009 A 
ATOM     17  C   UNL A   1      46.127  25.867  25.901  1.00  0.00     0.009 A 
ATOM     18  C   UNL A   1      46.851  25.508  27.038  1.00  0.00    -0.018 A 
BRANCH  18  19
ATOM     19  C   UNL A   1      48.314  25.456  27.033  1.00  0.00    -0.018 A 
ATOM     20  C   UNL A   1      49.001  25.079  28.197  1.00  0.00     0.011 A 
ATOM     21  C   UNL A   1      49.046  25.837  25.895  1.00  0.00     0.019 A 
ATOM     22  C   UNL A   1      50.396  25.074  28.266  1.00  0.00     0.027 A 
ATOM     23  C   UNL A   1      50.451  25.906  25.962  1.00  0.00    -0.000 A 
ATOM     24  C   UNL A   1      51.091  25.509  27.135  1.00  0.00     0.045 A 
ATOM     25  C   UNL A   1      51.461  26.361  25.070  1.00  0.00     0.028 A 
ATOM     26  N   UNL A   1      52.443  25.651  26.927  1.00  0.00    -0.361 N 
ATOM     27  C   UNL A   1      52.674  26.233  25.708  1.00  0.00     0.083 A 
ATOM     28  H   UNL A   1      53.144  25.374  27.560  1.00  0.00     0.166 HD
ENDBRANCH  18  19
ENDBRANCH  11  13
ENDBRANCH   9  11
ENDBRANCH   8   9
ENDBRANCH   7   8
ENDBRANCH   6   7
ENDBRANCH   5   6
ENDBRANCH   4   5
ENDBRANCH   3   4
ENDBRANCH   2   3
ENDBRANCH   1   2
BRANCH   1  29
ATOM     29  C   UNL A   1      40.325  32.784  30.289  1.00  0.00     0.188 C 
BRANCH  29  30
ATOM     30  O   UNL A   1      39.146  31.988  30.368  1.00  0.00    -0.376 OA
BRANCH  30  31
ATOM     31  C   UNL A   1      38.938  30.974  29.395  1.00  0.00     0.202 C 
BRANCH  31  32
ATOM     32  C   UNL A   1      39.003  29.515  29.873  1.00  0.00     0.261 C 
BRANCH  32  33
ATOM     33  O   UNL A   1      40.295  29.025  30.257  1.00  0.00    -0.460 OA
BRANCH  33  34
ATOM     34  C   UNL A   1      40.510  28.767  31.564  1.00  0.00     0.338 C 
ATOM     35  O   UNL A   1      39.702  28.866  32.472  1.00  0.00    -0.246 OA
BRANCH  34  36
ATOM     36  C   UNL A   1      41.840  28.134  31.683  1.00  0.00     0.060 A 
ATOM     37  C   UNL A   1      42.501  28.174  32.918  1.00  0.00     0.016 A 
ATOM     38  C   UNL A   1      42.416  27.478  30.592  1.00  0.00     0.016 A 
ATOM     39  C   UNL A   1      43.758  27.587  33.056  1.00  0.00     0.010 A 
ATOM     40  C   UNL A   1      43.689  26.916  30.725  1.00  0.00     0.010 A 
ATOM     41  C   UNL A   1      44.378  26.999  31.948  1.00  0.00    -0.014 A 
BRANCH  41  42
ATOM     42  C   UNL A   1      45.825  26.675  32.004  1.00  0.00     0.031 A 
ATOM     43  C   UNL A   1      46.263  25.568  32.926  1.00  0.00     0.074 A 
ATOM     44  C   UNL A   1      46.724  27.323  31.245  1.00  0.00     0.049 A 
ATOM     45  N   UNL A   1      47.466  25.128  33.181  1.00  0.00    -0.248 NA
ATOM     46  C   UNL A   1      45.195  24.866  33.660  1.00  0.00     0.031 C 
ATOM     47  C   UNL A   1      46.418  28.372  30.274  1.00  0.00     0.029 A 
ATOM     48  N   UNL A   1      48.090  27.192  31.180  1.00  0.00    -0.354 N 
ATOM     49  C   UNL A   1      47.303  24.109  34.114  1.00  0.00     0.074 A 
ATOM     50  C   UNL A   1      45.889  24.015  34.399  1.00  0.00     0.031 C 
ATOM     51  C   UNL A   1      47.566  28.794  29.712  1.00  0.00     0.029 A 
ATOM     52  C   UNL A   1      48.689  28.073  30.312  1.00  0.00     0.049 A 
ATOM     53  H   UNL A   1      48.593  26.528  31.705  1.00  0.00     0.167 HD
ATOM     54  C   UNL A   1      48.247  23.322  34.682  1.00  0.00     0.031 A 
ATOM     55  C   UNL A   1      49.994  28.287  30.050  1.00  0.00     0.031 A 
ATOM     56  C   UNL A   1      49.653  23.431  34.406  1.00  0.00     0.049 A 
ATOM     57  C   UNL A   1      51.034  27.456  30.760  1.00  0.00     0.074 A 
ATOM     58  C   UNL A   1      50.690  22.671  34.916  1.00  0.00     0.029 A 
ATOM     59  N   UNL A   1      50.224  24.367  33.555  1.00  0.00    -0.354 N 
ATOM     60  N   UNL A   1      50.865  26.479  31.620  1.00  0.00    -0.248 NA
ATOM     61  C   UNL A   1      52.442  27.752  30.456  1.00  0.00     0.031 C 
ATOM     62  C   UNL A   1      51.892  23.191  34.430  1.00  0.00     0.029 A 
ATOM     63  C   UNL A   1      51.600  24.226  33.554  1.00  0.00     0.049 A 
ATOM     64  H   UNL A   1      49.723  25.032  33.030  1.00  0.00     0.167 HD
ATOM     65  C   UNL A   1      52.143  26.022  31.932  1.00  0.00     0.074 A 
ATOM     66  C   UNL A   1      53.071  26.821  31.160  1.00  0.00     0.031 C 
ATOM     67  C   UNL A   1      52.514  25.029  32.779  1.00  0.00     0.031 A 
BRANCH  54  68
ATOM     68  C   UNL A   1      47.789  22.306  35.696  1.00  0.00    -0.014 A 
ATOM     69  C   UNL A   1      47.416  21.004  35.316  1.00  0.00     0.010 A 
ATOM     70  C   UNL A   1      47.765  22.655  37.058  1.00  0.00     0.010 A 
ATOM     71  C   UNL A   1      46.991  20.082  36.277  1.00  0.00     0.020 A 
ATOM     72  C   UNL A   1      47.371  21.726  38.025  1.00  0.00     0.020 A 
ATOM     73  C   UNL A   1      46.971  20.449  37.626  1.00  0.00     0.054 A 
BRANCH  73  74
ATOM     74  S   UNL A   1      46.442  19.224  38.853  1.00  0.00     0.124 S 
ATOM     75  O   UNL A   1      47.704  18.564  39.181  1.00  0.00    -0.237 OA
ATOM     76  O   UNL A   1      45.876  20.055  39.911  1.00  0.00    -0.237 OA
ATOM     77  O   UNL A   1      45.479  18.399  38.129  1.00  0.00    -0.744 OA
ENDBRANCH  73  74
ENDBRANCH  54  68
BRANCH  55  78
ATOM     78  C   UNL A   1      50.400  29.347  29.084  1.00  0.00    -0.014 A 
ATOM     79  C   UNL A   1      50.590  30.675  29.509  1.00  0.00     0.010 A 
ATOM     80  C   UNL A   1      50.591  29.035  27.725  1.00  0.00     0.010 A 
ATOM     81  C   UNL A   1      50.943  31.670  28.592  1.00  0.00     0.020 A 
ATOM     82  C   UNL A   1      50.976  30.021  26.811  1.00  0.00     0.020 A 
ATOM     83  C   UNL A   1      51.139  31.336  27.250  1.00  0.00     0.054 A 
BRANCH  83  84
ATOM     84  S   UNL A   1      51.650  32.635  26.090  1.00  0.00     0.124 S 
ATOM     85  O   UNL A   1      50.977  33.810  26.633  1.00  0.00    -0.237 OA
ATOM     86  O   UNL A   1      53.105  32.619  26.224  1.00  0.00    -0.237 OA
ATOM     87  O   UNL A   1      51.145  32.162  24.803  1.00  0.00    -0.744 OA
ENDBRANCH  83  84
ENDBRANCH  55  78
BRANCH  67  88
ATOM     88  C   UNL A   1      53.984  24.711  32.885  1.00  0.00    -0.014 A 
ATOM     89  C   UNL A   1      54.774  25.223  33.929  1.00  0.00     0.010 A 
ATOM     90  C   UNL A   1      54.568  23.828  31.956  1.00  0.00     0.010 A 
ATOM     91  C   UNL A   1      56.127  24.886  34.021  1.00  0.00     0.020 A 
ATOM     92  C   UNL A   1      55.912  23.463  32.064  1.00  0.00     0.020 A 
ATOM     93  C   UNL A   1      56.688  24.006  33.089  1.00  0.00     0.054 A 
BRANCH  93  94
ATOM     94  S   UNL A   1      58.435  23.550  33.258  1.00  0.00     0.124 S 
ATOM     95  O   UNL A   1      59.016  24.772  33.808  1.00  0.00    -0.237 OA
ATOM     96  O   UNL A   1      58.381  22.413  34.173  1.00  0.00    -0.237 OA
ATOM     97  O   UNL A   1      58.844  23.227  31.894  1.00  0.00    -0.744 OA
ENDBRANCH  93  94
ENDBRANCH  67  88
ENDBRANCH  41  42
ENDBRANCH  34  36
ENDBRANCH  33  34
ENDBRANCH  32  33
ENDBRANCH  31  32
ENDBRANCH  30  31
ENDBRANCH  29  30
ENDBRANCH   1  29
TORSDOF 25
ENDMDL
MODEL 3
REMARK VINA RESULT:      -7.2      6.624      8.633
REMARK SMILES C[C@@H](C(=O)OCCOCCOCCOCCOC(=O)c1ccc(-c2c3nc(c(-c4ccc(S(=O)(=O)[O-])cc4)c4ccc([nH]4)c(-c4ccc(S(=O)(=O)[O-])cc4)c4nc(c(-c5ccc(S(=O)(=O)[O-])cc5)c5ccc2[nH]5)C=C4)C=C3)cc1)c1ccc(-c2ccc3[nH]ccc3c2)cc1
REMARK SMILES IDX 12 1 11 2 10 3 9 4 8 5 7 6 6 7 5 8 3 9 4 10 2 11 1 12 80 13
REMARK SMILES IDX 81 14 94 15 82 16 93 17 83 18 84 19 85 20 92 21 86 22 91 23
REMARK SMILES IDX 87 24 90 25 88 26 89 27 13 29 14 30 15 31 16 32 17 33 18 34
REMARK SMILES IDX 19 35 20 36 21 37 79 38 22 39 78 40 23 41 24 42 25 43 72 44
REMARK SMILES IDX 26 45 77 46 71 47 73 48 27 49 76 50 70 51 69 52 28 54 58 55
REMARK SMILES IDX 39 56 57 57 40 58 43 59 56 60 74 61 41 62 42 63 55 65 75 66
REMARK SMILES IDX 44 67 29 68 30 69 38 70 31 71 37 72 32 73 33 74 34 75 35 76
REMARK SMILES IDX 36 77 59 78 60 79 68 80 61 81 67 82 62 83 63 84 64 85 65 86
REMARK SMILES IDX 66 87 45 88 46 89 54 90 47 91 53 92 48 93 49 94 50 95 51 96
REMARK SMILES IDX 52 97
REMARK H PARENT 88 28 73 53 43 64
REMARK Flexibility Score: inf
ROOT
ATOM      1  C   UNL A   1      35.466  33.744  28.810  1.00  0.00     0.188 C 
ENDROOT
BRANCH   1   2
ATOM      2  O   UNL A   1      34.813  33.141  27.706  1.00  0.00    -0.377 OA
BRANCH   2   3
ATOM      3  C   UNL A   1      34.614  31.747  27.777  1.00  0.00     0.188 C 
BRANCH   3   4
ATOM      4  C   UNL A   1      33.213  31.270  27.348  1.00  0.00     0.188 C 
BRANCH   4   5
ATOM      5  O   UNL A   1      33.000  29.909  27.012  1.00  0.00    -0.376 OA
BRANCH   5   6
ATOM      6  C   UNL A   1      32.782  29.540  25.657  1.00  0.00     0.202 C 
BRANCH   6   7
ATOM      7  C   UNL A   1      33.695  28.542  24.911  1.00  0.00     0.261 C 
BRANCH   7   8
ATOM      8  O   UNL A   1      33.275  27.165  24.839  1.00  0.00    -0.463 OA
BRANCH   8   9
ATOM      9  C   UNL A   1      32.539  26.802  23.757  1.00  0.00     0.313 C 
ATOM     10  O   UNL A   1      32.783  27.180  22.614  1.00  0.00    -0.252 OA
BRANCH   9  11
ATOM     11  C   UNL A   1      31.355  25.867  24.083  1.00  0.00     0.126 C 
ATOM     12  C   UNL A   1      30.401  26.238  25.224  1.00  0.00     0.025 C 
BRANCH  11  13
ATOM     13  C   UNL A   1      31.815  24.409  24.161  1.00  0.00    -0.034 A 
ATOM     14  C   UNL A   1      31.103  23.521  24.972  1.00  0.00     0.005 A 
ATOM     15  C   UNL A   1      32.859  23.888  23.379  1.00  0.00     0.005 A 
ATOM     16  C   UNL A   1      31.378  22.153  24.942  1.00  0.00     0.009 A 
ATOM     17  C   UNL A   1      33.116  22.514  23.325  1.00  0.00     0.009 A 
ATOM     18  C   UNL A   1      32.358  21.626  24.089  1.00  0.00    -0.018 A 
BRANCH  18  19
ATOM     19  C   UNL A   1      32.534  20.177  23.983  1.00  0.00    -0.018 A 
ATOM     20  C   UNL A   1      32.313  19.538  22.752  1.00  0.00     0.011 A 
ATOM     21  C   UNL A   1      32.865  19.405  25.110  1.00  0.00     0.019 A 
ATOM     22  C   UNL A   1      32.405  18.151  22.612  1.00  0.00     0.027 A 
ATOM     23  C   UNL A   1      32.896  18.001  25.007  1.00  0.00    -0.000 A 
ATOM     24  C   UNL A   1      32.683  17.410  23.762  1.00  0.00     0.045 A 
ATOM     25  C   UNL A   1      33.060  16.945  25.946  1.00  0.00     0.028 A 
ATOM     26  N   UNL A   1      32.790  16.050  23.935  1.00  0.00    -0.361 N 
ATOM     27  C   UNL A   1      32.946  15.755  25.264  1.00  0.00     0.083 A 
ATOM     28  H   UNL A   1      32.759  15.384  23.211  1.00  0.00     0.166 HD
ENDBRANCH  18  19
ENDBRANCH  11  13
ENDBRANCH   9  11
ENDBRANCH   8   9
ENDBRANCH   7   8
ENDBRANCH   6   7
ENDBRANCH   5   6
ENDBRANCH   4   5
ENDBRANCH   3   4
ENDBRANCH   2   3
ENDBRANCH   1   2
BRANCH   1  29
ATOM     29  C   UNL A   1      34.622  34.125  30.042  1.00  0.00     0.188 C 
BRANCH  29  30
ATOM     30  O   UNL A   1      34.240  33.021  30.856  1.00  0.00    -0.376 OA
BRANCH  30  31
ATOM     31  C   UNL A   1      35.195  32.463  31.748  1.00  0.00     0.202 C 
BRANCH  31  32
ATOM     32  C   UNL A   1      36.054  31.302  31.223  1.00  0.00     0.261 C 
BRANCH  32  33
ATOM     33  O   UNL A   1      37.409  31.246  31.693  1.00  0.00    -0.460 OA
BRANCH  33  34
ATOM     34  C   UNL A   1      38.251  32.229  31.311  1.00  0.00     0.338 C 
ATOM     35  O   UNL A   1      38.410  32.659  30.181  1.00  0.00    -0.246 OA
BRANCH  34  36
ATOM     36  C   UNL A   1      38.797  32.850  32.535  1.00  0.00     0.060 A 
ATOM     37  C   UNL A   1      38.277  34.080  32.961  1.00  0.00     0.016 A 
ATOM     38  C   UNL A   1      39.794  32.209  33.276  1.00  0.00     0.016 A 
ATOM     39  C   UNL A   1      38.777  34.690  34.110  1.00  0.00     0.010 A 
ATOM     40  C   UNL A   1      40.313  32.836  34.412  1.00  0.00     0.010 A 
ATOM     41  C   UNL A   1      39.830  34.094  34.813  1.00  0.00    -0.014 A 
BRANCH  41  42
ATOM     42  C   UNL A   1      40.575  34.883  35.824  1.00  0.00     0.031 A 
ATOM     43  C   UNL A   1      40.211  34.694  37.273  1.00  0.00     0.074 A 
ATOM     44  C   UNL A   1      41.563  35.726  35.476  1.00  0.00     0.049 A 
ATOM     45  N   UNL A   1      40.684  35.293  38.333  1.00  0.00    -0.248 NA
ATOM     46  C   UNL A   1      39.169  33.693  37.561  1.00  0.00     0.031 C 
ATOM     47  C   UNL A   1      42.045  35.953  34.115  1.00  0.00     0.029 A 
ATOM     48  N   UNL A   1      42.336  36.556  36.251  1.00  0.00    -0.354 N 
ATOM     49  C   UNL A   1      39.990  34.754  39.410  1.00  0.00     0.074 A 
ATOM     50  C   UNL A   1      39.045  33.800  38.875  1.00  0.00     0.031 C 
ATOM     51  C   UNL A   1      43.031  36.869  34.150  1.00  0.00     0.029 A 
ATOM     52  C   UNL A   1      43.221  37.319  35.528  1.00  0.00     0.049 A 
ATOM     53  H   UNL A   1      42.263  36.599  37.231  1.00  0.00     0.167 HD
ATOM     54  C   UNL A   1      40.127  35.028  40.729  1.00  0.00     0.031 A 
ATOM     55  C   UNL A   1      44.070  38.286  35.932  1.00  0.00     0.031 A 
ATOM     56  C   UNL A   1      41.057  35.990  41.255  1.00  0.00     0.049 A 
ATOM     57  C   UNL A   1      44.144  38.636  37.398  1.00  0.00     0.074 A 
ATOM     58  C   UNL A   1      41.286  36.331  42.576  1.00  0.00     0.029 A 
ATOM     59  N   UNL A   1      41.904  36.775  40.487  1.00  0.00    -0.354 N 
ATOM     60  N   UNL A   1      43.501  38.100  38.409  1.00  0.00    -0.248 NA
ATOM     61  C   UNL A   1      45.066  39.717  37.778  1.00  0.00     0.031 C 
ATOM     62  C   UNL A   1      42.219  37.370  42.603  1.00  0.00     0.029 A 
ATOM     63  C   UNL A   1      42.631  37.624  41.303  1.00  0.00     0.049 A 
ATOM     64  H   UNL A   1      41.978  36.734  39.506  1.00  0.00     0.167 HD
ATOM     65  C   UNL A   1      43.966  38.755  39.546  1.00  0.00     0.074 A 
ATOM     66  C   UNL A   1      44.953  39.716  39.099  1.00  0.00     0.031 C 
ATOM     67  C   UNL A   1      43.612  38.576  40.844  1.00  0.00     0.031 A 
BRANCH  54  68
ATOM     68  C   UNL A   1      39.213  34.312  41.688  1.00  0.00    -0.014 A 
ATOM     69  C   UNL A   1      39.603  33.118  42.323  1.00  0.00     0.010 A 
ATOM     70  C   UNL A   1      37.954  34.864  41.985  1.00  0.00     0.010 A 
ATOM     71  C   UNL A   1      38.734  32.471  43.206  1.00  0.00     0.020 A 
ATOM     72  C   UNL A   1      37.095  34.238  42.891  1.00  0.00     0.020 A 
ATOM     73  C   UNL A   1      37.485  33.035  43.485  1.00  0.00     0.054 A 
BRANCH  73  74
ATOM     74  S   UNL A   1      36.390  32.189  44.656  1.00  0.00     0.124 S 
ATOM     75  O   UNL A   1      35.074  32.442  44.074  1.00  0.00    -0.237 OA
ATOM     76  O   UNL A   1      36.853  30.807  44.583  1.00  0.00    -0.237 OA
ATOM     77  O   UNL A   1      36.648  32.865  45.925  1.00  0.00    -0.744 OA
ENDBRANCH  73  74
ENDBRANCH  54  68
BRANCH  55  78
ATOM     78  C   UNL A   1      44.910  39.010  34.937  1.00  0.00    -0.014 A 
ATOM     79  C   UNL A   1      44.483  40.234  34.389  1.00  0.00     0.010 A 
ATOM     80  C   UNL A   1      46.141  38.472  34.520  1.00  0.00     0.010 A 
ATOM     81  C   UNL A   1      45.262  40.895  33.434  1.00  0.00     0.020 A 
ATOM     82  C   UNL A   1      46.939  39.145  33.589  1.00  0.00     0.020 A 
ATOM     83  C   UNL A   1      46.488  40.348  33.044  1.00  0.00     0.054 A 
BRANCH  83  84
ATOM     84  S   UNL A   1      47.505  41.252  31.843  1.00  0.00     0.124 S 
ATOM     85  O   UNL A   1      46.784  41.019  30.596  1.00  0.00    -0.237 OA
ATOM     86  O   UNL A   1      47.458  42.618  32.358  1.00  0.00    -0.237 OA
ATOM     87  O   UNL A   1      48.810  40.601  31.943  1.00  0.00    -0.744 OA
ENDBRANCH  83  84
ENDBRANCH  55  78
BRANCH  67  88
ATOM     88  C   UNL A   1      44.326  39.399  41.886  1.00  0.00    -0.014 A 
ATOM     89  C   UNL A   1      45.451  38.906  42.569  1.00  0.00     0.010 A 
ATOM     90  C   UNL A   1      43.898  40.717  42.136  1.00  0.00     0.010 A 
ATOM     91  C   UNL A   1      46.114  39.703  43.507  1.00  0.00     0.020 A 
ATOM     92  C   UNL A   1      44.577  41.528  43.048  1.00  0.00     0.020 A 
ATOM     93  C   UNL A   1      45.673  41.011  43.740  1.00  0.00     0.054 A 
BRANCH  93  94
ATOM     94  S   UNL A   1      46.577  42.038  44.929  1.00  0.00     0.124 S 
ATOM     95  O   UNL A   1      46.433  41.272  46.164  1.00  0.00    -0.237 OA
ATOM     96  O   UNL A   1      47.924  42.072  44.364  1.00  0.00    -0.237 OA
ATOM     97  O   UNL A   1      45.864  43.313  44.901  1.00  0.00    -0.744 OA
ENDBRANCH  93  94
ENDBRANCH  67  88
ENDBRANCH  41  42
ENDBRANCH  34  36
ENDBRANCH  33  34
ENDBRANCH  32  33
ENDBRANCH  31  32
ENDBRANCH  30  31
ENDBRANCH  29  30
ENDBRANCH   1  29
TORSDOF 25
ENDMDL
